drugbank_target|Q9BY49 Peroxisomal trans-2-enoyl-CoA reductase (DB00173)
 OpenBabel12092120243D

  0  0  0     0  0            999 V3000
M  V30 BEGIN CTAB
M  V30 COUNTS 4608 4657 0 0 0
M  V30 BEGIN ATOM
M  V30 1 H -0.908 1.98254 -0.117106 0
M  V30 2 N 0 1.576 0 0
M  V30 3 C 0.933 2.03868 1.02534 0
M  V30 4 C 1.911 0.928543 1.3348 0
M  V30 5 O 3.095 1.19667 1.45644 0
M  V30 6 C 0.222 2.43627 2.35294 0
M  V30 7 C -0.732 3.65373 2.2001 0
M  V30 8 S 0.101 5.13292 1.52614 0
M  V30 9 C 1.257 5.56322 2.86805 0
M  V30 10 H 1.49 2.90518 0.631377 0
M  V30 11 H -0.977 1.52953 0.210867 0
M  V30 12 H 0.981 2.67203 3.11629 0
M  V30 13 H -0.358 1.57376 2.7183 0
M  V30 14 H -1.165 3.90944 3.18086 0
M  V30 15 H -1.563 3.418 1.51819 0
M  V30 16 H 0.729 5.58782 3.83104 0
M  V30 17 H 1.672 6.56266 2.65933 0
M  V30 18 H 2.08 4.83886 2.90714 0
M  V30 19 N 1.4781 -0.272755 1.55222 0
M  V30 20 C 2.4411 -1.32041 1.87344 0
M  V30 21 C 3.4411 -1.42342 0.74803 0
M  V30 22 O 4.6311 -1.41488 1.0162 0
M  V30 23 C 1.7631 -2.70173 2.07893 0
M  V30 24 H 2.9561 -1.04789 2.80997 0
M  V30 25 H 0.5091 -0.51083 1.47717 0
M  V30 26 H 1.2441 -3.02605 1.16622 0
M  V30 27 H 1.0291 -2.64082 2.89833 0
M  V30 28 H 2.5191 -3.45869 2.34017 0
M  V30 29 N 2.9562 -1.48159 -0.537278 0
M  V30 30 C 4.1812 -1.59707 -1.32319 0
M  V30 31 C 4.6062 -0.254859 -1.86365 0
M  V30 32 O 3.9642 0.772378 -1.64024 0
M  V30 33 C 4.0122 -2.6412 -2.45505 0
M  V30 34 O 3.1162 -2.20774 -3.48328 0
M  V30 35 H 2.4572 -0.535791 -0.392204 0
M  V30 36 H 4.9872 -1.94092 -0.647268 0
M  V30 37 H 4.9972 -2.85166 -2.91795 0
M  V30 38 H 3.6722 -3.61567 -2.05528 0
M  V30 39 H 2.2492 -2.09911 -3.08207 0
M  V30 40 N 4.4343 0.785586 -1.36625 0
M  V30 41 C 5.6803 1.5452 -1.32269 0
M  V30 42 C 6.0353 1.92159 0.0962266 0
M  V30 43 O 5.3283 1.60158 1.05167 0
M  V30 44 C 5.5223 2.83007 -2.1827 0
M  V30 45 C 5.3513 2.57925 -3.68382 0
M  V30 46 C 4.1213 2.52752 -4.37544 0
M  V30 47 C 6.3193 2.26861 -4.61561 0
M  V30 48 N 4.3013 2.19608 -5.73276 0
M  V30 49 C 5.6723 2.03738 -5.85569 0
M  V30 50 C 7.7273 2.129 -4.50087 0
M  V30 51 C 6.4303 1.68065 -6.9939 0
M  V30 52 C 8.4563 1.78626 -5.63779 0
M  V30 53 C 7.8183 1.56353 -6.86828 0
M  V30 54 H 3.9173 0.566301 -0.539283 0
M  V30 55 H 6.5013 0.917736 -1.71714 0
M  V30 56 H 4.6723 3.43614 -1.81063 0
M  V30 57 H 6.4043 3.48775 -2.05275 0
M  V30 58 H 3.1593 2.6813 -3.90389 0
M  V30 59 H 3.5833 2.05771 -6.44971 0
M  V30 60 H 8.2253 2.28808 -3.55537 0
M  V30 61 H 5.9433 1.50895 -7.93887 0
M  V30 62 H 9.5293 1.68502 -5.56865 0
M  V30 63 H 8.4093 1.30223 -7.73312 0
M  V30 64 N 5.9124 1.20967 1.01018 0
M  V30 65 C 6.8754 0.965918 2.07853 0
M  V30 66 C 7.8754 -0.0610545 1.60684 0
M  V30 67 O 9.0654 0.175681 1.73312 0
M  V30 68 C 6.1974 0.455513 3.37843 0
M  V30 69 H 7.3904 1.91365 2.3091 0
M  V30 70 H 4.9434 1.02594 1.17916 0
M  V30 71 H 5.6784 -0.497381 3.20463 0
M  V30 72 H 5.4634 1.19622 3.73407 0
M  V30 73 H 6.9534 0.304667 4.16487 0
M  V30 74 N 7.3905 -1.2043 1.01659 0
M  V30 75 C 8.3375 -2.23215 0.586822 0
M  V30 76 C 9.3075 -1.61382 -0.393085 0
M  V30 77 O 10.4925 -1.88544 -0.292525 0
M  V30 78 C 7.6325 -3.45032 -0.0687464 0
M  V30 79 C 6.7455 -4.21296 0.955724 0
M  V30 80 C 5.8805 -5.30507 0.271208 0
M  V30 81 C 4.9195 -5.98515 1.28244 0
M  V30 82 N 4.0565 -6.99316 0.62459 0
M  V30 83 H 8.8965 -2.59336 1.46796 0
M  V30 84 H 6.4335 -1.27431 0.734836 0
M  V30 85 H 8.3915 -4.1459 -0.465965 0
M  V30 86 H 7.0215 -3.09604 -0.913529 0
M  V30 87 H 6.0735 -3.50803 1.4711 0
M  V30 88 H 7.3855 -4.6803 1.72479 0
M  V30 89 H 6.5395 -6.06428 -0.18151 0
M  V30 90 H 5.2785 -4.8481 -0.530163 0
M  V30 91 H 4.2835 -5.21355 1.74554 0
M  V30 92 H 5.5085 -6.46298 2.08509 0
M  V30 93 H 3.4545 -6.55812 -0.156914 0
M  V30 94 H 3.3715 -7.44178 1.33172 0
M  V30 95 H 4.6395 -7.79255 0.195462 0
M  V30 96 N 8.8686 -0.792821 -1.36206 0
M  V30 97 C 10.1166 -0.366062 -1.98757 0
M  V30 98 C 10.4376 1.0668 -1.63231 0
M  V30 99 O 9.7076 1.73587 -0.907978 0
M  V30 100 H 8.2876 -0.132364 -0.735179 0
M  V30 101 H 10.9496 -1.01562 -1.66347 0
M  V30 102 H 10.0456 -0.460638 -3.08682 0
M  V30 103 N 10.3467 1.47872 -0.545128 0
M  V30 104 C 11.7627 1.5829 -0.204032 0
M  V30 105 C 11.9627 1.54529 1.29317 0
M  V30 106 O 11.0187 1.44232 2.07252 0
M  V30 107 C 12.3317 2.89304 -0.819987 0
M  V30 108 C 13.8797 3.02864 -0.790105 0
M  V30 109 C 14.3547 4.3656 -1.38491 0
M  V30 110 N 15.8457 4.43165 -1.34755 0
M  V30 111 C 16.5807 5.45153 -1.77753 0
M  V30 112 N 16.0767 6.54016 -2.2855 0
M  V30 113 N 17.8697 5.36125 -1.68897 0
M  V30 114 H 10.0207 1.4856 -1.51802 0
M  V30 115 H 12.2837 0.706305 -0.632327 0
M  V30 116 H 11.9897 2.97757 -1.87173 0
M  V30 117 H 11.8637 3.75957 -0.305915 0
M  V30 118 H 14.2507 2.94014 0.252913 0
M  V30 119 H 14.3317 2.17782 -1.34181 0
M  V30 120 H 13.9757 4.46164 -2.42693 0
M  V30 121 H 13.9057 5.20353 -0.808754 0
M  V30 122 H 16.3967 3.65083 -0.975855 0
M  V30 123 H 16.7097 7.27994 -2.59314 0
M  V30 124 H 15.0547 6.54938 -2.32553 0
M  V30 125 H 18.2457 4.49975 -1.28998 0
M  V30 126 H 18.4187 6.15472 -2.02726 0
M  V30 127 N 11.8248 0.280983 1.55075 0
M  V30 128 C 13.0498 -0.340154 2.04592 0
M  V30 129 C 13.4748 -1.48246 1.15779 0
M  V30 130 O 12.8328 -1.80614 0.15761 0
M  V30 131 C 12.8808 -0.793104 3.5177 0
M  V30 132 O 11.9848 -1.89981 3.66034 0
M  V30 133 H 11.3258 -0.0694289 0.66036 0
M  V30 134 H 13.8558 0.416993 2.00306 0
M  V30 135 H 13.8658 -1.08729 3.93245 0
M  V30 136 H 12.5408 0.0426163 4.15878 0
M  V30 137 H 11.1178 -1.60771 3.36463 0
M  V30 138 N 13.3029 -1.57598 0.00835791 0
M  V30 139 C 14.5329 -1.94931 -0.684496 0
M  V30 140 C 14.9409 -0.882233 -1.67372 0
M  V30 141 O 14.2839 0.146621 -1.83114 0
M  V30 142 C 14.3459 -3.283 -1.4649 0
M  V30 143 C 14.0099 -4.52548 -0.63634 0
M  V30 144 C 15.0069 -5.19839 0.0795586 0
M  V30 145 C 12.6919 -4.98942 -0.579849 0
M  V30 146 C 14.6859 -6.3183 0.840843 0
M  V30 147 C 12.3729 -6.10819 0.185155 0
M  V30 148 C 13.3709 -6.77121 0.894227 0
M  V30 149 O 13.0589 -7.86853 1.64673 0
M  V30 150 H 12.7909 -0.647249 -0.19505 0
M  V30 151 H 15.3449 -2.05318 0.0581272 0
M  V30 152 H 13.5749 -3.14345 -2.2522 0
M  V30 153 H 15.2639 -3.50685 -2.04389 0
M  V30 154 H 16.0299 -4.84979 0.0451202 0
M  V30 155 H 11.9089 -4.47155 -1.1213 0
M  V30 156 H 15.4529 -6.83513 1.39483 0
M  V30 157 H 11.3499 -6.4512 0.221384 0
M  V30 158 H 12.1179 -8.03412 1.56432 0
M  V30 159 N 14.781 0.264519 -1.55364 0
M  V30 160 C 15.711 1.33121 -1.91836 0
M  V30 161 C 16.692 1.51101 -0.781192 0
M  V30 162 O 17.877 1.64003 -1.04003 0
M  V30 163 C 15.007 2.68921 -2.19769 0
M  V30 164 C 13.961 2.65661 -3.35571 0
M  V30 165 C 13.287 4.05093 -3.49004 0
M  V30 166 C 14.587 2.24187 -4.71739 0
M  V30 167 H 16.281 1.02844 -2.81182 0
M  V30 168 H 13.827 0.493286 -1.35287 0
M  V30 169 H 15.78 3.43663 -2.43872 0
M  V30 170 H 14.504 3.00799 -1.27231 0
M  V30 171 H 13.163 1.93377 -3.1145 0
M  V30 172 H 12.811 4.34206 -2.53917 0
M  V30 173 H 12.511 4.03804 -4.26868 0
M  V30 174 H 14.035 4.81561 -3.75408 0
M  V30 175 H 15.449 2.88654 -4.9533 0
M  V30 176 H 13.846 2.34044 -5.52579 0
M  V30 177 H 14.916 1.19327 -4.69988 0
M  V30 178 N 16.2591 1.48442 0.529413 0
M  V30 179 C 17.2221 1.62524 1.61612 0
M  V30 180 C 18.2221 0.498509 1.52877 0
M  V30 181 O 19.4121 0.76431 1.56537 0
M  V30 182 C 16.5441 1.59597 3.01233 0
M  V30 183 H 17.7371 2.59423 1.50465 0
M  V30 184 H 15.2901 1.37047 0.751514 0
M  V30 185 H 16.0251 0.641781 3.17886 0
M  V30 186 H 15.8101 2.41397 3.08982 0
M  V30 187 H 17.3001 1.72646 3.80241 0
M  V30 188 N 17.7372 -0.778329 1.37039 0
M  V30 189 C 19.1482 -1.35421 1.28523 0
M  V30 190 C 19.4992 -1.96075 -0.0700901 0
M  V30 191 O 18.6242 -1.93352 -0.971801 0
M  V30 192 C 19.2192 -2.46211 2.32735 0
M  V30 193 C 17.7782 -2.99585 2.27873 0
M  V30 194 C 16.9252 -1.72748 2.16918 0
M  V30 195 H 19.8762 -0.5791 1.47757 0
M  V30 196 H 19.8972 -3.2552 1.9702 0
M  V30 197 H 19.4092 -2.02036 3.31365 0
M  V30 198 H 17.5102 -3.48152 1.32745 0
M  V30 199 H 17.6232 -3.55646 3.21018 0
M  V30 200 H 15.9872 -1.95416 1.63354 0
M  V30 201 H 16.7702 -1.30686 3.17452 0
M  V30 202 N 19.2153 -1.21501 -1.00376 0
M  V30 203 C 20.4633 -1.03095 -1.73827 0
M  V30 204 C 20.7843 0.436341 -1.90055 0
M  V30 205 O 20.0543 1.31466 -1.45236 0
M  V30 206 H 18.6343 -0.378487 -0.644016 0
M  V30 207 H 21.2963 -1.52831 -1.20949 0
M  V30 208 H 20.3923 -1.49991 -2.73695 0
M  V30 209 N 20.6934 1.19889 -1.02296 0
M  V30 210 C 21.6234 2.25141 -0.619174 0
M  V30 211 C 22.6044 1.66051 0.368915 0
M  V30 212 O 23.7894 1.92546 0.252941 0
M  V30 213 C 20.9194 3.4728 0.0368783 0
M  V30 214 C 19.8734 4.19005 -0.872865 0
M  V30 215 C 19.1994 5.34637 -0.0822402 0
M  V30 216 C 20.4994 4.74452 -2.18387 0
M  V30 217 H 22.1934 2.59171 -1.49903 0
M  V30 218 H 19.7394 1.24579 -0.722222 0
M  V30 219 H 21.6924 4.20098 0.330958 0
M  V30 220 H 20.4164 3.12433 0.95149 0
M  V30 221 H 19.0754 3.48061 -1.15105 0
M  V30 222 H 18.7234 4.96034 0.83422 0
M  V30 223 H 18.4234 5.83557 -0.688149 0
M  V30 224 H 19.9474 6.10255 0.205238 0
M  V30 225 H 21.3614 5.39055 -1.95172 0
M  V30 226 H 19.7584 5.33834 -2.74119 0
M  V30 227 H 20.8284 3.92844 -2.84257 0
M  V30 228 N 22.1715 0.800033 1.35784 0
M  V30 229 C 23.1015 0.220184 2.3246 0
M  V30 230 C 24.0825 -0.65073 1.57161 0
M  V30 231 O 25.2675 -0.582359 1.85263 0
M  V30 232 C 22.3975 -0.637353 3.41402 0
M  V30 233 C 21.3515 0.134531 4.27789 0
M  V30 234 C 20.6775 -0.844285 5.27992 0
M  V30 235 C 21.9775 1.32979 5.05088 0
M  V30 236 H 23.6715 1.02787 2.81203 0
M  V30 237 H 21.2175 0.495717 1.35199 0
M  V30 238 H 23.1705 -1.05302 4.08031 0
M  V30 239 H 21.8945 -1.47785 2.91251 0
M  V30 240 H 20.5535 0.531296 3.6273 0
M  V30 241 H 20.2015 -1.68011 4.74111 0
M  V30 242 H 19.9015 -0.332184 5.8666 0
M  V30 243 H 21.4255 -1.2583 5.97494 0
M  V30 244 H 22.8395 0.98934 5.64699 0
M  V30 245 H 21.2365 1.77593 5.7322 0
M  V30 246 H 22.3065 2.11978 4.36111 0
M  V30 247 N 23.6496 -1.47581 0.552962 0
M  V30 248 C 24.5816 -2.27997 -0.234533 0
M  V30 249 C 25.5946 -1.36753 -0.883321 0
M  V30 250 O 26.7836 -1.61612 -0.757889 0
M  V30 251 C 23.8836 -3.10879 -1.34935 0
M  V30 252 C 23.0566 -4.30056 -0.798158 0
M  V30 253 C 22.1156 -4.94567 -1.79694 0
M  V30 254 O 21.1416 -5.53087 -1.34474 0
M  V30 255 N 22.3436 -4.88878 -3.13015 0
M  V30 256 H 25.1086 -2.96222 0.455255 0
M  V30 257 H 22.6696 -1.57163 0.388761 0
M  V30 258 H 24.6616 -3.50903 -2.01616 0
M  V30 259 H 23.2316 -2.44924 -1.94244 0
M  V30 260 H 22.4516 -3.94174 0.0453079 0
M  V30 261 H 23.7396 -5.07152 -0.409173 0
M  V30 262 H 23.1376 -4.42526 -3.52402 0
M  V30 263 H 21.6946 -5.32934 -3.75266 0
M  V30 264 N 25.1277 -0.289203 -1.54924 0
M  V30 265 C 26.3757 0.322879 -1.99504 0
M  V30 266 C 26.6967 1.55313 -1.1791 0
M  V30 267 O 25.9667 1.94001 -0.272097 0
M  V30 268 H 24.5467 0.122291 -0.736922 0
M  V30 269 H 27.2087 -0.397802 -1.90797 0
M  V30 270 H 26.3047 0.603061 -3.06218 0
M  V30 271 N 26.6058 1.57591 -0.0167156 0
M  V30 272 C 27.5378 2.06343 0.997753 0
M  V30 273 C 28.5508 0.984469 1.29661 0
M  V30 274 O 29.7398 1.26093 1.26344 0
M  V30 275 C 26.8398 2.46255 2.32834 0
M  V30 276 C 26.0128 3.77083 2.21646 0
M  V30 277 C 25.0718 4.0368 3.37534 0
M  V30 278 O 24.0978 4.7411 3.14973 0
M  V30 279 N 25.2998 3.52881 4.60929 0
M  V30 280 H 28.0648 2.93997 0.581875 0
M  V30 281 H 25.6258 1.61002 0.170316 0
M  V30 282 H 27.6178 2.61149 3.09166 0
M  V30 283 H 26.1878 1.64032 2.66106 0
M  V30 284 H 25.4078 3.72106 1.30119 0
M  V30 285 H 26.6958 4.62822 2.11361 0
M  V30 286 H 26.0938 2.95878 4.82154 0
M  V30 287 H 24.6508 3.73076 5.34469 0
M  V30 288 N 28.0839 -0.256276 1.55502 0
M  V30 289 C 29.3299 -0.987079 1.77157 0
M  V30 290 C 29.6629 -1.85327 0.580315 0
M  V30 291 O 28.9379 -1.89874 -0.421686 0
M  V30 292 C 29.2209 -1.85553 3.08613 0
M  V30 293 C 29.0739 -1.01816 4.38125 0
M  V30 294 C 30.3929 -2.8397 3.36228 0
M  V30 295 H 27.5119 -0.357428 0.644526 0
M  V30 296 H 30.1539 -0.258239 1.88237 0
M  V30 297 H 28.3039 -2.47695 2.99298 0
M  V30 298 H 29.9759 -0.416159 4.59419 0
M  V30 299 H 28.2189 -0.322178 4.32602 0
M  V30 300 H 28.8899 -1.65939 5.26468 0
M  V30 301 H 31.3659 -2.31964 3.45445 0
M  V30 302 H 30.2419 -3.41864 4.29442 0
M  V30 303 H 30.5029 -3.59955 2.56681 0
M  V30 304 N 29.562 -1.4872 -0.521534 0
M  V30 305 C 30.525 -1.63379 -1.60748 0
M  V30 306 C 31.525 -0.50661 -1.52611 0
M  V30 307 O 32.715 -0.772601 -1.5613 0
M  V30 308 C 29.847 -1.61192 -3.00383 0
M  V30 309 H 31.04 -2.60217 -1.49087 0
M  V30 310 H 28.593 -1.37444 -0.744235 0
M  V30 311 H 29.328 -0.65863 -3.17541 0
M  V30 312 H 29.113 -2.43032 -3.07698 0
M  V30 313 H 30.603 -1.7466 -3.7932 0
M  V30 314 N 31.0401 0.771051 -1.3745 0
M  V30 315 C 32.2891 1.52491 -1.3202 0
M  V30 316 C 32.6021 1.9538 0.0927347 0
M  V30 317 O 33.8081 2.70159 0.269503 0
M  V30 318 C 32.2641 2.75366 -2.31736 0
M  V30 319 C 31.8721 2.39573 -3.78562 0
M  V30 320 C 33.6161 3.53307 -2.35318 0
M  V30 321 C 31.5231 3.58954 -4.70007 0
M  V30 322 H 30.4531 0.572506 -0.490666 0
M  V30 323 H 33.1041 0.844474 -1.62914 0
M  V30 324 H 31.4861 3.45303 -1.93861 0
M  V30 325 H 32.6601 1.77415 -4.25277 0
M  V30 326 H 30.9751 1.74805 -3.77932 0
M  V30 327 H 33.5721 4.42039 -3.00842 0
M  V30 328 H 33.9151 3.93217 -1.36698 0
M  V30 329 H 34.4481 2.90367 -2.71904 0
M  V30 330 H 31.1871 3.24125 -5.69757 0
M  V30 331 H 30.7071 4.20214 -4.27996 0
M  V30 332 H 32.3861 4.25758 -4.87175 0
M  V30 333 N 32.5182 1.22032 0.997298 0
M  V30 334 C 33.7642 1.04376 1.73878 0
M  V30 335 C 34.0972 -0.420716 1.89588 0
M  V30 336 O 33.3722 -1.31202 1.43583 0
M  V30 337 C 33.6552 1.75047 3.14691 0
M  V30 338 C 33.5082 3.29062 3.06656 0
M  V30 339 C 34.8272 1.49928 4.13775 0
M  V30 340 H 31.9462 0.380578 0.631133 0
M  V30 341 H 34.5882 1.50312 1.16217 0
M  V30 342 H 32.7382 1.35996 3.63919 0
M  V30 343 H 34.4102 3.7753 2.65083 0
M  V30 344 H 32.6532 3.58967 2.43568 0
M  V30 345 H 33.3242 3.73683 4.06282 0
M  V30 346 H 35.8002 1.83842 3.73285 0
M  V30 347 H 34.6762 2.01878 5.10428 0
M  V30 348 H 34.9372 0.430929 4.39995 0
M  V30 349 N 33.9963 -1.19345 1.0293 0
M  V30 350 C 35.2243 -1.92997 0.745644 0
M  V30 351 C 35.6393 -1.75519 -0.695589 0
M  V30 352 O 34.9963 -1.07737 -1.47306 0
M  V30 353 C 35.0473 -3.44741 1.08792 0
M  V30 354 O 34.7683 -3.61658 2.47256 0
M  V30 355 C 36.2693 -4.35515 0.827129 0
M  V30 356 H 33.4893 -0.613042 0.272801 0
M  V30 357 H 36.0333 -1.51473 1.3739 0
M  V30 358 H 34.1883 -3.84097 0.504832 0
M  V30 359 H 34.6023 -4.55514 2.60015 0
M  V30 360 H 36.0763 -5.40589 1.11658 0
M  V30 361 H 36.5533 -4.38552 -0.238436 0
M  V30 362 H 37.1593 -4.01841 1.39297 0
M  V30 363 N 35.4744 -0.807222 -1.35358 0
M  V30 364 C 36.7224 -0.387122 -1.98358 0
M  V30 365 C 37.0434 1.04942 -1.64354 0
M  V30 366 O 36.3134 1.72615 -0.926339 0
M  V30 367 H 34.8934 -0.140154 -0.733734 0
M  V30 368 H 37.5554 -1.0332 -1.6526 0
M  V30 369 H 36.6514 -0.493352 -3.08176 0
M  V30 370 N 36.9525 1.47285 -0.560781 0
M  V30 371 C 38.2005 2.02064 -0.0379868 0
M  V30 372 C 38.5215 1.43711 1.31803 0
M  V30 373 O 37.7915 0.61362 1.86042 0
M  V30 374 H 36.3715 0.746918 -0.0110531 0
M  V30 375 H 39.0335 1.80648 -0.731598 0
M  V30 376 H 38.1295 3.12064 0.0474463 0
M  V30 377 N 38.4306 0.297415 1.54768 0
M  V30 378 C 39.3936 -0.567375 2.22066 0
M  V30 379 C 40.3936 -1.06409 1.20556 0
M  V30 380 O 41.5836 -0.960691 1.45315 0
M  V30 381 C 38.7156 -1.78517 2.90421 0
M  V30 382 H 39.9086 0.0205534 2.99893 0
M  V30 383 H 37.4616 0.0482163 1.56226 0
M  V30 384 H 38.1966 -2.41303 2.16664 0
M  V30 385 H 37.9816 -1.43669 3.64831 0
M  V30 386 H 39.4716 -2.39964 3.41771 0
M  V30 387 N 39.9087 -1.5758 0.0250728 0
M  V30 388 C 41.1367 -1.9593 -0.664747 0
M  V30 389 C 41.5517 -0.901352 -1.65895 0
M  V30 390 O 40.9087 0.117255 -1.82123 0
M  V30 391 C 40.9597 -3.34342 -1.37468 0
M  V30 392 O 40.6807 -4.36079 -0.420324 0
M  V30 393 C 42.1817 -3.873 -2.1567 0
M  V30 394 H 39.4017 -0.645405 -0.183557 0
M  V30 395 H 41.9457 -2.04329 0.0836372 0
M  V30 396 H 40.1007 -3.27175 -2.0745 0
M  V30 397 H 40.5147 -5.16297 -0.923991 0
M  V30 398 H 41.9887 -4.86504 -2.60803 0
M  V30 399 H 42.4657 -3.21331 -2.99405 0
M  V30 400 H 43.0717 -3.97723 -1.50654 0
M  V30 401 N 41.3868 0.248026 -1.55636 0
M  V30 402 C 42.6348 0.974295 -1.77065 0
M  V30 403 C 42.9558 1.85897 -0.588849 0
M  V30 404 O 42.2258 1.91868 0.395407 0
M  V30 405 H 40.8058 0.362733 -0.653019 0
M  V30 406 H 43.4678 0.266244 -1.93073 0
M  V30 407 H 42.5638 1.59667 -2.68166 0
M  V30 408 N 42.8649 1.48995 0.513639 0
M  V30 409 C 44.1139 1.57093 1.2651 0
M  V30 410 C 44.4269 0.257091 1.93903 0
M  V30 411 O 45.6329 0.216478 2.70636 0
M  V30 412 C 44.0889 2.77118 2.29638 0
M  V30 413 C 43.6969 4.15209 1.68241 0
M  V30 414 C 45.4409 2.94538 3.05692 0
M  V30 415 C 43.3479 5.26474 2.69406 0
M  V30 416 H 42.2779 0.584876 0.475854 0
M  V30 417 H 44.9289 1.7536 0.540487 0
M  V30 418 H 43.3109 2.52319 3.05207 0
M  V30 419 H 44.4849 4.50094 0.987505 0
M  V30 420 H 42.7999 4.03042 1.04623 0
M  V30 421 H 45.3969 3.74832 3.8132 0
M  V30 422 H 45.7399 2.04614 3.62545 0
M  V30 423 H 46.2729 3.19316 2.37238 0
M  V30 424 H 43.0119 6.18417 2.17351 0
M  V30 425 H 42.5319 4.96058 3.37175 0
M  V30 426 H 44.2109 5.55277 3.32078 0
M  V30 427 N 44.343 -0.763751 1.37857 0
M  V30 428 C 45.591 -1.51957 1.33243 0
M  V30 429 C 45.912 -1.94835 -0.0801709 0
M  V30 430 O 45.182 -1.66894 -1.02582 0
M  V30 431 H 43.762 -0.563626 0.49024 0
M  V30 432 H 46.424 -0.908504 1.7243 0
M  V30 433 H 45.52 -2.41523 1.97669 0
M  V30 434 N 45.8211 -1.22559 -0.990812 0
M  V30 435 C 46.7681 -0.997519 -2.0813 0
M  V30 436 C 47.7381 0.0814702 -1.659 0
M  V30 437 O 48.9231 -0.0685424 -1.90677 0
M  V30 438 C 46.0631 -0.583615 -3.40129 0
M  V30 439 C 45.1761 -1.7336 -3.9569 0
M  V30 440 C 44.3111 -1.26748 -5.15857 0
M  V30 441 C 43.3501 -2.38888 -5.63559 0
M  V30 442 N 42.4871 -1.93308 -6.74964 0
M  V30 443 H 47.3271 -1.93099 -2.26973 0
M  V30 444 H 44.8641 -0.962114 -1.11273 0
M  V30 445 H 46.8221 -0.324801 -4.15934 0
M  V30 446 H 45.4521 0.312845 -3.2128 0
M  V30 447 H 44.5041 -2.10669 -3.16738 0
M  V30 448 H 45.8161 -2.57704 -4.27071 0
M  V30 449 H 44.9701 -0.966173 -5.98957 0
M  V30 450 H 43.7091 -0.394272 -4.86104 0
M  V30 451 H 42.7141 -2.69805 -4.79046 0
M  V30 452 H 43.9391 -3.26728 -5.95336 0
M  V30 453 H 41.8851 -1.08352 -6.4699 0
M  V30 454 H 41.8021 -2.71217 -7.05675 0
M  V30 455 H 43.0701 -1.66252 -7.61564 0
M  V30 456 N 47.2992 1.18797 -1.03562 0
M  V30 457 C 48.2622 2.20464 -0.626769 0
M  V30 458 C 49.2622 1.57721 0.313173 0
M  V30 459 O 50.4522 1.73917 0.0992615 0
M  V30 460 C 47.5842 3.40802 0.0818498 0
M  V30 461 H 48.7772 2.58149 -1.5264 0
M  V30 462 H 46.3302 1.32593 -0.827578 0
M  V30 463 H 47.0652 3.08642 0.995518 0
M  V30 464 H 46.8502 3.8758 -0.593652 0
M  V30 465 H 48.3402 4.16092 0.354584 0
M  V30 466 N 48.7773 0.814389 1.34928 0
M  V30 467 C 50.0263 0.394871 1.97797 0
M  V30 468 C 50.3393 -1.04555 1.65311 0
M  V30 469 O 51.5453 -1.56856 2.21604 0
M  V30 470 C 50.0013 0.655103 3.53888 0
M  V30 471 C 49.6093 2.10858 3.95276 0
M  V30 472 C 51.3533 0.301329 4.23429 0
M  V30 473 C 49.2603 2.31415 5.44244 0
M  V30 474 H 48.1903 0.143913 0.740139 0
M  V30 475 H 50.8413 0.999544 1.53888 0
M  V30 476 H 49.2233 -0.0196253 3.95995 0
M  V30 477 H 50.3973 2.82176 3.64298 0
M  V30 478 H 48.7123 2.42297 3.38646 0
M  V30 479 H 51.3093 0.432869 5.32945 0
M  V30 480 H 51.6523 -0.75331 4.09428 0
M  V30 481 H 52.1853 0.930288 3.86769 0
M  V30 482 H 48.9243 3.35353 5.63222 0
M  V30 483 H 48.4443 1.6463 5.76764 0
M  V30 484 H 50.1233 2.13352 6.10811 0
M  V30 485 N 50.2554 -1.46986 0.568584 0
M  V30 486 C 51.5014 -2.02741 0.0488709 0
M  V30 487 C 51.8344 -1.44077 -1.30214 0
M  V30 488 O 51.1094 -0.600552 -1.84996 0
M  V30 489 C 51.3924 -3.60086 -0.032047 0
M  V30 490 C 51.2454 -4.29162 1.34686 0
M  V30 491 C 52.5644 -4.33838 -0.739798 0
M  V30 492 H 49.6834 -0.736749 0.0192338 0
M  V30 493 H 52.3254 -1.75289 0.733065 0
M  V30 494 H 50.4754 -3.83606 -0.61473 0
M  V30 495 H 52.1474 -4.16948 1.97362 0
M  V30 496 H 50.3904 -3.89073 1.91846 0
M  V30 497 H 51.0614 -5.37826 1.24285 0
M  V30 498 H 53.5374 -4.15378 -0.244939 0
M  V30 499 H 52.4134 -5.43537 -0.765406 0
M  V30 500 H 52.6744 -4.03875 -1.79827 0
M  V30 501 N 51.7335 -0.305618 -1.54608 0
M  V30 502 C 52.6805 0.568421 -2.23691 0
M  V30 503 C 53.6505 1.12592 -1.22116 0
M  V30 504 O 54.8355 1.16959 -1.50749 0
M  V30 505 C 51.9755 1.7322 -2.98477 0
M  V30 506 C 51.0885 1.20566 -4.14835 0
M  V30 507 C 50.2235 2.33368 -4.77193 0
M  V30 508 C 49.2625 1.7787 -5.85686 0
M  V30 509 N 48.3995 2.84263 -6.4198 0
M  V30 510 H 53.2395 -0.0272867 -2.97988 0
M  V30 511 H 50.7765 -0.0252363 -1.47078 0
M  V30 512 H 52.7345 2.41675 -3.40072 0
M  V30 513 H 51.3645 2.29947 -2.26548 0
M  V30 514 H 50.4165 0.413223 -3.78149 0
M  V30 515 H 51.7285 0.759417 -4.92985 0
M  V30 516 H 50.8825 3.09761 -5.21664 0
M  V30 517 H 49.6215 2.8132 -3.98385 0
M  V30 518 H 48.6265 0.99968 -5.40635 0
M  V30 519 H 49.8515 1.30816 -6.66381 0
M  V30 520 H 47.7975 3.31541 -5.66053 0
M  V30 521 H 47.7145 2.44149 -7.15491 0
M  V30 522 H 48.9825 3.6054 -6.91109 0
M  V30 523 N 53.2116 1.57565 -0.0334293 0
M  V30 524 C 54.1216 2.13943 0.962572 0
M  V30 525 C 55.1376 1.09276 1.35406 0
M  V30 526 O 56.3136 1.41355 1.4346 0
M  V30 527 C 53.3786 2.65887 2.22497 0
M  V30 528 C 52.4396 3.85286 1.8935 0
M  V30 529 C 51.6726 4.34743 3.09571 0
M  V30 530 O 51.8956 3.83352 4.22371 0
M  V30 531 O 50.8296 5.26538 2.91618 0
M  V30 532 H 54.6556 2.99333 0.513169 0
M  V30 533 H 52.2406 1.4822 0.18743 0
M  V30 534 H 54.1226 2.99346 2.96598 0
M  V30 535 H 52.7976 1.83578 2.6661 0
M  V30 536 H 51.7046 3.56746 1.1262 0
M  V30 537 H 53.0376 4.68771 1.5005 0
M  V30 538 N 54.6897 -0.239769 1.55765 0
M  V30 539 C 55.6197 -1.30052 1.9393 0
M  V30 540 C 56.6007 -1.49839 0.805132 0
M  V30 541 O 57.7857 -1.62328 1.06599 0
M  V30 542 C 54.9157 -2.65391 2.2402 0
M  V30 543 C 53.8697 -2.60289 3.39755 0
M  V30 544 C 53.1957 -3.99489 3.55405 0
M  V30 545 C 54.4957 -2.16654 4.75246 0
M  V30 546 H 56.1897 -0.983573 2.82783 0
M  V30 547 H 53.7357 -0.471701 1.36055 0
M  V30 548 H 55.6887 -3.3974 2.49308 0
M  V30 549 H 54.4127 -2.98736 1.32 0
M  V30 550 H 53.0717 -1.88398 3.14487 0
M  V30 551 H 52.7197 -4.30112 2.60793 0
M  V30 552 H 52.4197 -3.96962 4.33238 0
M  V30 553 H 53.9437 -4.75528 3.83022 0
M  V30 554 H 55.3577 -2.80737 4.99859 0
M  V30 555 H 53.7547 -2.25223 5.56232 0
M  V30 556 H 54.8247 -1.11835 4.71827 0
M  V30 557 N 56.1678 -1.49265 -0.50573 0
M  V30 558 C 57.0978 -1.68495 -1.61653 0
M  V30 559 C 58.0788 -0.53366 -1.61512 0
M  V30 560 O 59.2638 -0.76897 -1.78327 0
M  V30 561 C 56.3938 -1.74709 -3.00157 0
M  V30 562 C 55.3478 -2.89581 -3.15162 0
M  V30 563 C 54.6738 -2.80903 -4.5497 0
M  V30 564 C 55.9738 -4.30578 -2.95634 0
M  V30 565 H 57.6678 -2.61493 -1.45814 0
M  V30 566 H 55.2138 -1.25838 -0.70005 0
M  V30 567 H 57.1668 -1.86748 -3.77761 0
M  V30 568 H 55.8908 -0.783067 -3.17074 0
M  V30 569 H 54.5498 -2.77136 -2.39982 0
M  V30 570 H 54.1978 -1.82419 -4.68756 0
M  V30 571 H 53.8978 -3.57999 -4.65951 0
M  V30 572 H 55.4218 -2.94944 -5.34641 0
M  V30 573 H 56.8358 -4.4373 -3.63011 0
M  V30 574 H 55.2328 -5.0886 -3.18091 0
M  V30 575 H 56.3028 -4.45352 -1.91806 0
M  V30 576 N 57.6459 0.756429 -1.3826 0
M  V30 577 C 58.5559 1.9009 -1.37488 0
M  V30 578 C 59.5719 1.71855 -0.272366 0
M  V30 579 O 60.7479 1.94827 -0.510318 0
M  V30 580 C 57.8129 3.25421 -1.19592 0
M  V30 581 C 56.8739 3.56202 -2.39622 0
M  V30 582 C 56.1069 4.85075 -2.2257 0
M  V30 583 O 56.3299 5.57246 -1.21793 0
M  V30 584 O 55.2639 5.15269 -3.11098 0
M  V30 585 H 59.0899 1.93695 -2.33914 0
M  V30 586 H 56.6749 0.901313 -1.1915 0
M  V30 587 H 58.5569 4.06337 -1.11661 0
M  V30 588 H 57.2319 3.22634 -0.262486 0
M  V30 589 H 56.1389 2.75458 -2.53128 0
M  V30 590 H 57.4719 3.63747 -3.31586 0
M  V30 591 N 59.124 1.23083 0.984299 0
M  V30 592 C 60.054 1.03292 2.09411 0
M  V30 593 C 61.035 -0.048923 1.7003 0
M  V30 594 O 62.22 0.114967 1.93859 0
M  V30 595 C 59.35 0.619155 3.41736 0
M  V30 596 C 58.304 1.64791 3.95004 0
M  V30 597 C 57.63 1.0897 5.23478 0
M  V30 598 C 58.93 3.03999 4.24714 0
M  V30 599 H 60.624 1.96119 2.26225 0
M  V30 600 H 58.17 0.944344 1.08711 0
M  V30 601 H 60.123 0.467777 4.18796 0
M  V30 602 H 58.847 -0.344786 3.24775 0
M  V30 603 H 57.506 1.78721 3.20085 0
M  V30 604 H 57.154 0.11686 5.02864 0
M  V30 605 H 56.854 1.77704 5.60085 0
M  V30 606 H 58.378 0.950093 6.03163 0
M  V30 607 H 59.792 2.93393 4.92538 0
M  V30 608 H 58.189 3.69936 4.72512 0
M  V30 609 H 59.259 3.53285 3.32142 0
M  V30 610 N 60.6021 -1.18246 1.0419 0
M  V30 611 C 61.8501 -1.87886 0.744543 0
M  V30 612 C 62.1711 -1.8082 -0.730006 0
M  V30 613 O 61.4411 -1.22736 -1.52685 0
M  V30 614 H 60.0211 -0.695556 0.272417 0
M  V30 615 H 62.6831 -1.43494 1.31892 0
M  V30 616 H 61.7791 -2.9389 1.05049 0
M  V30 617 N 62.0802 -0.821533 -1.34494 0
M  V30 618 C 63.3052 -0.420873 -2.03085 0
M  V30 619 C 63.7302 0.964915 -1.61465 0
M  V30 620 O 63.0882 1.62763 -0.798607 0
M  V30 621 C 63.1362 -0.529414 -3.56693 0
M  V30 622 O 62.2402 0.451302 -4.09923 0
M  V30 623 H 61.5812 -0.173489 -0.640935 0
M  V30 624 H 64.1112 -1.11157 -1.71771 0
M  V30 625 H 64.1212 -0.404671 -4.05988 0
M  V30 626 H 62.7962 -1.54014 -3.86332 0
M  V30 627 H 61.3732 0.285558 -3.71805 0
M  V30 628 N 63.5583 1.46682 -0.576371 0
M  V30 629 C 64.5063 2.31953 0.17335 0
M  V30 630 C 65.5003 1.44098 0.89062 0
M  V30 631 O 66.7063 1.60759 0.809728 0
M  V30 632 H 63.0813 0.748273 0.0747727 0
M  V30 633 H 65.0523 2.93007 -0.564738 0
M  V30 634 C 63.8013 3.27142 1.17786 0
M  V30 635 H 63.1243 3.94719 0.635361 0
M  V30 636 H 64.5643 3.896 1.67296 0
M  V30 637 C 63.0233 2.52036 2.23561 0
M  V30 638 O 63.5533 2.27877 3.3081 0
M  V30 639 N 61.7593 2.12709 1.97998 0
M  V30 640 H 61.3063 2.32557 1.10792 0
M  V30 641 H 61.2643 1.62776 2.68982 0
M  V30 642 N 65.0364 0.313813 1.54444 0
M  V30 643 C 66.2824 -0.292108 2.00685 0
M  V30 644 C 66.6154 -1.52548 1.20177 0
M  V30 645 O 65.8904 -1.92452 0.281531 0
M  V30 646 C 66.1734 -0.635968 3.5444 0
M  V30 647 C 66.0264 0.607437 4.4568 0
M  V30 648 C 67.3454 -1.45747 4.15266 0
M  V30 649 H 64.4644 -0.104697 0.729526 0
M  V30 650 H 67.1064 0.428457 1.85106 0
M  V30 651 H 65.2564 -1.24986 3.67846 0
M  V30 652 H 66.9284 1.24581 4.44159 0
M  V30 653 H 65.1714 1.23822 4.15753 0
M  V30 654 H 65.8424 0.322515 5.51057 0
M  V30 655 H 68.3184 -0.938645 4.05375 0
M  V30 656 H 67.1944 -1.66683 5.2298 0
M  V30 657 H 67.4554 -2.45063 3.67963 0
M  V30 658 N 66.5145 -1.57545 0.0417849 0
M  V30 659 C 67.7605 -1.92601 -0.635021 0
M  V30 660 C 68.0935 -0.919627 -1.71045 0
M  V30 661 O 67.3685 0.0557892 -1.9442 0
M  V30 662 C 67.6515 -3.38085 -1.23979 0
M  V30 663 C 67.5045 -4.49467 -0.173057 0
M  V30 664 C 68.8235 -3.83776 -2.15416 0
M  V30 665 H 65.9425 -0.700397 -0.229374 0
M  V30 666 H 68.5845 -1.89728 0.101633 0
M  V30 667 H 66.7345 -3.40664 -1.86762 0
M  V30 668 H 68.4065 -4.59018 0.458312 0
M  V30 669 H 66.6495 -4.30909 0.499996 0
M  V30 670 H 67.3205 -5.48323 -0.636054 0
M  V30 671 H 69.7965 -3.83013 -1.62605 0
M  V30 672 H 68.6725 -4.8624 -2.54679 0
M  V30 673 H 68.9335 -3.19998 -3.05047 0
M  V30 674 N 67.9926 0.231505 -1.5589 0
M  V30 675 C 69.2416 0.955346 -1.7764 0
M  V30 676 C 69.5546 1.85893 -0.608546 0
M  V30 677 O 70.7606 2.62067 -0.70943 0
M  V30 678 C 69.2166 1.74886 -3.14552 0
M  V30 679 C 68.8246 0.891915 -4.39032 0
M  V30 680 C 70.5686 2.46452 -3.45633 0
M  V30 681 C 68.4756 1.68221 -5.66971 0
M  V30 682 H 67.4056 0.360446 -0.662265 0
M  V30 683 H 70.0566 0.209516 -1.823 0
M  V30 684 H 68.4386 2.53723 -3.04041 0
M  V30 685 H 69.6126 0.144793 -4.60572 0
M  V30 686 H 67.9276 0.288863 -4.15397 0
M  V30 687 H 70.5246 3.06061 -4.38441 0
M  V30 688 H 70.8676 3.18841 -2.67668 0
M  V30 689 H 71.4006 1.74613 -3.57428 0
M  V30 690 H 68.1396 1.00178 -6.478 0
M  V30 691 H 67.6596 2.4042 -5.49507 0
M  V30 692 H 69.3386 2.24544 -6.06786 0
M  V30 693 N 69.4707 1.49531 0.497807 0
M  V30 694 C 70.4337 1.65916 1.58128 0
M  V30 695 C 71.4337 0.530825 1.51786 0
M  V30 696 O 72.6237 0.797342 1.54881 0
M  V30 697 C 69.7557 1.65951 2.9778 0
M  V30 698 H 70.9487 2.62556 1.44929 0
M  V30 699 H 68.5017 1.38611 0.722275 0
M  V30 700 H 69.2367 0.709065 3.16453 0
M  V30 701 H 69.0217 2.47897 3.03792 0
M  V30 702 H 70.5117 1.80673 3.76493 0
M  V30 703 N 70.9488 -0.749086 1.3866 0
M  V30 704 C 72.1738 -1.54344 1.38538 0
M  V30 705 C 72.5988 -1.88088 -0.0216655 0
M  V30 706 O 71.9568 -1.50899 -1.00494 0
M  V30 707 C 72.0048 -2.8164 2.25192 0
M  V30 708 O 71.1088 -3.7698 1.67212 0
M  V30 709 H 70.4498 -0.466654 0.472367 0
M  V30 710 H 72.9798 -0.925355 1.82478 0
M  V30 711 H 72.9898 -3.30519 2.3921 0
M  V30 712 H 71.6648 -2.56411 3.27454 0
M  V30 713 H 70.2418 -3.35699 1.6236 0
M  V30 714 N 72.4269 -1.23603 -0.977757 0
M  V30 715 C 73.8429 -0.999251 -1.24447 0
M  V30 716 C 74.0429 0.298053 -1.99283 0
M  V30 717 O 73.0989 1.01681 -2.31122 0
M  V30 718 C 74.4119 -2.20784 -2.04144 0
M  V30 719 C 75.9599 -2.25303 -2.17273 0
M  V30 720 C 76.4349 -3.45755 -3.00362 0
M  V30 721 N 77.9259 -3.4601 -3.07947 0
M  V30 722 C 78.6609 -4.35868 -3.72568 0
M  V30 723 N 78.1569 -5.35966 -4.38991 0
M  V30 724 N 79.9499 -4.23605 -3.6948 0
M  V30 725 H 72.1009 -2.06986 -0.476483 0
M  V30 726 H 74.3639 -0.907801 -0.273134 0
M  V30 727 H 74.0699 -3.14945 -1.56533 0
M  V30 728 H 73.9439 -2.22085 -3.04891 0
M  V30 729 H 76.3309 -1.3168 -2.64092 0
M  V30 730 H 76.4119 -2.28033 -1.15907 0
M  V30 731 H 76.0559 -4.39687 -2.5424 0
M  V30 732 H 75.9859 -3.40266 -4.01904 0
M  V30 733 H 78.4769 -2.73588 -2.60688 0
M  V30 734 H 78.7899 -6.00783 -4.86086 0
M  V30 735 H 77.1349 -5.39863 -4.37691 0
M  V30 736 H 80.3259 -3.44647 -3.16759 0
M  V30 737 H 80.4989 -4.93836 -4.1956 0
M  V30 738 N 73.905 1.17692 -1.04816 0
M  V30 739 C 74.852 2.21581 -0.645797 0
M  V30 740 C 75.822 1.62367 0.350159 0
M  V30 741 O 77.007 1.89254 0.242433 0
M  V30 742 C 74.147 3.45092 -0.0227568 0
M  V30 743 C 73.26 4.18613 -1.06709 0
M  V30 744 C 72.395 5.29602 -0.411767 0
M  V30 745 C 71.434 5.94904 -1.44067 0
M  V30 746 N 70.571 6.97414 -0.809781 0
M  V30 747 H 75.411 2.55353 -1.5362 0
M  V30 748 H 72.948 1.25438 -0.768364 0
M  V30 749 H 74.906 4.15679 0.35588 0
M  V30 750 H 73.536 3.11917 0.831122 0
M  V30 751 H 72.588 3.46779 -1.5636 0
M  V30 752 H 73.9 4.63293 -1.84827 0
M  V30 753 H 73.054 6.06696 0.0206623 0
M  V30 754 H 71.793 4.86045 0.401438 0
M  V30 755 H 70.798 5.16544 -1.88316 0
M  V30 756 H 72.023 6.40542 -2.25571 0
M  V30 757 H 69.969 6.55998 -0.0170186 0
M  V30 758 H 69.886 7.40386 -1.52856 0
M  V30 759 H 71.154 7.78463 -0.401999 0
M  V30 760 N 75.3831 0.828654 1.34056 0
M  V30 761 C 76.3131 0.269443 2.3194 0
M  V30 762 C 77.2941 -0.617247 1.58506 0
M  V30 763 O 78.4791 -0.542931 1.86456 0
M  V30 764 C 75.6091 -0.564793 3.42677 0
M  V30 765 C 74.5631 0.225241 4.27407 0
M  V30 766 C 73.8891 -0.7321 5.29664 0
M  V30 767 C 75.1891 1.43663 5.02154 0
M  V30 768 H 76.8831 1.08728 2.7896 0
M  V30 769 H 74.4291 0.524283 1.34117 0
M  V30 770 H 76.3821 -0.966233 4.10173 0
M  V30 771 H 75.1061 -1.41574 2.9432 0
M  V30 772 H 73.7651 0.608117 3.61521 0
M  V30 773 H 73.4131 -1.57916 4.77568 0
M  V30 774 H 73.1131 -0.20767 5.87233 0
M  V30 775 H 74.6371 -1.13128 6.00029 0
M  V30 776 H 76.0511 1.1089 5.62473 0
M  V30 777 H 74.4481 1.89711 5.69324 0
M  V30 778 H 75.5181 2.21181 4.31517 0
M  V30 779 N 76.8612 -1.46375 0.584142 0
M  V30 780 C 77.7712 -2.34115 -0.150728 0
M  V30 781 C 78.7872 -1.49838 -0.884567 0
M  V30 782 O 79.9632 -1.82704 -0.847429 0
M  V30 783 C 77.0282 -3.2705 -1.15062 0
M  V30 784 C 76.0892 -4.27228 -0.421293 0
M  V30 785 C 75.3222 -5.15722 -1.37355 0
M  V30 786 O 75.5452 -5.07176 -2.61014 0
M  V30 787 O 74.4792 -5.95383 -0.883355 0
M  V30 788 H 78.3052 -2.98309 0.569708 0
M  V30 789 H 75.8902 -1.45373 0.344535 0
M  V30 790 H 77.7722 -3.84381 -1.72712 0
M  V30 791 H 76.4472 -2.65451 -1.8525 0
M  V30 792 H 75.3542 -3.7358 0.197085 0
M  V30 793 H 76.6872 -4.91616 0.239641 0
M  V30 794 N 78.3393 -0.321999 -1.54275 0
M  V30 795 C 79.7553 0.0306999 -1.5957 0
M  V30 796 C 79.9553 1.50614 -1.33857 0
M  V30 797 O 79.0113 2.2619 -1.12223 0
M  V30 798 C 80.3243 -0.386122 -2.98211 0
M  V30 799 C 81.8723 -0.336647 -3.11184 0
M  V30 800 C 82.3473 -0.728607 -4.52167 0
M  V30 801 N 83.8383 -0.681952 -4.58152 0
M  V30 802 C 84.5733 -0.957449 -5.6535 0
M  V30 803 N 84.0693 -1.3 -6.80494 0
M  V30 804 N 85.8623 -0.883113 -5.55119 0
M  V30 805 H 78.0133 -1.28332 -1.69247 0
M  V30 806 H 80.2763 -0.521716 -0.791528 0
M  V30 807 H 79.9823 -1.41404 -3.22022 0
M  V30 808 H 79.8563 0.249662 -3.76373 0
M  V30 809 H 82.2433 0.682058 -2.8711 0
M  V30 810 H 82.3243 -1.00734 -2.3513 0
M  V30 811 H 81.9683 -1.74522 -4.76974 0
M  V30 812 H 81.8983 -0.0356152 -5.26588 0
M  V30 813 H 84.3893 -0.428985 -3.75457 0
M  V30 814 H 84.7023 -1.49563 -7.58189 0
M  V30 815 H 83.0473 -1.33824 -6.81994 0
M  V30 816 H 86.2383 -0.615001 -4.64042 0
M  V30 817 H 86.4113 -1.10118 -6.38575 0
M  V30 818 N 79.8174 1.5752 -0.0501392 0
M  V30 819 C 80.7474 2.14502 0.922566 0
M  V30 820 C 81.7284 1.06642 1.3252 0
M  V30 821 O 82.9134 1.34577 1.4001 0
M  V30 822 C 80.0434 2.68916 2.19776 0
M  V30 823 C 78.9974 3.8175 1.93523 0
M  V30 824 C 78.3234 4.22677 3.27487 0
M  V30 825 C 79.6234 5.06932 1.25765 0
M  V30 826 H 81.3174 2.9603 0.447952 0
M  V30 827 H 78.8634 1.42401 0.214024 0
M  V30 828 H 80.8164 3.07419 2.88222 0
M  V30 829 H 79.5404 1.84578 2.69441 0
M  V30 830 H 78.1994 3.43718 1.27489 0
M  V30 831 H 77.8474 3.35291 3.74952 0
M  V30 832 H 77.5474 4.98725 3.1072 0
M  V30 833 H 79.0714 4.63779 3.97166 0
M  V30 834 H 80.4854 5.42888 1.84244 0
M  V30 835 H 78.8824 5.88116 1.19328 0
M  V30 836 H 79.9524 4.84337 0.233536 0
M  V30 837 N 81.2955 -0.223234 1.56011 0
M  V30 838 C 82.2425 -1.27664 1.92277 0
M  V30 839 C 83.2125 -1.46659 0.779763 0
M  V30 840 O 84.3975 -1.60256 1.03551 0
M  V30 841 C 81.5375 -2.62234 2.24338 0
M  V30 842 C 80.6505 -2.51051 3.51564 0
M  V30 843 C 79.7855 -3.78133 3.7308 0
M  V30 844 C 78.8245 -3.61665 4.93827 0
M  V30 845 N 77.9615 -4.80693 5.11741 0
M  V30 846 H 82.8015 -0.960358 2.82101 0
M  V30 847 H 80.3385 -0.462901 1.39627 0
M  V30 848 H 82.2965 -3.40596 2.40936 0
M  V30 849 H 80.9265 -2.91961 1.3769 0
M  V30 850 H 79.9785 -1.64132 3.43169 0
M  V30 851 H 81.2905 -2.34803 4.40079 0
M  V30 852 H 80.4445 -4.64938 3.89766 0
M  V30 853 H 79.1835 -3.97304 2.82844 0
M  V30 854 H 78.1885 -2.73244 4.77093 0
M  V30 855 H 79.4135 -3.43966 5.85546 0
M  V30 856 H 77.3595 -5.00181 4.24446 0
M  V30 857 H 77.2765 -4.67165 5.94384 0
M  V30 858 H 78.5445 -5.6893 5.3286 0
M  V30 859 N 82.7736 -1.49793 -0.48987 0
M  V30 860 C 83.9986 -1.63836 -1.27172 0
M  V30 861 C 84.4236 -0.31402 -1.8546 0
M  V30 862 O 83.7816 0.719803 -1.66399 0
M  V30 863 C 83.8296 -2.71797 -2.36978 0
M  V30 864 O 82.9336 -2.31744 -3.41128 0
M  V30 865 H 82.2746 -0.547997 -0.37496 0
M  V30 866 H 84.8046 -1.96053 -0.585191 0
M  V30 867 H 84.8146 -2.94305 -2.82575 0
M  V30 868 H 83.4896 -3.67923 -1.93921 0
M  V30 869 H 82.0666 -2.1961 -3.01373 0
M  V30 870 N 84.2517 0.741722 -1.39055 0
M  V30 871 C 85.2147 1.83733 -1.37021 0
M  V30 872 C 86.2147 1.58542 -0.268534 0
M  V30 873 O 87.4047 1.66067 -0.526076 0
M  V30 874 C 84.5367 3.2141 -1.13617 0
M  V30 875 H 85.7297 1.86941 -2.34506 0
M  V30 876 H 83.2827 0.944676 -1.24521 0
M  V30 877 H 84.0177 3.23865 -0.167863 0
M  V30 878 H 83.8027 3.4109 -1.93391 0
M  V30 879 H 85.2927 4.01477 -1.14918 0
M  V30 880 N 85.7298 1.2412 0.971189 0
M  V30 881 C 86.6928 1.03156 2.04674 0
M  V30 882 C 87.6928 -0.00990322 1.60797 0
M  V30 883 O 88.8828 0.230729 1.72665 0
M  V30 884 C 86.0148 0.562765 3.36223 0
M  V30 885 H 87.2078 1.98614 2.24705 0
M  V30 886 H 84.7608 1.06293 1.14593 0
M  V30 887 H 85.4958 -0.395176 3.21883 0
M  V30 888 H 85.2808 1.31441 3.69413 0
M  V30 889 H 86.7708 0.437015 4.15307 0
M  V30 890 N 87.2079 -1.17134 1.05439 0
M  V30 891 C 88.4849 -1.83411 0.679699 0
M  V30 892 C 88.8649 -1.9368 -0.839726 0
M  V30 893 O 88.2129 -1.47325 -1.74664 0
M  V30 894 C 88.4229 -3.20918 1.37159 0
M  V30 895 C 89.7709 -3.96796 1.51123 0
M  V30 896 O 90.7949 -3.30406 1.3308 0
M  V30 897 O 89.6539 -5.15778 1.80651 0
M  V30 898 H 86.7479 -0.79154 0.239569 0
M  V30 899 H 89.2939 -1.24411 1.15413 0
M  V30 900 H 88.0659 -3.08428 2.40807 0
M  V30 901 H 87.6889 -3.87587 0.886674 0
M  V30 902 N 88.686 -0.835752 -1.33615 0
M  V30 903 C 89.596 -0.269088 -2.33052 0
M  V30 904 C 90.612 0.603251 -1.63208 0
M  V30 905 O 91.788 0.508112 -1.94885 0
M  V30 906 C 88.853 0.549091 -3.42324 0
M  V30 907 C 87.914 -0.347156 -4.27894 0
M  V30 908 C 87.147 0.43207 -5.31948 0
M  V30 909 O 87.37 1.66409 -5.45586 0
M  V30 910 O 86.304 -0.192298 -6.01593 0
M  V30 911 H 90.13 -1.09243 -2.83372 0
M  V30 912 H 87.715 -0.598198 -1.36901 0
M  V30 913 H 89.597 1.01414 -4.09015 0
M  V30 914 H 88.272 1.34955 -2.94226 0
M  V30 915 H 87.179 -0.859979 -3.64081 0
M  V30 916 H 88.512 -1.1123 -4.79467 0
M  V30 917 N 90.1641 1.46063 -0.591896 0
M  V30 918 C 91.0941 2.33172 0.123673 0
M  V30 919 C 92.0751 1.45897 0.87453 0
M  V30 920 O 93.2601 1.74698 0.848181 0
M  V30 921 C 90.3901 3.28336 1.13194 0
M  V30 922 C 89.3441 4.25124 0.495324 0
M  V30 923 C 88.6701 5.09863 1.61071 0
M  V30 924 C 89.9701 5.19143 -0.573425 0
M  V30 925 H 91.6641 2.93252 -0.603646 0
M  V30 926 H 89.2101 1.41014 -0.291741 0
M  V30 927 H 91.1631 3.88137 1.64097 0
M  V30 928 H 89.8871 2.66383 1.88965 0
M  V30 929 H 88.5461 3.66599 0.00729452 0
M  V30 930 H 88.1941 4.44288 2.35832 0
M  V30 931 H 87.8941 5.75417 1.19035 0
M  V30 932 H 89.4181 5.72529 2.12233 0
M  V30 933 H 90.8321 5.73106 -0.1491 0
M  V30 934 H 89.2291 5.93089 -0.914636 0
M  V30 935 H 90.2991 4.62519 -1.45617 0
M  V30 936 N 91.6422 0.330177 1.54103 0
M  V30 937 C 92.5742 -0.566902 2.22079 0
M  V30 938 C 93.5872 -1.07462 1.22294 0
M  V30 939 O 94.7762 -0.987065 1.48726 0
M  V30 940 C 91.8762 -1.79138 2.87685 0
M  V30 941 C 91.0492 -1.42123 4.13666 0
M  V30 942 C 90.1082 -2.50394 4.62806 0
M  V30 943 O 89.1342 -2.14261 5.27334 0
M  V30 944 N 90.3362 -3.81433 4.37595 0
M  V30 945 H 93.1012 0.0151844 2.99696 0
M  V30 946 H 90.6622 0.153681 1.61169 0
M  V30 947 H 92.6542 -2.50975 3.1748 0
M  V30 948 H 91.2242 -2.28115 2.13734 0
M  V30 949 H 90.4442 -0.534201 3.90564 0
M  V30 950 H 91.7322 -1.14971 4.9564 0
M  V30 951 H 91.1302 -4.13584 3.8596 0
M  V30 952 H 89.6872 -4.4948 4.72029 0
M  V30 953 N 93.1203 -1.57491 0.0584922 0
M  V30 954 C 94.0833 -2.1085 -0.898617 0
M  V30 955 C 95.0833 -1.02964 -1.23511 0
M  V30 956 O 96.2733 -1.29007 -1.17059 0
M  V30 957 C 93.4053 -2.59881 -2.20623 0
M  V30 958 H 94.5983 -2.96715 -0.435936 0
M  V30 959 H 92.1513 -1.55141 -0.190023 0
M  V30 960 H 92.8863 -1.77431 -2.71457 0
M  V30 961 H 92.6713 -3.38727 -1.97501 0
M  V30 962 H 94.1613 -3.01285 -2.89166 0
M  V30 963 N 94.5984 0.214957 -1.56127 0
M  V30 964 C 95.5464 1.28601 -1.93816 0
M  V30 965 C 96.5404 1.48175 -0.821016 0
M  V30 966 O 97.7464 1.49271 -1.0059 0
M  V30 967 H 94.1214 0.431302 -0.616022 0
M  V30 968 H 96.0924 0.940991 -2.83175 0
M  V30 969 C 94.8414 2.62779 -2.27689 0
M  V30 970 H 94.1644 2.48527 -3.13168 0
M  V30 971 H 95.6044 3.36517 -2.57939 0
M  V30 972 C 94.0634 3.18285 -1.10436 0
M  V30 973 O 94.5934 4.00002 -0.368945 0
M  V30 974 N 92.7994 2.7675 -0.886433 0
M  V30 975 H 92.3464 2.10404 -1.48619 0
M  V30 976 H 92.3044 3.14229 -0.103656 0
M  V30 977 N 96.0765 1.50051 0.48192 0
M  V30 978 C 97.0065 1.71046 1.58951 0
M  V30 979 C 97.9875 0.559288 1.60642 0
M  V30 980 O 99.1725 0.797243 1.77081 0
M  V30 981 C 96.3025 1.79462 2.97339 0
M  V30 982 C 95.2565 2.94558 3.10515 0
M  V30 983 C 94.5825 2.88105 4.50444 0
M  V30 984 C 95.8825 4.35227 2.88747 0
M  V30 985 H 97.5765 2.6378 1.41635 0
M  V30 986 H 95.1225 1.26936 0.679942 0
M  V30 987 H 97.0755 1.92734 3.74742 0
M  V30 988 H 95.7995 0.833412 3.15788 0
M  V30 989 H 94.4585 2.80918 2.35543 0
M  V30 990 H 94.1065 1.89853 4.65795 0
M  V30 991 H 93.8065 3.65366 4.60197 0
M  V30 992 H 95.3305 3.03412 5.29881 0
M  V30 993 H 96.7445 4.49449 3.55905 0
M  V30 994 H 95.1415 5.13856 3.09955 0
M  V30 995 H 96.2115 4.48347 1.84696 0
M  V30 996 N 97.5546 -0.734337 1.39446 0
M  V30 997 C 98.9656 -1.31264 1.32766 0
M  V30 998 C 99.3166 -1.96198 -0.00767497 0
M  V30 999 O 98.4416 -1.96346 -0.909796 0
M  V30 1000 C 99.0366 -2.38682 2.4045 0
M  V30 1001 C 97.5956 -2.92184 2.37288 0
M  V30 1002 C 96.7426 -1.6576 2.22304 0
M  V30 1003 H 99.6936 -0.531799 1.49525 0
M  V30 1004 H 99.7146 -3.19087 2.07276 0
M  V30 1005 H 99.2266 -1.91392 3.37625 0
M  V30 1006 H 97.3276 -3.43752 1.43754 0
M  V30 1007 H 97.4406 -3.45253 3.3217 0
M  V30 1008 H 95.8046 -1.9012 1.69489 0
M  V30 1009 H 96.5876 -1.20521 3.21449 0
M  V30 1010 N 99.0327 -1.24633 -0.964593 0
M  V30 1011 C 100.444 -1.08045 -1.5226 0
M  V30 1012 C 100.795 0.347116 -1.93105 0
M  V30 1013 O 99.9197 1.23588 -1.77637 0
M  V30 1014 C 100.515 -1.95514 -2.76695 0
M  V30 1015 C 99.0737 -1.8314 -3.28841 0
M  V30 1016 C 98.2207 -1.90262 -2.01732 0
M  V30 1017 H 101.172 -1.38064 -0.782553 0
M  V30 1018 H 101.193 -1.48925 -3.50145 0
M  V30 1019 H 100.705 -2.99407 -2.46936 0
M  V30 1020 H 98.8057 -0.82092 -3.63444 0
M  V30 1021 H 98.9187 -2.67406 -3.97531 0
M  V30 1022 H 97.2827 -1.34027 -2.16584 0
M  V30 1023 H 98.0657 -2.9574 -1.74334 0
M  V30 1024 N 100.511 1.16574 -1.06058 0
M  V30 1025 C 101.739 1.90952 -0.796552 0
M  V30 1026 C 102.154 1.77302 0.648808 0
M  V30 1027 O 101.511 1.11605 1.44397 0
M  V30 1028 C 101.562 3.41736 -1.17894 0
M  V30 1029 O 101.283 3.54975 -2.56758 0
M  V30 1030 C 102.784 4.33169 -0.942308 0
M  V30 1031 H 100.004 0.605594 -0.288959 0
M  V30 1032 H 102.548 1.47777 -1.41358 0
M  V30 1033 H 100.703 3.82623 -0.606491 0
M  V30 1034 H 101.117 4.4846 -2.72 0
M  V30 1035 H 102.591 5.37439 -1.25952 0
M  V30 1036 H 103.068 4.3903 0.122078 0
M  V30 1037 H 103.674 3.98007 -1.49902 0
M  V30 1038 N 101.989 0.842826 1.3317 0
M  V30 1039 C 102.936 0.276885 2.29133 0
M  V30 1040 C 103.906 -0.609527 1.54512 0
M  V30 1041 O 105.091 -0.546955 1.82792 0
M  V30 1042 C 102.231 -0.538707 3.40869 0
M  V30 1043 C 101.344 0.372169 4.30394 0
M  V30 1044 C 100.479 -0.454908 5.29249 0
M  V30 1045 C 99.5179 0.45411 6.10413 0
M  V30 1046 N 98.6549 -0.335075 7.013 0
M  V30 1047 H 103.495 1.10052 2.76934 0
M  V30 1048 H 101.032 0.554161 1.36262 0
M  V30 1049 H 102.99 -1.02709 4.0436 0
M  V30 1050 H 101.62 -1.32727 2.9425 0
M  V30 1051 H 100.672 0.97888 3.6759 0
M  V30 1052 H 101.984 1.0703 4.87182 0
M  V30 1053 H 101.138 -1.00695 5.98285 0
M  V30 1054 H 99.8769 -1.18646 4.73048 0
M  V30 1055 H 98.8819 1.01813 5.40291 0
M  V30 1056 H 100.107 1.18409 6.68697 0
M  V30 1057 H 98.0529 -1.04994 6.47543 0
M  V30 1058 H 97.9699 0.304262 7.55387 0
M  V30 1059 H 99.2379 -0.869224 7.74638 0
M  V30 1060 N 103.467 -1.45747 0.599634 0
M  V30 1061 C 104.399 -2.28628 -0.161879 0
M  V30 1062 C 105.412 -1.39494 -0.839367 0
M  V30 1063 O 106.601 -1.63941 -0.706089 0
M  V30 1064 C 103.701 -3.15014 -1.24976 0
M  V30 1065 C 102.874 -4.32378 -0.660935 0
M  V30 1066 C 101.933 -5.00033 -1.63869 0
M  V30 1067 O 100.959 -5.57085 -1.1681 0
M  V30 1068 N 102.161 -4.98589 -2.97303 0
M  V30 1069 H 104.926 -2.94624 0.549265 0
M  V30 1070 H 102.487 -1.55847 0.438565 0
M  V30 1071 H 104.479 -3.5714 -1.9035 0
M  V30 1072 H 103.049 -2.5098 -1.86354 0
M  V30 1073 H 102.269 -3.9383 0.170688 0
M  V30 1074 H 103.557 -5.08197 -0.247619 0
M  V30 1075 H 102.955 -4.53514 -3.38145 0
M  V30 1076 H 101.512 -5.44603 -3.58121 0
M  V30 1077 N 104.945 -0.338344 -1.53925 0
M  V30 1078 C 105.908 0.508299 -2.23493 0
M  V30 1079 C 106.908 1.03175 -1.23335 0
M  V30 1080 O 108.098 0.921826 -1.47811 0
M  V30 1081 C 105.23 1.70754 -2.95052 0
M  V30 1082 H 106.423 -0.100058 -2.99733 0
M  V30 1083 H 103.976 -0.0896198 -1.56043 0
M  V30 1084 H 104.711 2.35474 -2.22986 0
M  V30 1085 H 104.496 1.33946 -3.68512 0
M  V30 1086 H 105.986 2.30818 -3.48013 0
M  V30 1087 N 106.423 1.57458 -0.0668435 0
M  V30 1088 C 107.839 1.56947 0.289772 0
M  V30 1089 C 108.039 1.07584 1.70376 0
M  V30 1090 O 107.095 0.739486 2.41429 0
M  V30 1091 C 108.408 3.0052 0.103943 0
M  V30 1092 C 109.956 3.12517 0.173857 0
M  V30 1093 C 110.431 4.57997 0.0163682 0
M  V30 1094 N 111.922 4.63144 0.0721352 0
M  V30 1095 C 112.657 5.73394 -0.0253794 0
M  V30 1096 N 112.153 6.92576 -0.176133 0
M  V30 1097 N 113.946 5.62091 0.0313305 0
M  V30 1098 H 106.097 1.87863 -0.991027 0
M  V30 1099 H 108.36 0.86583 -0.38606 0
M  V30 1100 H 108.066 3.40729 -0.871572 0
M  V30 1101 H 107.94 3.67304 0.858366 0
M  V30 1102 H 110.327 2.72197 1.13985 0
M  V30 1103 H 110.408 2.48381 -0.611586 0
M  V30 1104 H 110.052 4.99005 -0.946374 0
M  V30 1105 H 109.982 5.20158 0.821153 0
M  V30 1106 H 112.473 3.77436 0.187263 0
M  V30 1107 H 112.786 7.72418 -0.242821 0
M  V30 1108 H 111.131 6.94678 -0.211429 0
M  V30 1109 H 114.322 4.67867 0.147773 0
M  V30 1110 H 114.495 6.47982 -0.048121 0
M  V30 1111 N 107.901 -0.206675 1.56239 0
M  V30 1112 C 109.147 -0.930218 1.80208 0
M  V30 1113 C 109.48 -1.83387 0.638981 0
M  V30 1114 O 108.755 -1.91119 -0.361066 0
M  V30 1115 C 109.038 -1.75641 3.1436 0
M  V30 1116 C 108.891 -0.878257 4.41142 0
M  V30 1117 C 110.21 -2.73129 3.45092 0
M  V30 1118 H 107.329 -0.336742 0.655571 0
M  V30 1119 H 109.971 -0.198222 1.88963 0
M  V30 1120 H 108.121 -2.38048 3.07027 0
M  V30 1121 H 109.793 -0.269787 4.6051 0
M  V30 1122 H 108.036 -0.184385 4.33408 0
M  V30 1123 H 108.707 -1.49106 5.3148 0
M  V30 1124 H 111.183 -2.20856 3.52649 0
M  V30 1125 H 110.059 -3.28028 4.40101 0
M  V30 1126 H 110.32 -3.51606 2.68003 0
M  V30 1127 N 109.379 -1.50304 -0.473955 0
M  V30 1128 C 110.628 -1.60392 -1.22301 0
M  V30 1129 C 110.941 -0.308411 -1.93153 0
M  V30 1130 O 112.147 -0.288156 -2.69966 0
M  V30 1131 C 110.603 -2.83109 -2.2221 0
M  V30 1132 C 110.211 -4.19524 -1.57173 0
M  V30 1133 C 111.955 -3.0254 -2.97775 0
M  V30 1134 C 109.862 -5.33431 -2.55353 0
M  V30 1135 H 108.792 -0.597286 -0.460179 0
M  V30 1136 H 111.443 -1.76731 -0.493803 0
M  V30 1137 H 109.825 -2.60322 -2.9841 0
M  V30 1138 H 110.999 -4.52554 -0.867824 0
M  V30 1139 H 109.314 -4.05674 -0.939002 0
M  V30 1140 H 111.911 -3.84811 -3.71248 0
M  V30 1141 H 112.254 -2.14154 -3.56992 0
M  V30 1142 H 112.787 -3.25494 -2.28688 0
M  V30 1143 H 109.526 -6.23962 -2.00878 0
M  V30 1144 H 109.046 -5.04823 -3.23904 0
M  V30 1145 H 110.725 -5.63887 -3.17239 0
M  V30 1146 N 110.857 0.726932 -1.39834 0
M  V30 1147 C 112.268 1.30558 -1.3346 0
M  V30 1148 C 112.619 1.962 -0.00273003 0
M  V30 1149 O 111.744 1.96826 0.899371 0
M  V30 1150 C 112.339 2.37404 -2.41713 0
M  V30 1151 C 110.898 2.90921 -2.38835 0
M  V30 1152 C 110.045 1.64578 -2.2318 0
M  V30 1153 H 112.996 0.523862 -1.49804 0
M  V30 1154 H 113.017 3.17984 -2.08966 0
M  V30 1155 H 112.529 1.89599 -3.38635 0
M  V30 1156 H 110.63 3.42985 -1.45575 0
M  V30 1157 H 110.743 3.43487 -3.33997 0
M  V30 1158 H 109.107 1.89219 -1.70494 0
M  V30 1159 H 109.89 1.18814 -3.22084 0
M  V30 1160 N 112.336 1.25143 0.95797 0
M  V30 1161 C 113.585 1.0909 1.69654 0
M  V30 1162 C 113.898 -0.368548 1.92097 0
M  V30 1163 O 115.104 -0.649455 2.63618 0
M  V30 1164 C 113.56 1.90395 3.05414 0
M  V30 1165 C 113.168 3.4081 2.90779 0
M  V30 1166 C 114.912 1.82901 3.83076 0
M  V30 1167 C 112.819 4.14423 4.21909 0
M  V30 1168 H 111.749 0.404625 0.636235 0
M  V30 1169 H 114.4 1.4931 1.06672 0
M  V30 1170 H 112.782 1.42996 3.69281 0
M  V30 1171 H 113.956 3.95859 2.35865 0
M  V30 1172 H 112.271 3.49361 2.26575 0
M  V30 1173 H 114.868 2.35196 4.80195 0
M  V30 1174 H 115.211 0.796224 4.08615 0
M  V30 1175 H 115.744 2.28033 3.25954 0
M  V30 1176 H 112.483 5.18102 4.01561 0
M  V30 1177 H 112.003 3.64159 4.76601 0
M  V30 1178 H 113.682 4.21956 4.90471 0
M  V30 1179 N 113.814 -1.1601 1.06675 0
M  V30 1180 C 114.746 -2.20115 0.638921 0
M  V30 1181 C 115.759 -1.59916 -0.305057 0
M  V30 1182 O 116.948 -1.78245 -0.0954446 0
M  V30 1183 C 114.048 -3.38798 -0.0830083 0
M  V30 1184 C 113.221 -4.2855 0.875426 0
M  V30 1185 C 112.28 -5.25849 0.192042 0
M  V30 1186 O 111.306 -5.63102 0.830921 0
M  V30 1187 N 112.508 -5.70648 -1.06493 0
M  V30 1188 H 115.273 -2.57439 1.53444 0
M  V30 1189 H 112.834 -1.31057 0.950557 0
M  V30 1190 H 114.826 -4.00936 -0.550685 0
M  V30 1191 H 113.396 -2.99947 -0.880386 0
M  V30 1192 H 112.616 -3.63617 1.52238 0
M  V30 1193 H 113.904 -4.85393 1.52548 0
M  V30 1194 H 113.302 -5.42482 -1.60405 0
M  V30 1195 H 111.859 -6.34859 -1.47641 0
M  V30 1196 N 115.292 -0.849877 -1.32721 0
M  V30 1197 C 116.532 -0.457146 -1.99222 0
M  V30 1198 C 116.896 0.968038 -1.6581 0
M  V30 1199 O 118.097 1.46507 -2.25364 0
M  V30 1200 C 116.368 -0.683966 -3.50794 0
M  V30 1201 S 117.927 -0.388095 -4.3708 0
M  V30 1202 H 114.745 -0.171464 -0.690015 0
M  V30 1203 H 117.347 -1.10155 -1.61512 0
M  V30 1204 H 116.051 -1.72038 -3.726 0
M  V30 1205 H 115.582 -0.0258086 -3.93392 0
M  V30 1206 H 117.597 0.787791 -4.89906 0
M  V30 1207 N 116.77 1.45427 -0.607355 0
M  V30 1208 C 117.718 2.32269 0.12411 0
M  V30 1209 C 118.712 1.45955 0.859854 0
M  V30 1210 O 119.918 1.6244 0.775447 0
M  V30 1211 H 116.293 0.749691 0.0588839 0
M  V30 1212 H 118.264 2.91743 -0.626762 0
M  V30 1213 C 117.013 3.29567 1.1082 0
M  V30 1214 H 116.336 3.95978 0.551492 0
M  V30 1215 H 117.776 3.93061 1.58995 0
M  V30 1216 C 116.235 2.56722 2.18164 0
M  V30 1217 O 116.765 2.34842 3.25902 0
M  V30 1218 N 114.971 2.16861 1.93442 0
M  V30 1219 H 114.518 2.34855 1.05834 0
M  V30 1220 H 114.476 1.68444 2.65469 0
M  V30 1221 N 118.248 0.346503 1.53744 0
M  V30 1222 C 119.497 -0.250122 2.00143 0
M  V30 1223 C 119.81 -1.51418 1.23822 0
M  V30 1224 O 121.016 -2.18823 1.60713 0
M  V30 1225 C 119.472 -0.496252 3.56462 0
M  V30 1226 C 119.08 0.752077 4.41642 0
M  V30 1227 C 120.824 -1.05157 4.11269 0
M  V30 1228 C 118.731 0.476583 5.89477 0
M  V30 1229 H 117.661 -0.0972409 0.747703 0
M  V30 1230 H 120.312 0.46229 1.77581 0
M  V30 1231 H 118.694 -1.26944 3.75102 0
M  V30 1232 H 119.868 1.5266 4.34778 0
M  V30 1233 H 118.183 1.22925 3.97842 0
M  V30 1234 H 120.78 -1.27269 5.19333 0
M  V30 1235 H 121.123 -2.00799 3.64672 0
M  V30 1236 H 121.656 -0.339019 3.96353 0
M  V30 1237 H 118.395 1.4028 6.40314 0
M  V30 1238 H 117.915 -0.259794 5.99237 0
M  V30 1239 H 119.594 0.0949315 6.4693 0
M  V30 1240 N 119.726 -1.57421 0.075193 0
M  V30 1241 C 121.142 -1.57099 -0.281444 0
M  V30 1242 C 121.342 -1.08486 -1.69803 0
M  V30 1243 O 120.398 -0.752279 -2.41033 0
M  V30 1244 C 121.711 -3.00571 -0.0880041 0
M  V30 1245 C 123.259 -3.12605 -0.157281 0
M  V30 1246 C 123.734 -4.57999 0.0079207 0
M  V30 1247 N 125.225 -4.63176 -0.0475725 0
M  V30 1248 C 125.96 -5.73373 0.0557876 0
M  V30 1249 N 125.456 -6.92473 0.21286 0
M  V30 1250 N 127.249 -5.621 -0.00152098 0
M  V30 1251 H 119.4 -1.87335 1.00098 0
M  V30 1252 H 121.663 -0.86377 0.390646 0
M  V30 1253 H 121.369 -3.40262 0.889629 0
M  V30 1254 H 121.243 -3.67754 -0.838875 0
M  V30 1255 H 123.63 -2.72798 -1.1254 0
M  V30 1256 H 123.711 -2.48053 0.62475 0
M  V30 1257 H 123.355 -4.98496 0.972824 0
M  V30 1258 H 123.285 -5.20586 -0.793556 0
M  V30 1259 H 125.776 -3.7753 -0.167244 0
M  V30 1260 H 126.089 -7.72279 0.283781 0
M  V30 1261 H 124.434 -6.94556 0.248267 0
M  V30 1262 H 127.625 -4.67938 -0.122958 0
M  V30 1263 H 127.798 -6.47948 0.0824844 0
M  V30 1264 N 121.204 0.198386 -1.56346 0
M  V30 1265 C 122.152 1.26538 -1.95169 0
M  V30 1266 C 123.146 1.47295 -0.836685 0
M  V30 1267 O 124.352 1.48195 -1.02167 0
M  V30 1268 H 120.727 0.424744 -0.620561 0
M  V30 1269 H 122.698 0.910904 -2.84157 0
M  V30 1270 C 121.447 2.6035 -2.30463 0
M  V30 1271 H 120.77 2.45192 -3.15786 0
M  V30 1272 H 122.21 3.33762 -2.61494 0
M  V30 1273 C 120.669 3.17096 -1.13806 0
M  V30 1274 O 121.199 3.99588 -0.41135 0
M  V30 1275 N 119.405 2.75795 -0.915736 0
M  V30 1276 H 118.952 2.08816 -1.50843 0
M  V30 1277 H 118.91 3.14101 -0.136979 0
M  V30 1278 N 122.682 1.50554 0.465978 0
M  V30 1279 C 123.592 1.72585 1.58907 0
M  V30 1280 C 124.608 0.60911 1.6299 0
M  V30 1281 O 125.784 0.88804 1.80765 0
M  V30 1282 C 122.849 1.81995 2.95091 0
M  V30 1283 C 121.91 3.05751 3.01355 0
M  V30 1284 C 121.143 3.14702 4.31043 0
M  V30 1285 O 121.366 2.30313 5.21835 0
M  V30 1286 O 120.3 4.07468 4.43005 0
M  V30 1287 H 124.126 2.67799 1.43239 0
M  V30 1288 H 121.711 1.34711 0.646013 0
M  V30 1289 H 123.593 1.90335 3.75966 0
M  V30 1290 H 122.268 0.899659 3.10947 0
M  V30 1291 H 121.175 3.02908 2.19539 0
M  V30 1292 H 122.508 3.97375 2.90437 0
M  V30 1293 N 124.16 -0.719506 1.40217 0
M  V30 1294 C 125.07 -1.86378 1.42479 0
M  V30 1295 C 126.086 -1.71073 0.317834 0
M  V30 1296 O 127.262 -1.93406 0.561794 0
M  V30 1297 C 124.327 -3.22136 1.28178 0
M  V30 1298 C 123.388 -3.49723 2.48982 0
M  V30 1299 C 122.621 -4.79004 2.35353 0
M  V30 1300 O 122.844 -5.53821 1.36524 0
M  V30 1301 O 121.778 -5.06839 3.2465 0
M  V30 1302 H 125.604 -1.87425 2.38968 0
M  V30 1303 H 123.189 -0.869405 1.21498 0
M  V30 1304 H 125.071 -4.03234 1.22395 0
M  V30 1305 H 123.746 -3.21825 0.347934 0
M  V30 1306 H 122.653 -2.6865 2.60342 0
M  V30 1307 H 123.986 -3.54828 3.41113 0
M  V30 1308 N 125.638 -1.25649 -0.95132 0
M  V30 1309 C 126.548 -1.08073 -2.08224 0
M  V30 1310 C 127.564 -0.0169666 -1.73992 0
M  V30 1311 O 128.74 -0.218593 -2.0021 0
M  V30 1312 C 125.805 -0.704922 -3.39458 0
M  V30 1313 C 124.866 -1.84699 -3.87537 0
M  V30 1314 C 124.099 -1.48902 -5.12508 0
M  V30 1315 O 124.322 -0.386156 -5.69091 0
M  V30 1316 O 123.256 -2.32033 -5.55378 0
M  V30 1317 H 127.082 -2.02924 -2.25954 0
M  V30 1318 H 124.667 -1.04618 -1.06656 0
M  V30 1319 H 126.549 -0.507609 -4.18332 0
M  V30 1320 H 125.224 0.214291 -3.2299 0
M  V30 1321 H 124.131 -2.09919 -3.09653 0
M  V30 1322 H 125.464 -2.74557 -4.08509 0
M  V30 1323 N 127.117 1.15442 -1.07289 0
M  V30 1324 C 128.363 1.86489 -0.796846 0
M  V30 1325 C 128.696 1.82078 0.675371 0
M  V30 1326 O 127.971 1.24346 1.4956 0
M  V30 1327 C 128.254 3.35626 -1.30489 0
M  V30 1328 C 128.107 3.48673 -2.84161 0
M  V30 1329 C 129.426 4.30357 -0.920907 0
M  V30 1330 H 126.545 0.677144 -0.290939 0
M  V30 1331 H 129.187 1.35633 -1.33056 0
M  V30 1332 H 127.337 3.79068 -0.850883 0
M  V30 1333 H 129.009 3.14099 -3.37846 0
M  V30 1334 H 127.252 2.90253 -3.22391 0
M  V30 1335 H 127.923 4.53453 -3.14777 0
M  V30 1336 H 130.399 3.94871 -1.3121 0
M  V30 1337 H 129.275 5.33193 -1.30372 0
M  V30 1338 H 129.536 4.4176 0.173226 0
M  V30 1339 N 128.595 0.856903 1.32268 0
M  V30 1340 C 129.543 0.291987 2.3076 0
M  V30 1341 C 130.537 -0.585857 1.58947 0
M  V30 1342 O 131.743 -0.47341 1.73663 0
M  V30 1343 H 128.118 0.075721 0.748178 0
M  V30 1344 H 130.089 1.13687 2.75895 0
M  V30 1345 C 128.838 -0.502869 3.44044 0
M  V30 1346 H 128.161 0.163328 3.99466 0
M  V30 1347 H 129.601 -0.863691 4.1511 0
M  V30 1348 C 128.06 -1.68898 2.91505 0
M  V30 1349 O 128.59 -2.78811 2.89184 0
M  V30 1350 N 126.796 -1.51679 2.47875 0
M  V30 1351 H 126.343 -0.622666 2.49961 0
M  V30 1352 H 126.301 -2.31184 2.13076 0
M  V30 1353 N 130.073 -1.45103 0.615059 0
M  V30 1354 C 131.021 -2.32331 -0.111791 0
M  V30 1355 C 132.015 -1.46409 -0.852102 0
M  V30 1356 O 133.221 -1.62849 -0.766821 0
M  V30 1357 H 129.596 -0.749993 -0.0549072 0
M  V30 1358 H 131.567 -2.91407 0.642225 0
M  V30 1359 C 130.316 -3.3015 -1.09071 0
M  V30 1360 H 129.639 -3.96265 -0.530485 0
M  V30 1361 H 131.079 -3.93898 -1.56908 0
M  V30 1362 C 129.538 -2.57875 -2.168 0
M  V30 1363 O 130.068 -2.36567 -3.24652 0
M  V30 1364 N 128.274 -2.17884 -1.92289 0
M  V30 1365 H 127.821 -2.35413 -1.04587 0
M  V30 1366 H 127.779 -1.6985 -2.64572 0
M  V30 1367 N 131.551 -0.354651 -1.53558 0
M  V30 1368 C 132.481 0.489091 -2.2832 0
M  V30 1369 C 133.462 1.09324 -1.30316 0
M  V30 1370 O 134.647 1.11255 -1.59173 0
M  V30 1371 C 131.777 1.63456 -3.0643 0
M  V30 1372 C 130.731 1.1582 -4.12031 0
M  V30 1373 C 130.057 2.39305 -4.7816 0
M  V30 1374 C 131.357 0.250731 -5.21698 0
M  V30 1375 H 133.051 -0.134614 -2.99097 0
M  V30 1376 H 130.597 -0.0661826 -1.43848 0
M  V30 1377 H 132.55 2.23136 -3.57475 0
M  V30 1378 H 131.274 2.28533 -2.33325 0
M  V30 1379 H 129.933 0.584146 -3.61916 0
M  V30 1380 H 129.581 3.02814 -4.01637 0
M  V30 1381 H 129.281 2.08109 -5.49513 0
M  V30 1382 H 130.805 2.99691 -5.31994 0
M  V30 1383 H 132.219 0.754695 -5.68311 0
M  V30 1384 H 130.616 0.0301468 -6.00092 0
M  V30 1385 H 131.686 -0.710125 -4.79672 0
M  V30 1386 N 133.029 1.57378 -0.0835403 0
M  V30 1387 C 134.275 1.94217 0.583733 0
M  V30 1388 C 134.608 0.964653 1.68547 0
M  V30 1389 O 133.883 -0.00422258 1.945 0
M  V30 1390 C 134.166 3.41253 1.14972 0
M  V30 1391 C 134.019 4.49768 0.0538277 0
M  V30 1392 C 135.338 3.89352 2.05166 0
M  V30 1393 H 132.457 0.706233 0.210724 0
M  V30 1394 H 135.099 1.89392 -0.1519 0
M  V30 1395 H 133.249 3.45496 1.77665 0
M  V30 1396 H 134.921 4.57641 -0.579851 0
M  V30 1397 H 133.164 4.29432 -0.614068 0
M  V30 1398 H 133.835 5.49817 0.490452 0
M  V30 1399 H 136.311 3.87189 1.52393 0
M  V30 1400 H 135.187 4.92822 2.41698 0
M  V30 1401 H 135.448 3.27973 2.96456 0
M  V30 1402 N 134.507 -0.190092 1.56449 0
M  V30 1403 C 135.454 -1.23557 1.94942 0
M  V30 1404 C 136.424 -1.44972 0.810696 0
M  V30 1405 O 137.609 -1.58023 1.06927 0
M  V30 1406 C 134.749 -2.57416 2.2985 0
M  V30 1407 C 133.862 -2.43537 3.5681 0
M  V30 1408 C 132.997 -3.70134 3.81017 0
M  V30 1409 C 132.036 -3.51109 5.01387 0
M  V30 1410 N 131.173 -4.6973 5.21822 0
M  V30 1411 H 136.013 -0.900304 2.84075 0
M  V30 1412 H 133.55 -0.43318 1.40577 0
M  V30 1413 H 135.508 -3.35409 2.48106 0
M  V30 1414 H 134.138 -2.88975 1.43852 0
M  V30 1415 H 133.19 -1.56816 3.46573 0
M  V30 1416 H 134.502 -2.25415 4.4496 0
M  V30 1417 H 133.656 -4.56566 3.9954 0
M  V30 1418 H 132.395 -3.91215 2.91207 0
M  V30 1419 H 131.4 -2.63063 4.82782 0
M  V30 1420 H 132.625 -3.31468 5.9271 0
M  V30 1421 H 130.571 -4.91065 4.34961 0
M  V30 1422 H 130.488 -4.54452 6.0416 0
M  V30 1423 H 131.756 -5.57499 5.44808 0
M  V30 1424 N 135.985 -1.50799 -0.457987 0
M  V30 1425 C 137.21 -1.66496 -1.23668 0
M  V30 1426 C 137.635 -0.353288 -1.84752 0
M  V30 1427 O 136.993 0.684346 -1.67888 0
M  V30 1428 C 137.041 -2.76763 -2.3116 0
M  V30 1429 O 136.145 -2.38928 -3.36136 0
M  V30 1430 H 135.486 -0.555828 -0.363252 0
M  V30 1431 H 138.016 -1.9725 -0.543474 0
M  V30 1432 H 138.026 -3.00232 -2.76269 0
M  V30 1433 H 136.701 -3.71954 -1.86073 0
M  V30 1434 H 135.278 -2.25953 -2.96647 0
M  V30 1435 N 137.463 0.71206 -1.40597 0
M  V30 1436 C 138.691 1.50111 -1.42388 0
M  V30 1437 C 139.106 1.88784 -0.0245395 0
M  V30 1438 O 138.463 1.55681 0.952351 0
M  V30 1439 C 138.514 2.7742 -2.31776 0
M  V30 1440 O 138.235 2.40382 -3.66262 0
M  V30 1441 C 139.736 3.7129 -2.42196 0
M  V30 1442 H 136.956 0.46314 -0.485533 0
M  V30 1443 H 139.5 0.878068 -1.8469 0
M  V30 1444 H 137.655 3.36001 -1.92827 0
M  V30 1445 H 138.069 3.22324 -4.13772 0
M  V30 1446 H 139.543 4.57448 -3.08943 0
M  V30 1447 H 140.02 4.14641 -1.44809 0
M  V30 1448 H 140.626 3.18619 -2.81712 0
M  V30 1449 N 138.941 1.26152 0.944643 0
M  V30 1450 C 139.871 1.09902 2.06019 0
M  V30 1451 C 140.852 0.00519538 1.70099 0
M  V30 1452 O 142.037 0.176583 1.93396 0
M  V30 1453 C 139.167 0.727562 3.39594 0
M  V30 1454 C 138.121 1.77274 3.89561 0
M  V30 1455 C 137.447 1.25569 5.19747 0
M  V30 1456 C 138.747 3.17357 4.14827 0
M  V30 1457 H 140.441 2.03217 2.19871 0
M  V30 1458 H 137.987 0.978452 1.05652 0
M  V30 1459 H 139.94 0.600777 4.17095 0
M  V30 1460 H 138.664 -0.241287 3.25707 0
M  V30 1461 H 137.323 1.88814 3.14237 0
M  V30 1462 H 136.971 0.276783 5.02238 0
M  V30 1463 H 136.671 1.95433 5.54148 0
M  V30 1464 H 138.195 1.1415 5.99835 0
M  V30 1465 H 139.609 3.08914 4.82954 0
M  V30 1466 H 138.006 3.84781 4.60504 0
M  V30 1467 H 139.076 3.63673 3.20734 0
M  V30 1468 N 140.419 -1.14872 1.07899 0
M  V30 1469 C 141.696 -1.81928 0.71845 0
M  V30 1470 C 142.076 -1.95417 -0.798455 0
M  V30 1471 O 141.424 -1.50997 -1.715 0
M  V30 1472 C 141.634 -3.17937 1.43935 0
M  V30 1473 C 142.982 -3.93501 1.59506 0
M  V30 1474 O 144.006 -3.27509 1.40058 0
M  V30 1475 O 142.865 -5.1183 1.91551 0
M  V30 1476 H 139.959 -0.78628 0.256305 0
M  V30 1477 H 142.505 -1.21934 1.18026 0
M  V30 1478 H 141.277 -3.0325 2.47295 0
M  V30 1479 H 140.9 -3.85619 0.968687 0
M  V30 1480 N 141.898 -0.863906 -1.31812 0
M  V30 1481 C 143.126 -0.486111 -2.01108 0
M  V30 1482 C 143.541 0.919755 -1.64882 0
M  V30 1483 O 142.898 1.60162 -0.874893 0
M  V30 1484 C 142.949 -0.626435 -3.56031 0
M  V30 1485 O 142.67 -1.97693 -3.90959 0
M  V30 1486 C 144.171 -0.248857 -4.42601 0
M  V30 1487 H 141.391 -0.190052 -0.643523 0
M  V30 1488 H 143.935 -1.1634 -1.68182 0
M  V30 1489 H 142.09 0.00322717 -3.874 0
M  V30 1490 H 142.504 -1.98034 -4.85678 0
M  V30 1491 H 143.978 -0.398016 -5.50563 0
M  V30 1492 H 144.455 0.811489 -4.31638 0
M  V30 1493 H 145.061 -0.853971 -4.16638 0
M  V30 1494 N 143.376 1.44774 -0.622745 0
M  V30 1495 C 144.623 2.02121 -0.1239 0
M  V30 1496 C 144.951 1.48915 1.25118 0
M  V30 1497 O 144.206 0.660045 1.84233 0
M  V30 1498 C 144.505 3.57364 -0.0508323 0
M  V30 1499 C 144.171 4.29787 -1.36358 0
M  V30 1500 C 142.833 4.4929 -1.72314 0
M  V30 1501 C 145.185 4.71062 -2.23048 0
M  V30 1502 C 142.513 5.07325 -2.94682 0
M  V30 1503 C 144.865 5.30452 -3.44679 0
M  V30 1504 C 143.529 5.48175 -3.80868 0
M  V30 1505 H 142.799 0.739612 -0.0453381 0
M  V30 1506 H 145.446 1.73648 -0.807389 0
M  V30 1507 H 143.751 3.85202 0.715991 0
M  V30 1508 H 145.448 3.99456 0.351533 0
M  V30 1509 H 142.038 4.14932 -1.07375 0
M  V30 1510 H 146.222 4.55715 -1.96565 0
M  V30 1511 H 141.478 5.19235 -3.22809 0
M  V30 1512 H 145.652 5.61385 -4.12092 0
M  V30 1513 H 143.279 5.92912 -4.75773 0
M  V30 1514 N 144.854 0.36279 1.53368 0
M  V30 1515 C 146.102 -0.227326 2.00817 0
M  V30 1516 C 146.423 -1.49511 1.25186 0
M  V30 1517 O 145.693 -1.92482 0.364348 0
M  V30 1518 H 144.273 -0.0869923 0.741917 0
M  V30 1519 H 146.935 0.488381 1.88682 0
M  V30 1520 H 146.031 -0.456273 3.08747 0
M  V30 1521 N 146.332 -1.57332 0.0918853 0
M  V30 1522 C 147.279 -2.13847 -0.868211 0
M  V30 1523 C 148.249 -1.05618 -1.28196 0
M  V30 1524 O 149.434 -1.33387 -1.36427 0
M  V30 1525 C 146.574 -2.72062 -2.12312 0
M  V30 1526 C 145.687 -3.94514 -1.7602 0
M  V30 1527 C 144.822 -4.40903 -2.96273 0
M  V30 1528 C 143.861 -5.55953 -2.56092 0
M  V30 1529 N 142.998 -5.97209 -3.69169 0
M  V30 1530 H 147.838 -2.95575 -0.379406 0
M  V30 1531 H 145.375 -1.46048 -0.175606 0
M  V30 1532 H 147.333 -3.03931 -2.858 0
M  V30 1533 H 145.963 -1.93068 -2.58698 0
M  V30 1534 H 145.015 -3.68979 -0.925135 0
M  V30 1535 H 146.327 -4.7802 -1.42472 0
M  V30 1536 H 145.481 -4.74539 -3.78018 0
M  V30 1537 H 144.22 -3.56291 -3.33029 0
M  V30 1538 H 143.225 -5.21948 -1.72773 0
M  V30 1539 H 144.45 -6.42311 -2.20484 0
M  V30 1540 H 142.396 -5.15543 -4.05649 0
M  V30 1541 H 142.313 -6.75504 -3.39456 0
M  V30 1542 H 143.581 -6.35475 -4.51434 0
M  V30 1543 N 147.81 0.181792 -1.56548 0
M  V30 1544 C 149.059 0.898348 -1.8059 0
M  V30 1545 C 149.372 1.83862 -0.667379 0
M  V30 1546 O 150.578 2.59678 -0.792446 0
M  V30 1547 C 149.034 1.64791 -3.19956 0
M  V30 1548 C 148.642 0.751789 -4.41647 0
M  V30 1549 C 150.386 2.35331 -3.53298 0
M  V30 1550 C 148.293 1.50098 -5.72035 0
M  V30 1551 H 147.223 0.339194 -0.673397 0
M  V30 1552 H 149.874 0.151413 -1.82874 0
M  V30 1553 H 148.256 2.43921 -3.11959 0
M  V30 1554 H 149.43 -0.0018076 -4.608 0
M  V30 1555 H 147.745 0.156562 -4.16106 0
M  V30 1556 H 150.342 2.91958 -4.47956 0
M  V30 1557 H 150.685 3.10164 -2.77676 0
M  V30 1558 H 151.218 1.63154 -3.62803 0
M  V30 1559 H 147.957 0.795175 -6.50659 0
M  V30 1560 H 147.477 2.22817 -5.56878 0
M  V30 1561 H 149.156 2.05125 -6.13622 0
M  V30 1562 N 149.288 1.51039 0.449983 0
M  V30 1563 C 150.236 1.71995 1.5659 0
M  V30 1564 C 151.23 0.586029 1.5894 0
M  V30 1565 O 152.436 0.76709 1.62837 0
M  V30 1566 H 148.811 0.543233 0.520001 0
M  V30 1567 H 150.782 2.65562 1.36085 0
M  V30 1568 C 149.531 1.8506 2.9436 0
M  V30 1569 H 148.854 2.71712 2.93279 0
M  V30 1570 H 150.294 2.0374 3.71842 0
M  V30 1571 C 148.753 0.607277 3.31382 0
M  V30 1572 O 149.283 -0.243903 4.00959 0
M  V30 1573 N 147.489 0.455073 2.87015 0
M  V30 1574 H 147.036 1.14879 2.30566 0
M  V30 1575 H 146.994 -0.375611 3.12148 0
M  V30 1576 N 150.766 -0.704594 1.40972 0
M  V30 1577 C 152.013 -1.46458 1.39844 0
M  V30 1578 C 152.341 -1.94499 0.00447594 0
M  V30 1579 O 151.596 -1.69275 -0.982057 0
M  V30 1580 C 151.895 -2.698 2.34399 0
M  V30 1581 C 151.561 -2.40464 3.81429 0
M  V30 1582 C 150.223 -2.32174 4.21484 0
M  V30 1583 C 152.575 -2.16086 4.74296 0
M  V30 1584 C 149.903 -1.97589 5.52427 0
M  V30 1585 C 152.255 -1.83011 6.05549 0
M  V30 1586 C 150.919 -1.7321 6.44635 0
M  V30 1587 H 150.189 -0.535927 0.511725 0
M  V30 1588 H 152.836 -0.806124 1.73706 0
M  V30 1589 H 151.141 -3.40536 1.93759 0
M  V30 1590 H 152.838 -3.27919 2.30804 0
M  V30 1591 H 149.428 -2.47808 3.49699 0
M  V30 1592 H 153.612 -2.2144 4.4416 0
M  V30 1593 H 148.868 -1.88547 5.81601 0
M  V30 1594 H 153.042 -1.63164 6.77016 0
M  V30 1595 H 150.669 -1.46179 7.46013 0
M  V30 1596 N 152.244 -1.26651 -0.937939 0
M  V30 1597 C 153.174 -1.10993 -2.05433 0
M  V30 1598 C 154.155 -0.0142161 -1.70094 0
M  V30 1599 O 155.34 -0.186837 -1.93299 0
M  V30 1600 C 152.47 -0.745561 -3.39203 0
M  V30 1601 C 151.424 -1.79337 -3.88616 0
M  V30 1602 C 150.75 -1.28324 -5.19073 0
M  V30 1603 C 152.05 -3.19553 -4.13138 0
M  V30 1604 H 153.744 -2.0438 -2.1879 0
M  V30 1605 H 151.29 -0.984041 -1.05131 0
M  V30 1606 H 153.243 -0.622888 -4.16771 0
M  V30 1607 H 151.967 0.22401 -3.25831 0
M  V30 1608 H 150.626 -1.90477 -3.13231 0
M  V30 1609 H 150.274 -0.303414 -5.02084 0
M  V30 1610 H 149.974 -1.98369 -5.53103 0
M  V30 1611 H 151.498 -1.1733 -5.99221 0
M  V30 1612 H 152.912 -3.11471 -4.81309 0
M  V30 1613 H 151.309 -3.87218 -4.58457 0
M  V30 1614 H 152.379 -3.65368 -3.18801 0
M  V30 1615 N 153.722 1.14298 -1.08507 0
M  V30 1616 C 154.968 1.85633 -0.816581 0
M  V30 1617 C 155.301 1.82784 0.656021 0
M  V30 1618 O 154.576 1.25926 1.48233 0
M  V30 1619 C 154.859 3.34223 -1.34041 0
M  V30 1620 C 154.712 3.45639 -2.87843 0
M  V30 1621 C 156.031 4.29356 -0.9665 0
M  V30 1622 H 153.15 0.67402 -0.298104 0
M  V30 1623 H 155.792 1.34214 -1.34487 0
M  V30 1624 H 153.942 3.78144 -0.89104 0
M  V30 1625 H 155.614 3.10498 -3.41158 0
M  V30 1626 H 153.857 2.86817 -3.25451 0
M  V30 1627 H 154.528 4.50089 -3.19569 0
M  V30 1628 H 157.004 3.93457 -1.35391 0
M  V30 1629 H 155.88 5.3178 -1.3602 0
M  V30 1630 H 156.141 4.41919 0.126362 0
M  V30 1631 N 155.201 0.870884 1.31352 0
M  V30 1632 C 156.149 0.316445 2.30437 0
M  V30 1633 C 157.143 -0.568965 1.59559 0
M  V30 1634 O 158.349 -0.454964 1.74155 0
M  V30 1635 H 154.724 0.0836521 0.747333 0
M  V30 1636 H 156.695 1.16606 2.74673 0
M  V30 1637 C 155.444 -0.46635 3.44558 0
M  V30 1638 H 154.767 0.205687 3.99271 0
M  V30 1639 H 156.207 -0.819614 4.16003 0
M  V30 1640 C 154.666 -1.65797 2.9328 0
M  V30 1641 O 155.196 -2.75728 2.92125 0
M  V30 1642 N 153.402 -1.49041 2.4947 0
M  V30 1643 H 152.949 -0.59612 2.50608 0
M  V30 1644 H 152.907 -2.28911 2.15516 0
M  V30 1645 N 156.679 -1.44442 0.630414 0
M  V30 1646 C 157.627 -2.32437 -0.0871428 0
M  V30 1647 C 158.621 -1.47304 -0.836525 0
M  V30 1648 O 159.827 -1.63653 -0.749506 0
M  V30 1649 H 156.202 -0.750533 -0.0469495 0
M  V30 1650 H 158.173 -2.90709 0.673096 0
M  V30 1651 C 156.922 -3.31288 -1.05563 0
M  V30 1652 H 156.245 -3.96805 -0.488426 0
M  V30 1653 H 157.685 -3.9554 -1.52721 0
M  V30 1654 C 156.144 -2.6016 -2.14052 0
M  V30 1655 O 156.674 -2.39997 -3.22124 0
M  V30 1656 N 154.88 -2.19911 -1.89967 0
M  V30 1657 H 154.427 -2.36509 -1.02085 0
M  V30 1658 H 154.385 -1.72646 -2.62756 0
M  V30 1659 N 158.157 -0.370918 -1.53173 0
M  V30 1660 C 159.405 0.216673 -2.00935 0
M  V30 1661 C 159.726 1.48845 -1.25977 0
M  V30 1662 O 158.996 1.92286 -0.374551 0
M  V30 1663 H 157.576 0.0830565 -0.742368 0
M  V30 1664 H 160.238 -0.49838 -1.8842 0
M  V30 1665 H 159.334 0.439893 -3.08984 0
M  V30 1666 N 159.635 1.57281 -0.100228 0
M  V30 1667 C 160.883 1.94153 0.561157 0
M  V30 1668 C 161.204 0.983157 1.68401 0
M  V30 1669 O 160.474 0.0361132 1.95867 0
M  V30 1670 H 159.054 0.716791 0.210283 0
M  V30 1671 H 161.716 1.94202 -0.164765 0
M  V30 1672 H 160.812 2.96709 0.968008 0
M  V30 1673 N 161.113 -0.173488 1.56642 0
M  V30 1674 C 162.361 -0.888706 1.81512 0
M  V30 1675 C 162.682 -1.82875 0.676872 0
M  V30 1676 O 161.952 -1.93536 -0.303414 0
M  V30 1677 H 160.532 -0.331164 0.669582 0
M  V30 1678 H 163.194 -0.173823 1.94123 0
M  V30 1679 H 162.29 -1.46691 2.75478 0
M  V30 1680 N 162.591 -1.51276 -0.441967 0
M  V30 1681 C 163.523 -1.68444 -1.55433 0
M  V30 1682 C 164.536 -0.565187 -1.52674 0
M  V30 1683 O 165.725 -0.839356 -1.57534 0
M  V30 1684 C 162.825 -1.67966 -2.94348 0
M  V30 1685 C 161.998 -2.964 -3.21661 0
M  V30 1686 C 161.057 -2.88171 -4.40277 0
M  V30 1687 O 160.083 -3.62119 -4.39157 0
M  V30 1688 N 161.285 -2.03706 -5.43584 0
M  V30 1689 H 164.05 -2.644 -1.41112 0
M  V30 1690 H 161.611 -1.49104 -0.630838 0
M  V30 1691 H 163.603 -1.60035 -3.71713 0
M  V30 1692 H 162.173 -0.796225 -3.0229 0
M  V30 1693 H 161.393 -3.18234 -2.32638 0
M  V30 1694 H 162.681 -3.81427 -3.36736 0
M  V30 1695 H 162.079 -1.42995 -5.47329 0
M  V30 1696 H 160.636 -2.01658 -6.1982 0
M  V30 1697 N 164.069 0.697108 -1.41344 0
M  V30 1698 C 165.316 1.45714 -1.40619 0
M  V30 1699 C 165.644 1.94494 -0.0147907 0
M  V30 1700 O 164.899 1.69794 0.973066 0
M  V30 1701 C 165.198 2.68553 -2.35826 0
M  V30 1702 C 164.864 2.38438 -3.82698 0
M  V30 1703 C 163.526 2.29936 -4.22709 0
M  V30 1704 C 165.878 2.13567 -4.75435 0
M  V30 1705 C 163.206 1.94656 -5.53467 0
M  V30 1706 C 165.558 1.79797 -6.06511 0
M  V30 1707 C 164.222 1.69789 -6.45545 0
M  V30 1708 H 163.492 0.533206 -0.51456 0
M  V30 1709 H 166.139 0.796901 -1.74131 0
M  V30 1710 H 164.444 3.39503 -1.95563 0
M  V30 1711 H 166.141 3.2669 -2.32539 0
M  V30 1712 H 162.731 2.4595 -3.51008 0
M  V30 1713 H 166.915 2.19082 -4.45328 0
M  V30 1714 H 162.171 1.8546 -5.82593 0
M  V30 1715 H 166.345 1.59572 -6.77872 0
M  V30 1716 H 163.972 1.4222 -7.46778 0
M  V30 1717 N 165.547 1.27147 0.931209 0
M  V30 1718 C 166.477 1.12081 2.04842 0
M  V30 1719 C 167.458 0.0232364 1.70084 0
M  V30 1720 O 168.643 0.197085 1.93197 0
M  V30 1721 C 165.773 0.76354 3.38803 0
M  V30 1722 C 164.727 1.81396 3.87659 0
M  V30 1723 C 164.053 1.31075 5.18385 0
M  V30 1724 C 165.353 3.21739 4.11438 0
M  V30 1725 H 167.047 2.05537 2.17703 0
M  V30 1726 H 164.593 0.989603 1.04608 0
M  V30 1727 H 166.546 0.644982 4.16435 0
M  V30 1728 H 165.27 -0.206727 3.25945 0
M  V30 1729 H 163.929 1.92136 3.12217 0
M  V30 1730 H 163.577 0.330037 5.01916 0
M  V30 1731 H 163.277 2.013 5.52044 0
M  V30 1732 H 164.801 1.20506 5.98591 0
M  V30 1733 H 166.215 3.14019 4.79651 0
M  V30 1734 H 164.612 3.89644 4.56397 0
M  V30 1735 H 165.682 3.67054 3.16859 0
M  V30 1736 N 167.025 -1.13721 1.09112 0
M  V30 1737 C 168.25 -1.89314 0.847053 0
M  V30 1738 C 168.675 -1.78416 -0.595774 0
M  V30 1739 O 168.033 -1.12942 -1.41823 0
M  V30 1740 C 168.081 -3.3701 1.28284 0
M  V30 1741 O 167.185 -4.10054 0.439267 0
M  V30 1742 H 166.526 -0.588745 0.307044 0
M  V30 1743 H 169.056 -1.43902 1.45442 0
M  V30 1744 H 169.066 -3.87834 1.26683 0
M  V30 1745 H 167.741 -3.4426 2.33363 0
M  V30 1746 H 166.318 -3.69266 0.519312 0
M  V30 1747 N 168.503 -0.877838 -1.30888 0
M  V30 1748 C 169.914 -0.544193 -1.78593 0
M  V30 1749 C 170.265 0.939301 -1.72254 0
M  V30 1750 O 169.39 1.7337 -1.29505 0
M  V30 1751 C 169.985 -0.98105 -3.24285 0
M  V30 1752 C 168.544 -0.698935 -3.69854 0
M  V30 1753 C 167.691 -1.168 -2.51502 0
M  V30 1754 H 170.642 -1.06278 -1.17859 0
M  V30 1755 H 170.663 -0.307009 -3.79259 0
M  V30 1756 H 170.175 -2.06079 -3.28866 0
M  V30 1757 H 168.276 0.369112 -3.70767 0
M  V30 1758 H 168.389 -1.28148 -4.61644 0
M  V30 1759 H 166.753 -0.587535 -2.47831 0
M  V30 1760 H 167.536 -2.25533 -2.58824 0
M  V30 1761 N 169.982 1.44106 -0.638065 0
M  V30 1762 C 170.945 2.29138 0.0531013 0
M  V30 1763 C 171.945 1.41409 0.765506 0
M  V30 1764 O 173.135 1.63206 0.609046 0
M  V30 1765 C 170.267 3.23144 1.08584 0
M  V30 1766 H 171.46 2.91739 -0.694883 0
M  V30 1767 H 169.013 1.51134 -0.398538 0
M  V30 1768 H 169.748 2.65408 1.86357 0
M  V30 1769 H 169.533 3.87804 0.578852 0
M  V30 1770 H 171.023 3.87004 1.56899 0
M  V30 1771 N 171.46 0.379036 1.52974 0
M  V30 1772 C 172.37 -0.468639 2.29872 0
M  V30 1773 C 173.386 -1.08067 1.36373 0
M  V30 1774 O 174.562 -1.08871 1.69438 0
M  V30 1775 C 171.627 -1.58594 3.083 0
M  V30 1776 C 170.688 -1.00007 4.17489 0
M  V30 1777 C 169.921 -2.06413 4.92168 0
M  V30 1778 O 170.144 -3.27751 4.66835 0
M  V30 1779 O 169.078 -1.68717 5.7777 0
M  V30 1780 H 172.904 0.157508 3.03291 0
M  V30 1781 H 170.489 0.143035 1.48714 0
M  V30 1782 H 172.371 -2.23525 3.57232 0
M  V30 1783 H 171.046 -2.19724 2.37703 0
M  V30 1784 H 169.953 -0.314299 3.72777 0
M  V30 1785 H 171.286 -0.433135 4.90291 0
M  V30 1786 N 172.938 -1.57226 0.108567 0
M  V30 1787 C 173.888 -2.11305 -0.856396 0
M  V30 1788 C 174.872 -1.03129 -1.23504 0
M  V30 1789 O 176.064 -1.29381 -1.20787 0
M  V30 1790 C 173.193 -2.70771 -2.11041 0
M  V30 1791 C 172.279 -3.86011 -1.7566 0
M  V30 1792 N 172.67 -4.93492 -1.10902 0
M  V30 1793 C 170.968 -3.95999 -2.05185 0
M  V30 1794 C 171.669 -5.73984 -0.944308 0
M  V30 1795 N 170.645 -5.2346 -1.46596 0
M  V30 1796 H 174.447 -2.91784 -0.352002 0
M  V30 1797 H 171.961 -1.62126 -0.0942324 0
M  V30 1798 H 173.958 -3.07851 -2.81128 0
M  V30 1799 H 172.618 -1.91751 -2.62034 0
M  V30 1800 H 173.629 -5.1208 -0.774235 0
M  V30 1801 H 170.306 -3.28007 -2.58298 0
M  V30 1802 H 171.696 -6.70479 -0.436813 0
M  V30 1803 N 174.416 0.165178 -1.56732 0
M  V30 1804 C 175.665 0.879143 -1.81532 0
M  V30 1805 C 175.978 1.83144 -0.686842 0
M  V30 1806 O 177.184 2.58823 -0.819944 0
M  V30 1807 C 175.64 1.61388 -3.21686 0
M  V30 1808 C 175.248 0.704904 -4.4242 0
M  V30 1809 C 176.992 2.3157 -3.55774 0
M  V30 1810 C 174.899 1.44022 -5.73595 0
M  V30 1811 H 173.829 0.332033 -0.676957 0
M  V30 1812 H 176.48 0.132008 -1.83025 0
M  V30 1813 H 174.862 2.40599 -3.14529 0
M  V30 1814 H 176.036 -0.0506815 -4.60772 0
M  V30 1815 H 174.351 0.112419 -4.16248 0
M  V30 1816 H 176.948 2.8719 -4.51028 0
M  V30 1817 H 177.291 3.07201 -2.8095 0
M  V30 1818 H 177.824 1.59297 -3.64513 0
M  V30 1819 H 174.563 0.72612 -6.51466 0
M  V30 1820 H 174.083 2.16898 -5.5921 0
M  V30 1821 H 175.762 1.98606 -6.15764 0
M  V30 1822 N 175.894 1.51508 0.433938 0
M  V30 1823 C 177.119 1.68443 1.21003 0
M  V30 1824 C 177.544 0.382636 1.84167 0
M  V30 1825 O 176.902 -0.65755 1.68956 0
M  V30 1826 C 176.95 2.80405 2.26727 0
M  V30 1827 O 176.054 2.44245 3.32292 0
M  V30 1828 H 175.395 0.561536 0.354363 0
M  V30 1829 H 177.925 1.9809 0.512024 0
M  V30 1830 H 177.935 3.0459 2.71457 0
M  V30 1831 H 176.61 3.74867 1.80132 0
M  V30 1832 H 175.187 2.30644 2.93015 0
M  V30 1833 N 177.372 -0.689602 1.41712 0
M  V30 1834 C 178.597 -1.48329 1.44959 0
M  V30 1835 C 179.022 -1.8801 0.0581283 0
M  V30 1836 O 178.38 -1.55026 -0.940035 0
M  V30 1837 C 178.428 -2.71835 2.36935 0
M  V30 1838 O 177.532 -3.69549 1.8305 0
M  V30 1839 H 176.873 -0.446199 0.491734 0
M  V30 1840 H 179.403 -0.847127 1.86239 0
M  V30 1841 H 179.413 -3.20076 2.53013 0
M  V30 1842 H 178.088 -2.42291 3.38035 0
M  V30 1843 H 176.665 -3.2851 1.76452 0
M  V30 1844 N 178.85 -1.27639 -0.924453 0
M  V30 1845 C 179.797 -1.10644 -2.0255 0
M  V30 1846 C 180.767 -0.00658438 -1.66099 0
M  V30 1847 O 181.952 -0.16952 -1.90045 0
M  V30 1848 C 179.092 -0.76309 -3.36557 0
M  V30 1849 C 178.205 -1.94091 -3.85944 0
M  V30 1850 C 177.34 -1.53914 -5.08413 0
M  V30 1851 C 176.379 -2.68425 -5.50104 0
M  V30 1852 N 175.516 -2.28815 -6.63768 0
M  V30 1853 H 180.356 -2.04858 -2.16419 0
M  V30 1854 H 177.893 -1.01974 -1.06017 0
M  V30 1855 H 179.851 -0.544822 -4.13627 0
M  V30 1856 H 178.481 0.142102 -3.22487 0
M  V30 1857 H 177.533 -2.27162 -3.05125 0
M  V30 1858 H 178.845 -2.7998 -4.12811 0
M  V30 1859 H 177.999 -1.28231 -5.92994 0
M  V30 1860 H 176.738 -0.651391 -4.8333 0
M  V30 1861 H 175.743 -2.94819 -4.64071 0
M  V30 1862 H 176.968 -3.57826 -5.7718 0
M  V30 1863 H 174.914 -1.42495 -6.40337 0
M  V30 1864 H 174.831 -3.08242 -6.90306 0
M  V30 1865 H 176.099 -2.06387 -7.51681 0
M  V30 1866 N 180.328 1.1314 -1.09713 0
M  V30 1867 C 181.576 1.84119 -0.833338 0
M  V30 1868 C 181.897 1.84097 0.642904 0
M  V30 1869 O 181.167 1.29881 1.46655 0
M  V30 1870 H 179.747 0.681766 -0.305293 0
M  V30 1871 H 182.409 1.37038 -1.38588 0
M  V30 1872 H 181.505 2.88543 -1.18951 0
M  V30 1873 N 181.806 0.884767 1.30421 0
M  V30 1874 C 183.052 0.513218 1.96819 0
M  V30 1875 C 183.407 -0.927347 1.68577 0
M  V30 1876 O 182.7 -1.64644 0.979941 0
M  V30 1877 C 182.894 0.724318 3.49983 0
M  V30 1878 C 182.723 2.18385 3.93113 0
M  V30 1879 C 181.493 2.82839 4.18725 0
M  V30 1880 C 183.691 3.15763 4.05953 0
M  V30 1881 N 181.673 4.1939 4.48314 0
M  V30 1882 C 183.044 4.37387 4.39423 0
M  V30 1883 C 185.099 3.11555 3.88379 0
M  V30 1884 C 183.802 5.55343 4.5715 0
M  V30 1885 C 185.828 4.28782 4.07308 0
M  V30 1886 C 185.19 5.49172 4.41123 0
M  V30 1887 H 181.289 0.237123 0.745182 0
M  V30 1888 H 183.873 1.14246 1.57658 0
M  V30 1889 H 182.044 0.124565 3.882 0
M  V30 1890 H 183.776 0.31969 4.03435 0
M  V30 1891 H 180.531 2.33708 4.11919 0
M  V30 1892 H 180.955 4.89911 4.67243 0
M  V30 1893 H 185.597 2.19576 3.61312 0
M  V30 1894 H 183.315 6.47826 4.8306 0
M  V30 1895 H 186.901 4.26995 3.95179 0
M  V30 1896 H 185.781 6.38371 4.55469 0
M  V30 1897 N 183.284 -1.43765 0.645699 0
M  V30 1898 C 184.234 -2.27884 -0.0726442 0
M  V30 1899 C 185.218 -1.39483 -0.802086 0
M  V30 1900 O 186.41 -1.63174 -0.685791 0
M  V30 1901 C 183.539 -3.27055 -1.04356 0
M  V30 1902 C 182.625 -4.22944 -0.312985 0
M  V30 1903 N 183.016 -5.01391 0.666386 0
M  V30 1904 C 181.314 -4.42528 -0.55546 0
M  V30 1905 C 182.015 -5.71217 1.09935 0
M  V30 1906 N 180.991 -5.41856 0.435137 0
M  V30 1907 H 184.793 -2.85949 0.678988 0
M  V30 1908 H 182.307 -1.55378 0.472368 0
M  V30 1909 H 184.304 -3.86089 -1.57292 0
M  V30 1910 H 182.964 -2.70551 -1.79534 0
M  V30 1911 H 183.975 -5.07252 1.04481 0
M  V30 1912 H 180.652 -3.97104 -1.28899 0
M  V30 1913 H 182.042 -6.44202 1.90929 0
M  V30 1914 N 184.763 -0.387143 -1.52771 0
M  V30 1915 C 185.726 0.436939 -2.24997 0
M  V30 1916 C 186.726 0.991991 -1.26555 0
M  V30 1917 O 187.916 0.874335 -1.50669 0
M  V30 1918 C 185.048 1.61281 -3.00335 0
M  V30 1919 H 186.241 -0.195365 -2.99263 0
M  V30 1920 H 183.794 -0.139218 -1.55679 0
M  V30 1921 H 184.529 2.2826 -2.30364 0
M  V30 1922 H 184.314 1.22154 -3.72587 0
M  V30 1923 H 185.804 2.19629 -3.5518 0
M  V30 1924 N 186.241 1.57166 -0.116904 0
M  V30 1925 C 187.487 1.95412 0.542405 0
M  V30 1926 C 187.82 1.00019 1.66463 0
M  V30 1927 O 187.095 0.0370346 1.94465 0
M  V30 1928 C 187.378 3.43615 1.07708 0
M  V30 1929 C 187.231 4.49781 -0.0415868 0
M  V30 1930 C 188.55 3.93616 1.96861 0
M  V30 1931 H 185.669 0.710543 0.195696 0
M  V30 1932 H 188.311 1.89027 -0.192038 0
M  V30 1933 H 186.461 3.49187 1.70296 0
M  V30 1934 H 188.133 4.56308 -0.676793 0
M  V30 1935 H 186.376 4.28033 -0.705019 0
M  V30 1936 H 187.047 5.50733 0.373717 0
M  V30 1937 H 189.523 3.90335 1.44146 0
M  V30 1938 H 188.399 4.97838 2.3119 0
M  V30 1939 H 188.66 3.34188 2.89432 0
M  V30 1940 N 187.719 -0.156864 1.56817 0
M  V30 1941 C 188.649 -1.19589 2.00551 0
M  V30 1942 C 189.63 -1.4536 0.883426 0
M  V30 1943 O 190.815 -1.56449 1.15054 0
M  V30 1944 C 187.945 -2.53143 2.37773 0
M  V30 1945 C 186.899 -2.41913 3.53075 0
M  V30 1946 C 186.225 -3.80088 3.76081 0
M  V30 1947 C 187.525 -1.91157 4.86062 0
M  V30 1948 H 189.219 -0.832293 2.87599 0
M  V30 1949 H 186.765 -0.398918 1.38364 0
M  V30 1950 H 188.718 -3.26047 2.66967 0
M  V30 1951 H 187.442 -2.91319 1.4765 0
M  V30 1952 H 186.101 -1.71462 3.24031 0
M  V30 1953 H 185.749 -4.15683 2.83225 0
M  V30 1954 H 185.449 -3.73439 4.53671 0
M  V30 1955 H 186.973 -4.54556 4.0769 0
M  V30 1956 H 188.387 -2.53846 5.14038 0
M  V30 1957 H 186.784 -1.95422 5.67389 0
M  V30 1958 H 187.854 -0.866673 4.77092 0
M  V30 1959 N 189.197 -1.51736 -0.425897 0
M  V30 1960 C 190.107 -1.76738 -1.54275 0
M  V30 1961 C 191.123 -0.65211 -1.61318 0
M  V30 1962 O 192.299 -0.935654 -1.78346 0
M  V30 1963 C 189.364 -1.89755 -2.90162 0
M  V30 1964 C 188.425 -3.13633 -2.93143 0
M  V30 1965 C 187.658 -3.2602 -4.22548 0
M  V30 1966 O 187.881 -2.44067 -5.15546 0
M  V30 1967 O 186.815 -4.19071 -4.32046 0
M  V30 1968 H 190.641 -2.71502 -1.36089 0
M  V30 1969 H 188.226 -1.36376 -0.610069 0
M  V30 1970 H 190.108 -2.00236 -3.70788 0
M  V30 1971 H 188.783 -0.981785 -3.08452 0
M  V30 1972 H 187.69 -3.08622 -2.11431 0
M  V30 1973 H 189.023 -4.04936 -2.798 0
M  V30 1974 N 190.675 0.682077 -1.42076 0
M  V30 1975 C 191.903 1.47057 -1.4554 0
M  V30 1976 C 192.318 1.8869 -0.0645779 0
M  V30 1977 O 191.675 1.57666 0.919115 0
M  V30 1978 C 191.726 2.72442 -2.37609 0
M  V30 1979 O 191.447 2.32559 -3.71279 0
M  V30 1980 C 192.948 3.66069 -2.50017 0
M  V30 1981 H 190.168 0.452737 -0.495248 0
M  V30 1982 H 192.712 0.838695 -1.8651 0
M  V30 1983 H 190.867 3.31835 -1.9991 0
M  V30 1984 H 191.281 3.13475 -4.20516 0
M  V30 1985 H 192.755 4.50792 -3.18576 0
M  V30 1986 H 193.232 4.11476 -1.53572 0
M  V30 1987 H 193.838 3.12572 -2.88407 0
M  V30 1988 N 192.153 1.28127 0.917671 0
M  V30 1989 C 193.101 1.11569 2.04096 0
M  V30 1990 C 194.095 0.0360242 1.69362 0
M  V30 1991 O 195.301 0.194501 1.78946 0
M  V30 1992 H 191.676 0.344097 0.668656 0
M  V30 1993 H 193.647 2.06711 2.15205 0
M  V30 1994 C 192.396 0.790197 3.38602 0
M  V30 1995 H 191.719 1.61293 3.6582 0
M  V30 1996 H 193.159 0.714271 4.1794 0
M  V30 1997 C 191.618 -0.505897 3.3308 0
M  V30 1998 O 192.148 -1.53736 3.71117 0
M  V30 1999 N 190.354 -0.505193 2.86175 0
M  V30 2000 H 189.901 0.334621 2.55417 0
M  V30 2001 H 189.859 -1.37243 2.82863 0
M  V30 2002 N 193.631 -1.12557 1.10312 0
M  V30 2003 C 194.561 -2.20341 0.772798 0
M  V30 2004 C 195.542 -1.68198 -0.25365 0
M  V30 2005 O 196.727 -1.93831 -0.119699 0
M  V30 2006 C 193.857 -3.46709 0.202443 0
M  V30 2007 C 192.811 -4.11996 1.15943 0
M  V30 2008 C 192.137 -5.328 0.450345 0
M  V30 2009 C 193.437 -4.5828 2.50552 0
M  V30 2010 H 195.131 -2.48229 1.674 0
M  V30 2011 H 192.677 -1.19308 0.806326 0
M  V30 2012 H 194.63 -4.2138 -0.0407752 0
M  V30 2013 H 193.354 -3.18245 -0.734001 0
M  V30 2014 H 192.013 -3.39305 1.38808 0
M  V30 2015 H 191.661 -5.00602 -0.490531 0
M  V30 2016 H 191.361 -5.7743 1.08851 0
M  V30 2017 H 192.885 -6.10219 0.215642 0
M  V30 2018 H 194.299 -5.2433 2.31843 0
M  V30 2019 H 192.696 -5.13683 3.10242 0
M  V30 2020 H 193.766 -3.72329 3.10643 0
M  V30 2021 N 195.109 -0.891671 -1.2995 0
M  V30 2022 C 196.337 -0.52866 -2.00032 0
M  V30 2023 C 196.752 0.884574 -1.66795 0
M  V30 2024 O 196.109 1.5827 -0.908669 0
M  V30 2025 C 196.16 -0.701814 -3.54622 0
M  V30 2026 O 195.881 -2.05942 -3.86678 0
M  V30 2027 C 197.382 -0.342683 -4.41973 0
M  V30 2028 H 194.602 -0.203659 -0.639347 0
M  V30 2029 H 197.146 -1.19881 -1.65677 0
M  V30 2030 H 195.301 -0.0789468 -3.8732 0
M  V30 2031 H 195.715 -2.08291 -4.81368 0
M  V30 2032 H 197.189 -0.514709 -5.49595 0
M  V30 2033 H 197.666 0.71975 -4.33262 0
M  V30 2034 H 198.272 -0.942154 -4.14733 0
M  V30 2035 N 196.587 1.43421 -0.653314 0
M  V30 2036 C 197.835 2.01414 -0.166415 0
M  V30 2037 C 198.156 1.51803 1.22397 0
M  V30 2038 O 197.426 0.730693 1.81763 0
M  V30 2039 H 196.006 0.744703 -0.0585319 0
M  V30 2040 H 198.668 1.75629 -0.845003 0
M  V30 2041 H 197.764 3.11734 -0.151111 0
M  V30 2042 N 198.065 0.39524 1.52563 0
M  V30 2043 C 199.293 -0.184943 2.06072 0
M  V30 2044 C 199.708 -1.40021 1.26647 0
M  V30 2045 O 199.065 -1.79767 0.314672 0
M  V30 2046 C 199.116 -0.549179 3.57304 0
M  V30 2047 O 198.837 0.617813 4.33722 0
M  V30 2048 C 200.338 -1.18459 4.2718 0
M  V30 2049 H 197.558 -0.0265025 0.670476 0
M  V30 2050 H 200.102 0.562184 1.96621 0
M  V30 2051 H 198.257 -1.2462 3.66809 0
M  V30 2052 H 198.671 0.317091 5.23541 0
M  V30 2053 H 200.145 -1.38976 5.34219 0
M  V30 2054 H 200.622 -2.15368 3.82771 0
M  V30 2055 H 201.228 -0.528163 4.22008 0
M  V30 2056 N 199.544 -1.57102 0.125237 0
M  V30 2057 C 200.791 -1.95407 -0.531248 0
M  V30 2058 C 201.119 -1.0089 -1.66287 0
M  V30 2059 O 200.374 -0.0339431 -1.95671 0
M  V30 2060 C 200.673 -3.40096 -1.09862 0
M  V30 2061 C 200.339 -4.50815 -0.0876989 0
M  V30 2062 C 199.001 -4.80824 0.19026 0
M  V30 2063 C 201.353 -5.17724 0.600902 0
M  V30 2064 C 198.681 -5.75058 1.163 0
M  V30 2065 C 201.033 -6.13005 1.56231 0
M  V30 2066 C 199.697 -6.41403 1.8482 0
M  V30 2067 H 198.967 -0.715046 -0.194397 0
M  V30 2068 H 201.614 -1.90373 0.207463 0
M  V30 2069 H 199.919 -3.41855 -1.91422 0
M  V30 2070 H 201.616 -3.6705 -1.61478 0
M  V30 2071 H 198.206 -4.27444 -0.314528 0
M  V30 2072 H 202.39 -4.94691 0.399333 0
M  V30 2073 H 197.646 -5.95362 1.39117 0
M  V30 2074 H 201.82 -6.63934 2.10153 0
M  V30 2075 H 199.447 -7.14229 2.60349 0
M  V30 2076 N 201.022 0.148545 -1.56898 0
M  V30 2077 C 202.252 0.875118 -1.8715 0
M  V30 2078 C 202.66 1.75322 -0.711262 0
M  V30 2079 O 202.003 1.80745 0.328151 0
M  V30 2080 C 202.065 1.7844 -3.12089 0
M  V30 2081 C 201.729 1.08361 -4.43967 0
M  V30 2082 C 202.726 0.438247 -5.1805 0
M  V30 2083 C 200.411 1.07358 -4.90693 0
M  V30 2084 C 202.405 -0.20779 -6.37061 0
M  V30 2085 C 200.092 0.42373 -6.09629 0
M  V30 2086 C 201.09 -0.215829 -6.82659 0
M  V30 2087 O 200.778 -0.855378 -7.99336 0
M  V30 2088 H 200.51 0.258504 -0.624621 0
M  V30 2089 H 203.064 0.14652 -2.04877 0
M  V30 2090 H 201.294 2.55389 -2.90367 0
M  V30 2091 H 202.983 2.38279 -3.286 0
M  V30 2092 H 203.749 0.437817 -4.8302 0
M  V30 2093 H 199.628 1.5608 -4.33774 0
M  V30 2094 H 203.172 -0.70758 -6.94002 0
M  V30 2095 H 199.069 0.421822 -6.4412 0
M  V30 2096 H 199.837 -0.756892 -8.14993 0
M  V30 2097 N 202.5 1.5196 0.417844 0
M  V30 2098 C 203.433 1.69387 1.52916 0
M  V30 2099 C 204.411 0.541419 1.53321 0
M  V30 2100 O 205.595 0.767695 1.72159 0
M  V30 2101 C 202.722 1.72525 2.91467 0
M  V30 2102 C 201.768 2.93967 3.09008 0
M  V30 2103 S 202.601 4.54461 2.83242 0
M  V30 2104 C 203.757 4.60372 4.24038 0
M  V30 2105 H 203.99 2.63382 1.37903 0
M  V30 2106 H 201.523 1.41889 0.608845 0
M  V30 2107 H 203.481 1.75018 3.7132 0
M  V30 2108 H 202.142 0.796733 3.03827 0
M  V30 2109 H 201.335 2.92619 4.10353 0
M  V30 2110 H 200.937 2.89316 2.37007 0
M  V30 2111 H 203.229 4.37213 5.17544 0
M  V30 2112 H 204.172 5.62273 4.30412 0
M  V30 2113 H 204.58 3.89492 4.08602 0
M  V30 2114 N 203.978 -0.674533 1.42435 0
M  V30 2115 C 205.218 -1.4466 1.44405 0
M  V30 2116 C 205.582 -1.91911 0.0585784 0
M  V30 2117 O 206.783 -2.68759 -0.0469991 0
M  V30 2118 C 205.054 -2.61136 2.44013 0
M  V30 2119 S 206.613 -3.49981 2.64687 0
M  V30 2120 H 203.431 -0.494074 0.511284 0
M  V30 2121 H 206.033 -0.785162 1.7904 0
M  V30 2122 H 204.737 -2.24662 3.43446 0
M  V30 2123 H 204.268 -3.32153 2.10803 0
M  V30 2124 H 206.283 -4.57124 1.93007 0
M  V30 2125 N 205.456 -1.28612 -0.910864 0
M  V30 2126 C 206.403 -1.12786 -2.01365 0
M  V30 2127 C 207.373 -0.024201 -1.66082 0
M  V30 2128 O 208.558 -0.189667 -1.89855 0
M  V30 2129 C 205.698 -0.798743 -3.35729 0
M  V30 2130 C 204.811 -1.98173 -3.83864 0
M  V30 2131 C 203.946 -1.59298 -5.06752 0
M  V30 2132 C 202.985 -2.74245 -5.47226 0
M  V30 2133 N 202.122 -2.35842 -6.61304 0
M  V30 2134 H 206.962 -2.07142 -2.14234 0
M  V30 2135 H 204.499 -1.03093 -1.0493 0
M  V30 2136 H 206.457 -0.588662 -4.13026 0
M  V30 2137 H 205.087 0.10789 -3.2262 0
M  V30 2138 H 204.139 -2.30386 -3.02699 0
M  V30 2139 H 205.451 -2.84343 -4.09818 0
M  V30 2140 H 204.605 -1.34513 -5.916 0
M  V30 2141 H 203.344 -0.702618 -4.82612 0
M  V30 2142 H 202.349 -2.99725 -4.60918 0
M  V30 2143 H 203.574 -3.63928 -5.73353 0
M  V30 2144 H 201.52 -1.49279 -6.38789 0
M  V30 2145 H 201.437 -3.15546 -6.86998 0
M  V30 2146 H 202.705 -2.14348 -7.4945 0
M  V30 2147 N 206.934 1.1197 -1.10907 0
M  V30 2148 C 207.897 2.16031 -0.765707 0
M  V30 2149 C 208.897 1.59393 0.212235 0
M  V30 2150 O 210.087 1.74196 -0.0115441 0
M  V30 2151 C 207.219 3.40632 -0.135053 0
M  V30 2152 H 208.412 2.47919 -1.68748 0
M  V30 2153 H 205.965 1.27061 -0.910226 0
M  V30 2154 H 206.7 3.14348 0.797218 0
M  V30 2155 H 206.485 3.8302 -0.838937 0
M  V30 2156 H 207.975 4.17505 0.0892469 0
M  V30 2157 N 208.412 0.89855 1.29475 0
M  V30 2158 C 209.658 0.524658 1.95896 0
M  V30 2159 C 209.991 -0.926468 1.70676 0
M  V30 2160 O 209.266 -1.65665 1.01908 0
M  V30 2161 C 209.549 0.81633 3.50725 0
M  V30 2162 C 209.402 2.31907 3.85408 0
M  V30 2163 C 210.721 0.302038 4.39062 0
M  V30 2164 H 207.84 0.19209 0.711527 0
M  V30 2165 H 210.482 1.12502 1.53112 0
M  V30 2166 H 208.632 0.305369 3.87298 0
M  V30 2167 H 210.304 2.89949 3.58786 0
M  V30 2168 H 208.547 2.78027 3.32992 0
M  V30 2169 H 209.218 2.47373 4.93468 0
M  V30 2170 H 211.694 0.739551 4.09475 0
M  V30 2171 H 210.57 0.535331 5.46283 0
M  V30 2172 H 210.831 -0.797216 4.34853 0
M  V30 2173 N 209.89 -1.43072 0.660911 0
M  V30 2174 C 211.12 -2.05769 0.185153 0
M  V30 2175 C 211.528 -1.49668 -1.15742 0
M  V30 2176 O 210.871 -0.625649 -1.72717 0
M  V30 2177 C 210.933 -3.59489 0.0278237 0
M  V30 2178 C 210.597 -4.38212 1.2969 0
M  V30 2179 C 211.594 -4.69772 2.22734 0
M  V30 2180 C 209.279 -4.7809 1.54063 0
M  V30 2181 C 211.273 -5.40129 3.38437 0
M  V30 2182 C 208.96 -5.4819 2.70058 0
M  V30 2183 C 209.958 -5.79132 3.62071 0
M  V30 2184 O 209.646 -6.47798 4.76039 0
M  V30 2185 H 209.378 -0.669873 0.0908086 0
M  V30 2186 H 211.932 -1.84436 0.90402 0
M  V30 2187 H 210.162 -3.79426 -0.746489 0
M  V30 2188 H 211.851 -4.03862 -0.406275 0
M  V30 2189 H 212.617 -4.39476 2.05149 0
M  V30 2190 H 208.496 -4.53408 0.833215 0
M  V30 2191 H 212.04 -5.64198 4.10277 0
M  V30 2192 H 207.937 -5.77902 2.87574 0
M  V30 2193 H 208.705 -6.66283 4.75404 0
M  V30 2194 N 211.368 -0.403325 -1.52352 0
M  V30 2195 C 212.593 0.176499 -2.06648 0
M  V30 2196 C 213.018 1.38577 -1.27193 0
M  V30 2197 O 212.376 1.7879 -0.300637 0
M  V30 2198 C 212.424 0.511061 -3.5696 0
M  V30 2199 O 211.528 1.60294 -3.79973 0
M  V30 2200 H 210.869 0.0167337 -0.663789 0
M  V30 2201 H 213.399 -0.574848 -1.96359 0
M  V30 2202 H 213.409 0.771362 -4.00642 0
M  V30 2203 H 212.084 -0.37296 -4.14224 0
M  V30 2204 H 210.661 1.33526 -3.48174 0
M  V30 2205 N 212.846 1.57033 -0.133567 0
M  V30 2206 C 214.071 2.00475 0.531477 0
M  V30 2207 C 214.496 1.01291 1.58499 0
M  V30 2208 O 213.854 -0.0133279 1.81295 0
M  V30 2209 C 213.902 3.42729 1.12113 0
M  V30 2210 O 213.006 3.46498 2.23636 0
M  V30 2211 H 212.347 0.650876 0.131362 0
M  V30 2212 H 214.877 2.03344 -0.22634 0
M  V30 2213 H 214.887 3.81246 1.4531 0
M  V30 2214 H 213.562 4.14428 0.349557 0
M  V30 2215 H 212.139 3.19811 1.91769 0
M  V30 2216 N 214.325 -0.140222 1.56975 0
M  V30 2217 C 215.571 -0.848084 1.84876 0
M  V30 2218 C 215.926 -1.78481 0.718481 0
M  V30 2219 O 215.219 -1.89497 -0.283093 0
M  V30 2220 C 215.413 -1.65386 3.16832 0
M  V30 2221 C 215.242 -0.79665 4.42587 0
M  V30 2222 C 214.012 -0.459648 5.03205 0
M  V30 2223 C 216.21 -0.12389 5.14151 0
M  V30 2224 N 214.192 0.410446 6.12526 0
M  V30 2225 C 215.563 0.606064 6.17031 0
M  V30 2226 C 217.618 -0.0452654 4.97879 0
M  V30 2227 C 216.321 1.40723 7.054 0
M  V30 2228 C 218.347 0.742658 5.86718 0
M  V30 2229 C 217.709 1.46087 6.89085 0
M  V30 2230 H 213.808 -0.287946 0.727056 0
M  V30 2231 H 216.392 -0.11304 1.94372 0
M  V30 2232 H 214.563 -2.36009 3.08471 0
M  V30 2233 H 216.295 -2.30541 3.32615 0
M  V30 2234 H 213.05 -0.797006 4.66846 0
M  V30 2235 H 213.474 0.836716 6.7181 0
M  V30 2236 H 218.116 -0.586184 4.18717 0
M  V30 2237 H 215.834 1.95938 7.83986 0
M  V30 2238 H 219.42 0.805574 5.76196 0
M  V30 2239 H 218.3 2.06077 7.56639 0
M  V30 2240 N 215.803 -1.52179 -0.40978 0
M  V30 2241 C 216.736 -1.70196 -1.52015 0
M  V30 2242 C 217.714 -0.549542 -1.53032 0
M  V30 2243 O 218.898 -0.776815 -1.71749 0
M  V30 2244 C 216.025 -1.74069 -2.90547 0
M  V30 2245 C 215.071 -2.95601 -3.07445 0
M  V30 2246 S 215.904 -4.55956 -2.80827 0
M  V30 2247 C 217.06 -4.62614 -4.21591 0
M  V30 2248 H 217.293 -2.64109 -1.36504 0
M  V30 2249 H 214.826 -1.4221 -0.601312 0
M  V30 2250 H 216.784 -1.76985 -3.70387 0
M  V30 2251 H 215.445 -0.812835 -3.034 0
M  V30 2252 H 214.638 -2.94791 -4.08796 0
M  V30 2253 H 214.24 -2.90569 -2.35469 0
M  V30 2254 H 216.532 -4.39951 -5.15218 0
M  V30 2255 H 217.475 -5.64548 -4.27424 0
M  V30 2256 H 217.883 -3.91654 -4.06531 0
M  V30 2257 N 217.281 0.66697 -1.42791 0
M  V30 2258 C 218.228 1.7803 -1.4688 0
M  V30 2259 C 219.198 1.6299 -0.319919 0
M  V30 2260 O 220.383 1.83432 -0.525118 0
M  V30 2261 C 217.523 3.1611 -1.38451 0
M  V30 2262 C 216.636 3.42381 -2.63437 0
M  V30 2263 C 215.771 4.70232 -2.47094 0
M  V30 2264 C 214.81 4.89564 -3.67415 0
M  V30 2265 N 213.947 6.08661 -3.49966 0
M  V30 2266 H 218.787 1.7387 -2.42019 0
M  V30 2267 H 216.324 0.84868 -1.20149 0
M  V30 2268 H 218.282 3.95914 -1.31561 0
M  V30 2269 H 216.912 3.19374 -0.469033 0
M  V30 2270 H 215.964 2.56774 -2.80662 0
M  V30 2271 H 217.276 3.52557 -3.52853 0
M  V30 2272 H 216.43 5.5814 -2.37834 0
M  V30 2273 H 215.169 4.62353 -1.5518 0
M  V30 2274 H 214.174 4.00096 -3.77099 0
M  V30 2275 H 215.399 4.99282 -4.6032 0
M  V30 2276 H 213.345 6.0194 -2.60776 0
M  V30 2277 H 213.262 6.19733 -4.32975 0
M  V30 2278 H 214.53 6.99226 -3.44532 0
M  V30 2279 N 218.759 1.29093 0.90403 0
M  V30 2280 C 219.669 1.15727 2.0407 0
M  V30 2281 C 220.685 0.0815308 1.73809 0
M  V30 2282 O 221.861 0.292749 1.99261 0
M  V30 2283 C 218.926 0.830424 3.36608 0
M  V30 2284 C 217.987 1.98955 3.80415 0
M  V30 2285 C 217.22 1.6782 5.06628 0
M  V30 2286 O 217.443 0.597105 5.67266 0
M  V30 2287 O 216.377 2.52486 5.46383 0
M  V30 2288 H 220.203 2.11171 2.18267 0
M  V30 2289 H 217.788 1.08504 1.027 0
M  V30 2290 H 219.67 0.662521 4.16159 0
M  V30 2291 H 218.345 -0.0942678 3.23563 0
M  V30 2292 H 217.252 2.21267 3.01648 0
M  V30 2293 H 218.585 2.89529 3.98037 0
M  V30 2294 N 220.237 -1.11381 1.11499 0
M  V30 2295 C 221.187 -2.15555 0.74298 0
M  V30 2296 C 222.171 -1.58894 -0.253276 0
M  V30 2297 O 223.363 -1.76897 -0.0602918 0
M  V30 2298 C 220.492 -3.42782 0.188481 0
M  V30 2299 C 219.578 -4.064 1.21244 0
M  V30 2300 N 219.969 -4.44864 2.40685 0
M  V30 2301 C 218.267 -4.3333 1.05552 0
M  V30 2302 C 218.968 -4.94715 3.05994 0
M  V30 2303 N 217.944 -4.90909 2.33472 0
M  V30 2304 H 221.746 -2.43074 1.65203 0
M  V30 2305 H 219.26 -1.28401 0.994329 0
M  V30 2306 H 221.257 -4.16789 -0.0961693 0
M  V30 2307 H 219.917 -3.16727 -0.715149 0
M  V30 2308 H 220.928 -4.36876 2.78136 0
M  V30 2309 H 217.605 -4.1698 0.208372 0
M  V30 2310 H 218.995 -5.34103 4.07656 0
M  V30 2311 N 221.715 -0.905404 -1.28997 0
M  V30 2312 C 222.963 -0.533192 -1.9494 0
M  V30 2313 C 223.284 0.924618 -1.71685 0
M  V30 2314 O 222.554 1.65268 -1.05183 0
M  V30 2315 H 221.134 -0.194194 -0.721317 0
M  V30 2316 H 223.796 -1.15294 -1.57141 0
M  V30 2317 H 222.892 -0.72059 -3.03667 0
M  V30 2318 N 223.193 1.4272 -0.668489 0
M  V30 2319 C 224.441 2.01226 -0.187769 0
M  V30 2320 C 224.762 1.53092 1.2078 0
M  V30 2321 O 224.032 0.74993 1.80977 0
M  V30 2322 H 222.612 0.744041 -0.0664272 0
M  V30 2323 H 225.274 1.74723 -0.863583 0
M  V30 2324 H 224.37 3.11556 -0.184166 0
M  V30 2325 N 224.671 0.411399 1.52136 0
M  V30 2326 C 225.896 -0.165538 2.06738 0
M  V30 2327 C 226.321 -1.379 1.27926 0
M  V30 2328 O 225.679 -1.78628 0.310114 0
M  V30 2329 C 225.727 -0.492124 3.57226 0
M  V30 2330 O 224.831 -1.58276 3.80818 0
M  V30 2331 H 224.172 -0.0132132 0.663869 0
M  V30 2332 H 226.702 0.585253 1.96051 0
M  V30 2333 H 226.712 -0.750104 4.01045 0
M  V30 2334 H 225.387 0.394922 4.14021 0
M  V30 2335 H 223.964 -1.31677 3.48877 0
M  V30 2336 N 226.149 -1.5696 0.141893 0
M  V30 2337 C 227.398 -1.95135 -0.510427 0
M  V30 2338 C 227.711 -1.02896 -1.66348 0
M  V30 2339 O 228.917 -1.30629 -2.38009 0
M  V30 2340 C 227.373 -3.46876 -0.959427 0
M  V30 2341 C 226.981 -4.47691 0.166419 0
M  V30 2342 C 228.725 -3.93927 -1.58183 0
M  V30 2343 C 226.632 -5.90636 -0.300565 0
M  V30 2344 H 225.562 -0.728494 -0.194454 0
M  V30 2345 H 228.213 -1.8211 0.22542 0
M  V30 2346 H 226.595 -3.55215 -1.75038 0
M  V30 2347 H 227.769 -4.51043 0.94325 0
M  V30 2348 H 226.084 -4.10527 0.696905 0
M  V30 2349 H 228.681 -4.98158 -1.94275 0
M  V30 2350 H 229.024 -3.3519 -2.46888 0
M  V30 2351 H 229.557 -3.88484 -0.855863 0
M  V30 2352 H 226.296 -6.5318 0.550989 0
M  V30 2353 H 225.816 -5.90655 -1.04338 0
M  V30 2354 H 227.495 -6.42588 -0.754265 0
M  V30 2355 N 227.627 0.131896 -1.57047 0
M  V30 2356 C 228.873 0.843179 -1.84441 0
M  V30 2357 C 229.206 1.80129 -0.725749 0
M  V30 2358 O 228.481 1.92624 0.269469 0
M  V30 2359 C 228.764 1.60442 -3.22382 0
M  V30 2360 C 228.617 0.666782 -4.4483 0
M  V30 2361 C 229.936 2.56354 -3.5773 0
M  V30 2362 H 227.055 0.305081 -0.670891 0
M  V30 2363 H 229.697 0.107839 -1.89694 0
M  V30 2364 H 227.847 2.23128 -3.18035 0
M  V30 2365 H 229.519 0.0497646 -4.61273 0
M  V30 2366 H 227.762 -0.022609 -4.33794 0
M  V30 2367 H 228.433 1.23579 -5.37989 0
M  V30 2368 H 230.909 2.0378 -3.62785 0
M  V30 2369 H 229.785 3.06657 -4.5525 0
M  V30 2370 H 230.046 3.38419 -2.84473 0
M  V30 2371 N 229.106 1.52395 0.401703 0
M  V30 2372 C 230.054 1.7689 1.51039 0
M  V30 2373 C 231.048 0.636298 1.56996 0
M  V30 2374 O 232.254 0.818507 1.60314 0
M  V30 2375 H 228.629 0.559502 0.502456 0
M  V30 2376 H 230.6 2.69757 1.27568 0
M  V30 2377 C 229.349 1.94331 2.88324 0
M  V30 2378 H 228.672 2.80905 2.84486 0
M  V30 2379 H 230.112 2.15466 3.65172 0
M  V30 2380 C 228.571 0.712396 3.29282 0
M  V30 2381 O 229.101 -0.116218 4.01532 0
M  V30 2382 N 227.307 0.546154 2.85422 0
M  V30 2383 H 226.854 1.22156 2.26794 0
M  V30 2384 H 226.812 -0.276113 3.13185 0
M  V30 2385 N 230.584 -0.659388 1.43143 0
M  V30 2386 C 231.833 -1.41518 1.43721 0
M  V30 2387 C 232.146 -1.95499 0.0628176 0
M  V30 2388 O 233.352 -2.71446 -0.0539683 0
M  V30 2389 C 231.808 -2.5608 2.52885 0
M  V30 2390 C 231.416 -2.08733 3.96402 0
M  V30 2391 C 233.16 -3.3349 2.62649 0
M  V30 2392 C 231.067 -3.20469 4.97045 0
M  V30 2393 H 229.997 -0.531705 0.534608 0
M  V30 2394 H 232.648 -0.712343 1.69109 0
M  V30 2395 H 231.03 -3.28805 2.20688 0
M  V30 2396 H 232.204 -1.43059 4.3803 0
M  V30 2397 H 230.519 -1.44219 3.90627 0
M  V30 2398 H 233.116 -4.16734 3.35017 0
M  V30 2399 H 233.459 -3.8111 1.67513 0
M  V30 2400 H 233.992 -2.67842 2.94118 0
M  V30 2401 H 230.731 -2.77824 5.93712 0
M  V30 2402 H 230.251 -3.84874 4.60034 0
M  V30 2403 H 231.93 -3.85698 5.19467 0
M  V30 2404 N 232.062 -1.29571 -0.897171 0
M  V30 2405 C 233.311 -1.1706 -1.64256 0
M  V30 2406 C 233.624 0.276476 -1.93636 0
M  V30 2407 O 234.83 0.52294 -2.66416 0
M  V30 2408 C 233.286 -2.0475 -2.95982 0
M  V30 2409 C 232.894 -3.54295 -2.74187 0
M  V30 2410 C 234.638 -2.0097 -3.73914 0
M  V30 2411 C 232.545 -4.34081 -4.01656 0
M  V30 2412 H 231.475 -0.43452 -0.616205 0
M  V30 2413 H 234.126 -1.54229 -0.994268 0
M  V30 2414 H 232.508 -1.60452 -3.62038 0
M  V30 2415 H 233.682 -4.06662 -2.1671 0
M  V30 2416 H 231.997 -3.59773 -2.09648 0
M  V30 2417 H 234.594 -2.57838 -4.68427 0
M  V30 2418 H 234.937 -0.990273 -4.0435 0
M  V30 2419 H 235.47 -2.43325 -3.14703 0
M  V30 2420 H 232.209 -5.36671 -3.76384 0
M  V30 2421 H 231.729 -3.86483 -4.58684 0
M  V30 2422 H 233.408 -4.44877 -4.69781 0
M  V30 2423 N 233.54 1.10788 -1.12088 0
M  V30 2424 C 234.786 1.82942 -0.875226 0
M  V30 2425 C 235.119 1.84779 0.597538 0
M  V30 2426 O 234.394 1.30578 1.44152 0
M  V30 2427 C 234.677 3.29789 -1.44606 0
M  V30 2428 C 234.53 3.36307 -2.98693 0
M  V30 2429 C 235.849 4.26064 -1.10261 0
M  V30 2430 H 232.968 0.664195 -0.319397 0
M  V30 2431 H 235.61 1.29867 -1.38689 0
M  V30 2432 H 233.76 3.75118 -1.01089 0
M  V30 2433 H 235.432 2.99487 -3.50864 0
M  V30 2434 H 233.675 2.76318 -3.34411 0
M  V30 2435 H 234.346 4.39694 -3.33726 0
M  V30 2436 H 236.822 3.88951 -1.4784 0
M  V30 2437 H 235.698 5.27183 -1.52869 0
M  V30 2438 H 235.959 4.42098 -0.0142953 0
M  V30 2439 N 235.018 0.912232 1.28515 0
M  V30 2440 C 236.429 0.591352 1.77087 0
M  V30 2441 C 236.78 -0.8933 1.74684 0
M  V30 2442 O 235.905 -1.69876 1.34056 0
M  V30 2443 C 236.5 1.06668 3.2157 0
M  V30 2444 C 235.059 0.79675 3.67871 0
M  V30 2445 C 234.206 1.23427 2.48316 0
M  V30 2446 H 237.157 1.09365 1.15 0
M  V30 2447 H 237.178 0.407455 3.78312 0
M  V30 2448 H 236.69 2.14726 3.23287 0
M  V30 2449 H 234.791 -0.270679 3.71616 0
M  V30 2450 H 234.904 1.40343 4.58084 0
M  V30 2451 H 233.268 0.653036 2.46186 0
M  V30 2452 H 234.051 2.32316 2.52753 0
M  V30 2453 N 236.496 -1.42363 0.676048 0
M  V30 2454 C 237.724 -2.05859 0.207268 0
M  V30 2455 C 238.139 -1.50796 -1.13605 0
M  V30 2456 O 237.496 -0.648265 -1.70598 0
M  V30 2457 C 237.547 -3.61248 0.134975 0
M  V30 2458 O 237.268 -4.1427 1.42521 0
M  V30 2459 C 238.769 -4.41859 -0.357151 0
M  V30 2460 H 235.989 -0.663431 0.100503 0
M  V30 2461 H 238.533 -1.82479 0.923136 0
M  V30 2462 H 236.688 -3.83735 -0.531588 0
M  V30 2463 H 237.102 -5.0815 1.29939 0
M  V30 2464 H 238.576 -5.50847 -0.356641 0
M  V30 2465 H 239.053 -4.16536 -1.39264 0
M  V30 2466 H 239.659 -4.24392 0.27772 0
M  V30 2467 N 237.974 -0.419461 -1.51915 0
M  V30 2468 C 238.921 0.400927 -2.27291 0
M  V30 2469 C 239.891 1.03224 -1.30131 0
M  V30 2470 O 241.076 1.05455 -1.59009 0
M  V30 2471 C 238.216 1.50603 -3.10504 0
M  V30 2472 C 237.329 0.89462 -4.22635 0
M  V30 2473 C 236.464 1.97328 -4.93189 0
M  V30 2474 C 235.503 1.33935 -5.97267 0
M  V30 2475 N 234.64 2.3586 -6.61298 0
M  V30 2476 H 239.48 -0.248251 -2.96964 0
M  V30 2477 H 237.017 -0.134266 -1.46486 0
M  V30 2478 H 238.975 2.15783 -3.57062 0
M  V30 2479 H 237.605 2.12509 -2.42981 0
M  V30 2480 H 236.657 0.131583 -3.80172 0
M  V30 2481 H 237.969 0.391641 -4.9726 0
M  V30 2482 H 237.123 2.70211 -5.43204 0
M  V30 2483 H 235.862 2.50994 -4.18155 0
M  V30 2484 H 234.867 0.595896 -5.46561 0
M  V30 2485 H 236.092 0.810252 -6.74249 0
M  V30 2486 H 234.038 2.88639 -5.89087 0
M  V30 2487 H 233.955 1.90403 -7.3163 0
M  V30 2488 H 235.223 3.08282 -7.15949 0
M  V30 2489 N 239.452 1.56882 -0.150215 0
M  V30 2490 C 240.415 2.1573 0.774157 0
M  V30 2491 C 241.415 1.0999 1.17298 0
M  V30 2492 O 242.605 1.35613 1.09338 0
M  V30 2493 C 239.737 2.72302 2.05096 0
M  V30 2494 H 240.93 2.98752 0.262201 0
M  V30 2495 H 238.483 1.55985 0.099248 0
M  V30 2496 H 239.218 1.92956 2.6065 0
M  V30 2497 H 239.003 3.49665 1.77416 0
M  V30 2498 H 240.493 3.17632 2.71109 0
M  V30 2499 N 240.93 -0.123565 1.57115 0
M  V30 2500 C 242.178 -0.83051 1.84247 0
M  V30 2501 C 242.499 -1.80629 0.73471 0
M  V30 2502 O 241.769 -1.94403 -0.241688 0
M  V30 2503 H 240.349 -0.309694 0.679778 0
M  V30 2504 H 243.011 -0.111976 1.94578 0
M  V30 2505 H 242.107 -1.37852 2.80006 0
M  V30 2506 N 242.408 -1.52605 -0.393616 0
M  V30 2507 C 243.655 -1.67424 -1.1391 0
M  V30 2508 C 243.983 -0.411859 -1.90089 0
M  V30 2509 O 243.238 0.605626 -1.86093 0
M  V30 2510 C 243.537 -2.85721 -2.14705 0
M  V30 2511 C 243.203 -4.23342 -1.55218 0
M  V30 2512 C 241.865 -4.60771 -1.3872 0
M  V30 2513 C 244.217 -5.09041 -1.11924 0
M  V30 2514 C 241.545 -5.81563 -0.774689 0
M  V30 2515 C 243.897 -6.30452 -0.520853 0
M  V30 2516 C 242.561 -6.66617 -0.343134 0
M  V30 2517 H 241.831 -0.612648 -0.416826 0
M  V30 2518 H 244.478 -1.8674 -0.424315 0
M  V30 2519 H 242.783 -2.60803 -2.92385 0
M  V30 2520 H 244.48 -2.94382 -2.72288 0
M  V30 2521 H 241.07 -3.93855 -1.69045 0
M  V30 2522 H 245.254 -4.80695 -1.23473 0
M  V30 2523 H 240.51 -6.08196 -0.625154 0
M  V30 2524 H 244.684 -6.96175 -0.177065 0
M  V30 2525 H 242.311 -7.60083 0.133571 0
M  V30 2526 N 243.887 0.651787 -1.4349 0
M  V30 2527 C 245.298 1.233 -1.40193 0
M  V30 2528 C 245.649 1.9591 -0.106727 0
M  V30 2529 O 244.774 2.01316 0.793773 0
M  V30 2530 C 245.369 2.24257 -2.53957 0
M  V30 2531 C 243.928 2.77852 -2.5392 0
M  V30 2532 C 243.075 1.52517 -2.3159 0
M  V30 2533 H 246.026 0.443717 -1.52371 0
M  V30 2534 H 246.047 3.0646 -2.25528 0
M  V30 2535 H 245.559 1.71382 -3.4821 0
M  V30 2536 H 243.66 3.34786 -1.63551 0
M  V30 2537 H 243.773 3.25299 -3.51735 0
M  V30 2538 H 242.137 1.79915 -1.80285 0
M  V30 2539 H 242.92 1.01574 -3.27929 0
M  V30 2540 N 245.365 1.30045 0.890287 0
M  V30 2541 C 246.295 1.18541 2.01172 0
M  V30 2542 C 247.276 0.0773356 1.69924 0
M  V30 2543 O 248.461 0.25845 1.92473 0
M  V30 2544 C 245.591 0.870941 3.36202 0
M  V30 2545 C 244.545 1.93637 3.81692 0
M  V30 2546 C 243.871 1.475 5.13953 0
M  V30 2547 C 245.171 3.34666 4.00994 0
M  V30 2548 H 246.865 2.12359 2.11054 0
M  V30 2549 H 244.411 1.02238 1.01407 0
M  V30 2550 H 246.364 0.777141 4.14172 0
M  V30 2551 H 245.088 -0.102926 3.26438 0
M  V30 2552 H 243.747 2.01972 3.05946 0
M  V30 2553 H 243.395 0.489551 5.00612 0
M  V30 2554 H 243.095 2.1876 5.4536 0
M  V30 2555 H 244.619 1.39489 5.94454 0
M  V30 2556 H 246.033 3.2912 4.69417 0
M  V30 2557 H 244.43 4.03966 4.43769 0
M  V30 2558 H 245.5 3.76949 3.05021 0
M  V30 2559 N 246.843 -1.10192 1.12674 0
M  V30 2560 C 247.806 -2.14786 0.799979 0
M  V30 2561 C 248.806 -1.59711 -0.18685 0
M  V30 2562 O 249.996 -1.74156 0.0392558 0
M  V30 2563 C 247.128 -3.40374 0.189228 0
M  V30 2564 H 248.321 -2.45203 1.72671 0
M  V30 2565 H 245.874 -1.25597 0.930326 0
M  V30 2566 H 246.609 -3.15577 -0.747107 0
M  V30 2567 H 246.394 -3.81637 0.899766 0
M  V30 2568 H 247.884 -4.17594 -0.0228143 0
M  V30 2569 N 248.321 -0.919034 -1.28029 0
M  V30 2570 C 249.567 -0.555757 -1.95036 0
M  V30 2571 C 249.9 0.899198 -1.72128 0
M  V30 2572 O 249.175 1.64023 -1.04531 0
M  V30 2573 C 249.458 -0.872024 -3.49382 0
M  V30 2574 C 249.311 -2.3801 -3.81669 0
M  V30 2575 C 250.63 -0.37185 -4.38526 0
M  V30 2576 H 247.749 -0.203386 -0.708381 0
M  V30 2577 H 250.391 -1.14924 -1.51303 0
M  V30 2578 H 248.541 -0.366946 -3.86763 0
M  V30 2579 H 250.213 -2.9562 -3.54128 0
M  V30 2580 H 248.456 -2.83289 -3.28526 0
M  V30 2581 H 249.127 -2.55192 -4.8947 0
M  V30 2582 H 251.603 -0.804602 -4.08247 0
M  V30 2583 H 250.479 -0.622173 -5.45362 0
M  V30 2584 H 250.74 0.727934 -4.36066 0
M  V30 2585 N 249.799 1.42003 -0.683588 0
M  V30 2586 C 250.749 2.27997 0.0121992 0
M  V30 2587 C 251.733 1.4156 0.764822 0
M  V30 2588 O 252.925 1.64935 0.642287 0
M  V30 2589 C 250.054 3.29706 0.956482 0
M  V30 2590 C 249.14 4.23625 0.200739 0
M  V30 2591 N 249.531 4.99448 -0.799087 0
M  V30 2592 C 247.829 4.43845 0.437937 0
M  V30 2593 C 248.53 5.68102 -1.25041 0
M  V30 2594 N 247.506 5.40511 -0.578648 0
M  V30 2595 H 251.308 2.84048 -0.754564 0
M  V30 2596 H 248.822 1.54071 -0.513398 0
M  V30 2597 H 250.819 3.90124 1.47 0
M  V30 2598 H 249.479 2.75216 1.72297 0
M  V30 2599 H 250.49 5.04303 -1.17893 0
M  V30 2600 H 247.167 4.00382 1.18325 0
M  V30 2601 H 248.557 6.38913 -2.07942 0
M  V30 2602 N 251.277 0.427512 1.51691 0
M  V30 2603 C 252.502 -0.143601 2.06902 0
M  V30 2604 C 252.927 -1.36536 1.29382 0
M  V30 2605 O 252.285 -1.78289 0.329043 0
M  V30 2606 C 252.333 -0.454207 3.57728 0
M  V30 2607 O 251.437 -1.54228 3.82475 0
M  V30 2608 H 250.778 -0.00617128 0.663971 0
M  V30 2609 H 253.308 0.606014 1.95419 0
M  V30 2610 H 253.318 -0.707525 4.01818 0
M  V30 2611 H 251.993 0.438812 4.13579 0
M  V30 2612 H 250.57 -1.2797 3.50254 0
M  V30 2613 N 252.755 -1.56801 0.158532 0
M  V30 2614 C 254.003 -1.96102 -0.488712 0
M  V30 2615 C 254.324 -1.04498 -1.64636 0
M  V30 2616 O 253.594 -0.108783 -1.95598 0
M  V30 2617 H 252.174 -0.724102 -0.183535 0
M  V30 2618 H 254.836 -1.93457 0.236728 0
M  V30 2619 H 253.932 -3.00097 -0.857219 0
M  V30 2620 N 254.233 0.115231 -1.57178 0
M  V30 2621 C 255.196 1.12526 -1.99676 0
M  V30 2622 C 256.196 1.34095 -0.88742 0
M  V30 2623 O 257.386 1.30548 -1.15337 0
M  V30 2624 C 254.518 2.4789 -2.34015 0
M  V30 2625 H 255.711 0.759912 -2.90113 0
M  V30 2626 H 253.264 0.359648 -1.52106 0
M  V30 2627 H 253.999 2.89339 -1.4647 0
M  V30 2628 H 253.784 2.33588 -3.14927 0
M  V30 2629 H 255.274 3.20575 -2.67622 0
M  V30 2630 N 255.711 1.52812 0.385517 0
M  V30 2631 C 256.674 1.77188 1.45386 0
M  V30 2632 C 257.674 0.641953 1.4743 0
M  V30 2633 O 258.864 0.910033 1.4854 0
M  V30 2634 C 255.996 1.87582 2.8465 0
M  V30 2635 H 257.189 2.72583 1.25054 0
M  V30 2636 H 254.742 1.43586 0.617467 0
M  V30 2637 H 255.477 0.941849 3.10322 0
M  V30 2638 H 255.262 2.69748 2.84567 0
M  V30 2639 H 256.752 2.08102 3.62054 0
M  V30 2640 N 257.189 -0.644168 1.43834 0
M  V30 2641 C 258.605 -0.960875 1.27434 0
M  V30 2642 C 258.805 -2.00499 0.200618 0
M  V30 2643 O 257.861 -2.49018 -0.417906 0
M  V30 2644 C 259.174 -1.43653 2.64167 0
M  V30 2645 C 260.722 -1.55271 2.71772 0
M  V30 2646 C 261.197 -2.06224 4.08944 0
M  V30 2647 N 262.688 -2.13513 4.11055 0
M  V30 2648 C 263.423 -2.54081 5.14033 0
M  V30 2649 N 262.919 -2.9388 6.27381 0
M  V30 2650 N 264.712 -2.54101 5.01387 0
M  V30 2651 H 256.863 0.0465779 2.12349 0
M  V30 2652 H 259.126 -0.0417638 0.94708 0
M  V30 2653 H 258.832 -0.743706 3.43747 0
M  V30 2654 H 258.706 -2.40993 2.90176 0
M  V30 2655 H 261.093 -2.23653 1.92519 0
M  V30 2656 H 261.174 -0.563395 2.49519 0
M  V30 2657 H 260.818 -1.38441 4.88668 0
M  V30 2658 H 260.748 -3.06003 4.28567 0
M  V30 2659 H 263.239 -1.85493 3.29242 0
M  V30 2660 H 263.552 -3.2361 7.01781 0
M  V30 2661 H 261.897 -2.91663 6.30839 0
M  V30 2662 H 265.088 -2.22391 4.11898 0
M  V30 2663 H 265.261 -2.85394 5.81768 0
M  V30 2664 N 258.668 -1.30515 -0.883378 0
M  V30 2665 C 259.631 -1.1701 -1.97082 0
M  V30 2666 C 260.631 -0.10089 -1.60483 0
M  V30 2667 O 261.821 -0.349127 -1.70666 0
M  V30 2668 C 258.953 -0.793045 -3.31547 0
M  V30 2669 H 260.146 -2.13622 -2.10489 0
M  V30 2670 H 257.699 -1.13935 -1.06998 0
M  V30 2671 H 258.434 0.172499 -3.23841 0
M  V30 2672 H 258.219 -1.56576 -3.5948 0
M  V30 2673 H 259.709 -0.722073 -4.1131 0
M  V30 2674 N 260.146 1.09593 -1.13257 0
M  V30 2675 C 261.394 1.81375 -0.891492 0
M  V30 2676 C 261.715 1.86049 0.584009 0
M  V30 2677 O 260.985 1.34481 1.42449 0
M  V30 2678 H 259.565 0.671708 -0.326828 0
M  V30 2679 H 262.227 1.3256 -1.42877 0
M  V30 2680 H 261.323 2.84612 -1.28071 0
M  V30 2681 N 261.624 0.925811 1.2754 0
M  V30 2682 C 262.87 0.566092 1.94739 0
M  V30 2683 C 263.203 -0.890057 1.72603 0
M  V30 2684 O 262.478 -1.63467 1.05399 0
M  V30 2685 C 262.761 0.89054 3.48915 0
M  V30 2686 C 262.614 2.4003 3.80402 0
M  V30 2687 C 263.933 0.395101 4.38323 0
M  V30 2688 H 261.052 0.20714 0.707292 0
M  V30 2689 H 263.694 1.15725 1.50691 0
M  V30 2690 H 261.844 0.387452 3.86563 0
M  V30 2691 H 263.516 2.97494 3.52555 0
M  V30 2692 H 261.759 2.85028 3.2702 0
M  V30 2693 H 262.43 2.57785 4.8811 0
M  V30 2694 H 264.906 0.826241 4.07814 0
M  V30 2695 H 263.782 0.651086 5.45025 0
M  V30 2696 H 264.043 -0.704798 4.36446 0
M  V30 2697 N 263.102 -1.41638 0.69111 0
M  V30 2698 C 264.332 -2.0533 0.228758 0
M  V30 2699 C 264.74 -1.52089 -1.12541 0
M  V30 2700 O 264.083 -0.662145 -1.71351 0
M  V30 2701 C 264.145 -3.59349 0.10407 0
M  V30 2702 C 263.809 -4.35362 1.38956 0
M  V30 2703 C 264.806 -4.64942 2.32648 0
M  V30 2704 C 262.491 -4.74714 1.64169 0
M  V30 2705 C 264.485 -5.32828 3.49818 0
M  V30 2706 C 262.172 -5.42338 2.81625 0
M  V30 2707 C 263.17 -5.71322 3.74273 0
M  V30 2708 O 262.858 -6.37554 4.89673 0
M  V30 2709 H 262.59 -0.667796 0.104997 0
M  V30 2710 H 265.144 -1.82477 0.942938 0
M  V30 2711 H 263.374 -3.80924 -0.665839 0
M  V30 2712 H 265.063 -4.04633 -0.320519 0
M  V30 2713 H 265.829 -4.35025 2.14425 0
M  V30 2714 H 261.708 -4.51538 0.929202 0
M  V30 2715 H 265.252 -5.55368 4.22152 0
M  V30 2716 H 261.149 -5.71673 2.99768 0
M  V30 2717 H 261.917 -6.56049 4.8943 0
M  V30 2718 N 264.58 -0.43555 -1.51462 0
M  V30 2719 C 265.528 0.391205 -2.29287 0
M  V30 2720 C 266.522 1.02247 -1.35062 0
M  V30 2721 O 267.728 0.957646 -1.52411 0
M  V30 2722 H 264.103 0.144968 -0.737895 0
M  V30 2723 H 266.074 -0.286051 -2.97026 0
M  V30 2724 C 264.823 1.48096 -3.14583 0
M  V30 2725 H 264.146 1.00457 -3.86973 0
M  V30 2726 H 265.586 2.03273 -3.72097 0
M  V30 2727 C 264.045 2.46321 -2.29843 0
M  V30 2728 O 264.575 3.50815 -1.95682 0
M  V30 2729 N 262.781 2.17166 -1.931 0
M  V30 2730 H 262.328 1.32218 -2.21079 0
M  V30 2731 H 262.286 2.83127 -1.36698 0
M  V30 2732 N 266.058 1.56714 -0.166846 0
M  V30 2733 C 266.988 2.20754 0.760913 0
M  V30 2734 C 267.969 1.16178 1.24244 0
M  V30 2735 O 269.154 1.44592 1.29641 0
M  V30 2736 C 266.284 2.84478 1.99223 0
M  V30 2737 C 265.238 3.95053 1.64672 0
M  V30 2738 C 264.564 4.45805 2.95232 0
M  V30 2739 C 265.864 5.14865 0.878155 0
M  V30 2740 H 267.558 2.98537 0.22713 0
M  V30 2741 H 265.104 1.43596 0.107805 0
M  V30 2742 H 267.057 3.27951 2.64624 0
M  V30 2743 H 265.781 2.04056 2.55007 0
M  V30 2744 H 264.44 3.52228 1.01641 0
M  V30 2745 H 264.088 3.62181 3.49047 0
M  V30 2746 H 263.788 5.204 2.7287 0
M  V30 2747 H 265.312 4.91962 3.6167 0
M  V30 2748 H 266.726 5.55059 1.43466 0
M  V30 2749 H 265.123 5.95348 0.753738 0
M  V30 2750 H 266.193 4.84735 -0.126377 0
M  V30 2751 N 267.536 -0.106894 1.57237 0
M  V30 2752 C 268.764 -0.826389 1.8968 0
M  V30 2753 C 269.179 -1.72856 0.759353 0
M  V30 2754 O 268.536 -1.80503 -0.269263 0
M  V30 2755 C 268.587 -1.64967 3.21665 0
M  V30 2756 O 268.308 -0.783804 4.31031 0
M  V30 2757 C 269.809 -2.47326 3.67892 0
M  V30 2758 H 267.029 -0.236927 0.627779 0
M  V30 2759 H 269.573 -0.0876593 2.04312 0
M  V30 2760 H 267.728 -2.34103 3.08666 0
M  V30 2761 H 268.142 -1.35284 5.06753 0
M  V30 2762 H 269.616 -3.00604 4.6297 0
M  V30 2763 H 270.093 -3.25247 2.95146 0
M  V30 2764 H 270.699 -1.83411 3.83719 0
M  V30 2765 N 269.014 -1.53014 -0.377408 0
M  V30 2766 C 269.961 -1.78616 -1.46168 0
M  V30 2767 C 270.931 -0.629917 -1.53692 0
M  V30 2768 O 272.116 -0.870861 -1.69766 0
M  V30 2769 C 269.256 -1.97123 -2.8326 0
M  V30 2770 C 268.369 -3.24831 -2.84796 0
M  V30 2771 C 267.504 -3.33591 -4.13389 0
M  V30 2772 C 266.543 -4.55377 -4.09021 0
M  V30 2773 N 265.68 -4.61355 -5.29241 0
M  V30 2774 H 270.52 -2.71142 -1.23637 0
M  V30 2775 H 268.057 -1.34326 -0.599577 0
M  V30 2776 H 270.015 -2.05839 -3.62886 0
M  V30 2777 H 268.645 -1.07946 -3.04216 0
M  V30 2778 H 267.697 -3.25128 -1.97474 0
M  V30 2779 H 269.009 -4.14523 -2.77439 0
M  V30 2780 H 268.163 -3.41554 -5.01424 0
M  V30 2781 H 266.902 -2.41894 -4.23484 0
M  V30 2782 H 265.907 -4.47527 -3.19373 0
M  V30 2783 H 267.132 -5.48402 -4.00539 0
M  V30 2784 H 265.078 -3.72554 -5.39944 0
M  V30 2785 H 264.995 -5.44935 -5.24006 0
M  V30 2786 H 266.263 -4.73586 -6.19141 0
M  V30 2787 N 270.492 0.636531 -1.44174 0
M  V30 2788 C 271.717 1.42847 -1.50364 0
M  V30 2789 C 272.142 1.87665 -0.127867 0
M  V30 2790 O 271.5 1.58408 0.88185 0
M  V30 2791 C 271.548 2.62854 -2.4686 0
M  V30 2792 O 270.652 3.62501 -1.9664 0
M  V30 2793 H 269.993 0.427642 -0.507955 0
M  V30 2794 H 272.523 0.777422 -1.89255 0
M  V30 2795 H 272.533 3.10465 -2.64718 0
M  V30 2796 H 271.208 2.29578 -3.46795 0
M  V30 2797 H 269.785 3.21735 -1.88523 0
M  V30 2798 N 271.97 1.30982 0.876444 0
M  V30 2799 C 272.9 1.20668 1.99903 0
M  V30 2800 C 273.881 0.095354 1.69833 0
M  V30 2801 O 275.066 0.27885 1.92188 0
M  V30 2802 C 272.196 0.90655 3.3526 0
M  V30 2803 C 271.15 1.97675 3.79617 0
M  V30 2804 C 270.476 1.52943 5.1236 0
M  V30 2805 C 271.776 3.389 3.97422 0
M  V30 2806 H 273.47 2.14586 2.0879 0
M  V30 2807 H 271.016 1.03308 1.00317 0
M  V30 2808 H 272.969 0.821025 4.13324 0
M  V30 2809 H 271.693 -0.0682969 3.26529 0
M  V30 2810 H 270.352 2.05205 3.03787 0
M  V30 2811 H 270 0.54262 5.00065 0
M  V30 2812 H 269.7 2.24532 5.43009 0
M  V30 2813 H 271.224 1.45786 5.92941 0
M  V30 2814 H 272.638 3.34081 4.659 0
M  V30 2815 H 271.035 4.0865 4.3946 0
M  V30 2816 H 272.105 3.80163 3.01006 0
M  V30 2817 N 273.449 -1.08991 1.13837 0
M  V30 2818 C 274.412 -2.13925 0.822715 0
M  V30 2819 C 275.412 -1.599 -0.1699 0
M  V30 2820 O 276.602 -1.74104 0.0577251 0
M  V30 2821 C 273.734 -3.40155 0.225318 0
M  V30 2822 H 274.927 -2.43358 1.75262 0
M  V30 2823 H 272.48 -1.24603 0.943594 0
M  V30 2824 H 273.215 -3.16352 -0.713594 0
M  V30 2825 H 273 -3.80661 0.940193 0
M  V30 2826 H 274.49 -4.17594 0.0214784 0
M  V30 2827 N 274.927 -0.932562 -1.27047 0
M  V30 2828 C 275.857 -0.452902 -2.29066 0
M  V30 2829 C 276.838 0.489338 -1.62909 0
M  V30 2830 O 278.023 0.393046 -1.90181 0
M  V30 2831 C 275.153 0.290698 -3.46081 0
M  V30 2832 C 274.107 -0.564168 -4.24265 0
M  V30 2833 C 273.433 0.308886 -5.33807 0
M  V30 2834 C 274.733 -1.83112 -4.89149 0
M  V30 2835 H 276.427 -1.30552 -2.69437 0
M  V30 2836 H 273.973 -0.629201 -1.29526 0
M  V30 2837 H 275.926 0.637233 -4.16554 0
M  V30 2838 H 274.65 1.17738 -3.0464 0
M  V30 2839 H 273.309 -0.893477 -3.55545 0
M  V30 2840 H 272.957 1.19467 -4.88607 0
M  V30 2841 H 272.657 -0.259633 -5.87026 0
M  V30 2842 H 274.181 0.650884 -6.07121 0
M  V30 2843 H 275.595 -1.55236 -5.51883 0
M  V30 2844 H 273.992 -2.34353 -5.52448 0
M  V30 2845 H 275.062 -2.54772 -4.12576 0
M  V30 2846 N 276.405 1.4127 -0.698611 0
M  V30 2847 C 277.315 2.34573 -0.0357891 0
M  V30 2848 C 278.331 1.56393 0.762701 0
M  V30 2849 O 279.507 1.8886 0.699564 0
M  V30 2850 C 276.572 3.35159 0.887089 0
M  V30 2851 C 275.633 4.29225 0.0804634 0
M  V30 2852 C 274.866 5.25006 0.959387 0
M  V30 2853 O 275.089 5.26314 2.19886 0
M  V30 2854 O 274.023 6.00519 0.407439 0
M  V30 2855 H 277.849 2.92838 -0.804957 0
M  V30 2856 H 275.434 1.42175 -0.458966 0
M  V30 2857 H 277.316 3.9689 1.41621 0
M  V30 2858 H 275.991 2.79333 1.6357 0
M  V30 2859 H 274.898 3.70833 -0.493328 0
M  V30 2860 H 276.231 4.88157 -0.629547 0
M  V30 2861 N 277.883 0.443576 1.51229 0
M  V30 2862 C 279.129 -0.11321 2.03085 0
M  V30 2863 C 279.484 -1.39841 1.32145 0
M  V30 2864 O 278.777 -1.86723 0.429542 0
M  V30 2865 C 278.971 -0.380579 3.55368 0
M  V30 2866 C 278.8 0.877157 4.41062 0
M  V30 2867 C 277.57 1.4125 4.85156 0
M  V30 2868 C 279.768 1.76503 4.83064 0
M  V30 2869 N 277.75 2.62213 5.55083 0
M  V30 2870 C 279.121 2.82067 5.52122 0
M  V30 2871 C 281.176 1.7787 4.65045 0
M  V30 2872 C 279.879 3.88952 6.05069 0
M  V30 2873 C 281.905 2.83694 5.18914 0
M  V30 2874 C 281.267 3.87978 5.87922 0
M  V30 2875 H 277.366 -0.00210178 0.781997 0
M  V30 2876 H 279.95 0.605641 1.85041 0
M  V30 2877 H 278.121 -1.06847 3.73414 0
M  V30 2878 H 279.853 -0.929274 3.93887 0
M  V30 2879 H 276.608 0.965542 4.63653 0
M  V30 2880 H 277.032 3.23568 5.9467 0
M  V30 2881 H 281.674 0.985744 4.11148 0
M  V30 2882 H 279.392 4.69082 6.58018 0
M  V30 2883 H 282.978 2.85702 5.06819 0
M  V30 2884 H 281.858 4.68517 6.28857 0
M  V30 2885 N 279.361 -1.56624 0.175154 0
M  V30 2886 C 280.324 -2.16934 -0.739738 0
M  V30 2887 C 281.324 -1.11842 -1.15533 0
M  V30 2888 O 282.514 -1.37335 -1.07167 0
M  V30 2889 C 279.646 -2.75531 -2.00738 0
M  V30 2890 H 280.839 -2.99131 -0.214639 0
M  V30 2891 H 278.392 -1.56123 -0.0744197 0
M  V30 2892 H 279.127 -1.97078 -2.57548 0
M  V30 2893 H 278.912 -3.52444 -1.71831 0
M  V30 2894 H 280.402 -3.21904 -2.66021 0
M  V30 2895 N 280.839 0.0985539 -1.57292 0
M  V30 2896 C 282.079 0.808332 -1.87737 0
M  V30 2897 C 282.443 1.7607 -0.76572 0
M  V30 2898 O 283.644 2.51358 -0.952499 0
M  V30 2899 C 281.915 1.52093 -3.23423 0
M  V30 2900 S 283.474 2.26947 -3.75554 0
M  V30 2901 H 280.292 0.269377 -0.657995 0
M  V30 2902 H 282.894 0.0656269 -1.9539 0
M  V30 2903 H 281.598 0.81363 -4.02254 0
M  V30 2904 H 281.129 2.30361 -3.189 0
M  V30 2905 H 283.144 3.53027 -3.48692 0
M  V30 2906 N 282.317 1.53212 0.369288 0
M  V30 2907 C 283.542 1.73423 1.1375 0
M  V30 2908 C 283.967 0.460404 1.82378 0
M  V30 2909 O 283.325 -0.585298 1.71592 0
M  V30 2910 C 283.373 2.89769 2.1463 0
M  V30 2911 O 282.477 2.58119 3.21634 0
M  V30 2912 H 281.818 0.576061 0.330227 0
M  V30 2913 H 284.348 2.00083 0.427547 0
M  V30 2914 H 284.358 3.15829 2.58294 0
M  V30 2915 H 283.033 3.8217 1.64071 0
M  V30 2916 H 281.61 2.42864 2.82969 0
M  V30 2917 N 283.795 -0.628877 1.44509 0
M  V30 2918 C 285.043 -1.38565 1.4712 0
M  V30 2919 C 285.364 -1.94712 0.105899 0
M  V30 2920 O 284.634 -1.75912 -0.862079 0
M  V30 2921 H 283.214 -0.514333 0.541729 0
M  V30 2922 H 285.876 -0.740018 1.80305 0
M  V30 2923 H 284.972 -2.21583 2.19789 0
M  V30 2924 N 285.273 -1.31445 -0.869486 0
M  V30 2925 C 286.522 -1.20517 -1.61736 0
M  V30 2926 C 286.835 0.235341 -1.94179 0
M  V30 2927 O 288.041 0.466312 -2.67465 0
M  V30 2928 C 286.497 -2.10982 -2.91573 0
M  V30 2929 C 286.105 -3.60032 -2.66611 0
M  V30 2930 C 287.849 -2.08856 -3.69567 0
M  V30 2931 C 285.756 -4.42503 -3.92358 0
M  V30 2932 H 284.686 -0.447493 -0.606849 0
M  V30 2933 H 287.337 -1.56303 -0.96133 0
M  V30 2934 H 285.719 -1.68095 -3.58553 0
M  V30 2935 H 286.893 -4.11167 -2.08035 0
M  V30 2936 H 285.208 -3.64139 -2.0197 0
M  V30 2937 H 287.805 -2.67716 -4.62852 0
M  V30 2938 H 288.148 -1.07582 -4.02159 0
M  V30 2939 H 288.681 -2.49945 -3.09471 0
M  V30 2940 H 285.42 -5.44533 -3.64916 0
M  V30 2941 H 284.94 -3.96125 -4.50383 0
M  V30 2942 H 286.619 -4.54741 -4.60238 0
M  V30 2943 N 286.751 1.08385 -1.14413 0
M  V30 2944 C 288.167 1.32844 -0.884563 0
M  V30 2945 C 288.367 1.95841 0.474181 0
M  V30 2946 O 287.423 2.21158 1.21842 0
M  V30 2947 C 288.736 2.22978 -2.01745 0
M  V30 2948 C 290.284 2.36458 -2.05077 0
M  V30 2949 C 290.759 3.29934 -3.1766 0
M  V30 2950 N 292.25 3.37511 -3.17239 0
M  V30 2951 C 292.985 4.09871 -4.0099 0
M  V30 2952 N 292.481 4.84936 -4.94781 0
M  V30 2953 N 294.274 4.05704 -3.89051 0
M  V30 2954 H 286.425 0.658756 -2.01926 0
M  V30 2955 H 288.688 0.352821 -0.879899 0
M  V30 2956 H 288.394 1.83934 -2.99769 0
M  V30 2957 H 288.268 3.23441 -1.94077 0
M  V30 2958 H 290.655 2.7476 -1.0766 0
M  V30 2959 H 290.736 1.35736 -2.16816 0
M  V30 2960 H 290.38 2.92352 -4.15322 0
M  V30 2961 H 290.31 4.30584 -3.03158 0
M  V30 2962 H 292.801 2.83996 -2.49308 0
M  V30 2963 H 293.114 5.37612 -5.55151 0
M  V30 2964 H 291.459 4.83988 -4.98779 0
M  V30 2965 H 294.65 3.46167 -3.15097 0
M  V30 2966 H 294.823 4.61834 -4.54547 0
M  V30 2967 N 288.23 0.939286 1.26551 0
M  V30 2968 C 289.479 0.581601 1.93133 0
M  V30 2969 C 289.792 -0.883224 1.74524 0
M  V30 2970 O 290.998 -1.3502 2.35546 0
M  V30 2971 C 289.454 0.989425 3.46032 0
M  V30 2972 C 289.062 2.47573 3.73379 0
M  V30 2973 C 290.806 0.703544 4.18629 0
M  V30 2974 C 288.713 2.82235 5.19709 0
M  V30 2975 H 287.643 0.213803 0.723052 0
M  V30 2976 H 290.294 1.14167 1.4366 0
M  V30 2977 H 288.676 0.357902 3.94379 0
M  V30 2978 H 289.85 3.15614 3.35744 0
M  V30 2979 H 288.165 2.73471 3.1401 0
M  V30 2980 H 290.762 0.938869 5.26393 0
M  V30 2981 H 291.105 -0.359639 4.14744 0
M  V30 2982 H 291.638 1.2947 3.76141 0
M  V30 2983 H 288.377 3.87509 5.28694 0
M  V30 2984 H 287.897 2.18854 5.58447 0
M  V30 2985 H 289.576 2.70599 5.87695 0
M  V30 2986 N 289.708 -1.40897 0.706093 0
M  V30 2987 C 290.656 -2.32572 0.0361893 0
M  V30 2988 C 291.65 -1.51532 -0.757266 0
M  V30 2989 O 292.856 -1.67396 -0.661703 0
M  V30 2990 H 289.231 -0.751966 -0.00709935 0
M  V30 2991 H 291.202 -2.86733 0.826249 0
M  V30 2992 C 289.951 -3.36418 -0.87854 0
M  V30 2993 H 289.274 -3.98836 -0.277401 0
M  V30 2994 H 290.714 -4.0308 -1.3154 0
M  V30 2995 C 289.173 -2.71141 -1.99961 0
M  V30 2996 O 289.703 -2.56735 -3.0895 0
M  V30 2997 N 287.909 -2.29671 -1.78043 0
M  V30 2998 H 287.456 -2.41588 -0.894042 0
M  V30 2999 H 287.414 -1.86332 -2.53235 0
M  V30 3000 N 291.186 -0.45159 -1.50991 0
M  V30 3001 C 292.426 0.109066 -2.04109 0
M  V30 3002 C 292.79 1.38716 -1.32747 0
M  V30 3003 O 293.991 2.02896 -1.76314 0
M  V30 3004 C 292.262 0.308354 -3.56067 0
M  V30 3005 S 293.821 0.830369 -4.30872 0
M  V30 3006 H 290.639 0.0251531 -0.710555 0
M  V30 3007 H 293.241 -0.614264 -1.85599 0
M  V30 3008 H 291.945 -0.627962 -4.05567 0
M  V30 3009 H 291.476 1.05836 -3.78896 0
M  V30 3010 H 293.491 2.10626 -4.49279 0
M  V30 3011 N 292.664 1.56529 -0.183458 0
M  V30 3012 C 293.91 1.97537 0.459036 0
M  V30 3013 C 294.243 1.06989 1.62071 0
M  V30 3014 O 293.518 0.11948 1.94133 0
M  V30 3015 C 293.801 3.47874 0.930368 0
M  V30 3016 C 293.654 4.492 -0.232317 0
M  V30 3017 C 294.973 4.01612 1.79989 0
M  V30 3018 H 292.092 0.718204 0.165383 0
M  V30 3019 H 294.734 1.88042 -0.272038 0
M  V30 3020 H 292.884 3.56095 1.55333 0
M  V30 3021 H 294.556 4.53027 -0.86972 0
M  V30 3022 H 292.799 4.24657 -0.885928 0
M  V30 3023 H 293.47 5.51823 0.139796 0
M  V30 3024 H 295.946 3.96097 1.27461 0
M  V30 3025 H 294.822 5.07195 2.09867 0
M  V30 3026 H 295.083 3.46163 2.74998 0
M  V30 3027 N 294.142 -0.090211 1.57342 0
M  V30 3028 C 295.105 -1.09335 2.01441 0
M  V30 3029 C 296.105 -1.32666 0.908641 0
M  V30 3030 O 297.295 -1.28697 1.174 0
M  V30 3031 C 294.427 -2.44136 2.3793 0
M  V30 3032 H 295.62 -0.713662 2.91285 0
M  V30 3033 H 293.173 -0.335404 1.52659 0
M  V30 3034 H 293.908 -2.86972 1.51055 0
M  V30 3035 H 293.693 -2.28548 3.18603 0
M  V30 3036 H 295.183 -3.16277 2.72688 0
M  V30 3037 N 295.62 -1.53406 -0.361157 0
M  V30 3038 C 297.031 -1.61442 -0.937728 0
M  V30 3039 C 297.382 -0.48461 -1.90121 0
M  V30 3040 O 296.507 0.388312 -2.12888 0
M  V30 3041 C 297.102 -2.92624 -1.70753 0
M  V30 3042 C 295.661 -3.02981 -2.23337 0
M  V30 3043 C 294.808 -2.5677 -1.04712 0
M  V30 3044 H 297.759 -1.58083 -0.139816 0
M  V30 3045 H 297.78 -2.80675 -2.56908 0
M  V30 3046 H 297.292 -3.74834 -1.00604 0
M  V30 3047 H 295.393 -2.25368 -2.96715 0
M  V30 3048 H 295.506 -4.0814 -2.50916 0
M  V30 3049 H 293.87 -2.11752 -1.41539 0
M  V30 3050 H 294.653 -3.41402 -0.360539 0
M  V30 3051 N 297.098 0.621204 -1.44841 0
M  V30 3052 C 298.346 1.37783 -1.47852 0
M  V30 3053 C 298.667 1.94653 -0.116224 0
M  V30 3054 O 297.937 1.76367 0.852737 0
M  V30 3055 H 296.517 0.511453 -0.544449 0
M  V30 3056 H 299.179 0.730446 -1.80694 0
M  V30 3057 H 298.275 2.20414 -2.20961 0
M  V30 3058 N 298.576 1.31904 0.862503 0
M  V30 3059 C 299.822 1.22197 1.61851 0
M  V30 3060 C 300.155 -0.217641 1.92977 0
M  V30 3061 O 299.43 -1.15264 1.56666 0
M  V30 3062 C 299.713 2.07378 2.94391 0
M  V30 3063 C 299.566 3.59678 2.70096 0
M  V30 3064 C 300.885 1.92891 3.95577 0
M  V30 3065 H 298.004 0.445255 0.587296 0
M  V30 3066 H 300.646 1.6177 0.99651 0
M  V30 3067 H 298.796 1.73758 3.47477 0
M  V30 3068 H 300.468 4.03472 2.23625 0
M  V30 3069 H 298.711 3.82735 2.04197 0
M  V30 3070 H 299.382 4.14595 3.64438 0
M  V30 3071 H 301.858 2.22327 3.51724 0
M  V30 3072 H 300.734 2.54781 4.86187 0
M  V30 3073 H 300.995 0.894315 4.3296 0
M  V30 3074 N 300.054 -1.07777 1.14986 0
M  V30 3075 C 301.303 -1.79669 0.916617 0
M  V30 3076 C 301.616 -1.87474 -0.557917 0
M  V30 3077 O 302.822 -2.55845 -0.908617 0
M  V30 3078 C 301.278 -3.22848 1.59051 0
M  V30 3079 C 300.886 -3.23257 3.10176 0
M  V30 3080 C 302.63 -3.99379 1.43864 0
M  V30 3081 C 300.537 -4.61063 3.70372 0
M  V30 3082 H 299.467 -0.673349 0.33929 0
M  V30 3083 H 302.118 -1.21003 1.37951 0
M  V30 3084 H 300.5 -3.8168 1.0553 0
M  V30 3085 H 301.674 -2.74095 3.70417 0
M  V30 3086 H 299.989 -2.60222 3.25074 0
M  V30 3087 H 302.586 -5.0122 1.86232 0
M  V30 3088 H 302.929 -4.14511 0.385564 0
M  V30 3089 H 303.462 -3.47032 1.94457 0
M  V30 3090 H 300.201 -4.51135 4.7556 0
M  V30 3091 H 299.721 -5.1048 3.14913 0
M  V30 3092 H 301.4 -5.30034 3.71043 0
M  V30 3093 N 301.532 -0.945985 -1.26051 0
M  V30 3094 C 302.762 -0.612136 -1.97323 0
M  V30 3095 C 303.17 0.818171 -1.70595 0
M  V30 3096 O 302.513 1.55777 -0.973613 0
M  V30 3097 C 302.575 -0.780347 -3.50929 0
M  V30 3098 C 302.239 -2.18619 -4.01317 0
M  V30 3099 C 303.236 -3.16209 -4.12683 0
M  V30 3100 C 300.921 -2.50805 -4.35203 0
M  V30 3101 C 302.915 -4.44085 -4.57238 0
M  V30 3102 C 300.602 -3.78912 -4.79446 0
M  V30 3103 C 301.6 -4.75365 -4.90425 0
M  V30 3104 O 301.288 -6.01191 -5.3369 0
M  V30 3105 H 301.02 -0.229134 -0.635982 0
M  V30 3106 H 303.574 -1.27036 -1.61404 0
M  V30 3107 H 301.804 -0.0649864 -3.86645 0
M  V30 3108 H 303.493 -0.448842 -4.03411 0
M  V30 3109 H 304.259 -2.92668 -3.86744 0
M  V30 3110 H 300.138 -1.76463 -4.2589 0
M  V30 3111 H 303.682 -5.19373 -4.65723 0
M  V30 3112 H 299.579 -4.02265 -5.0483 0
M  V30 3113 H 300.347 -6.04442 -5.51899 0
M  V30 3114 N 303.011 1.40521 -0.713556 0
M  V30 3115 C 304.236 2.05759 -0.26035 0
M  V30 3116 C 304.661 1.53403 1.08854 0
M  V30 3117 O 304.019 0.668535 1.68524 0
M  V30 3118 C 304.067 3.59745 -0.248122 0
M  V30 3119 O 303.171 4.05123 0.77131 0
M  V30 3120 H 302.512 0.652564 -0.122703 0
M  V30 3121 H 305.042 1.79958 -0.973467 0
M  V30 3122 H 305.052 4.07911 -0.0851129 0
M  V30 3123 H 303.727 3.97218 -1.2325 0
M  V30 3124 H 302.304 3.68422 0.57619 0
M  V30 3125 N 304.489 0.459591 1.5075 0
M  V30 3126 C 305.421 -0.37665 2.26084 0
M  V30 3127 C 306.434 -0.967109 1.30961 0
M  V30 3128 O 307.623 -0.857468 1.56556 0
M  V30 3129 C 304.723 -1.54112 3.01832 0
M  V30 3130 C 303.896 -1.06553 4.24223 0
M  V30 3131 C 302.955 -2.1027 4.82362 0
M  V30 3132 O 301.981 -1.68798 5.43595 0
M  V30 3133 N 303.183 -3.42974 4.68347 0
M  V30 3134 H 305.948 0.269124 2.98489 0
M  V30 3135 H 303.509 0.28972 1.59287 0
M  V30 3136 H 305.501 -2.23165 3.37608 0
M  V30 3137 H 304.071 -2.0918 2.32298 0
M  V30 3138 H 303.291 -0.201274 3.93686 0
M  V30 3139 H 304.579 -0.725516 5.03601 0
M  V30 3140 H 303.977 -3.79385 4.19623 0
M  V30 3141 H 302.534 -4.07858 5.08424 0
M  V30 3142 N 305.967 -1.56429 0.191757 0
M  V30 3143 C 307.195 -2.01867 -0.453586 0
M  V30 3144 C 307.61 -1.07191 -1.5542 0
M  V30 3145 O 306.967 -0.0762108 -1.82341 0
M  V30 3146 C 307.018 -3.47017 -1.013 0
M  V30 3147 O 306.739 -4.38078 0.0437005 0
M  V30 3148 C 308.24 -4.07956 -1.73456 0
M  V30 3149 H 305.46 -0.661211 -0.114199 0
M  V30 3150 H 308.004 -2.02295 0.299483 0
M  V30 3151 H 306.159 -3.47298 -1.71647 0
M  V30 3152 H 306.573 -5.23178 -0.372212 0
M  V30 3153 H 308.047 -5.1138 -2.07833 0
M  V30 3154 H 308.524 -3.51222 -2.63704 0
M  V30 3155 H 309.13 -4.11437 -1.07702 0
M  V30 3156 N 307.445 0.0818655 -1.57387 0
M  V30 3157 C 308.408 1.08265 -2.02018 0
M  V30 3158 C 309.408 1.32183 -0.915664 0
M  V30 3159 O 310.598 1.28073 -1.18081 0
M  V30 3160 C 307.73 2.42871 -2.39221 0
M  V30 3161 H 308.923 0.698204 -2.91659 0
M  V30 3162 H 306.476 0.327303 -1.52835 0
M  V30 3163 H 307.211 2.86167 -1.52575 0
M  V30 3164 H 306.996 2.26855 -3.19811 0
M  V30 3165 H 308.486 3.14826 -2.74362 0
M  V30 3166 N 308.923 1.53595 0.353017 0
M  V30 3167 C 310.169 1.70638 1.09593 0
M  V30 3168 C 310.502 0.463286 1.88593 0
M  V30 3169 O 309.777 -0.539597 1.86865 0
M  V30 3170 C 310.06 2.96406 2.04489 0
M  V30 3171 C 309.913 4.30901 1.29014 0
M  V30 3172 C 311.232 3.17812 3.0444 0
M  V30 3173 H 308.351 0.620913 0.397034 0
M  V30 3174 H 310.993 1.86254 0.375446 0
M  V30 3175 H 309.143 2.83223 2.65927 0
M  V30 3176 H 310.815 4.55917 0.702638 0
M  V30 3177 H 309.058 4.29741 0.592071 0
M  V30 3178 H 309.729 5.1506 1.98537 0
M  V30 3179 H 312.205 3.30263 2.53112 0
M  V30 3180 H 311.081 4.07223 3.6805 0
M  V30 3181 H 311.342 2.33669 3.75301 0
M  V30 3182 N 310.401 -0.613514 1.45168 0
M  V30 3183 C 311.311 -1.75296 1.55912 0
M  V30 3184 C 312.327 -1.68244 0.443856 0
M  V30 3185 O 313.503 -1.88706 0.70371 0
M  V30 3186 C 310.568 -3.1174 1.5172 0
M  V30 3187 C 309.629 -3.30291 2.74238 0
M  V30 3188 C 308.862 -4.60226 2.70236 0
M  V30 3189 O 309.085 -5.42168 1.77229 0
M  V30 3190 O 308.019 -4.81361 3.61352 0
M  V30 3191 H 311.845 -1.69183 2.52212 0
M  V30 3192 H 309.43 -0.776886 1.27612 0
M  V30 3193 H 311.312 -3.93044 1.51968 0
M  V30 3194 H 309.987 -3.18357 0.585697 0
M  V30 3195 H 308.894 -2.48598 2.79553 0
M  V30 3196 H 310.227 -3.28547 3.66494 0
M  V30 3197 N 311.879 -1.3236 -0.855495 0
M  V30 3198 C 312.827 -1.2118 -1.9854 0
M  V30 3199 C 313.821 -0.116788 -1.68997 0
M  V30 3200 O 315.027 -0.279657 -1.77814 0
M  V30 3201 H 311.402 -0.375608 -0.651477 0
M  V30 3202 H 313.373 -2.16743 -2.05098 0
M  V30 3203 C 312.122 -0.950849 -3.34446 0
M  V30 3204 H 311.445 -1.78563 -3.57708 0
M  V30 3205 H 312.885 -0.912863 -4.14057 0
M  V30 3206 C 311.344 0.346404 -3.35114 0
M  V30 3207 O 311.874 1.35855 -3.7803 0
M  V30 3208 N 310.08 0.36808 -2.88259 0
M  V30 3209 H 309.627 -0.456102 -2.5353 0
M  V30 3210 H 309.585 1.23591 -2.89089 0
M  V30 3211 N 313.357 1.07166 -1.15556 0
M  V30 3212 C 314.587 1.83248 -0.954133 0
M  V30 3213 C 314.995 1.82449 0.500911 0
M  V30 3214 O 314.338 1.23575 1.35923 0
M  V30 3215 C 314.4 3.31393 -1.39351 0
M  V30 3216 C 314.064 3.5591 -2.86666 0
M  V30 3217 C 315.061 3.49695 -3.8472 0
M  V30 3218 C 312.746 3.83515 -3.24379 0
M  V30 3219 C 314.74 3.70737 -5.18491 0
M  V30 3220 C 312.427 4.04209 -4.58321 0
M  V30 3221 C 313.425 3.97815 -5.55186 0
M  V30 3222 O 313.113 4.17954 -6.86709 0
M  V30 3223 H 312.845 0.584941 -0.338851 0
M  V30 3224 H 315.399 1.36169 -1.53777 0
M  V30 3225 H 313.629 3.79292 -0.75329 0
M  V30 3226 H 315.318 3.88945 -1.16089 0
M  V30 3227 H 316.084 3.28368 -3.56931 0
M  V30 3228 H 311.963 3.87605 -2.49567 0
M  V30 3229 H 315.507 3.65663 -5.94085 0
M  V30 3230 H 311.404 4.25023 -4.85825 0
M  V30 3231 H 312.172 4.35291 -6.93155 0
M  V30 3232 N 314.835 0.952656 1.25548 0
M  V30 3233 C 316.083 0.605176 1.92826 0
M  V30 3234 C 316.404 -0.860261 1.74999 0
M  V30 3235 O 315.674 -1.6125 1.11244 0
M  V30 3236 H 314.254 0.220832 0.713612 0
M  V30 3237 H 316.916 1.21047 1.52754 0
M  V30 3238 H 316.012 0.832798 3.00784 0
M  V30 3239 N 316.313 -1.40141 0.720998 0
M  V30 3240 C 317.538 -2.05618 0.271258 0
M  V30 3241 C 317.963 -1.53978 -1.08039 0
M  V30 3242 O 317.321 -0.677463 -1.68167 0
M  V30 3243 C 317.369 -3.59609 0.267197 0
M  V30 3244 O 316.473 -4.05526 -0.749814 0
M  V30 3245 H 315.814 -0.651904 0.126162 0
M  V30 3246 H 318.344 -1.79439 0.982997 0
M  V30 3247 H 318.354 -4.0786 0.106744 0
M  V30 3248 H 317.029 -3.96559 1.25354 0
M  V30 3249 H 315.606 -3.68722 -0.556644 0
M  V30 3250 N 317.792 -0.46758 -1.50504 0
M  V30 3251 C 319.038 0.0808869 -2.03239 0
M  V30 3252 C 319.393 1.37721 -1.34353 0
M  V30 3253 O 318.686 1.86016 -0.459194 0
M  V30 3254 C 318.88 0.323995 -3.55928 0
M  V30 3255 C 318.709 -0.947215 -4.39611 0
M  V30 3256 C 317.479 -1.48951 -4.82848 0
M  V30 3257 C 319.677 -1.84166 -4.80195 0
M  V30 3258 N 317.659 -2.71011 -5.50842 0
M  V30 3259 C 319.03 -2.90815 -5.47564 0
M  V30 3260 C 321.085 -1.85246 -4.62156 0
M  V30 3261 C 319.788 -3.98529 -5.98805 0
M  V30 3262 C 321.814 -2.91914 -5.14335 0
M  V30 3263 C 321.176 -3.97282 -5.81676 0
M  V30 3264 H 317.275 -0.0103394 -0.781932 0
M  V30 3265 H 319.859 -0.635003 -1.84054 0
M  V30 3266 H 318.03 1.00892 -3.75067 0
M  V30 3267 H 319.762 0.866492 -3.95315 0
M  V30 3268 H 316.517 -1.03918 -4.62058 0
M  V30 3269 H 316.941 -3.32988 -5.89447 0
M  V30 3270 H 321.583 -1.05103 -4.09528 0
M  V30 3271 H 319.301 -4.79491 -6.50472 0
M  V30 3272 H 322.887 -2.93729 -5.0221 0
M  V30 3273 H 321.767 -4.78462 -6.21324 0
M  V30 3274 N 319.27 1.56325 -0.20005 0
M  V30 3275 C 320.518 1.97329 0.436547 0
M  V30 3276 C 320.839 1.08826 1.61808 0
M  V30 3277 O 320.109 0.160604 1.95241 0
M  V30 3278 H 318.689 0.728714 0.164272 0
M  V30 3279 H 321.351 1.92761 -0.287937 0
M  V30 3280 H 320.447 3.02264 0.777353 0
M  V30 3281 N 320.748 -0.0735177 1.57428 0
M  V30 3282 C 321.68 -1.11423 2.00294 0
M  V30 3283 C 322.693 -1.35084 0.908637 0
M  V30 3284 O 323.882 -1.33355 1.18654 0
M  V30 3285 C 320.982 -2.46548 2.32523 0
M  V30 3286 C 320.155 -2.42867 3.63778 0
M  V30 3287 C 319.214 -3.60087 3.83697 0
M  V30 3288 O 318.24 -3.41595 4.55304 0
M  V30 3289 N 319.442 -4.80372 3.25919 0
M  V30 3290 H 322.207 -0.749206 2.90184 0
M  V30 3291 H 319.768 -0.262195 1.59763 0
M  V30 3292 H 321.76 -3.23607 2.43024 0
M  V30 3293 H 320.33 -2.75059 1.48531 0
M  V30 3294 H 319.55 -1.51206 3.64047 0
M  V30 3295 H 320.838 -2.37506 4.49965 0
M  V30 3296 H 320.236 -4.983 2.67795 0
M  V30 3297 H 318.793 -5.54948 3.41871 0
M  V30 3298 N 322.226 -1.5378 -0.344866 0
M  V30 3299 C 323.451 -1.75211 -1.10977 0
M  V30 3300 C 323.876 -0.48936 -1.81623 0
M  V30 3301 O 323.234 0.557925 -1.72502 0
M  V30 3302 C 323.282 -2.93147 -2.09993 0
M  V30 3303 O 322.386 -2.63203 -3.17487 0
M  V30 3304 H 321.727 -0.581241 -0.321021 0
M  V30 3305 H 324.257 -2.00738 -0.395661 0
M  V30 3306 H 324.267 -3.19898 -2.53237 0
M  V30 3307 H 322.942 -3.84731 -1.5797 0
M  V30 3308 H 321.519 -2.47336 -2.79069 0
M  V30 3309 N 323.704 0.605807 -1.45491 0
M  V30 3310 C 324.951 1.36476 -1.49601 0
M  V30 3311 C 325.279 1.94007 -0.138452 0
M  V30 3312 O 324.534 1.75638 0.863114 0
M  V30 3313 C 324.833 2.53012 -2.52428 0
M  V30 3314 C 324.499 2.13617 -3.97087 0
M  V30 3315 C 323.161 2.02587 -4.36477 0
M  V30 3316 C 325.513 1.82899 -4.88055 0
M  V30 3317 C 322.841 1.59064 -5.64726 0
M  V30 3318 C 325.193 1.40861 -6.16718 0
M  V30 3319 C 323.857 1.28391 -6.55036 0
M  V30 3320 H 323.127 0.499402 -0.547429 0
M  V30 3321 H 325.774 0.684546 -1.78847 0
M  V30 3322 H 324.079 3.26379 -2.16758 0
M  V30 3323 H 325.776 3.1124 -2.52845 0
M  V30 3324 H 322.366 2.23129 -3.65939 0
M  V30 3325 H 326.55 1.90317 -4.58359 0
M  V30 3326 H 321.806 1.48034 -5.93208 0
M  V30 3327 H 325.98 1.16138 -6.86648 0
M  V30 3328 H 323.607 0.944403 -7.54311 0
M  V30 3329 N 325.182 1.32811 0.848464 0
M  V30 3330 C 326.429 1.23724 1.60308 0
M  V30 3331 C 326.757 -0.1994 1.93475 0
M  V30 3332 O 326.012 -1.15406 1.5805 0
M  V30 3333 C 326.311 2.04831 2.92881 0
M  V30 3334 C 325.977 3.54125 2.79117 0
M  V30 3335 C 324.639 3.94829 2.7507 0
M  V30 3336 C 326.991 4.49036 2.64606 0
M  V30 3337 C 324.319 5.28675 2.544 0
M  V30 3338 C 326.671 5.83033 2.4547 0
M  V30 3339 C 325.335 6.22931 2.39819 0
M  V30 3340 H 324.605 0.452737 0.586609 0
M  V30 3341 H 327.252 1.64301 0.983743 0
M  V30 3342 H 325.557 1.57001 3.58968 0
M  V30 3343 H 327.254 1.95164 3.50303 0
M  V30 3344 H 323.844 3.21801 2.83094 0
M  V30 3345 H 328.028 4.18505 2.66772 0
M  V30 3346 H 323.284 5.58637 2.48465 0
M  V30 3347 H 327.458 6.56186 2.33222 0
M  V30 3348 H 325.085 7.26584 2.23562 0
M  V30 3349 N 326.66 -1.06551 1.16123 0
M  V30 3350 C 327.57 -2.17484 0.879662 0
M  V30 3351 C 328.586 -1.73377 -0.147104 0
M  V30 3352 O 329.762 -2.01379 0.0289128 0
M  V30 3353 C 326.827 -3.44591 0.381829 0
M  V30 3354 C 325.888 -4.0322 1.4735 0
M  V30 3355 C 325.121 -5.24261 0.999324 0
M  V30 3356 O 325.344 -5.70198 -0.151957 0
M  V30 3357 O 324.278 -5.74775 1.78653 0
M  V30 3358 H 328.104 -2.44075 1.80724 0
M  V30 3359 H 325.689 -1.16042 0.940992 0
M  V30 3360 H 327.571 -4.21254 0.111053 0
M  V30 3361 H 326.246 -3.19532 -0.51777 0
M  V30 3362 H 325.153 -3.2806 1.79798 0
M  V30 3363 H 326.486 -4.32568 2.34831 0
M  V30 3364 N 328.138 -0.959301 -1.25041 0
M  V30 3365 C 329.386 -0.615393 -1.92503 0
M  V30 3366 C 329.707 0.850969 -1.75452 0
M  V30 3367 O 328.977 1.60658 -1.12098 0
M  V30 3368 H 327.557 -0.224613 -0.712431 0
M  V30 3369 H 330.219 -1.21855 -1.5211 0
M  V30 3370 H 329.315 -0.848738 -3.00338 0
M  V30 3371 N 329.616 1.39756 -0.72842 0
M  V30 3372 C 330.841 2.05472 -0.282159 0
M  V30 3373 C 331.266 1.54549 1.07221 0
M  V30 3374 O 330.624 0.686372 1.67805 0
M  V30 3375 C 330.672 3.59462 -0.286264 0
M  V30 3376 O 329.776 4.05918 0.728298 0
M  V30 3377 H 329.117 0.651226 -0.129618 0
M  V30 3378 H 331.647 1.78915 -0.992499 0
M  V30 3379 H 331.657 4.07798 -0.128373 0
M  V30 3380 H 330.332 3.95889 -1.27456 0
M  V30 3381 H 328.909 3.69012 0.537081 0
M  V30 3382 N 331.094 0.475555 1.50254 0
M  V30 3383 C 332.341 -0.0778919 2.0235 0
M  V30 3384 C 332.669 -1.39319 1.35722 0
M  V30 3385 O 331.924 -1.89888 0.473395 0
M  V30 3386 C 332.223 -0.305114 3.56095 0
M  V30 3387 C 331.889 0.92903 4.41225 0
M  V30 3388 C 330.551 1.26739 4.6421 0
M  V30 3389 C 332.903 1.75054 4.90923 0
M  V30 3390 C 330.231 2.42724 5.34137 0
M  V30 3391 C 332.583 2.9017 5.62125 0
M  V30 3392 C 331.247 3.24416 5.83362 0
M  V30 3393 H 330.517 -0.0285027 0.740452 0
M  V30 3394 H 333.164 0.630543 1.80821 0
M  V30 3395 H 331.469 -1.09584 3.76163 0
M  V30 3396 H 333.166 -0.747377 3.93974 0
M  V30 3397 H 329.756 0.655428 4.23559 0
M  V30 3398 H 333.94 1.50231 4.73016 0
M  V30 3399 H 329.196 2.69525 5.48786 0
M  V30 3400 H 333.37 3.54169 5.99614 0
M  V30 3401 H 330.997 4.14396 6.37323 0
M  V30 3402 N 332.573 -1.56217 0.208337 0
M  V30 3403 C 333.505 -2.1695 -0.739276 0
M  V30 3404 C 334.518 -1.13492 -1.1672 0
M  V30 3405 O 335.707 -1.40529 -1.10063 0
M  V30 3406 C 332.807 -2.72755 -2.01142 0
M  V30 3407 C 331.98 -4.0125 -1.74118 0
M  V30 3408 C 331.039 -4.41749 -2.85909 0
M  V30 3409 O 330.065 -5.08912 -2.54946 0
M  V30 3410 N 331.267 -4.06342 -4.14568 0
M  V30 3411 H 334.032 -2.98893 -0.219837 0
M  V30 3412 H 331.593 -1.61878 0.0268445 0
M  V30 3413 H 333.585 -2.96826 -2.75094 0
M  V30 3414 H 332.155 -1.95191 -2.4417 0
M  V30 3415 H 331.375 -3.85173 -0.838775 0
M  V30 3416 H 332.663 -4.851 -1.53477 0
M  V30 3417 H 332.061 -3.52345 -4.42571 0
M  V30 3418 H 330.618 -4.35335 -4.85105 0
M  V30 3419 N 334.051 0.0651679 -1.57465 0
M  V30 3420 C 334.998 1.07675 -2.04144 0
M  V30 3421 C 335.968 1.38071 -0.923335 0
M  V30 3422 O 337.153 1.49026 -1.19146 0
M  V30 3423 C 334.293 2.38337 -2.49579 0
M  V30 3424 C 333.406 2.14413 -3.75035 0
M  V30 3425 C 332.541 3.38686 -4.09225 0
M  V30 3426 C 331.58 3.10156 -5.27702 0
M  V30 3427 N 330.717 4.26778 -5.57499 0
M  V30 3428 H 335.557 0.671716 -2.90331 0
M  V30 3429 H 333.094 0.3201 -1.43575 0
M  V30 3430 H 335.052 3.14632 -2.73975 0
M  V30 3431 H 333.682 2.7663 -1.6636 0
M  V30 3432 H 332.734 1.2878 -3.57939 0
M  V30 3433 H 334.046 1.89344 -4.61466 0
M  V30 3434 H 333.2 4.23373 -4.34558 0
M  V30 3435 H 331.939 3.66837 -3.21374 0
M  V30 3436 H 330.944 2.23866 -5.02159 0
M  V30 3437 H 332.169 2.8332 -6.17176 0
M  V30 3438 H 330.115 4.54948 -4.72608 0
M  V30 3439 H 330.032 4.05005 -6.38362 0
M  V30 3440 H 331.3 5.12443 -5.87386 0
M  V30 3441 N 335.529 1.53961 0.336706 0
M  V30 3442 C 336.778 1.70751 1.07363 0
M  V30 3443 C 337.091 0.481061 1.89592 0
M  V30 3444 O 338.297 0.530046 2.66276 0
M  V30 3445 C 336.753 3.01965 1.95818 0
M  V30 3446 C 336.361 4.31971 1.18764 0
M  V30 3447 C 338.105 3.28121 2.69327 0
M  V30 3448 C 336.012 5.54255 2.06289 0
M  V30 3449 H 334.942 0.636292 0.404535 0
M  V30 3450 H 337.593 1.80459 0.332681 0
M  V30 3451 H 335.975 2.86132 2.7376 0
M  V30 3452 H 337.149 4.5853 0.456849 0
M  V30 3453 H 335.464 4.12481 0.569946 0
M  V30 3454 H 338.061 4.16673 3.35094 0
M  V30 3455 H 338.404 2.45426 3.36261 0
M  V30 3456 H 338.937 3.44762 1.98454 0
M  V30 3457 H 335.676 6.39513 1.43885 0
M  V30 3458 H 335.196 5.31935 2.77138 0
M  V30 3459 H 336.875 5.90159 2.65182 0
M  V30 3460 N 337.007 -0.598083 1.45811 0
M  V30 3461 C 338.418 -1.18011 1.44673 0
M  V30 3462 C 338.769 -1.95378 0.179364 0
M  V30 3463 O 337.894 -2.04124 -0.718509 0
M  V30 3464 C 338.489 -2.14677 2.62105 0
M  V30 3465 C 337.048 -2.68236 2.64057 0
M  V30 3466 C 336.195 -1.43816 2.37091 0
M  V30 3467 H 339.146 -0.38686 1.53913 0
M  V30 3468 H 339.167 -2.97878 2.36746 0
M  V30 3469 H 338.679 -1.5834 3.5433 0
M  V30 3470 H 336.78 -3.28486 1.75864 0
M  V30 3471 H 336.893 -3.12021 3.63566 0
M  V30 3472 H 335.257 -1.731 1.86838 0
M  V30 3473 H 336.04 -0.893333 3.31473 0
M  V30 3474 N 338.485 -1.33259 -0.841409 0
M  V30 3475 C 339.448 -1.23221 -1.9326 0
M  V30 3476 C 340.448 -0.151895 -1.60081 0
M  V30 3477 O 341.638 -0.403246 -1.69468 0
M  V30 3478 C 338.77 -0.898123 -3.28856 0
M  V30 3479 H 339.963 -2.2021 -2.03587 0
M  V30 3480 H 337.516 -1.17281 -1.03319 0
M  V30 3481 H 338.251 0.0693841 -3.24226 0
M  V30 3482 H 338.036 -1.67934 -3.54317 0
M  V30 3483 H 339.526 -0.852563 -4.08805 0
M  V30 3484 N 339.963 1.05934 -1.16686 0
M  V30 3485 C 340.91 2.13499 -0.876748 0
M  V30 3486 C 341.88 1.65162 0.176299 0
M  V30 3487 O 343.065 1.90757 0.0407143 0
M  V30 3488 C 340.205 3.42912 -0.387967 0
M  V30 3489 C 339.318 4.04964 -1.50426 0
M  V30 3490 C 338.453 5.22266 -0.970125 0
M  V30 3491 C 337.492 5.76309 -2.06238 0
M  V30 3492 N 336.629 6.84922 -1.54356 0
M  V30 3493 H 341.469 2.37654 -1.7979 0
M  V30 3494 H 339.006 1.16598 -0.896843 0
M  V30 3495 H 340.964 4.17111 -0.086186 0
M  V30 3496 H 339.594 3.18963 0.496235 0
M  V30 3497 H 338.646 3.28277 -1.92193 0
M  V30 3498 H 339.958 4.41122 -2.32836 0
M  V30 3499 H 339.112 6.03506 -0.621743 0
M  V30 3500 H 337.851 4.87564 -0.115377 0
M  V30 3501 H 336.856 4.93704 -2.41942 0
M  V30 3502 H 338.081 6.13062 -2.92115 0
M  V30 3503 H 336.027 6.52131 -0.711406 0
M  V30 3504 H 335.944 7.20043 -2.30379 0
M  V30 3505 H 337.212 7.69832 -1.22387 0
M  V30 3506 N 341.441 0.965919 1.2453 0
M  V30 3507 C 342.857 0.67216 1.44756 0
M  V30 3508 C 343.057 -0.766609 1.86347 0
M  V30 3509 O 342.113 -1.5407 2.00047 0
M  V30 3510 C 343.426 1.65473 2.51076 0
M  V30 3511 C 344.974 1.66716 2.64905 0
M  V30 3512 C 345.449 2.63766 3.74421 0
M  V30 3513 N 346.94 2.62198 3.81846 0
M  V30 3514 C 347.675 3.33966 4.66106 0
M  V30 3515 N 347.171 4.15245 5.54566 0
M  V30 3516 N 348.964 3.22799 4.60171 0
M  V30 3517 H 341.115 1.89553 0.958293 0
M  V30 3518 H 343.378 0.815979 0.482579 0
M  V30 3519 H 343.084 2.68296 2.27399 0
M  V30 3520 H 342.958 1.4261 3.49202 0
M  V30 3521 H 345.345 0.646057 2.87941 0
M  V30 3522 H 345.426 1.93642 1.67142 0
M  V30 3523 H 345.07 3.6601 3.52135 0
M  V30 3524 H 345 2.34121 4.71694 0
M  V30 3525 H 347.491 2.032 3.18619 0
M  V30 3526 H 347.804 4.66898 6.15814 0
M  V30 3527 H 346.149 4.1934 5.54237 0
M  V30 3528 H 349.34 2.58764 3.90075 0
M  V30 3529 H 349.513 3.78994 5.25612 0
M  V30 3530 N 342.919 -1.39368 0.735821 0
M  V30 3531 C 344.168 -1.99733 0.281004 0
M  V30 3532 C 344.481 -1.59055 -1.13846 0
M  V30 3533 O 345.687 -2.12262 -1.69284 0
M  V30 3534 C 344.143 -3.57057 0.451462 0
M  V30 3535 C 343.751 -4.06697 1.87886 0
M  V30 3536 C 345.495 -4.2446 0.0584616 0
M  V30 3537 C 343.402 -5.56598 1.99883 0
M  V30 3538 H 342.332 -0.747163 0.101311 0
M  V30 3539 H 344.983 -1.59357 0.909819 0
M  V30 3540 H 343.365 -3.95234 -0.246263 0
M  V30 3541 H 344.539 -3.79853 2.60861 0
M  V30 3542 H 342.854 -3.5196 2.22515 0
M  V30 3543 H 345.451 -5.34549 0.127099 0
M  V30 3544 H 345.794 -4.04444 -0.986433 0
M  V30 3545 H 346.327 -3.9146 0.707374 0
M  V30 3546 H 343.066 -5.81494 3.02564 0
M  V30 3547 H 342.586 -5.85242 1.31346 0
M  V30 3548 H 344.265 -6.22022 1.78039 0
M  V30 3549 N 344.397 -0.483516 -1.5 0
M  V30 3550 C 345.645 0.067027 -2.01989 0
M  V30 3551 C 345.966 1.3909 -1.36671 0
M  V30 3552 O 345.236 1.88978 -0.516152 0
M  V30 3553 H 343.816 0.0277606 -0.746484 0
M  V30 3554 H 346.478 -0.636773 -1.84204 0
M  V30 3555 H 345.574 0.209484 -3.11396 0
M  V30 3556 N 345.875 1.56104 -0.216619 0
M  V30 3557 C 347.121 1.98466 0.417033 0
M  V30 3558 C 347.454 1.10403 1.59765 0
M  V30 3559 O 346.729 0.160632 1.93836 0
M  V30 3560 C 347.012 3.49769 0.85637 0
M  V30 3561 C 346.865 4.48606 -0.327546 0
M  V30 3562 C 348.184 4.05339 1.7143 0
M  V30 3563 H 345.303 0.721551 0.150112 0
M  V30 3564 H 347.945 1.87423 -0.311864 0
M  V30 3565 H 346.095 3.5931 1.47745 0
M  V30 3566 H 347.767 4.5108 -0.965618 0
M  V30 3567 H 346.01 4.22682 -0.975805 0
M  V30 3568 H 346.681 5.51995 0.0227149 0
M  V30 3569 H 349.157 3.98712 1.19031 0
M  V30 3570 H 348.033 5.11533 1.99061 0
M  V30 3571 H 348.294 3.51918 2.67593 0
M  V30 3572 N 347.353 -0.0568162 1.57498 0
M  V30 3573 C 348.764 -0.606858 1.76562 0
M  V30 3574 C 349.115 -1.77114 0.844094 0
M  V30 3575 O 348.24 -2.16376 0.0318911 0
M  V30 3576 C 348.835 -1.10766 3.20182 0
M  V30 3577 C 347.394 -1.60344 3.40539 0
M  V30 3578 C 346.541 -0.529311 2.72201 0
M  V30 3579 H 349.492 0.169393 1.57793 0
M  V30 3580 H 349.513 -1.97602 3.25167 0
M  V30 3581 H 349.025 -0.26006 3.87228 0
M  V30 3582 H 347.126 -2.47379 2.78629 0
M  V30 3583 H 347.239 -1.67006 4.4905 0
M  V30 3584 H 345.603 -0.977893 2.35179 0
M  V30 3585 H 346.386 0.308352 3.41912 0
M  V30 3586 N 348.832 -1.54138 -0.328536 0
M  V30 3587 C 349.742 -1.86192 -1.42723 0
M  V30 3588 C 350.758 -0.753382 -1.56844 0
M  V30 3589 O 351.934 -1.04718 -1.72035 0
M  V30 3590 C 348.999 -2.07824 -2.77507 0
M  V30 3591 C 348.06 -3.31641 -2.72603 0
M  V30 3592 C 347.293 -3.52232 -4.00959 0
M  V30 3593 O 347.516 -2.7636 -4.9898 0
M  V30 3594 O 346.45 -4.45699 -4.0452 0
M  V30 3595 H 350.276 -2.79608 -1.18547 0
M  V30 3596 H 347.861 -1.3998 -0.522104 0
M  V30 3597 H 349.743 -2.23411 -3.57303 0
M  V30 3598 H 348.418 -1.17596 -3.01584 0
M  V30 3599 H 347.325 -3.21444 -1.91376 0
M  V30 3600 H 348.658 -4.2191 -2.53481 0
M  V30 3601 N 350.31 0.590341 -1.46126 0
M  V30 3602 C 351.22 1.72793 -1.58681 0
M  V30 3603 C 352.236 1.67516 -0.470566 0
M  V30 3604 O 353.412 1.87562 -0.733642 0
M  V30 3605 C 350.477 3.09287 -1.5666 0
M  V30 3606 C 349.538 3.25886 -2.79458 0
M  V30 3607 C 348.771 4.55869 -2.77524 0
M  V30 3608 O 348.994 5.3928 -1.85832 0
M  V30 3609 O 347.928 4.75552 -3.68964 0
M  V30 3610 H 351.754 1.65149 -2.54872 0
M  V30 3611 H 349.339 0.756486 -1.28832 0
M  V30 3612 H 351.221 3.90577 -1.58202 0
M  V30 3613 H 349.896 3.17385 -0.636271 0
M  V30 3614 H 348.803 2.44119 -2.83472 0
M  V30 3615 H 350.136 3.22675 -3.71674 0
M  V30 3616 N 351.788 1.33704 0.83433 0
M  V30 3617 C 353.034 1.25603 1.59222 0
M  V30 3618 C 353.367 -0.176659 1.93395 0
M  V30 3619 O 352.642 -1.11915 1.59076 0
M  V30 3620 C 352.925 2.13576 2.89926 0
M  V30 3621 C 352.778 3.65326 2.62406 0
M  V30 3622 C 354.097 2.01238 3.91397 0
M  V30 3623 H 351.216 0.457613 0.577719 0
M  V30 3624 H 353.858 1.63848 0.961972 0
M  V30 3625 H 352.008 1.8109 3.43713 0
M  V30 3626 H 353.68 4.08124 2.15017 0
M  V30 3627 H 351.923 3.8698 1.96033 0
M  V30 3628 H 352.594 4.22232 3.55562 0
M  V30 3629 H 355.07 2.29738 3.46929 0
M  V30 3630 H 353.946 2.65036 4.80673 0
M  V30 3631 H 354.207 0.985951 4.30966 0
M  V30 3632 N 353.266 -1.05314 1.17247 0
M  V30 3633 C 354.491 -1.82509 0.985148 0
M  V30 3634 C 354.916 -1.82343 -0.461788 0
M  V30 3635 O 354.274 -1.23151 -1.33055 0
M  V30 3636 C 354.322 -3.26566 1.52929 0
M  V30 3637 O 353.426 -4.05666 0.742225 0
M  V30 3638 H 352.767 -0.564347 0.349869 0
M  V30 3639 H 355.297 -1.32718 1.55715 0
M  V30 3640 H 355.307 -3.77369 1.55103 0
M  V30 3641 H 353.982 -3.26001 2.58256 0
M  V30 3642 H 352.559 -3.64397 0.791794 0
M  V30 3643 N 354.744 -0.972509 -1.24016 0
M  V30 3644 C 355.969 -0.654417 -1.96805 0
M  V30 3645 C 356.394 0.770398 -1.716 0
M  V30 3646 O 355.752 1.52361 -0.982647 0
M  V30 3647 C 355.8 -0.941031 -3.48105 0
M  V30 3648 O 354.904 -0.0289472 -4.1239 0
M  V30 3649 H 354.245 -0.24692 -0.616382 0
M  V30 3650 H 356.775 -1.30396 -1.57664 0
M  V30 3651 H 356.785 -0.87452 -3.98517 0
M  V30 3652 H 355.46 -1.97939 -3.65777 0
M  V30 3653 H 354.037 -0.149192 -3.72601 0
M  V30 3654 N 356.222 1.38976 -0.743202 0
M  V30 3655 C 357.468 2.0064 -0.295189 0
M  V30 3656 C 357.801 1.5885 1.11716 0
M  V30 3657 O 357.076 0.821181 1.76315 0
M  V30 3658 C 357.359 3.578 -0.406318 0
M  V30 3659 C 357.212 4.09586 -1.85903 0
M  V30 3660 C 358.531 4.39616 0.206439 0
M  V30 3661 H 355.65 0.728935 -0.108733 0
M  V30 3662 H 358.292 1.65067 -0.940897 0
M  V30 3663 H 356.442 3.88235 0.143419 0
M  V30 3664 H 358.114 3.89837 -2.46627 0
M  V30 3665 H 356.357 3.6284 -2.3776 0
M  V30 3666 H 357.028 5.18708 -1.888 0
M  V30 3667 H 359.504 4.15273 -0.262283 0
M  V30 3668 H 358.38 5.48812 0.0983819 0
M  V30 3669 H 358.641 4.22754 1.2935 0
M  V30 3670 N 357.7 0.491464 1.49741 0
M  V30 3671 C 358.946 -0.0565092 2.02721 0
M  V30 3672 C 359.279 -1.37522 1.37118 0
M  V30 3673 O 358.554 -1.87866 0.503645 0
M  V30 3674 C 358.837 -0.219051 3.59433 0
M  V30 3675 C 358.69 1.12211 4.35579 0
M  V30 3676 C 360.009 -0.964157 4.29409 0
M  V30 3677 H 357.128 -0.0190627 0.736753 0
M  V30 3678 H 359.77 0.641021 1.7886 0
M  V30 3679 H 357.92 -0.813165 3.79895 0
M  V30 3680 H 359.592 1.75437 4.26637 0
M  V30 3681 H 357.835 1.71377 3.98513 0
M  V30 3682 H 358.506 0.961794 5.43556 0
M  V30 3683 H 360.982 -0.460378 4.13545 0
M  V30 3684 H 359.858 -1.04671 5.38828 0
M  V30 3685 H 360.119 -2.00563 3.93988 0
M  V30 3686 N 359.178 -1.55987 0.224894 0
M  V30 3687 C 360.418 -2.00293 -0.407706 0
M  V30 3688 C 360.782 -1.1093 -1.56711 0
M  V30 3689 O 361.983 -1.44597 -2.26595 0
M  V30 3690 C 360.254 -3.47675 -0.82805 0
M  V30 3691 S 361.813 -4.14 -1.45429 0
M  V30 3692 H 358.631 -0.699152 -0.129256 0
M  V30 3693 H 361.233 -1.92609 0.334967 0
M  V30 3694 H 359.937 -4.10392 0.0253964 0
M  V30 3695 H 359.468 -3.59239 -1.60345 0
M  V30 3696 H 361.483 -4.13465 -2.74337 0
M  V30 3697 N 360.656 0.0484629 -1.57525 0
M  V30 3698 C 361.903 0.743125 -1.88372 0
M  V30 3699 C 362.231 1.76383 -0.819715 0
M  V30 3700 O 361.486 1.94855 0.181659 0
M  V30 3701 C 361.785 1.46632 -3.25935 0
M  V30 3702 C 361.451 0.583427 -4.4711 0
M  V30 3703 C 360.113 0.340191 -4.79996 0
M  V30 3704 C 362.465 -0.0273345 -5.21193 0
M  V30 3705 C 359.793 -0.522903 -5.84365 0
M  V30 3706 C 362.145 -0.878017 -6.26477 0
M  V30 3707 C 360.809 -1.1309 -6.5785 0
M  V30 3708 H 360.079 0.271929 -0.689301 0
M  V30 3709 H 362.726 0.00336166 -1.915 0
M  V30 3710 H 361.031 2.2789 -3.18706 0
M  V30 3711 H 362.728 2.00902 -3.47044 0
M  V30 3712 H 359.318 0.783151 -4.21384 0
M  V30 3713 H 363.502 0.147654 -4.9608 0
M  V30 3714 H 358.758 -0.727335 -6.07058 0
M  V30 3715 H 362.932 -1.35789 -6.83033 0
M  V30 3716 H 360.559 -1.80144 -7.38547 0
M  V30 3717 N 362.134 1.5431 0.320358 0
M  V30 3718 C 363.064 1.86912 1.3995 0
M  V30 3719 C 364.045 0.726211 1.53819 0
M  V30 3720 O 365.23 0.980233 1.67646 0
M  V30 3721 C 362.36 2.09932 2.7667 0
M  V30 3722 C 361.314 3.25776 2.77586 0
M  V30 3723 C 360.64 3.34173 4.17412 0
M  V30 3724 C 361.94 4.6335 2.41048 0
M  V30 3725 H 363.634 2.77292 1.12914 0
M  V30 3726 H 361.18 1.33421 0.541738 0
M  V30 3727 H 363.133 2.31324 3.52232 0
M  V30 3728 H 361.857 1.16304 3.0519 0
M  V30 3729 H 360.516 3.04276 2.04479 0
M  V30 3730 H 360.164 2.38098 4.43078 0
M  V30 3731 H 359.864 4.12033 4.18931 0
M  V30 3732 H 361.388 3.57803 4.94782 0
M  V30 3733 H 362.802 4.84602 3.06324 0
M  V30 3734 H 361.199 5.43782 2.53813 0
M  V30 3735 H 362.269 4.65381 1.36193 0
M  V30 3736 N 363.613 -0.582584 1.46437 0
M  V30 3737 C 364.543 -1.70187 1.59871 0
M  V30 3738 C 365.524 -1.64066 0.449042 0
M  V30 3739 O 366.709 -1.82081 0.6753 0
M  V30 3740 C 363.839 -3.08827 1.58881 0
M  V30 3741 C 362.793 -3.29779 2.72819 0
M  V30 3742 C 362.119 -4.68947 2.5689 0
M  V30 3743 C 363.419 -3.17601 4.1464 0
M  V30 3744 H 365.113 -1.592 2.53566 0
M  V30 3745 H 362.659 -0.764472 1.22032 0
M  V30 3746 H 364.612 -3.86951 1.66873 0
M  V30 3747 H 363.336 -3.20713 0.617306 0
M  V30 3748 H 361.995 -2.54054 2.64296 0
M  V30 3749 H 361.643 -4.77599 1.57823 0
M  V30 3750 H 361.343 -4.83919 3.33312 0
M  V30 3751 H 362.867 -5.4924 2.66773 0
M  V30 3752 H 364.281 -3.8557 4.24274 0
M  V30 3753 H 362.678 -3.44094 4.9165 0
M  V30 3754 H 363.748 -2.14681 4.34788 0
M  V30 3755 N 365.091 -1.34144 -0.827227 0
M  V30 3756 C 366.316 -1.29476 -1.62021 0
M  V30 3757 C 366.741 0.129292 -1.87655 0
M  V30 3758 O 366.099 1.08967 -1.449 0
M  V30 3759 C 366.147 -2.08702 -2.94068 0
M  V30 3760 O 365.251 -1.45359 -3.85933 0
M  V30 3761 H 364.592 -0.444881 -0.492927 0
M  V30 3762 H 367.122 -1.76882 -1.02829 0
M  V30 3763 H 367.132 -2.19898 -3.43669 0
M  V30 3764 H 365.807 -3.12241 -2.74734 0
M  V30 3765 H 364.384 -1.42879 -3.44442 0
M  V30 3766 N 366.569 1.04691 -1.17803 0
M  V30 3767 C 367.98 1.59238 -0.974689 0
M  V30 3768 C 368.331 1.90306 0.477292 0
M  V30 3769 O 367.456 1.68846 1.35352 0
M  V30 3770 C 368.051 2.89318 -1.76296 0
M  V30 3771 C 366.61 3.40506 -1.60414 0
M  V30 3772 C 365.757 2.14172 -1.76141 0
M  V30 3773 H 368.708 0.874395 -1.32439 0
M  V30 3774 H 368.729 3.5944 -1.24833 0
M  V30 3775 H 368.241 2.66675 -2.81968 0
M  V30 3776 H 366.342 3.68175 -0.572519 0
M  V30 3777 H 366.455 4.14753 -2.39827 0
M  V30 3778 H 364.819 2.25176 -1.19028 0
M  V30 3779 H 365.602 1.93992 -2.83235 0
M  V30 3780 N 368.047 0.979072 1.23499 0
M  V30 3781 C 369.01 0.523244 2.23147 0
M  V30 3782 C 370.01 -0.386406 1.56088 0
M  V30 3783 O 371.2 -0.180283 1.73265 0
M  V30 3784 C 368.332 -0.240739 3.40049 0
M  V30 3785 H 369.525 1.40432 2.64989 0
M  V30 3786 H 367.078 0.764824 1.36309 0
M  V30 3787 H 367.813 -1.13841 3.03662 0
M  V30 3788 H 367.598 0.412207 3.89927 0
M  V30 3789 H 369.088 -0.548297 4.13985 0
M  V30 3790 N 369.525 -1.3858 0.750561 0
M  V30 3791 C 370.488 -2.28836 0.129152 0
M  V30 3792 C 371.488 -1.47045 -0.650714 0
M  V30 3793 O 372.678 -1.6753 -0.477428 0
M  V30 3794 C 369.81 -3.30751 -0.825622 0
M  V30 3795 H 371.003 -2.85294 0.924516 0
M  V30 3796 H 368.556 -1.47489 0.517376 0
M  V30 3797 H 369.291 -2.79378 -1.64677 0
M  V30 3798 H 369.076 -3.91177 -0.268852 0
M  V30 3799 H 370.566 -3.98249 -1.2565 0
M  V30 3800 N 371.003 -0.499398 -1.49478 0
M  V30 3801 C 372.228 0.044722 -2.07352 0
M  V30 3802 C 372.653 1.30207 -1.35749 0
M  V30 3803 O 372.011 1.76516 -0.413732 0
M  V30 3804 C 372.059 0.283013 -3.59488 0
M  V30 3805 O 371.163 1.35804 -3.89398 0
M  V30 3806 H 370.504 -0.0255147 -0.66351 0
M  V30 3807 H 373.034 -0.698561 -1.92305 0
M  V30 3808 H 373.044 0.515007 -4.04737 0
M  V30 3809 H 371.719 -0.635636 -4.11014 0
M  V30 3810 H 370.296 1.11113 -3.55961 0
M  V30 3811 N 372.481 1.55866 -0.233164 0
M  V30 3812 C 373.728 1.98603 0.395374 0
M  V30 3813 C 374.056 1.12105 1.58942 0
M  V30 3814 O 373.311 0.168656 1.94972 0
M  V30 3815 C 373.61 3.46856 0.861724 0
M  V30 3816 C 373.276 4.50348 -0.223066 0
M  V30 3817 C 371.938 4.78371 -0.521038 0
M  V30 3818 C 374.29 5.12355 -0.956124 0
M  V30 3819 C 371.618 5.6568 -1.55638 0
M  V30 3820 C 373.97 6.00786 -1.98089 0
M  V30 3821 C 372.634 6.27148 -2.28565 0
M  V30 3822 H 371.904 0.726739 0.144677 0
M  V30 3823 H 374.551 1.88491 -0.338114 0
M  V30 3824 H 372.856 3.5423 1.67418 0
M  V30 3825 H 374.553 3.77302 1.35809 0
M  V30 3826 H 371.143 4.28596 0.0193234 0
M  V30 3827 H 375.327 4.90765 -0.739166 0
M  V30 3828 H 370.583 5.84365 -1.798 0
M  V30 3829 H 374.757 6.4788 -2.55391 0
M  V30 3830 H 372.384 6.94597 -3.08932 0
M  V30 3831 N 373.959 -0.0401083 1.57549 0
M  V30 3832 C 375.208 -0.732108 1.87944 0
M  V30 3833 C 375.521 -1.77107 0.830206 0
M  V30 3834 O 376.727 -2.51488 1.02302 0
M  V30 3835 C 375.183 -1.35315 3.33494 0
M  V30 3836 C 374.791 -0.351105 4.46622 0
M  V30 3837 C 376.535 -2.02566 3.73051 0
M  V30 3838 C 374.442 -0.979859 5.83226 0
M  V30 3839 H 373.372 -0.277188 0.701201 0
M  V30 3840 H 376.023 0.0138501 1.83495 0
M  V30 3841 H 374.405 -2.14844 3.32653 0
M  V30 3842 H 375.579 0.416674 4.58912 0
M  V30 3843 H 373.894 0.218708 4.15825 0
M  V30 3844 H 376.491 -2.50441 4.72423 0
M  V30 3845 H 376.834 -2.83904 3.04474 0
M  V30 3846 H 377.367 -1.29827 3.76018 0
M  V30 3847 H 374.106 -0.206135 6.55176 0
M  V30 3848 H 373.626 -1.71774 5.74677 0
M  V30 3849 H 375.305 -1.49046 6.29599 0
M  V30 3850 N 375.437 -1.54477 -0.31217 0
M  V30 3851 C 376.665 -1.77205 -1.068 0
M  V30 3852 C 377.08 -0.526114 -1.81321 0
M  V30 3853 O 376.437 0.503647 -1.75413 0
M  V30 3854 C 376.488 -2.97253 -2.05725 0
M  V30 3855 O 376.209 -4.1703 -1.34228 0
M  V30 3856 C 377.71 -3.32281 -2.93435 0
M  V30 3857 H 374.93 -0.591287 -0.317208 0
M  V30 3858 H 377.474 -2.01398 -0.354834 0
M  V30 3859 H 375.629 -2.753 -2.72559 0
M  V30 3860 H 376.043 -4.84636 -2.00571 0
M  V30 3861 H 377.517 -4.19551 -3.58721 0
M  V30 3862 H 377.994 -2.49945 -3.61143 0
M  V30 3863 H 378.6 -3.56353 -2.32147 0
M  V30 3864 N 376.915 0.57481 -1.46744 0
M  V30 3865 C 378.163 1.33009 -1.52161 0
M  V30 3866 C 378.484 1.94185 -0.178092 0
M  V30 3867 O 377.754 1.7899 0.796196 0
M  V30 3868 H 376.334 0.493873 -0.560445 0
M  V30 3869 H 378.996 0.672589 -1.82927 0
M  V30 3870 H 378.092 2.13273 -2.27862 0
M  V30 3871 N 378.394 1.34581 0.820102 0
M  V30 3872 C 379.326 1.22236 1.93884 0
M  V30 3873 C 380.339 0.148776 1.62119 0
M  V30 3874 O 381.528 0.400877 1.7394 0
M  V30 3875 C 378.628 0.856542 3.27897 0
M  V30 3876 C 377.801 2.02569 3.87666 0
M  V30 3877 C 376.86 1.63782 5.00062 0
M  V30 3878 O 375.886 2.35477 5.18208 0
M  V30 3879 N 377.088 0.553611 5.77854 0
M  V30 3880 H 379.853 2.18615 2.05006 0
M  V30 3881 H 377.414 1.27573 0.99683 0
M  V30 3882 H 379.406 0.578806 4.0054 0
M  V30 3883 H 377.976 -0.0171518 3.12595 0
M  V30 3884 H 377.196 2.468 3.07382 0
M  V30 3885 H 378.484 2.80752 4.24329 0
M  V30 3886 H 377.882 -0.0423528 5.65684 0
M  V30 3887 H 376.439 0.335614 6.50935 0
M  V30 3888 N 379.872 -1.04064 1.18357 0
M  V30 3889 C 381.097 -1.81454 1.00445 0
M  V30 3890 C 381.522 -1.82823 -0.442423 0
M  V30 3891 O 380.88 -1.24555 -1.31741 0
M  V30 3892 C 380.928 -3.24925 1.56384 0
M  V30 3893 O 380.032 -4.04856 0.785209 0
M  V30 3894 H 379.373 -0.560604 0.355835 0
M  V30 3895 H 381.903 -1.31059 1.57114 0
M  V30 3896 H 381.913 -3.75702 1.59097 0
M  V30 3897 H 380.588 -3.23244 2.61699 0
M  V30 3898 H 379.165 -3.63537 0.830399 0
M  V30 3899 N 381.35 -0.985608 -1.22978 0
M  V30 3900 C 382.596 -0.65836 -1.91816 0
M  V30 3901 C 382.929 0.806692 -1.76653 0
M  V30 3902 O 382.204 1.58252 -1.13078 0
M  V30 3903 C 382.487 -1.056 -3.44268 0
M  V30 3904 C 382.34 -2.57906 -3.68516 0
M  V30 3905 C 383.659 -0.603781 -4.35939 0
M  V30 3906 H 380.778 -0.24065 -0.696604 0
M  V30 3907 H 383.42 -1.22783 -1.44998 0
M  V30 3908 H 381.57 -0.571445 -3.84274 0
M  V30 3909 H 383.242 -3.13976 -3.3796 0
M  V30 3910 H 381.485 -3.00305 -3.13048 0
M  V30 3911 H 382.156 -2.80779 -4.75255 0
M  V30 3912 H 384.632 -1.01987 -4.03408 0
M  V30 3913 H 383.508 -0.910383 -5.41298 0
M  V30 3914 H 383.769 0.495761 -4.39312 0
M  V30 3915 N 382.828 1.3818 -0.7579 0
M  V30 3916 C 384.105 1.94106 -0.241306 0
M  V30 3917 C 384.485 1.69282 1.26122 0
M  V30 3918 O 383.833 1.03378 2.03777 0
M  V30 3919 C 384.043 3.43809 -0.59967 0
M  V30 3920 C 385.391 4.20868 -0.561717 0
M  V30 3921 O 386.415 3.5211 -0.538222 0
M  V30 3922 O 385.274 5.43451 -0.576478 0
M  V30 3923 H 382.368 0.825376 -0.0518042 0
M  V30 3924 H 384.914 1.47548 -0.838315 0
M  V30 3925 H 383.686 3.55403 -1.6372 0
M  V30 3926 H 383.309 3.97592 0.0251197 0
M  V30 3927 N 384.306 0.507319 1.49211 0
M  V30 3928 C 385.552 -0.0350047 2.0277 0
M  V30 3929 C 385.885 -1.3606 1.38569 0
M  V30 3930 O 385.16 -1.87321 0.523542 0
M  V30 3931 C 385.443 -0.180916 3.59645 0
M  V30 3932 C 385.296 1.16825 4.34364 0
M  V30 3933 C 386.615 -0.918558 4.30407 0
M  V30 3934 H 383.734 -0.0112473 0.736914 0
M  V30 3935 H 386.376 0.659956 1.7817 0
M  V30 3936 H 384.526 -0.772826 3.80736 0
M  V30 3937 H 386.198 1.79952 4.24753 0
M  V30 3938 H 384.441 1.75594 3.96673 0
M  V30 3939 H 385.112 1.01939 5.42506 0
M  V30 3940 H 387.588 -0.41649 4.1401 0
M  V30 3941 H 386.464 -0.989505 5.39907 0
M  V30 3942 H 386.725 -1.96373 3.96093 0
M  V30 3943 N 385.784 -1.5574 0.241426 0
M  V30 3944 C 387.061 -1.90704 -0.434881 0
M  V30 3945 C 387.441 -1.16145 -1.76277 0
M  V30 3946 O 386.789 -0.277152 -2.26813 0
M  V30 3947 C 386.999 -3.43657 -0.608343 0
M  V30 3948 C 388.347 -4.14806 -0.906725 0
M  V30 3949 O 389.371 -3.49366 -0.694408 0
M  V30 3950 O 388.23 -5.30548 -1.31075 0
M  V30 3951 H 385.324 -0.793592 -0.23268 0
M  V30 3952 H 387.87 -1.67288 0.285086 0
M  V30 3953 H 386.642 -3.89927 0.327505 0
M  V30 3954 H 386.265 -3.72918 -1.37906 0
M  V30 3955 N 387.262 0.0317525 -1.57568 0
M  V30 3956 C 388.51 0.721676 -1.88776 0
M  V30 3957 C 388.831 1.76039 -0.838772 0
M  V30 3958 O 388.101 1.95482 0.127935 0
M  V30 3959 H 386.681 0.269534 -0.696678 0
M  V30 3960 H 389.343 -0.00165879 -1.949 0
M  V30 3961 H 388.439 1.21293 -2.87566 0
M  V30 3962 N 388.74 1.54641 0.303973 0
M  V30 3963 C 389.988 1.73437 1.0375 0
M  V30 3964 C 390.309 0.521449 1.87899 0
M  V30 3965 O 389.579 -0.46432 1.90318 0
M  V30 3966 H 388.159 0.639518 0.386039 0
M  V30 3967 H 390.821 1.91988 0.335675 0
M  V30 3968 H 389.917 2.62235 1.69231 0
M  V30 3969 N 390.218 -0.567019 1.47046 0
M  V30 3970 C 391.634 -0.891975 1.32348 0
M  V30 3971 C 391.834 -1.99154 0.306616 0
M  V30 3972 O 390.89 -2.50883 -0.28532 0
M  V30 3973 C 392.203 -1.29449 2.7141 0
M  V30 3974 C 393.751 -1.40646 2.79621 0
M  V30 3975 C 394.226 -1.84257 4.19301 0
M  V30 3976 N 395.717 -1.91424 4.21795 0
M  V30 3977 C 396.452 -2.26476 5.26779 0
M  V30 3978 N 395.948 -2.60211 6.42077 0
M  V30 3979 N 397.741 -2.27166 5.14152 0
M  V30 3980 H 389.892 0.159074 2.11803 0
M  V30 3981 H 392.155 0.00849752 0.947962 0
M  V30 3982 H 391.861 -0.560448 3.47206 0
M  V30 3983 H 391.735 -2.25273 3.02542 0
M  V30 3984 H 394.122 -2.13133 2.04104 0
M  V30 3985 H 394.203 -0.430339 2.52154 0
M  V30 3986 H 393.847 -1.12343 4.95319 0
M  V30 3987 H 393.777 -2.82855 4.44185 0
M  V30 3988 H 396.268 -1.6778 3.38612 0
M  V30 3989 H 396.581 -2.85956 7.17948 0
M  V30 3990 H 394.926 -2.57813 6.45413 0
M  V30 3991 H 398.117 -2.00244 4.23107 0
M  V30 3992 H 398.29 -2.54154 5.96079 0
M  V30 3993 N 391.696 -1.35014 -0.812953 0
M  V30 3994 C 392.921 -1.31187 -1.60639 0
M  V30 3995 C 393.346 0.109382 -1.87782 0
M  V30 3996 O 392.704 1.07424 -1.46047 0
M  V30 3997 C 392.752 -2.11809 -2.91838 0
M  V30 3998 O 391.856 -1.49444 -3.8437 0
M  V30 3999 H 391.197 -0.450084 -0.488181 0
M  V30 4000 H 393.727 -1.77963 -1.00947 0
M  V30 4001 H 393.737 -2.23531 -3.41318 0
M  V30 4002 H 392.412 -3.15137 -2.71407 0
M  V30 4003 H 390.989 -1.46524 -3.42907 0
M  V30 4004 N 393.175 1.03435 -1.18907 0
M  V30 4005 C 394.105 2.13503 -0.945448 0
M  V30 4006 C 395.086 1.69682 0.119189 0
M  V30 4007 O 396.271 1.94169 -0.034707 0
M  V30 4008 C 393.401 3.44004 -0.477316 0
M  V30 4009 C 392.355 4.0148 -1.48316 0
M  V30 4010 C 391.681 5.27537 -0.872311 0
M  V30 4011 C 392.981 4.36921 -2.86177 0
M  V30 4012 H 394.675 2.34141 -1.86597 0
M  V30 4013 H 392.221 1.12523 -0.898584 0
M  V30 4014 H 394.174 4.20372 -0.294204 0
M  V30 4015 H 392.898 3.23072 0.478786 0
M  V30 4016 H 391.557 3.27201 -1.65332 0
M  V30 4017 H 391.205 5.02917 0.0911752 0
M  V30 4018 H 390.905 5.66954 -1.54393 0
M  V30 4019 H 392.429 6.06576 -0.699871 0
M  V30 4020 H 393.843 5.04248 -2.72776 0
M  V30 4021 H 392.24 4.87405 -3.50081 0
M  V30 4022 H 393.31 3.46466 -3.39248 0
M  V30 4023 N 394.653 0.992116 1.22453 0
M  V30 4024 C 395.883 0.684949 1.94915 0
M  V30 4025 C 396.291 -0.754292 1.73514 0
M  V30 4026 O 395.634 -1.52056 1.03076 0
M  V30 4027 C 395.696 0.910054 3.47791 0
M  V30 4028 C 395.36 2.33363 3.92926 0
M  V30 4029 C 396.357 3.31308 4.00663 0
M  V30 4030 C 394.042 2.66785 4.25595 0
M  V30 4031 C 396.036 4.6075 4.40441 0
M  V30 4032 C 393.723 3.96446 4.65053 0
M  V30 4033 C 394.721 4.9324 4.72444 0
M  V30 4034 O 394.409 6.20584 5.1101 0
M  V30 4035 H 394.141 0.25258 0.62704 0
M  V30 4036 H 396.695 1.32939 1.56577 0
M  V30 4037 H 394.925 0.208443 3.86138 0
M  V30 4038 H 396.614 0.598257 4.01467 0
M  V30 4039 H 397.38 3.0682 3.75615 0
M  V30 4040 H 393.259 1.92148 4.19047 0
M  V30 4041 H 396.803 5.363 4.46126 0
M  V30 4042 H 392.7 4.20724 4.89552 0
M  V30 4043 H 393.468 6.24509 5.29085 0
M  V30 4044 N 396.131 -1.37776 0.765217 0
M  V30 4045 C 397.359 -2.04124 0.337767 0
M  V30 4046 C 397.774 -1.57715 -1.03785 0
M  V30 4047 O 397.131 -0.755447 -1.6613 0
M  V30 4048 C 397.182 -3.59658 0.364442 0
M  V30 4049 O 396.903 -4.04367 1.68579 0
M  V30 4050 C 398.404 -4.43236 -0.0754221 0
M  V30 4051 H 395.624 -0.655696 0.142491 0
M  V30 4052 H 398.168 -1.76238 1.03732 0
M  V30 4053 H 396.323 -3.86339 -0.286471 0
M  V30 4054 H 396.737 -4.98857 1.61993 0
M  V30 4055 H 398.211 -5.52 -0.00560067 0
M  V30 4056 H 398.688 -4.2455 -1.12491 0
M  V30 4057 H 399.294 -4.21767 0.547055 0
M  V30 4058 N 397.609 -0.515225 -1.4894 0
M  V30 4059 C 398.559 0.275113 -2.26334 0
M  V30 4060 C 399.543 0.923007 -1.31793 0
M  V30 4061 O 400.735 0.828254 -1.56426 0
M  V30 4062 C 397.864 1.33041 -3.16473 0
M  V30 4063 C 396.95 0.688051 -4.18481 0
M  V30 4064 N 397.341 -0.217638 -5.05332 0
M  V30 4065 C 395.639 0.94699 -4.3583 0
M  V30 4066 C 396.34 -0.58676 -5.78733 0
M  V30 4067 N 395.316 0.0486966 -5.43578 0
M  V30 4068 H 399.118 -0.421876 -2.90856 0
M  V30 4069 H 396.632 -0.332249 -1.58965 0
M  V30 4070 H 398.629 1.9102 -3.70563 0
M  V30 4071 H 397.289 2.02894 -2.53504 0
M  V30 4072 H 398.3 -0.589343 -5.14536 0
M  V30 4073 H 394.977 1.63719 -3.8406 0
M  V30 4074 H 396.367 -1.32855 -6.58634 0
M  V30 4075 N 399.087 1.5561 -0.249682 0
M  V30 4076 C 400.312 2.03865 0.381305 0
M  V30 4077 C 400.737 1.12769 1.50548 0
M  V30 4078 O 400.095 0.121189 1.80895 0
M  V30 4079 C 400.143 3.50101 0.863816 0
M  V30 4080 O 399.247 3.62132 1.97318 0
M  V30 4081 H 398.588 0.658827 0.0827194 0
M  V30 4082 H 401.118 2.01105 -0.376552 0
M  V30 4083 H 401.128 3.90975 1.1663 0
M  V30 4084 H 399.803 4.1588 0.0411816 0
M  V30 4085 H 398.38 3.33155 1.67517 0
M  V30 4086 N 400.565 -0.0233959 1.57583 0
M  V30 4087 C 401.795 -0.723631 1.93513 0
M  V30 4088 C 402.203 -1.69115 0.848333 0
M  V30 4089 O 401.546 -1.82781 -0.183484 0
M  V30 4090 C 401.608 -1.53075 3.25282 0
M  V30 4091 C 401.272 -0.727388 4.51174 0
M  V30 4092 C 402.269 -0.0251924 5.19894 0
M  V30 4093 C 399.954 -0.680256 4.97672 0
M  V30 4094 C 401.948 0.713374 6.33395 0
M  V30 4095 C 399.635 0.0620523 6.11068 0
M  V30 4096 C 400.633 0.757622 6.78785 0
M  V30 4097 O 400.321 1.48787 7.90011 0
M  V30 4098 H 400.053 -0.208051 0.643188 0
M  V30 4099 H 402.607 0.0167489 2.05393 0
M  V30 4100 H 400.837 -2.31508 3.09744 0
M  V30 4101 H 402.526 -2.11413 3.46496 0
M  V30 4102 H 403.292 -0.0526003 4.84971 0
M  V30 4103 H 399.171 -1.21116 4.44805 0
M  V30 4104 H 402.715 1.25683 6.86185 0
M  V30 4105 H 398.612 0.0913634 6.45435 0
M  V30 4106 H 399.38 1.40213 8.06401 0
M  V30 4107 N 402.043 -1.548 -0.295768 0
M  V30 4108 C 402.953 -1.89177 -1.38742 0
M  V30 4109 C 403.969 -0.786481 -1.55211 0
M  V30 4110 O 405.145 -1.08344 -1.69775 0
M  V30 4111 C 402.21 -2.13663 -2.73036 0
M  V30 4112 C 401.271 -3.37349 -2.65508 0
M  V30 4113 C 400.504 -3.60658 -3.93398 0
M  V30 4114 O 400.727 -2.86882 -4.93006 0
M  V30 4115 O 399.661 -4.54179 -3.94975 0
M  V30 4116 H 403.487 -2.82059 -1.12589 0
M  V30 4117 H 401.072 -1.41056 -0.492295 0
M  V30 4118 H 402.954 -2.3094 -3.52484 0
M  V30 4119 H 401.629 -1.23967 -2.99022 0
M  V30 4120 H 400.536 -3.25431 -1.84514 0
M  V30 4121 H 401.869 -4.27192 -2.44474 0
M  V30 4122 N 403.521 0.559213 -1.47345 0
M  V30 4123 C 404.767 1.31843 -1.54095 0
M  V30 4124 C 405.1 1.93149 -0.201726 0
M  V30 4125 O 404.375 1.77759 0.789428 0
M  V30 4126 C 404.658 2.43006 -2.65744 0
M  V30 4127 C 404.511 1.86581 -4.09277 0
M  V30 4128 C 405.83 3.44943 -2.73318 0
M  V30 4129 H 402.949 0.478012 -0.560957 0
M  V30 4130 H 405.591 0.625977 -1.79392 0
M  V30 4131 H 403.741 3.02072 -2.44305 0
M  V30 4132 H 405.413 1.31792 -4.42073 0
M  V30 4133 H 403.656 1.17268 -4.17649 0
M  V30 4134 H 404.327 2.66933 -4.83168 0
M  V30 4135 H 406.803 2.95793 -2.92653 0
M  V30 4136 H 405.679 4.20153 -3.53218 0
M  V30 4137 H 405.94 4.03665 -1.80296 0
M  V30 4138 N 404.999 1.35443 0.805782 0
M  V30 4139 C 406.41 1.25768 1.37983 0
M  V30 4140 C 406.761 -0.10958 1.95894 0
M  V30 4141 O 405.886 -1.01056 1.91355 0
M  V30 4142 C 406.481 2.27727 2.5085 0
M  V30 4143 C 405.04 2.2179 3.04115 0
M  V30 4144 C 404.187 2.13393 1.77084 0
M  V30 4145 H 407.138 1.4656 0.608752 0
M  V30 4146 H 407.159 1.90422 3.29424 0
M  V30 4147 H 406.671 3.27227 2.08671 0
M  V30 4148 H 404.772 1.25703 3.50756 0
M  V30 4149 H 404.885 3.13788 3.62042 0
M  V30 4150 H 403.249 1.59384 1.98668 0
M  V30 4151 H 404.032 3.14755 1.37056 0
M  V30 4152 N 406.477 -1.02803 1.19454 0
M  V30 4153 C 407.754 -1.73299 0.907013 0
M  V30 4154 C 408.134 -2.02772 -0.587086 0
M  V30 4155 O 407.482 -1.68304 -1.54551 0
M  V30 4156 C 407.692 -3.00912 1.76785 0
M  V30 4157 C 409.04 -3.74403 2.00268 0
M  V30 4158 O 410.064 -3.10841 1.73943 0
M  V30 4159 O 408.923 -4.88675 2.4466 0
M  V30 4160 H 406.017 -0.754727 0.338106 0
M  V30 4161 H 408.563 -1.08754 1.30271 0
M  V30 4162 H 407.335 -2.75366 2.7801 0
M  V30 4163 H 406.958 -3.73197 1.37149 0
M  V30 4164 N 407.956 -0.998596 -1.21925 0
M  V30 4165 C 408.906 -0.524743 -2.21879 0
M  V30 4166 C 409.89 0.41017 -1.55584 0
M  V30 4167 O 411.082 0.236063 -1.75419 0
M  V30 4168 C 408.211 0.153636 -3.42956 0
M  V30 4169 C 407.297 -0.801918 -4.16449 0
M  V30 4170 N 407.688 -1.95211 -4.66611 0
M  V30 4171 C 405.986 -0.618972 -4.41684 0
M  V30 4172 C 406.687 -2.55234 -5.22715 0
M  V30 4173 N 405.663 -1.83451 -5.1171 0
M  V30 4174 H 409.465 -1.40189 -2.58311 0
M  V30 4175 H 406.979 -0.86159 -1.3766 0
M  V30 4176 H 408.976 0.510534 -4.13762 0
M  V30 4177 H 407.636 1.02684 -3.08036 0
M  V30 4178 H 408.647 -2.33271 -4.62391 0
M  V30 4179 H 405.324 0.207694 -4.16983 0
M  V30 4180 H 406.714 -3.52471 -5.72026 0
M  V30 4181 N 409.434 1.37368 -0.772513 0
M  V30 4182 C 410.711 1.93839 -0.26188 0
M  V30 4183 C 411.091 1.7061 1.24319 0
M  V30 4184 O 410.439 1.05534 2.02669 0
M  V30 4185 C 410.649 3.43154 -0.636102 0
M  V30 4186 C 411.997 4.20249 -0.606324 0
M  V30 4187 O 413.021 3.5152 -0.575538 0
M  V30 4188 O 411.88 5.42809 -0.634086 0
M  V30 4189 H 408.974 0.82478 -0.0605555 0
M  V30 4190 H 411.52 1.4665 -0.853917 0
M  V30 4191 H 410.292 3.53647 -1.6748 0
M  V30 4192 H 409.915 3.97596 -0.0170516 0
M  V30 4193 N 410.912 0.523116 1.48665 0
M  V30 4194 C 411.86 -0.256859 2.31177 0
M  V30 4195 C 412.854 -0.94199 1.40794 0
M  V30 4196 O 414.06 -0.867157 1.57735 0
M  V30 4197 H 410.435 -0.1017 0.745091 0
M  V30 4198 H 412.406 0.458739 2.94853 0
M  V30 4199 C 411.155 -1.29503 3.22683 0
M  V30 4200 H 410.478 -0.777248 3.92172 0
M  V30 4201 H 411.918 -1.81233 3.83315 0
M  V30 4202 C 410.377 -2.32501 2.43813 0
M  V30 4203 O 410.907 -3.3881 2.15803 0
M  V30 4204 N 409.113 -2.05538 2.05432 0
M  V30 4205 H 408.66 -1.19104 2.28412 0
M  V30 4206 H 408.618 -2.74676 1.52973 0
M  V30 4207 N 412.39 -1.55475 0.257931 0
M  V30 4208 C 413.636 -2.00237 -0.357338 0
M  V30 4209 C 413.991 -1.14313 -1.54759 0
M  V30 4210 O 413.284 -0.201187 -1.90541 0
M  V30 4211 C 413.478 -3.48183 -0.806433 0
M  V30 4212 C 413.307 -4.48422 0.338758 0
M  V30 4213 C 412.077 -4.98651 0.817011 0
M  V30 4214 C 414.275 -5.00827 1.16949 0
M  V30 4215 N 412.257 -5.82658 1.93346 0
M  V30 4216 C 413.628 -5.82113 2.13413 0
M  V30 4217 C 415.683 -4.83104 1.2048 0
M  V30 4218 C 414.386 -6.47566 3.13131 0
M  V30 4219 C 416.412 -5.49343 2.19034 0
M  V30 4220 C 415.774 -6.30427 3.14232 0
M  V30 4221 H 411.873 -0.776034 -0.0964083 0
M  V30 4222 H 414.457 -1.90995 0.37803 0
M  V30 4223 H 412.628 -3.57801 -1.51107 0
M  V30 4224 H 414.36 -3.79802 -1.39758 0
M  V30 4225 H 411.115 -4.71914 0.39925 0
M  V30 4226 H 411.539 -6.29356 2.49478 0
M  V30 4227 H 416.181 -4.20036 0.482634 0
M  V30 4228 H 413.899 -7.09793 3.8629 0
M  V30 4229 H 417.485 -5.37579 2.22485 0
M  V30 4230 H 416.365 -6.80777 3.89246 0
M  V30 4231 N 413.868 0.0150385 -1.57593 0
M  V30 4232 C 415.279 0.559832 -1.78109 0
M  V30 4233 C 415.63 1.74814 -0.890756 0
M  V30 4234 O 414.755 2.16216 -0.0892482 0
M  V30 4235 C 415.35 1.02238 -3.23006 0
M  V30 4236 C 413.909 1.51258 -3.44671 0
M  V30 4237 C 413.056 0.456955 -2.73509 0
M  V30 4238 H 416.007 -0.211169 -1.57289 0
M  V30 4239 H 416.028 1.88912 -3.30292 0
M  V30 4240 H 415.54 0.157302 -3.87781 0
M  V30 4241 H 413.641 2.39905 -2.8509 0
M  V30 4242 H 413.754 1.55042 -4.5332 0
M  V30 4243 H 412.118 0.915196 -2.37689 0
M  V30 4244 H 412.901 -0.398896 -3.40975 0
M  V30 4245 N 415.346 1.54954 0.287554 0
M  V30 4246 C 416.293 1.86834 1.35505 0
M  V30 4247 C 417.263 0.718452 1.49758 0
M  V30 4248 O 418.448 0.968358 1.644 0
M  V30 4249 C 415.588 2.13303 2.71286 0
M  V30 4250 C 414.701 3.40883 2.65373 0
M  V30 4251 C 413.836 3.57125 3.93236 0
M  V30 4252 C 412.875 4.78449 3.81776 0
M  V30 4253 N 412.012 4.91426 5.01443 0
M  V30 4254 H 416.852 2.77889 1.07619 0
M  V30 4255 H 414.389 1.37593 0.520241 0
M  V30 4256 H 416.347 2.26646 3.50267 0
M  V30 4257 H 414.977 1.25499 2.97405 0
M  V30 4258 H 414.029 3.36088 1.78182 0
M  V30 4259 H 415.341 4.29993 2.52799 0
M  V30 4260 H 414.495 3.70207 4.80658 0
M  V30 4261 H 413.234 2.66173 4.0866 0
M  V30 4262 H 412.239 4.65386 2.92738 0
M  V30 4263 H 413.464 5.70822 3.67884 0
M  V30 4264 H 411.41 4.03401 5.17304 0
M  V30 4265 H 411.327 5.74559 4.91343 0
M  V30 4266 H 412.595 5.08879 5.90477 0
M  V30 4267 N 416.824 -0.551391 1.4764 0
M  V30 4268 C 418.072 -1.30572 1.54258 0
M  V30 4269 C 418.393 -1.93877 0.208963 0
M  V30 4270 O 417.663 -1.80234 -0.767619 0
M  V30 4271 H 416.243 -0.484894 0.568231 0
M  V30 4272 H 418.905 -0.643402 1.83974 0
M  V30 4273 H 418.001 -2.09621 2.31226 0
M  V30 4274 N 418.302 -1.35869 -0.798587 0
M  V30 4275 C 419.265 -1.29307 -1.89242 0
M  V30 4276 C 420.265 -0.202747 -1.59517 0
M  V30 4277 O 421.455 -0.456957 -1.681 0
M  V30 4278 C 418.587 -1.00229 -3.25833 0
M  V30 4279 H 419.78 -2.26576 -1.96478 0
M  V30 4280 H 417.333 -1.20509 -0.995358 0
M  V30 4281 H 418.068 -0.033801 -3.24282 0
M  V30 4282 H 417.853 -1.79121 -3.48795 0
M  V30 4283 H 419.343 -0.98219 -4.05885 0
M  V30 4284 N 419.78 1.02168 -1.19998 0
M  V30 4285 C 421.028 1.75338 -1.00504 0
M  V30 4286 C 421.349 1.89387 0.464506 0
M  V30 4287 O 420.619 1.43268 1.33608 0
M  V30 4288 H 419.199 0.649564 -0.368885 0
M  V30 4289 H 421.861 1.23205 -1.51018 0
M  V30 4290 H 420.957 2.75892 -1.45912 0
M  V30 4291 N 421.258 1.00505 1.21394 0
M  V30 4292 C 422.535 0.603277 1.86064 0
M  V30 4293 C 422.915 -0.919095 1.90042 0
M  V30 4294 O 422.263 -1.80607 1.39977 0
M  V30 4295 C 422.473 1.23772 3.26315 0
M  V30 4296 C 423.821 1.34586 4.02705 0
M  V30 4297 O 424.845 1.19304 3.35626 0
M  V30 4298 O 423.704 1.59169 5.22807 0
M  V30 4299 H 420.798 0.206634 0.800769 0
M  V30 4300 H 423.344 1.1017 1.29076 0
M  V30 4301 H 422.116 2.27848 3.18121 0
M  V30 4302 H 421.739 0.725648 3.90922 0
M  V30 4303 N 422.737 -1.36956 0.779787 0
M  V30 4304 C 423.667 -2.32761 0.185651 0
M  V30 4305 C 424.648 -1.56177 -0.673989 0
M  V30 4306 O 425.833 -1.84378 -0.609797 0
M  V30 4307 C 422.963 -3.40418 -0.687964 0
M  V30 4308 C 421.917 -4.27941 0.0710102 0
M  V30 4309 C 421.243 -5.26681 -0.922573 0
M  V30 4310 C 422.543 -5.07006 1.25467 0
M  V30 4311 H 424.237 -2.82698 0.986008 0
M  V30 4312 H 421.783 -1.3592 0.475592 0
M  V30 4313 H 423.736 -4.06423 -1.11348 0
M  V30 4314 H 422.46 -2.89025 -1.52093 0
M  V30 4315 H 421.119 -3.63478 0.47739 0
M  V30 4316 H 420.767 -4.71565 -1.7503 0
M  V30 4317 H 420.467 -5.86103 -0.419237 0
M  V30 4318 H 421.991 -5.9556 -1.34686 0
M  V30 4319 H 423.405 -5.66105 0.905401 0
M  V30 4320 H 421.802 -5.75793 1.69063 0
M  V30 4321 H 422.872 -4.3921 2.05481 0
M  V30 4322 N 424.215 -0.530993 -1.48385 0
M  V30 4323 C 425.44 0.000729535 -2.074 0
M  V30 4324 C 425.865 1.27298 -1.3848 0
M  V30 4325 O 425.223 1.75599 -0.451081 0
M  V30 4326 C 425.271 0.206697 -3.60007 0
M  V30 4327 O 424.375 1.27514 -3.92191 0
M  V30 4328 H 423.716 -0.039583 -0.662819 0
M  V30 4329 H 426.246 -0.739194 -1.9078 0
M  V30 4330 H 426.256 0.42904 -4.05738 0
M  V30 4331 H 424.931 -0.722675 -4.09573 0
M  V30 4332 H 423.508 1.03537 -3.58238 0
M  V30 4333 N 425.693 1.55336 -0.266172 0
M  V30 4334 C 426.939 1.99692 0.353681 0
M  V30 4335 C 427.272 1.1543 1.56172 0
M  V30 4336 O 426.547 0.222218 1.93226 0
M  V30 4337 C 426.83 3.52316 0.74466 0
M  V30 4338 C 426.683 4.47337 -0.470101 0
M  V30 4339 C 428.002 4.10588 1.58447 0
M  V30 4340 H 425.121 0.725961 0.12708 0
M  V30 4341 H 427.763 1.86336 -0.371333 0
M  V30 4342 H 425.913 3.63829 1.36239 0
M  V30 4343 H 427.585 4.4778 -1.10864 0
M  V30 4344 H 425.828 4.19364 -1.10978 0
M  V30 4345 H 426.499 5.51788 -0.15291 0
M  V30 4346 H 428.975 4.02297 1.06286 0
M  V30 4347 H 427.851 5.17607 1.82686 0
M  V30 4348 H 428.112 3.60253 2.56262 0
M  V30 4349 N 427.171 -0.0066808 1.57599 0
M  V30 4350 C 428.417 -0.693947 1.90558 0
M  V30 4351 C 428.75 -1.73792 0.866594 0
M  V30 4352 O 428.025 -1.94156 -0.115548 0
M  V30 4353 C 428.308 -1.34317 3.34112 0
M  V30 4354 C 428.161 -0.311189 4.48722 0
M  V30 4355 C 429.48 -2.27116 3.7697 0
M  V30 4356 H 426.599 -0.250803 0.693013 0
M  V30 4357 H 429.241 0.043242 1.89951 0
M  V30 4358 H 427.391 -1.9715 3.3476 0
M  V30 4359 H 429.063 0.316944 4.6021 0
M  V30 4360 H 427.306 0.367253 4.32243 0
M  V30 4361 H 427.977 -0.804366 5.46108 0
M  V30 4362 H 430.453 -1.74306 3.77831 0
M  V30 4363 H 429.329 -2.69511 4.78179 0
M  V30 4364 H 429.59 -3.14743 3.10466 0
M  V30 4365 N 428.649 -1.55105 -0.279332 0
M  V30 4366 C 429.596 -1.8755 -1.34513 0
M  V30 4367 C 430.566 -0.726384 -1.49375 0
M  V30 4368 O 431.751 -0.977063 -1.63884 0
M  V30 4369 C 428.891 -2.14738 -2.70151 0
M  V30 4370 C 428.004 -3.42285 -2.63562 0
M  V30 4371 C 427.139 -3.59206 -3.91337 0
M  V30 4372 C 426.178 -4.80467 -3.79233 0
M  V30 4373 N 425.315 -4.94079 -4.98829 0
M  V30 4374 H 430.155 -2.78456 -1.06143 0
M  V30 4375 H 427.692 -1.37867 -0.512936 0
M  V30 4376 H 429.65 -2.28501 -3.49061 0
M  V30 4377 H 428.28 -1.27075 -2.96735 0
M  V30 4378 H 427.332 -3.37029 -1.76397 0
M  V30 4379 H 428.644 -4.31328 -2.50515 0
M  V30 4380 H 427.798 -3.72751 -4.78687 0
M  V30 4381 H 426.537 -2.68337 -4.07243 0
M  V30 4382 H 425.542 -4.66932 -2.90266 0
M  V30 4383 H 426.767 -5.72765 -3.64852 0
M  V30 4384 H 424.713 -4.06139 -5.15158 0
M  V30 4385 H 424.63 -5.77156 -4.8829 0
M  V30 4386 H 425.898 -5.12003 -5.8777 0
M  V30 4387 N 430.127 0.543554 -1.4793 0
M  V30 4388 C 431.074 1.64942 -1.6144 0
M  V30 4389 C 432.044 1.59692 -0.456903 0
M  V30 4390 O 433.229 1.78321 -0.678688 0
M  V30 4391 C 430.369 3.03238 -1.64744 0
M  V30 4392 C 429.482 3.18823 -2.91506 0
M  V30 4393 C 428.617 4.47599 -2.86057 0
M  V30 4394 C 427.656 4.56664 -4.07584 0
M  V30 4395 N 426.793 5.76811 -4.00292 0
M  V30 4396 H 431.633 1.52733 -2.55884 0
M  V30 4397 H 429.17 0.7438 -1.2691 0
M  V30 4398 H 431.128 3.83339 -1.64641 0
M  V30 4399 H 429.758 3.1425 -0.738017 0
M  V30 4400 H 428.81 2.32064 -3.01414 0
M  V30 4401 H 430.122 3.21384 -3.81463 0
M  V30 4402 H 429.276 5.35975 -2.84281 0
M  V30 4403 H 428.015 4.47538 -1.93807 0
M  V30 4404 H 427.02 3.66697 -4.09651 0
M  V30 4405 H 428.245 4.58474 -5.00978 0
M  V30 4406 H 426.191 5.77673 -3.10853 0
M  V30 4407 H 426.108 5.80808 -4.8394 0
M  V30 4408 H 427.376 6.67512 -4.02553 0
M  V30 4409 N 431.605 1.3629 0.791371 0
M  V30 4410 C 432.538 1.24816 1.9104 0
M  V30 4411 C 433.516 0.132739 1.62057 0
M  V30 4412 O 434.7 0.303527 1.8604 0
M  V30 4413 C 431.827 0.925355 3.25814 0
M  V30 4414 C 430.873 2.05495 3.7373 0
M  V30 4415 S 431.706 3.67255 3.89723 0
M  V30 4416 C 432.862 3.37084 5.27376 0
M  V30 4417 H 433.095 2.19533 2.00481 0
M  V30 4418 H 430.628 1.21684 0.950393 0
M  V30 4419 H 432.586 0.745924 4.03666 0
M  V30 4420 H 431.247 -0.00400098 3.141 0
M  V30 4421 H 430.44 1.7836 4.71385 0
M  V30 4422 H 430.042 2.1935 3.02922 0
M  V30 4423 H 432.334 2.90856 6.1189 0
M  V30 4424 H 433.277 4.33995 5.59512 0
M  V30 4425 H 433.685 2.7248 4.94383 0
M  V30 4426 N 433.083 -1.0153 1.20538 0
M  V30 4427 C 434.03 -2.10098 0.955383 0
M  V30 4428 C 435 -1.65702 -0.114878 0
M  V30 4429 O 436.185 -1.90776 0.0301118 0
M  V30 4430 C 433.325 -3.41236 0.514969 0
M  V30 4431 C 432.438 -3.99102 1.65353 0
M  V30 4432 C 431.573 -5.18306 1.16329 0
M  V30 4433 C 430.612 -5.68258 2.27485 0
M  V30 4434 N 429.749 -6.78722 1.7967 0
M  V30 4435 H 434.589 -2.30818 1.88486 0
M  V30 4436 H 432.126 -1.13189 0.939499 0
M  V30 4437 H 434.084 -4.16504 0.240935 0
M  V30 4438 H 432.714 -3.20585 -0.377512 0
M  V30 4439 H 431.766 -3.20918 2.04245 0
M  V30 4440 H 433.078 -4.32177 2.49047 0
M  V30 4441 H 432.232 -6.00782 0.845302 0
M  V30 4442 H 430.971 -4.86799 0.296254 0
M  V30 4443 H 429.976 -4.84385 2.60099 0
M  V30 4444 H 431.201 -6.01798 3.14667 0
M  V30 4445 H 429.147 -6.49042 0.95295 0
M  V30 4446 H 429.064 -7.10996 2.56944 0
M  V30 4447 H 430.332 -7.64759 1.50875 0
M  V30 4448 N 434.561 -1.01147 -1.20859 0
M  V30 4449 C 435.471 -0.58686 -2.27141 0
M  V30 4450 C 436.487 0.373198 -1.69951 0
M  V30 4451 O 437.663 0.235423 -2.00019 0
M  V30 4452 C 434.728 0.0733602 -3.46622 0
M  V30 4453 C 433.789 -0.931995 -4.19061 0
M  V30 4454 C 433.022 -0.303186 -5.32838 0
M  V30 4455 O 433.245 0.898395 -5.63281 0
M  V30 4456 O 432.179 -1.01735 -5.9324 0
M  V30 4457 H 436.005 -1.47155 -2.65667 0
M  V30 4458 H 433.59 -0.780689 -1.2738 0
M  V30 4459 H 435.472 0.442333 -4.19072 0
M  V30 4460 H 434.147 0.932329 -3.09983 0
M  V30 4461 H 433.054 -1.35224 -3.48805 0
M  V30 4462 H 434.387 -1.76076 -4.59628 0
M  V30 4463 N 436.039 1.36541 -0.78704 0
M  V30 4464 C 437.267 2.03561 -0.370199 0
M  V30 4465 C 437.682 1.59347 1.01263 0
M  V30 4466 O 437.039 0.781781 1.64907 0
M  V30 4467 C 437.09 3.59033 -0.421614 0
M  V30 4468 O 436.811 4.01634 -1.7499 0
M  V30 4469 C 438.312 4.433 0.00489763 0
M  V30 4470 H 435.532 0.653346 -0.152904 0
M  V30 4471 H 438.076 1.74566 -1.06522 0
M  V30 4472 H 436.231 3.86746 0.224971 0
M  V30 4473 H 436.645 4.96217 -1.69909 0
M  V30 4474 H 438.119 5.51939 -0.0822184 0
M  V30 4475 H 438.596 4.26285 1.05723 0
M  V30 4476 H 439.202 4.20843 -0.614085 0
M  V30 4477 N 437.518 0.538854 1.48102 0
M  V30 4478 C 438.765 0.0080018 2.02498 0
M  V30 4479 C 439.093 -1.33437 1.41509 0
M  V30 4480 O 438.348 -1.87709 0.553507 0
M  V30 4481 C 438.647 -0.153808 3.57069 0
M  V30 4482 C 438.313 1.11533 4.36888 0
M  V30 4483 C 436.975 1.46314 4.58417 0
M  V30 4484 C 439.327 1.95718 4.83057 0
M  V30 4485 C 436.655 2.6516 5.23361 0
M  V30 4486 C 439.007 3.13751 5.49312 0
M  V30 4487 C 437.671 3.48866 5.69077 0
M  V30 4488 H 436.941 0.00292807 0.740994 0
M  V30 4489 H 439.588 0.706668 1.77984 0
M  V30 4490 H 437.893 -0.935309 3.80472 0
M  V30 4491 H 439.59 -0.579607 3.96789 0
M  V30 4492 H 436.18 0.834484 4.20398 0
M  V30 4493 H 440.364 1.70158 4.66219 0
M  V30 4494 H 435.62 2.92558 5.36861 0
M  V30 4495 H 439.794 3.79282 5.84053 0
M  V30 4496 H 437.421 4.41054 6.19173 0
M  V30 4497 N 438.996 -1.55193 0.274407 0
M  V30 4498 C 439.943 -2.225 -0.613374 0
M  V30 4499 C 440.913 -1.19823 -1.15029 0
M  V30 4500 O 442.098 -1.48362 -1.19973 0
M  V30 4501 C 439.238 -2.94927 -1.79199 0
M  V30 4502 C 438.351 -4.12322 -1.28899 0
M  V30 4503 C 437.486 -4.72394 -2.42934 0
M  V30 4504 C 436.525 -5.81984 -1.89634 0
M  V30 4505 N 435.662 -6.36123 -2.9714 0
M  V30 4506 H 440.502 -2.97982 -0.032756 0
M  V30 4507 H 438.039 -1.47099 -0.00440146 0
M  V30 4508 H 439.997 -3.35134 -2.48478 0
M  V30 4509 H 438.627 -2.2187 -2.34465 0
M  V30 4510 H 437.679 -3.7724 -0.489327 0
M  V30 4511 H 438.991 -4.91355 -0.858587 0
M  V30 4512 H 438.145 -5.15317 -3.20208 0
M  V30 4513 H 436.884 -3.92636 -2.8929 0
M  V30 4514 H 435.889 -5.38511 -1.1084 0
M  V30 4515 H 437.114 -6.6361 -1.44215 0
M  V30 4516 H 435.06 -5.59259 -3.42878 0
M  V30 4517 H 434.977 -7.10427 -2.58515 0
M  V30 4518 H 436.245 -6.83704 -3.74391 0
M  V30 4519 N 440.474 -0.00167713 -1.576 0
M  V30 4520 C 441.384 1.00548 -2.1196 0
M  V30 4521 C 442.4 1.3758 -1.06526 0
M  V30 4522 O 443.576 1.46278 -1.38436 0
M  V30 4523 C 440.641 2.27809 -2.6135 0
M  V30 4524 C 439.702 1.97074 -3.81393 0
M  V30 4525 C 438.935 3.18267 -4.28417 0
M  V30 4526 O 439.158 4.30009 -3.74765 0
M  V30 4527 O 438.092 3.02167 -5.20556 0
M  V30 4528 H 441.918 0.573373 -2.98238 0
M  V30 4529 H 439.503 0.217255 -1.47812 0
M  V30 4530 H 441.385 3.02568 -2.93309 0
M  V30 4531 H 440.06 2.70254 -1.78169 0
M  V30 4532 H 438.967 1.19785 -3.54404 0
M  V30 4533 H 440.3 1.59464 -4.65652 0
M  V30 4534 N 441.952 1.55251 0.271103 0
M  V30 4535 C 442.899 1.88261 1.33516 0
M  V30 4536 C 443.869 0.734296 1.48988 0
M  V30 4537 O 445.054 0.985741 1.63364 0
M  V30 4538 C 442.194 2.16168 2.69008 0
M  V30 4539 C 441.307 3.43678 2.61743 0
M  V30 4540 C 440.442 3.61276 3.89427 0
M  V30 4541 C 439.481 4.82472 3.7668 0
M  V30 4542 N 438.618 4.96717 4.96202 0
M  V30 4543 H 443.458 2.79015 1.04665 0
M  V30 4544 H 440.995 1.38137 0.505618 0
M  V30 4545 H 442.953 2.30349 3.47844 0
M  V30 4546 H 441.583 1.28646 2.96057 0
M  V30 4547 H 440.635 3.37959 1.74607 0
M  V30 4548 H 441.947 4.3265 2.48224 0
M  V30 4549 H 441.101 3.75284 4.76704 0
M  V30 4550 H 439.84 2.70492 4.05814 0
M  V30 4551 H 438.845 4.68465 2.87786 0
M  V30 4552 H 440.07 5.74692 3.61809 0
M  V30 4553 H 438.016 4.08865 5.12997 0
M  V30 4554 H 437.933 5.79738 4.85222 0
M  V30 4555 H 439.201 5.15113 5.85046 0
M  V30 4556 N 443.43 -0.535701 1.48216 0
M  V30 4557 C 444.393 -1.623 1.61838 0
M  V30 4558 C 445.393 -1.53087 0.492024 0
M  V30 4559 O 446.583 -1.5686 0.757668 0
M  V30 4560 C 443.715 -3.01907 1.58319 0
M  V30 4561 H 444.908 -1.51564 2.58783 0
M  V30 4562 H 442.461 -0.757317 1.36727 0
M  V30 4563 H 443.196 -3.18155 0.628299 0
M  V30 4564 H 442.981 -3.10003 2.40085 0
M  V30 4565 H 444.471 -3.80969 1.71033 0
M  V30 4566 N 444.908 -1.36708 -0.784132 0
M  V30 4567 C 445.855 -1.31466 -1.89698 0
M  V30 4568 C 446.825 -0.18239 -1.65096 0
M  V30 4569 O 448.01 -0.369762 -1.87183 0
M  V30 4570 C 445.15 -1.1151 -3.26588 0
M  V30 4571 C 444.263 -2.33859 -3.63227 0
M  V30 4572 C 443.398 -2.06873 -4.89262 0
M  V30 4573 C 442.437 -3.25154 -5.18595 0
M  V30 4574 N 441.574 -2.978 -6.35814 0
M  V30 4575 H 446.414 -2.26619 -1.93515 0
M  V30 4576 H 443.951 -1.12625 -0.946256 0
M  V30 4577 H 445.909 -0.979653 -4.05535 0
M  V30 4578 H 444.539 -0.200103 -3.22179 0
M  V30 4579 H 443.591 -2.58188 -2.79362 0
M  V30 4580 H 444.903 -3.22109 -3.8085 0
M  V30 4581 H 444.057 -1.90289 -5.76086 0
M  V30 4582 H 442.796 -1.15942 -4.73718 0
M  V30 4583 H 441.801 -3.42292 -4.30251 0
M  V30 4584 H 443.026 -4.1692 -5.36055 0
M  V30 4585 H 440.972 -2.09485 -6.21653 0
M  V30 4586 H 440.889 -3.7959 -6.53794 0
M  V30 4587 H 442.157 -2.84805 -7.25607 0
M  V30 4588 N 446.386 1.0089 -1.21074 0
M  V30 4589 C 447.316 2.1145 -0.990523 0
M  V30 4590 C 448.297 1.69897 0.0831699 0
M  V30 4591 O 449.482 1.94052 -0.0758853 0
M  V30 4592 C 446.612 3.42914 -0.550177 0
M  V30 4593 C 445.566 3.98244 -1.56799 0
M  V30 4594 C 444.892 5.25568 -0.984013 0
M  V30 4595 C 446.192 4.30752 -2.95381 0
M  V30 4596 H 447.886 2.3013 -1.91521 0
M  V30 4597 H 445.432 1.10592 -0.92225 0
M  V30 4598 H 447.385 4.19653 -0.383305 0
M  V30 4599 H 446.109 3.24014 0.41015 0
M  V30 4600 H 444.768 3.23621 -1.72236 0
M  V30 4601 H 444.416 5.02998 -0.0155216 0
M  V30 4602 H 444.116 5.63551 -1.66384 0
M  V30 4603 H 445.64 6.04955 -0.828378 0
M  V30 4604 H 447.054 4.98349 -2.8341 0
M  V30 4605 H 445.451 4.79869 -3.60341 0
M  V30 4606 H 446.521 3.39192 -3.46521 0
M  V30 4607 O 447.903 1.14481 1.13914 0
M  V30 4608 H 448.594 0.866659 1.7323 0
M  V30 END ATOM
M  V30 BEGIN BOND
M  V30 END BOND
M  V30 END CTAB
M  END
$$$$
