drugbank_target|P30837 Aldehyde dehydrogenase X, mitochondrial (DB00157)
 OpenBabel12092119323D

  0  0  0     0  0            999 V3000
M  V30 BEGIN CTAB
M  V30 COUNTS 8037 8127 0 0 0
M  V30 BEGIN ATOM
M  V30 1 H -0.908 1.98254 -0.117106 0
M  V30 2 N 0 1.576 0 0
M  V30 3 C 0.933 2.03868 1.02534 0
M  V30 4 C 1.911 0.928543 1.3348 0
M  V30 5 O 3.095 1.19667 1.45644 0
M  V30 6 C 0.222 2.43627 2.35294 0
M  V30 7 C -0.732 3.65373 2.2001 0
M  V30 8 S 0.101 5.13292 1.52614 0
M  V30 9 C 1.257 5.56322 2.86805 0
M  V30 10 H 1.49 2.90518 0.631377 0
M  V30 11 H -0.977 1.52953 0.210867 0
M  V30 12 H 0.981 2.67203 3.11629 0
M  V30 13 H -0.358 1.57376 2.7183 0
M  V30 14 H -1.165 3.90944 3.18086 0
M  V30 15 H -1.563 3.418 1.51819 0
M  V30 16 H 0.729 5.58782 3.83104 0
M  V30 17 H 1.672 6.56266 2.65933 0
M  V30 18 H 2.08 4.83886 2.90714 0
M  V30 19 N 1.4781 -0.272755 1.55222 0
M  V30 20 C 2.4081 -1.34136 1.91127 0
M  V30 21 C 3.3891 -1.51513 0.773168 0
M  V30 22 O 4.5741 -1.64552 1.03132 0
M  V30 23 C 1.7041 -2.70083 2.1834 0
M  V30 24 C 0.6581 -2.67437 3.34158 0
M  V30 25 C -0.0159 -4.06938 3.46851 0
M  V30 26 C 1.2841 -2.26686 4.70543 0
M  V30 27 H 2.9781 -1.04333 2.80633 0
M  V30 28 H 0.5241 -0.500454 1.35024 0
M  V30 29 H 2.4771 -3.44952 2.42046 0
M  V30 30 H 1.2011 -3.01469 1.25634 0
M  V30 31 H -0.1399 -1.95026 3.1042 0
M  V30 32 H -0.4919 -4.35547 2.51611 0
M  V30 33 H -0.7919 -4.06062 4.2472 0
M  V30 34 H 0.7321 -4.83545 3.72849 0
M  V30 35 H 2.1461 -2.91277 4.93792 0
M  V30 36 H 0.5431 -2.36971 5.5133 0
M  V30 37 H 1.6131 -1.21818 4.69349 0
M  V30 38 N 2.9562 -1.48159 -0.537278 0
M  V30 39 C 4.3722 -1.34118 -0.865129 0
M  V30 40 C 4.5722 -0.346678 -1.98495 0
M  V30 41 O 3.6282 0.234715 -2.51407 0
M  V30 42 C 4.9412 -2.73963 -1.23954 0
M  V30 43 C 6.4892 -2.82397 -1.34984 0
M  V30 44 C 6.9642 -4.22928 -1.75772 0
M  V30 45 N 8.4552 -4.25566 -1.82887 0
M  V30 46 C 9.1902 -5.31235 -2.15817 0
M  V30 47 N 8.6862 -6.47189 -2.47222 0
M  V30 48 N 10.4792 -5.18624 -2.16761 0
M  V30 49 H 2.6302 -2.1144 0.201715 0
M  V30 50 H 4.8932 -0.947598 0.0275949 0
M  V30 51 H 4.5992 -3.48264 -0.490381 0
M  V30 52 H 4.4732 -3.0702 -2.19132 0
M  V30 53 H 6.8602 -2.08356 -2.08978 0
M  V30 54 H 6.9412 -2.5297 -0.379448 0
M  V30 55 H 6.5852 -4.97482 -1.02341 0
M  V30 56 H 6.5152 -4.49794 -2.73848 0
M  V30 57 H 9.0062 -3.41924 -1.60924 0
M  V30 58 H 9.3192 -7.23564 -2.71433 0
M  V30 59 H 7.6642 -6.50476 -2.44757 0
M  V30 60 H 10.8552 -4.27056 -1.91679 0
M  V30 61 H 11.0282 -6.01078 -2.42093 0
M  V30 62 N 4.4343 0.785586 -1.36625 0
M  V30 63 C 5.6813 1.54362 -1.31067 0
M  V30 64 C 6.0093 1.94195 0.10893 0
M  V30 65 O 5.2643 1.63262 1.07908 0
M  V30 66 C 5.5633 2.83007 -2.1827 0
M  V30 67 C 5.2293 2.62294 -3.6676 0
M  V30 68 C 3.8913 2.56353 -4.0723 0
M  V30 69 C 6.2433 2.43371 -4.6089 0
M  V30 70 C 3.5713 2.29461 -5.39967 0
M  V30 71 C 5.9233 2.18005 -5.93849 0
M  V30 72 C 4.5873 2.105 -6.3344 0
M  V30 73 H 3.8573 0.564851 -0.479609 0
M  V30 74 H 6.5043 0.906028 -1.68711 0
M  V30 75 H 4.8093 3.51253 -1.73576 0
M  V30 76 H 6.5063 3.40817 -2.11292 0
M  V30 77 H 3.0963 2.67774 -3.34656 0
M  V30 78 H 7.2803 2.46959 -4.30494 0
M  V30 79 H 2.5363 2.22135 -5.69619 0
M  V30 80 H 6.7103 2.02359 -6.66351 0
M  V30 81 H 4.3373 1.89425 -7.36222 0
M  V30 82 N 5.9124 1.20967 1.01018 0
M  V30 83 C 6.8424 0.988272 2.11555 0
M  V30 84 C 7.8234 -0.0849778 1.69888 0
M  V30 85 O 9.0084 0.0738202 1.9406 0
M  V30 86 C 6.1384 0.546528 3.42973 0
M  V30 87 C 5.0924 1.56375 3.9841 0
M  V30 88 C 4.4184 0.97842 5.25672 0
M  V30 89 C 5.7184 2.94922 4.31066 0
M  V30 90 H 7.4124 1.91276 2.30334 0
M  V30 91 H 4.9584 0.921073 1.1069 0
M  V30 92 H 6.9114 0.378839 4.19694 0
M  V30 93 H 5.6354 -0.413598 3.23971 0
M  V30 94 H 4.2944 1.71891 3.23804 0
M  V30 95 H 3.9424 0.0101688 5.02999 0
M  V30 96 H 3.6424 1.65784 5.63728 0
M  V30 97 H 5.1664 0.821939 6.05043 0
M  V30 98 H 6.5804 2.8288 4.9865 0
M  V30 99 H 4.9774 3.5983 4.80253 0
M  V30 100 H 6.0474 3.4616 3.39561 0
M  V30 101 N 7.3905 -1.2043 1.01659 0
M  V30 102 C 8.3535 -2.21433 0.591616 0
M  V30 103 C 9.3535 -1.57203 -0.338226 0
M  V30 104 O 10.5435 -1.73737 -0.126918 0
M  V30 105 C 7.6755 -3.40628 -0.136058 0
M  V30 106 H 8.8685 -2.60545 1.48514 0
M  V30 107 H 6.4215 -1.33893 0.806379 0
M  V30 108 H 7.1565 -3.07019 -1.04449 0
M  V30 109 H 6.9415 -3.88475 0.531917 0
M  V30 110 H 8.4315 -4.15475 -0.420735 0
M  V30 111 N 8.8686 -0.792821 -1.36206 0
M  V30 112 C 10.2796 -0.429513 -1.81692 0
M  V30 113 C 10.6306 1.04695 -1.65932 0
M  V30 114 O 9.7556 1.81256 -1.18218 0
M  V30 115 C 10.3506 -0.772831 -3.29868 0
M  V30 116 C 8.9096 -0.462307 -3.7355 0
M  V30 117 C 8.0566 -1.00569 -2.5842 0
M  V30 118 H 11.0076 -0.985672 -1.24379 0
M  V30 119 H 11.0286 -0.0651928 -3.80444 0
M  V30 120 H 10.5406 -1.84747 -3.41307 0
M  V30 121 H 8.6416 0.604158 -3.67669 0
M  V30 122 H 8.7546 -0.985299 -4.68859 0
M  V30 123 H 7.1186 -0.428734 -2.51066 0
M  V30 124 H 7.9016 -2.08616 -2.72643 0
M  V30 125 N 10.3467 1.47872 -0.545128 0
M  V30 126 C 11.7627 1.5829 -0.204032 0
M  V30 127 C 11.9627 1.54529 1.29317 0
M  V30 128 O 11.0187 1.44232 2.07252 0
M  V30 129 C 12.3317 2.89304 -0.819987 0
M  V30 130 C 13.8797 3.02864 -0.790105 0
M  V30 131 C 14.3547 4.3656 -1.38491 0
M  V30 132 N 15.8457 4.43165 -1.34755 0
M  V30 133 C 16.5807 5.45153 -1.77753 0
M  V30 134 N 16.0767 6.54016 -2.2855 0
M  V30 135 N 17.8697 5.36125 -1.68897 0
M  V30 136 H 10.0207 1.4856 -1.51802 0
M  V30 137 H 12.2837 0.706305 -0.632327 0
M  V30 138 H 11.9897 2.97757 -1.87173 0
M  V30 139 H 11.8637 3.75957 -0.305915 0
M  V30 140 H 14.2507 2.94014 0.252913 0
M  V30 141 H 14.3317 2.17782 -1.34181 0
M  V30 142 H 13.9757 4.46164 -2.42693 0
M  V30 143 H 13.9057 5.20353 -0.808754 0
M  V30 144 H 16.3967 3.65083 -0.975855 0
M  V30 145 H 16.7097 7.27994 -2.59314 0
M  V30 146 H 15.0547 6.54938 -2.32553 0
M  V30 147 H 18.2457 4.49975 -1.28998 0
M  V30 148 H 18.4187 6.15472 -2.02726 0
M  V30 149 N 11.8248 0.280983 1.55075 0
M  V30 150 C 12.7548 -0.597469 2.25727 0
M  V30 151 C 13.7358 -1.15417 1.24952 0
M  V30 152 O 14.9208 -1.18722 1.53684 0
M  V30 153 C 12.0508 -1.7789 2.98283 0
M  V30 154 C 11.0048 -1.35347 4.06036 0
M  V30 155 C 10.3308 -2.61846 4.66198 0
M  V30 156 C 11.6308 -0.499354 5.19907 0
M  V30 157 H 13.3248 -0.00824265 2.99399 0
M  V30 158 H 10.8708 -0.0025244 1.44 0
M  V30 159 H 12.8238 -2.39937 3.46422 0
M  V30 160 H 11.5478 -2.39405 2.22155 0
M  V30 161 H 10.2068 -0.756156 3.58717 0
M  V30 162 H 9.8548 -3.21632 3.86732 0
M  V30 163 H 9.5548 -2.3409 5.38958 0
M  V30 164 H 11.0788 -3.24732 5.1709 0
M  V30 165 H 12.4928 -1.02498 5.64063 0
M  V30 166 H 10.8898 -0.316424 5.99265 0
M  V30 167 H 11.9598 0.480459 4.82514 0
M  V30 168 N 13.3029 -1.57598 0.00835791 0
M  V30 169 C 14.2329 -2.1198 -0.979113 0
M  V30 170 C 15.2139 -1.03091 -1.35301 0
M  V30 171 O 16.3989 -1.30818 -1.43528 0
M  V30 172 C 13.5289 -2.62995 -2.26828 0
M  V30 173 C 12.4829 -3.76485 -2.03576 0
M  V30 174 C 11.8089 -4.13846 -3.38579 0
M  V30 175 C 13.1089 -5.0342 -1.39161 0
M  V30 176 H 14.8029 -2.94738 -0.526281 0
M  V30 177 H 12.3489 -1.41783 -0.251704 0
M  V30 178 H 14.3019 -2.99669 -2.96271 0
M  V30 179 H 13.0259 -1.7737 -2.7424 0
M  V30 180 H 11.6849 -3.40217 -1.36557 0
M  V30 181 H 11.3329 -3.25232 -3.83709 0
M  V30 182 H 11.0329 -4.90312 -3.23834 0
M  V30 183 H 12.5569 -4.53086 -4.09323 0
M  V30 184 H 13.9709 -5.37812 -1.98573 0
M  V30 185 H 12.3679 -5.84746 -1.34878 0
M  V30 186 H 13.4379 -4.83548 -0.361868 0
M  V30 187 N 14.781 0.264519 -1.55364 0
M  V30 188 C 16.006 1.01726 -1.80739 0
M  V30 189 C 16.431 1.78836 -0.583044 0
M  V30 190 O 15.789 1.75167 0.467566 0
M  V30 191 C 15.837 1.94482 -3.03659 0
M  V30 192 O 14.941 3.03386 -2.7934 0
M  V30 193 H 14.282 0.290395 -0.597132 0
M  V30 194 H 16.812 0.290854 -2.02522 0
M  V30 195 H 16.822 2.36278 -3.32621 0
M  V30 196 H 15.497 1.37772 -3.92418 0
M  V30 197 H 14.074 2.65844 -2.61498 0
M  V30 198 N 16.2591 1.48442 0.529413 0
M  V30 199 C 17.1891 1.65902 1.64313 0
M  V30 200 C 18.1701 0.507897 1.6234 0
M  V30 201 O 19.3551 0.740503 1.79528 0
M  V30 202 C 16.4851 1.69911 3.02898 0
M  V30 203 C 15.4391 2.8453 3.19729 0
M  V30 204 C 14.7651 2.73629 4.59381 0
M  V30 205 C 16.0651 4.25821 3.02447 0
M  V30 206 H 17.7591 2.5914 1.49955 0
M  V30 207 H 15.3051 1.24709 0.719982 0
M  V30 208 H 17.2581 1.80715 3.80684 0
M  V30 209 H 15.9821 0.732524 3.18279 0
M  V30 210 H 14.6411 2.73283 2.44361 0
M  V30 211 H 14.2891 1.74938 4.71599 0
M  V30 212 H 13.9891 3.50541 4.71588 0
M  V30 213 H 15.5131 2.86401 5.39265 0
M  V30 214 H 16.9271 4.37898 3.70024 0
M  V30 215 H 15.3241 5.03735 3.26146 0
M  V30 216 H 16.3941 4.42244 1.98867 0
M  V30 217 N 17.7372 -0.778329 1.37039 0
M  V30 218 C 18.6692 -1.90034 1.2814 0
M  V30 219 C 19.6822 -1.61585 0.198558 0
M  V30 220 O 20.8712 -1.72625 0.454175 0
M  V30 221 C 17.9712 -3.25108 0.956968 0
M  V30 222 C 17.1442 -3.81253 2.14394 0
M  V30 223 C 16.2032 -4.94789 1.79082 0
M  V30 224 O 15.2292 -5.10721 2.51301 0
M  V30 225 N 16.4312 -5.75878 0.731043 0
M  V30 226 H 19.1962 -1.98186 2.24816 0
M  V30 227 H 16.7572 -0.957129 1.30578 0
M  V30 228 H 18.7492 -3.9857 0.701701 0
M  V30 229 H 17.3192 -3.125 0.0789812 0
M  V30 230 H 16.5392 -2.99647 2.56135 0
M  V30 231 H 17.8272 -4.15495 2.93668 0
M  V30 232 H 17.2252 -5.65547 0.131618 0
M  V30 233 H 15.7822 -6.49596 0.535622 0
M  V30 234 N 19.2153 -1.21501 -1.00376 0
M  V30 235 C 20.4633 -1.03095 -1.73827 0
M  V30 236 C 20.7843 0.436341 -1.90055 0
M  V30 237 O 20.0543 1.31466 -1.45236 0
M  V30 238 H 18.6343 -0.378487 -0.644016 0
M  V30 239 H 21.2963 -1.52831 -1.20949 0
M  V30 240 H 20.3923 -1.49991 -2.73695 0
M  V30 241 N 20.6934 1.19889 -1.02296 0
M  V30 242 C 22.1094 1.41462 -0.738954 0
M  V30 243 C 22.3094 1.89721 0.678846 0
M  V30 244 O 21.3654 2.07016 1.4457 0
M  V30 245 C 22.6784 2.43083 -1.77005 0
M  V30 246 C 24.2264 2.5684 -1.78892 0
M  V30 247 C 24.7014 3.61709 -2.80945 0
M  V30 248 N 26.1924 3.69199 -2.79725 0
M  V30 249 C 26.9274 4.50019 -3.55345 0
M  V30 250 N 26.4234 5.34592 -4.40662 0
M  V30 251 N 28.2164 4.44612 -3.43914 0
M  V30 252 H 20.3674 0.868827 -1.93817 0
M  V30 253 H 22.6304 0.44399 -0.837602 0
M  V30 254 H 22.3364 2.14636 -2.78612 0
M  V30 255 H 22.2104 3.4217 -1.58744 0
M  V30 256 H 24.5974 2.84614 -0.779674 0
M  V30 257 H 24.6784 1.57927 -2.01228 0
M  V30 258 H 24.3224 3.34678 -3.82038 0
M  V30 259 H 24.2524 4.60259 -2.5587 0
M  V30 260 H 26.7434 3.08794 -2.17842 0
M  V30 261 H 27.0564 5.93363 -4.95116 0
M  V30 262 H 25.4014 5.34073 -4.44737 0
M  V30 263 H 28.5924 3.7758 -2.76679 0
M  V30 264 H 28.7654 5.0736 -4.031 0
M  V30 265 N 22.1715 0.800033 1.35784 0
M  V30 266 C 23.3995 0.389606 2.03199 0
M  V30 267 C 23.8145 -0.997375 1.60306 0
M  V30 268 O 23.1715 -1.64154 0.797481 0
M  V30 269 C 23.2225 0.455855 3.58614 0
M  V30 270 O 22.9435 1.78815 3.99946 0
M  V30 271 C 24.4445 0.0374032 4.43284 0
M  V30 272 H 21.6645 0.159132 0.651857 0
M  V30 273 H 24.2085 1.08183 1.73541 0
M  V30 274 H 22.3635 -0.188057 3.86943 0
M  V30 275 H 22.7775 1.74636 4.94573 0
M  V30 276 H 24.2515 0.134882 5.51835 0
M  V30 277 H 24.7285 -1.01651 4.27275 0
M  V30 278 H 25.3345 0.654215 4.20238 0
M  V30 279 N 23.6496 -1.47581 0.552962 0
M  V30 280 C 24.6126 -2.28439 -0.186605 0
M  V30 281 C 25.6126 -1.36706 -0.84665 0
M  V30 282 O 26.8026 -1.59378 -0.703164 0
M  V30 283 C 23.9346 -3.16264 -1.2724 0
M  V30 284 H 25.1276 -2.95294 0.523609 0
M  V30 285 H 22.6806 -1.532 0.309745 0
M  V30 286 H 23.4156 -2.54091 -2.01514 0
M  V30 287 H 23.2006 -3.83769 -0.803968 0
M  V30 288 H 24.6906 -3.77198 -1.79196 0
M  V30 289 N 25.1277 -0.289203 -1.54924 0
M  V30 290 C 26.5437 0.0645403 -1.59469 0
M  V30 291 C 26.7437 1.53419 -1.30632 0
M  V30 292 O 25.7997 2.2852 -1.074 0
M  V30 293 C 27.1127 -0.32278 -2.98963 0
M  V30 294 C 28.6607 -0.270564 -3.11828 0
M  V30 295 C 29.1357 -0.632532 -4.53611 0
M  V30 296 N 30.6267 -0.584617 -4.59496 0
M  V30 297 C 31.3617 -0.837314 -5.67254 0
M  V30 298 N 30.8577 -1.15536 -6.83098 0
M  V30 299 N 32.6507 -0.765166 -5.56868 0
M  V30 300 H 24.8017 -1.24714 -1.71931 0
M  V30 301 H 27.0647 -0.504809 -0.802416 0
M  V30 302 H 26.7707 -1.34541 -3.24948 0
M  V30 303 H 26.6447 0.32944 -3.75759 0
M  V30 304 H 29.0317 0.742805 -2.85598 0
M  V30 305 H 29.1127 -0.957242 -2.37214 0
M  V30 306 H 28.7567 -1.64365 -4.80569 0
M  V30 307 H 28.6867 0.07609 -5.26545 0
M  V30 308 H 31.1777 -0.349248 -3.76283 0
M  V30 309 H 31.4907 -1.33447 -7.61191 0
M  V30 310 H 29.8357 -1.19328 -6.84679 0
M  V30 311 H 33.0267 -0.516432 -4.65243 0
M  V30 312 H 33.1997 -0.965477 -6.40767 0
M  V30 313 N 26.6058 1.57591 -0.0167156 0
M  V30 314 C 27.8358 1.95292 0.674149 0
M  V30 315 C 28.2438 0.891097 1.66901 0
M  V30 316 O 27.5868 -0.136908 1.83189 0
M  V30 317 C 27.6488 3.29072 1.44747 0
M  V30 318 C 27.3128 4.52879 0.612331 0
M  V30 319 C 28.3098 5.1979 -0.107126 0
M  V30 320 C 25.9948 4.99242 0.553381 0
M  V30 321 C 27.9888 6.31375 -0.874339 0
M  V30 322 C 25.6758 6.10713 -0.217546 0
M  V30 323 C 26.6738 6.76637 -0.930123 0
M  V30 324 O 26.3618 7.85969 -1.68844 0
M  V30 325 H 26.0938 0.648275 0.191615 0
M  V30 326 H 28.6478 2.05284 -0.0690148 0
M  V30 327 H 26.8778 3.15535 2.2355 0
M  V30 328 H 28.5668 3.51764 2.02526 0
M  V30 329 H 29.3328 4.84948 -0.0708392 0
M  V30 330 H 25.2118 4.47744 1.09757 0
M  V30 331 H 28.7558 6.82764 -1.43106 0
M  V30 332 H 24.6528 6.44994 -0.255593 0
M  V30 333 H 25.4208 8.02571 -1.6069 0
M  V30 334 N 28.0839 -0.256276 1.55502 0
M  V30 335 C 29.3089 -1.00766 1.81276 0
M  V30 336 C 29.7339 -1.78524 0.59252 0
M  V30 337 O 29.0919 -1.75413 -0.45827 0
M  V30 338 C 29.1399 -1.92869 3.04687 0
M  V30 339 O 28.2439 -3.019 2.80945 0
M  V30 340 H 27.5849 -0.287224 0.598664 0
M  V30 341 H 30.1149 -0.280109 2.02674 0
M  V30 342 H 30.1249 -2.34511 3.33869 0
M  V30 343 H 28.7999 -1.35689 3.93143 0
M  V30 344 H 27.3769 -2.64454 2.62904 0
M  V30 345 N 29.562 -1.4872 -0.521534 0
M  V30 346 C 30.787 -1.61101 -1.30618 0
M  V30 347 C 31.212 -0.274611 -1.86085 0
M  V30 348 O 30.57 0.754937 -1.64834 0
M  V30 349 C 30.618 -2.66709 -2.4269 0
M  V30 350 O 29.722 -2.24456 -3.45967 0
M  V30 351 H 29.063 -0.539921 -0.386499 0
M  V30 352 H 31.593 -1.94767 -0.626645 0
M  V30 353 H 31.603 -2.88245 -2.88754 0
M  V30 354 H 30.278 -3.63727 -2.01682 0
M  V30 355 H 28.855 -2.13168 -3.05964 0
M  V30 356 N 31.0401 0.771051 -1.3745 0
M  V30 357 C 32.0031 1.86598 -1.33093 0
M  V30 358 C 33.0031 1.59076 -0.234845 0
M  V30 359 O 34.1931 1.67145 -0.490732 0
M  V30 360 C 31.3251 3.23747 -1.06773 0
M  V30 361 H 32.5181 1.91873 -2.30488 0
M  V30 362 H 30.0711 0.970876 -1.2249 0
M  V30 363 H 30.8061 3.24148 -0.099129 0
M  V30 364 H 30.5911 3.45115 -1.86112 0
M  V30 365 H 32.0811 4.03824 -1.06377 0
M  V30 366 N 32.5182 1.22032 0.997298 0
M  V30 367 C 33.4812 0.987909 2.06816 0
M  V30 368 C 34.4812 -0.0440084 1.6074 0
M  V30 369 O 35.6712 0.194053 1.73116 0
M  V30 370 C 32.8032 0.49132 3.37341 0
M  V30 371 H 33.9962 1.93803 2.28868 0
M  V30 372 H 31.5492 1.03838 1.16822 0
M  V30 373 H 32.2842 -0.463364 3.20973 0
M  V30 374 H 32.0692 1.23575 3.72118 0
M  V30 375 H 33.5592 0.348824 4.16141 0
M  V30 376 N 33.9963 -1.19345 1.0293 0
M  V30 377 C 34.9593 -2.20793 0.615069 0
M  V30 378 C 35.9593 -1.57553 -0.321533 0
M  V30 379 O 37.1493 -1.73862 -0.108483 0
M  V30 380 C 34.2813 -3.40754 -0.0999222 0
M  V30 381 H 35.4743 -2.58955 1.51269 0
M  V30 382 H 33.0273 -1.3303 0.820534 0
M  V30 383 H 33.7623 -3.0811 -1.01187 0
M  V30 384 H 33.5473 -3.87889 0.57309 0
M  V30 385 H 35.0373 -4.15898 -0.376645 0
M  V30 386 N 35.4744 -0.807222 -1.35358 0
M  V30 387 C 36.4044 -0.232509 -2.3234 0
M  V30 388 C 37.3854 0.642386 -1.57504 0
M  V30 389 O 38.5704 0.572526 -1.85569 0
M  V30 390 C 35.7004 0.619238 -3.41735 0
M  V30 391 C 34.6544 -0.157215 -4.27711 0
M  V30 392 C 33.9804 0.816273 -5.28433 0
M  V30 393 C 35.2804 -1.35656 -5.04376 0
M  V30 394 H 36.9744 -1.04276 -2.80654 0
M  V30 395 H 34.5204 -0.50288 -1.34934 0
M  V30 396 H 36.4734 1.03137 -4.08584 0
M  V30 397 H 35.1974 1.46239 -2.92031 0
M  V30 398 H 33.8564 -0.550525 -3.62443 0
M  V30 399 H 33.5044 1.65494 -4.74996 0
M  V30 400 H 33.2044 0.301067 -5.86828 0
M  V30 401 H 34.7284 1.22659 -5.98153 0
M  V30 402 H 36.1424 -1.01927 -5.64166 0
M  V30 403 H 34.5394 -1.8063 -5.7227 0
M  V30 404 H 35.6094 -2.14288 -4.34981 0
M  V30 405 N 36.9525 1.47285 -0.560781 0
M  V30 406 C 38.3635 1.86258 -0.128343 0
M  V30 407 C 38.7145 1.46699 1.30284 0
M  V30 408 O 37.8395 0.871698 1.98067 0
M  V30 409 C 38.4345 3.38044 -0.22614 0
M  V30 410 C 36.9935 3.76096 0.151283 0
M  V30 411 C 36.1405 2.71335 -0.572084 0
M  V30 412 H 39.0915 1.38752 -0.770297 0
M  V30 413 H 39.1125 3.76441 0.554322 0
M  V30 414 H 38.6245 3.66806 -1.26788 0
M  V30 415 H 36.7255 3.52951 1.19399 0
M  V30 416 H 36.8385 4.78641 -0.209765 0
M  V30 417 H 35.2025 2.54696 -0.0147653 0
M  V30 418 H 35.9855 3.02938 -1.61504 0
M  V30 419 N 38.4306 0.297415 1.54768 0
M  V30 420 C 39.6556 -0.318435 2.04941 0
M  V30 421 C 40.0806 -1.4701 1.17345 0
M  V30 422 O 39.4386 -1.80436 0.176758 0
M  V30 423 C 39.4866 -0.755749 3.52592 0
M  V30 424 O 38.5906 -1.86088 3.68028 0
M  V30 425 H 37.9316 -0.062421 0.661059 0
M  V30 426 H 40.4616 0.438215 1.99852 0
M  V30 427 H 40.4716 -1.04552 3.94376 0
M  V30 428 H 39.1466 0.0867233 4.1581 0
M  V30 429 H 37.7236 -1.57193 3.38149 0
M  V30 430 N 39.9087 -1.5758 0.0250728 0
M  V30 431 C 41.3197 -1.79476 -0.514323 0
M  V30 432 C 41.6707 -0.934956 -1.72491 0
M  V30 433 O 40.7957 -0.144245 -2.15919 0
M  V30 434 C 41.3907 -3.25503 -0.939842 0
M  V30 435 C 39.9497 -3.48408 -1.42438 0
M  V30 436 C 39.0967 -2.74583 -0.387201 0
M  V30 437 H 42.0477 -1.567 0.25113 0
M  V30 438 H 42.0687 -3.34992 -1.80445 0
M  V30 439 H 41.5807 -3.88056 -0.0585628 0
M  V30 440 H 39.6817 -2.91103 -2.32572 0
M  V30 441 H 39.7947 -4.57119 -1.43455 0
M  V30 442 H 38.1587 -2.39942 -0.854409 0
M  V30 443 H 38.9417 -3.39849 0.485543 0
M  V30 444 N 41.3868 0.248026 -1.55636 0
M  V30 445 C 42.6358 0.974134 -1.76617 0
M  V30 446 C 42.9488 1.86528 -0.588796 0
M  V30 447 O 44.1548 2.62805 -0.681594 0
M  V30 448 C 42.6108 1.78213 -3.12679 0
M  V30 449 C 42.2188 0.93843 -4.38061 0
M  V30 450 C 43.9628 2.50104 -3.42999 0
M  V30 451 C 41.8698 1.74225 -5.65155 0
M  V30 452 H 40.7998 0.36745 -0.658405 0
M  V30 453 H 43.4508 0.22884 -1.82067 0
M  V30 454 H 41.8328 2.56933 -3.01333 0
M  V30 455 H 43.0068 0.193635 -4.60393 0
M  V30 456 H 41.3218 0.332905 -4.15067 0
M  V30 457 H 43.9188 3.10694 -4.3517 0
M  V30 458 H 44.2618 3.21662 -2.64271 0
M  V30 459 H 44.7948 1.78395 -3.55556 0
M  V30 460 H 41.5338 1.07043 -6.46701 0
M  V30 461 H 41.0538 2.46235 -5.46926 0
M  V30 462 H 42.7328 2.30967 -6.0437 0
M  V30 463 N 42.8649 1.48995 0.513639 0
M  V30 464 C 43.7949 1.67636 1.62544 0
M  V30 465 C 44.7759 0.525087 1.61793 0
M  V30 466 O 45.9609 0.759502 1.78732 0
M  V30 467 C 43.0909 1.73114 3.01079 0
M  V30 468 C 42.0449 2.87905 3.16693 0
M  V30 469 C 41.3709 2.78486 4.56453 0
M  V30 470 C 42.6709 4.29005 2.97913 0
M  V30 471 H 44.3649 2.60716 1.47198 0
M  V30 472 H 41.9109 1.25465 0.706714 0
M  V30 473 H 43.8639 1.84742 3.78746 0
M  V30 474 H 42.5879 0.766241 3.17484 0
M  V30 475 H 41.2469 2.75859 2.41448 0
M  V30 476 H 40.8949 1.7993 4.69717 0
M  V30 477 H 40.5949 3.55523 4.67843 0
M  V30 478 H 42.1189 2.92104 5.36197 0
M  V30 479 H 43.5329 4.41798 3.65359 0
M  V30 480 H 41.9299 5.07166 3.20785 0
M  V30 481 H 42.9999 4.44329 1.94165 0
M  V30 482 N 44.343 -0.763751 1.37857 0
M  V30 483 C 45.291 -1.89864 1.34367 0
M  V30 484 C 46.285 -1.67816 0.231143 0
M  V30 485 O 47.491 -1.75508 0.399617 0
M  V30 486 H 43.866 -0.624501 0.41893 0
M  V30 487 H 45.837 -1.89925 2.30155 0
M  V30 488 C 44.586 -3.27227 1.1755 0
M  V30 489 H 43.909 -3.44773 2.02414 0
M  V30 490 H 45.349 -4.06911 1.1916 0
M  V30 491 C 43.808 -3.36692 -0.118311 0
M  V30 492 O 44.338 -3.86374 -1.09902 0
M  V30 493 N 42.544 -2.90092 -0.171717 0
M  V30 494 H 42.091 -2.49853 0.627012 0
M  V30 495 H 42.049 -2.96806 -1.03699 0
M  V30 496 N 45.8211 -1.22559 -0.990812 0
M  V30 497 C 47.2321 -1.04791 -1.54518 0
M  V30 498 C 47.5831 0.387998 -1.92325 0
M  V30 499 O 46.7081 1.27328 -1.74976 0
M  V30 500 C 47.3031 -1.896 -2.80779 0
M  V30 501 C 45.8621 -1.76124 -3.32652 0
M  V30 502 C 45.0091 -1.8594 -2.05722 0
M  V30 503 H 47.9601 -1.36374 -0.811662 0
M  V30 504 H 47.9811 -1.41464 -3.53225 0
M  V30 505 H 47.4931 -2.94101 -2.53231 0
M  V30 506 H 45.5941 -0.743643 -3.65104 0
M  V30 507 H 45.7071 -2.58913 -4.03114 0
M  V30 508 H 44.0711 -1.29403 -2.19379 0
M  V30 509 H 44.8541 -2.91976 -1.80568 0
M  V30 510 N 47.2992 1.18797 -1.03562 0
M  V30 511 C 48.5762 1.84469 -0.650434 0
M  V30 512 C 48.9562 1.92319 0.870433 0
M  V30 513 O 48.3042 1.44528 1.76986 0
M  V30 514 C 48.5142 3.2306 -1.32036 0
M  V30 515 C 49.8622 3.9915 -1.44792 0
M  V30 516 O 50.8862 3.32481 -1.27806 0
M  V30 517 O 49.7452 5.18587 -1.72423 0
M  V30 518 H 46.8392 0.795251 -0.226946 0
M  V30 519 H 49.3852 1.26231 -1.13419 0
M  V30 520 H 48.1572 3.1222 -2.3587 0
M  V30 521 H 47.7802 3.88949 -0.8249 0
M  V30 522 N 48.7773 0.814389 1.34928 0
M  V30 523 C 50.0263 0.394871 1.97797 0
M  V30 524 C 50.3393 -1.04555 1.65311 0
M  V30 525 O 51.5453 -1.56856 2.21604 0
M  V30 526 C 50.0013 0.655103 3.53888 0
M  V30 527 C 49.6093 2.10858 3.95276 0
M  V30 528 C 51.3533 0.301329 4.23429 0
M  V30 529 C 49.2603 2.31415 5.44244 0
M  V30 530 H 48.1903 0.143913 0.740139 0
M  V30 531 H 50.8413 0.999544 1.53888 0
M  V30 532 H 49.2233 -0.0196253 3.95995 0
M  V30 533 H 50.3973 2.82176 3.64298 0
M  V30 534 H 48.7123 2.42297 3.38646 0
M  V30 535 H 51.3093 0.432869 5.32945 0
M  V30 536 H 51.6523 -0.75331 4.09428 0
M  V30 537 H 52.1853 0.930288 3.86769 0
M  V30 538 H 48.9243 3.35353 5.63222 0
M  V30 539 H 48.4443 1.6463 5.76764 0
M  V30 540 H 50.1233 2.13352 6.10811 0
M  V30 541 N 50.2554 -1.46986 0.568584 0
M  V30 542 C 51.6664 -1.86188 0.138219 0
M  V30 543 C 52.0174 -1.47388 -1.29504 0
M  V30 544 O 51.1424 -0.88219 -1.97602 0
M  V30 545 C 51.7374 -3.3792 0.244065 0
M  V30 546 C 50.2964 -3.76171 -0.131335 0
M  V30 547 C 49.4434 -2.71027 0.586465 0
M  V30 548 H 52.3944 -1.38342 0.777645 0
M  V30 549 H 52.4154 -3.76729 -0.534351 0
M  V30 550 H 51.9274 -3.66128 1.28731 0
M  V30 551 H 50.0284 -3.5358 -1.17526 0
M  V30 552 H 50.1414 -4.78523 0.235146 0
M  V30 553 H 48.5054 -2.54684 0.0282722 0
M  V30 554 H 49.2884 -3.02077 1.63109 0
M  V30 555 N 51.7335 -0.305618 -1.54608 0
M  V30 556 C 52.9635 0.304333 -2.04346 0
M  V30 557 C 53.3715 1.47715 -1.18224 0
M  V30 558 O 52.7145 1.82591 -0.201577 0
M  V30 559 C 52.7765 0.819031 -3.50046 0
M  V30 560 C 52.4405 -0.22912 -4.56425 0
M  V30 561 C 53.4375 -1.05914 -5.08997 0
M  V30 562 C 51.1225 -0.372148 -5.0092 0
M  V30 563 C 53.1165 -2.01809 -6.04609 0
M  V30 564 C 50.8035 -1.33454 -5.9635 0
M  V30 565 C 51.8015 -2.15599 -6.48079 0
M  V30 566 O 51.4895 -3.10205 -7.41639 0
M  V30 567 H 51.2215 0.0693996 -0.672428 0
M  V30 568 H 53.7755 -0.444548 -2.00532 0
M  V30 569 H 52.0055 1.61852 -3.51199 0
M  V30 570 H 53.6945 1.34537 -3.82955 0
M  V30 571 H 54.4605 -0.959538 -4.75413 0
M  V30 572 H 50.3395 0.257304 -4.60281 0
M  V30 573 H 53.8835 -2.65966 -6.44909 0
M  V30 574 H 49.7805 -1.43485 -6.29351 0
M  V30 575 H 50.5485 -3.05237 -7.59455 0
M  V30 576 N 53.2116 1.57565 -0.0334293 0
M  V30 577 C 54.1596 2.1164 0.96496 0
M  V30 578 C 55.1536 1.04398 1.33407 0
M  V30 579 O 56.3596 1.22828 1.3158 0
M  V30 580 H 52.7346 0.676222 0.32898 0
M  V30 581 H 54.7056 2.94455 0.483614 0
M  V30 582 C 53.4546 2.66207 2.23672 0
M  V30 583 H 52.7776 3.48378 1.96145 0
M  V30 584 H 54.2176 3.07685 2.9173 0
M  V30 585 C 52.6766 1.59151 2.96939 0
M  V30 586 O 53.2066 0.993858 3.89211 0
M  V30 587 N 51.4126 1.31093 2.59351 0
M  V30 588 H 50.9596 1.7988 1.84393 0
M  V30 589 H 50.9176 0.596889 3.08682 0
M  V30 590 N 54.6897 -0.239769 1.55765 0
M  V30 591 C 55.6217 -1.32001 1.87372 0
M  V30 592 C 56.6347 -1.43944 0.760522 0
M  V30 593 O 57.8237 -1.45167 1.0387 0
M  V30 594 C 54.9237 -2.69779 2.05115 0
M  V30 595 C 54.0967 -2.80014 3.36022 0
M  V30 596 C 53.1557 -3.98684 3.4342 0
M  V30 597 O 52.1817 -3.87877 4.16582 0
M  V30 598 N 53.3837 -5.12176 2.73232 0
M  V30 599 H 56.1487 -1.0522 2.80622 0
M  V30 600 H 53.7097 -0.429857 1.56089 0
M  V30 601 H 55.7017 -3.47517 2.07399 0
M  V30 602 H 54.2717 -2.89237 1.18577 0
M  V30 603 H 53.4917 -1.88896 3.45994 0
M  V30 604 H 54.7797 -2.83808 4.22292 0
M  V30 605 H 54.1777 -5.2385 2.13536 0
M  V30 606 H 52.7347 -5.88022 2.81199 0
M  V30 607 N 56.1678 -1.49265 -0.50573 0
M  V30 608 C 57.0978 -1.68495 -1.61653 0
M  V30 609 C 58.0788 -0.53366 -1.61512 0
M  V30 610 O 59.2638 -0.76897 -1.78327 0
M  V30 611 C 56.3938 -1.74709 -3.00157 0
M  V30 612 C 55.3478 -2.89581 -3.15162 0
M  V30 613 C 54.6738 -2.80903 -4.5497 0
M  V30 614 C 55.9738 -4.30578 -2.95634 0
M  V30 615 H 57.6678 -2.61493 -1.45814 0
M  V30 616 H 55.2138 -1.25838 -0.70005 0
M  V30 617 H 57.1668 -1.86748 -3.77761 0
M  V30 618 H 55.8908 -0.783067 -3.17074 0
M  V30 619 H 54.5498 -2.77136 -2.39982 0
M  V30 620 H 54.1978 -1.82419 -4.68756 0
M  V30 621 H 53.8978 -3.57999 -4.65951 0
M  V30 622 H 55.4218 -2.94944 -5.34641 0
M  V30 623 H 56.8358 -4.4373 -3.63011 0
M  V30 624 H 55.2328 -5.0886 -3.18091 0
M  V30 625 H 56.3028 -4.45352 -1.91806 0
M  V30 626 N 57.6459 0.756429 -1.3826 0
M  V30 627 C 58.8929 1.51547 -1.34312 0
M  V30 628 C 59.2209 1.94382 0.0677144 0
M  V30 629 O 58.4759 1.65514 1.04421 0
M  V30 630 C 58.7749 2.78313 -2.24224 0
M  V30 631 C 58.4409 2.54455 -3.72241 0
M  V30 632 C 57.1029 2.47657 -4.12576 0
M  V30 633 C 59.4549 2.3354 -4.65949 0
M  V30 634 C 56.7829 2.17956 -5.44713 0
M  V30 635 C 59.1349 2.05359 -5.9834 0
M  V30 636 C 57.7989 1.97016 -6.37762 0
M  V30 637 H 57.0689 0.55455 -0.491482 0
M  V30 638 H 59.7159 0.870039 -1.70595 0
M  V30 639 H 58.0209 3.47492 -1.80987 0
M  V30 640 H 59.7179 3.36259 -2.18474 0
M  V30 641 H 56.3079 2.60616 -3.40261 0
M  V30 642 H 60.4919 2.37772 -4.35635 0
M  V30 643 H 55.7479 2.10003 -5.74203 0
M  V30 644 H 59.9219 1.88179 -6.70494 0
M  V30 645 H 57.5489 1.73766 -7.40074 0
M  V30 646 N 59.124 1.23083 0.984299 0
M  V30 647 C 60.373 1.05466 1.71929 0
M  V30 648 C 60.686 -0.409211 1.91272 0
M  V30 649 O 61.892 -0.705226 2.62181 0
M  V30 650 C 60.348 1.83874 3.09384 0
M  V30 651 C 59.956 3.34566 2.97943 0
M  V30 652 C 61.7 1.74734 3.8687 0
M  V30 653 C 59.607 4.05381 4.30605 0
M  V30 654 H 58.537 0.391039 0.644674 0
M  V30 655 H 61.188 1.47013 1.09815 0
M  V30 656 H 59.57 1.35131 3.72231 0
M  V30 657 H 60.744 3.90767 2.44209 0
M  V30 658 H 59.059 3.44476 2.33934 0
M  V30 659 H 61.656 2.24957 4.85076 0
M  V30 660 H 61.999 0.709372 4.10212 0
M  V30 661 H 62.532 2.21067 3.30717 0
M  V30 662 H 59.271 5.09467 4.1246 0
M  V30 663 H 58.791 3.53967 4.84218 0
M  V30 664 H 60.47 4.11458 4.99311 0
M  V30 665 N 60.6021 -1.18246 1.0419 0
M  V30 666 C 61.5501 -2.23968 0.627792 0
M  V30 667 C 62.5441 -1.65828 -0.346019 0
M  V30 668 O 63.7501 -1.78733 -0.213175 0
M  V30 669 H 60.1251 -0.728939 0.184802 0
M  V30 670 H 62.0961 -2.56202 1.52981 0
M  V30 671 C 60.8451 -3.47699 0.00796591 0
M  V30 672 H 60.1681 -3.92734 0.748347 0
M  V30 673 H 61.6081 -4.23294 -0.24455 0
M  V30 674 C 60.0671 -3.13153 -1.24246 0
M  V30 675 O 60.5971 -3.27003 -2.33307 0
M  V30 676 N 58.8031 -2.67467 -1.13622 0
M  V30 677 H 58.3501 -2.56396 -0.248734 0
M  V30 678 H 58.3081 -2.44724 -1.97377 0
M  V30 679 N 62.0802 -0.821533 -1.34494 0
M  V30 680 C 63.0282 -0.230702 -2.31453 0
M  V30 681 C 64.0222 0.627793 -1.57338 0
M  V30 682 O 65.2282 0.519288 -1.72347 0
M  V30 683 H 61.6032 -0.0558577 -0.749923 0
M  V30 684 H 63.5742 -1.06332 -2.78812 0
M  V30 685 C 62.3232 0.59391 -3.4259 0
M  V30 686 H 61.6462 -0.0573588 -3.99759 0
M  V30 687 H 63.0862 0.973446 -4.12674 0
M  V30 688 C 61.5452 1.76568 -2.86924 0
M  V30 689 O 62.0752 2.8638 -2.81691 0
M  V30 690 N 60.2812 1.58198 -2.43766 0
M  V30 691 H 59.8282 0.68872 -2.48222 0
M  V30 692 H 59.7862 2.36752 -2.06871 0
M  V30 693 N 63.5583 1.46682 -0.576371 0
M  V30 694 C 64.4683 2.34032 0.163141 0
M  V30 695 C 65.4843 1.49367 0.892501 0
M  V30 696 O 66.6603 1.82252 0.857106 0
M  V30 697 C 63.7253 3.26435 1.16795 0
M  V30 698 C 62.7863 4.26998 0.443944 0
M  V30 699 C 62.0193 5.14986 1.40088 0
M  V30 700 O 62.2423 5.05785 2.637 0
M  V30 701 O 61.1763 5.94906 0.914917 0
M  V30 702 H 65.0023 2.98607 -0.55388 0
M  V30 703 H 62.5873 1.45554 -0.336821 0
M  V30 704 H 64.4693 3.83459 1.74748 0
M  V30 705 H 63.1443 2.64465 1.86655 0
M  V30 706 H 62.0513 3.7368 -0.177271 0
M  V30 707 H 63.3843 4.91736 -0.213566 0
M  V30 708 N 65.0364 0.313813 1.54444 0
M  V30 709 C 66.2824 -0.284918 2.01395 0
M  V30 710 C 66.6374 -1.50537 1.19818 0
M  V30 711 O 65.9304 -1.89692 0.269748 0
M  V30 712 C 66.1244 -0.680386 3.50864 0
M  V30 713 C 65.9534 0.500198 4.4691 0
M  V30 714 C 64.7234 0.996248 4.95382 0
M  V30 715 C 66.9214 1.34928 4.96285 0
M  V30 716 N 64.9034 2.14226 5.75309 0
M  V30 717 C 66.2744 2.3426 5.7404 0
M  V30 718 C 68.3294 1.37818 4.78446 0
M  V30 719 C 67.0324 3.36272 6.35856 0
M  V30 720 C 69.0584 2.38695 5.4109 0
M  V30 721 C 68.4204 3.36755 6.18688 0
M  V30 722 H 64.5194 -0.0683689 0.779006 0
M  V30 723 H 67.1034 0.44664 1.89508 0
M  V30 724 H 65.2744 -1.38109 3.63016 0
M  V30 725 H 67.0064 -1.25975 3.84594 0
M  V30 726 H 63.7614 0.56912 4.70168 0
M  V30 727 H 64.1854 2.72005 6.19953 0
M  V30 728 H 68.8274 0.633747 4.18023 0
M  V30 729 H 66.5454 4.11627 6.95405 0
M  V30 730 H 70.1314 2.41721 5.29209 0
M  V30 731 H 69.0114 4.13535 6.66302 0
M  V30 732 N 66.5145 -1.57545 0.0417849 0
M  V30 733 C 67.4465 -2.07904 -0.964799 0
M  V30 734 C 68.4595 -1.00497 -1.28079 0
M  V30 735 O 69.6485 -1.28087 -1.24322 0
M  V30 736 C 66.7485 -2.49928 -2.28887 0
M  V30 737 C 65.9215 -3.80562 -2.15619 0
M  V30 738 C 64.9805 -4.08999 -3.31069 0
M  V30 739 O 64.0065 -4.79061 -3.0739 0
M  V30 740 N 65.2085 -3.6017 -4.55256 0
M  V30 741 H 67.9735 -2.94886 -0.535029 0
M  V30 742 H 65.5345 -1.61252 -0.144681 0
M  V30 743 H 67.5265 -2.66034 -3.04972 0
M  V30 744 H 66.0965 -1.68245 -2.63463 0
M  V30 745 H 65.3165 -3.74129 -1.24183 0
M  V30 746 H 66.6045 -4.66126 -2.03971 0
M  V30 747 H 66.0025 -3.03512 -4.77386 0
M  V30 748 H 64.5595 -3.81532 -5.28466 0
M  V30 749 N 67.9926 0.231505 -1.5589 0
M  V30 750 C 69.2696 0.981096 -1.69215 0
M  V30 751 C 69.6496 2.02799 -0.586164 0
M  V30 752 O 68.9976 2.24823 0.408253 0
M  V30 753 C 69.2076 1.60054 -3.10135 0
M  V30 754 C 70.5556 2.09658 -3.69227 0
M  V30 755 O 71.5796 1.69967 -3.13033 0
M  V30 756 O 70.4386 2.8258 -4.67772 0
M  V30 757 H 67.5326 0.457653 -0.688827 0
M  V30 758 H 70.0786 0.224073 -1.68214 0
M  V30 759 H 68.8506 0.844105 -3.82087 0
M  V30 760 H 68.4736 2.42336 -3.15212 0
M  V30 761 N 69.4707 1.49531 0.497807 0
M  V30 762 C 70.4337 1.65916 1.58128 0
M  V30 763 C 71.4337 0.530825 1.51786 0
M  V30 764 O 72.6237 0.797342 1.54881 0
M  V30 765 C 69.7557 1.65951 2.9778 0
M  V30 766 H 70.9487 2.62556 1.44929 0
M  V30 767 H 68.5017 1.38611 0.722275 0
M  V30 768 H 69.2367 0.709065 3.16453 0
M  V30 769 H 69.0217 2.47897 3.03792 0
M  V30 770 H 70.5117 1.80673 3.76493 0
M  V30 771 N 70.9488 -0.749086 1.3866 0
M  V30 772 C 72.1948 -1.51056 1.35314 0
M  V30 773 C 72.5278 -1.94121 -0.0553751 0
M  V30 774 O 71.8028 -1.65763 -1.01749 0
M  V30 775 C 72.0858 -2.76003 2.31288 0
M  V30 776 C 71.9388 -2.39047 3.8102 0
M  V30 777 C 73.2578 -3.78046 2.2532 0
M  V30 778 H 70.3768 -0.547972 0.492844 0
M  V30 779 H 73.0188 -0.857628 1.69543 0
M  V30 780 H 71.1688 -3.31716 2.02229 0
M  V30 781 H 72.8408 -1.89074 4.20771 0
M  V30 782 H 71.0838 -1.71449 3.98482 0
M  V30 783 H 71.7548 -3.28462 4.4364 0
M  V30 784 H 74.2308 -3.31884 2.50983 0
M  V30 785 H 73.1068 -4.63159 2.94576 0
M  V30 786 H 73.3678 -4.23957 1.25352 0
M  V30 787 N 72.4269 -1.23603 -0.977757 0
M  V30 788 C 73.6519 -1.09735 -1.75991 0
M  V30 789 C 74.0769 0.346858 -1.84874 0
M  V30 790 O 73.4349 1.25093 -1.3123 0
M  V30 791 C 73.4829 -1.73051 -3.16363 0
M  V30 792 O 72.5869 -0.994452 -4.0023 0
M  V30 793 H 71.9279 -0.384476 -0.541364 0
M  V30 794 H 74.4579 -1.6371 -1.2272 0
M  V30 795 H 74.4679 -1.78398 -3.66931 0
M  V30 796 H 73.1429 -2.78137 -3.09213 0
M  V30 797 H 71.7199 -1.01812 -3.58732 0
M  V30 798 N 73.905 1.17692 -1.04816 0
M  V30 799 C 74.852 2.21581 -0.645797 0
M  V30 800 C 75.822 1.62367 0.350159 0
M  V30 801 O 77.007 1.89254 0.242433 0
M  V30 802 C 74.147 3.45092 -0.0227568 0
M  V30 803 C 73.26 4.18613 -1.06709 0
M  V30 804 C 72.395 5.29602 -0.411767 0
M  V30 805 C 71.434 5.94904 -1.44067 0
M  V30 806 N 70.571 6.97414 -0.809781 0
M  V30 807 H 75.411 2.55353 -1.5362 0
M  V30 808 H 72.948 1.25438 -0.768364 0
M  V30 809 H 74.906 4.15679 0.35588 0
M  V30 810 H 73.536 3.11917 0.831122 0
M  V30 811 H 72.588 3.46779 -1.5636 0
M  V30 812 H 73.9 4.63293 -1.84827 0
M  V30 813 H 73.054 6.06696 0.0206623 0
M  V30 814 H 71.793 4.86045 0.401438 0
M  V30 815 H 70.798 5.16544 -1.88316 0
M  V30 816 H 72.023 6.40542 -2.25571 0
M  V30 817 H 69.969 6.55998 -0.0170186 0
M  V30 818 H 69.886 7.40386 -1.52856 0
M  V30 819 H 71.154 7.78463 -0.401999 0
M  V30 820 N 75.3831 0.828654 1.34056 0
M  V30 821 C 76.3301 0.252567 2.29414 0
M  V30 822 C 77.3001 -0.62588 1.53857 0
M  V30 823 O 78.4851 -0.566312 1.82202 0
M  V30 824 C 75.6251 -0.574831 3.40279 0
M  V30 825 C 74.7381 0.326499 4.30764 0
M  V30 826 C 73.8731 -0.511016 5.28736 0
M  V30 827 C 72.9121 0.389342 6.1086 0
M  V30 828 N 72.0491 -0.409439 7.00905 0
M  V30 829 H 76.8891 1.07108 2.78086 0
M  V30 830 H 74.4261 0.539677 1.36843 0
M  V30 831 H 76.3841 -1.06992 4.03248 0
M  V30 832 H 75.0141 -1.35841 2.92826 0
M  V30 833 H 74.0661 0.939837 3.68607 0
M  V30 834 H 75.3781 1.01857 4.88289 0
M  V30 835 H 74.5321 -1.07035 5.97184 0
M  V30 836 H 73.2711 -1.23657 4.71763 0
M  V30 837 H 72.2761 0.960769 5.4134 0
M  V30 838 H 73.5011 1.1131 6.69916 0
M  V30 839 H 71.4471 -1.11856 6.46393 0
M  V30 840 H 71.3641 0.224126 7.55668 0
M  V30 841 H 72.6321 -0.951336 7.73673 0
M  V30 842 N 76.8612 -1.46375 0.584142 0
M  V30 843 C 78.0892 -2.06761 0.0759296 0
M  V30 844 C 78.5042 -1.43266 -1.22965 0
M  V30 845 O 77.8612 -0.538458 -1.74376 0
M  V30 846 C 77.9122 -3.61375 -0.0950384 0
M  V30 847 O 77.6332 -4.22495 1.15887 0
M  V30 848 C 79.1342 -4.38693 -0.637434 0
M  V30 849 H 76.3542 -0.668479 0.0581075 0
M  V30 850 H 78.8982 -1.8798 0.805218 0
M  V30 851 H 77.0532 -3.79578 -0.774554 0
M  V30 852 H 77.4672 -5.15385 0.973598 0
M  V30 853 H 78.9412 -5.47464 -0.706237 0
M  V30 854 H 79.4182 -4.06836 -1.65472 0
M  V30 855 H 80.0242 -4.25299 0.00725967 0
M  V30 856 N 78.3393 -0.321999 -1.54275 0
M  V30 857 C 79.5863 0.281044 -2.0054 0
M  V30 858 C 79.9143 1.52265 -1.21019 0
M  V30 859 O 79.1693 1.93687 -0.279982 0
M  V30 860 C 79.4683 0.661769 -3.5122 0
M  V30 861 C 79.1343 -0.480482 -4.48333 0
M  V30 862 C 77.7963 -0.794005 -4.74604 0
M  V30 863 C 80.1483 -1.24783 -5.06042 0
M  V30 864 C 77.4763 -1.87763 -5.55844 0
M  V30 865 C 79.8283 -2.32153 -5.88462 0
M  V30 866 C 78.4923 -2.64089 -6.13036 0
M  V30 867 H 77.7623 0.102841 -0.733829 0
M  V30 868 H 80.4093 -0.445453 -1.86247 0
M  V30 869 H 78.7143 1.46867 -3.63232 0
M  V30 870 H 80.4113 1.13989 -3.84457 0
M  V30 871 H 77.0013 -0.226039 -4.28004 0
M  V30 872 H 81.1853 -1.01887 -4.85729 0
M  V30 873 H 76.4413 -2.12954 -5.73115 0
M  V30 874 H 80.6153 -2.92057 -6.32199 0
M  V30 875 H 78.2423 -3.48185 -6.75775 0
M  V30 876 N 79.8174 1.5752 -0.0501392 0
M  V30 877 C 81.2284 1.80271 0.485705 0
M  V30 878 C 81.5794 0.96228 1.70981 0
M  V30 879 O 80.7044 0.178578 2.15662 0
M  V30 880 C 81.2994 3.26957 0.887938 0
M  V30 881 C 79.8584 3.5063 1.36877 0
M  V30 882 C 79.0054 2.75165 0.343468 0
M  V30 883 H 81.9564 1.56281 -0.276028 0
M  V30 884 H 81.9774 3.37821 1.75093 0
M  V30 885 H 81.4894 3.881 -0.0031809 0
M  V30 886 H 79.5904 2.94766 2.27911 0
M  V30 887 H 79.7034 4.59343 1.36164 0
M  V30 888 H 78.0674 2.4127 0.816128 0
M  V30 889 H 78.8504 3.39034 -0.539548 0
M  V30 890 N 81.2955 -0.223234 1.56011 0
M  V30 891 C 82.5235 -0.964812 1.83027 0
M  V30 892 C 82.9385 -1.78013 0.62904 0
M  V30 893 O 82.2955 -1.78008 -0.402414 0
M  V30 894 C 82.3465 -1.88373 3.08542 0
M  V30 895 O 82.0675 -1.10137 4.2403 0
M  V30 896 C 83.5685 -2.73934 3.48533 0
M  V30 897 H 80.7885 -0.282842 0.608475 0
M  V30 898 H 83.3325 -0.238971 2.03099 0
M  V30 899 H 81.4875 -2.56354 2.9045 0
M  V30 900 H 81.9015 -1.72501 4.95322 0
M  V30 901 H 83.3755 -3.34117 4.39397 0
M  V30 902 H 83.8525 -3.46244 2.70207 0
M  V30 903 H 84.4585 -2.11369 3.69057 0
M  V30 904 N 82.7736 -1.49793 -0.48987 0
M  V30 905 C 84.0196 -1.60078 -1.24511 0
M  V30 906 C 84.3526 -0.291608 -1.91998 0
M  V30 907 O 83.6276 0.705647 -1.81248 0
M  V30 908 C 83.9106 -2.76791 -2.30345 0
M  V30 909 C 83.7636 -4.17535 -1.67286 0
M  V30 910 C 85.0826 -2.89111 -3.31817 0
M  V30 911 H 82.2016 -0.582645 -0.451324 0
M  V30 912 H 84.8436 -1.82117 -0.541612 0
M  V30 913 H 82.9936 -2.5813 -2.90346 0
M  V30 914 H 84.6656 -4.4774 -1.11026 0
M  V30 915 H 82.9086 -4.22665 -0.976577 0
M  V30 916 H 83.5796 -4.95094 -2.44103 0
M  V30 917 H 86.0556 -3.06133 -2.81819 0
M  V30 918 H 84.9316 -3.72433 -4.03219 0
M  V30 919 H 85.1926 -1.9893 -3.94815 0
M  V30 920 N 84.2517 0.741722 -1.39055 0
M  V30 921 C 85.1997 1.87702 -1.3737 0
M  V30 922 C 86.1937 1.67427 -0.257812 0
M  V30 923 O 87.3997 1.7485 -0.427489 0
M  V30 924 H 83.7747 0.617757 -0.428812 0
M  V30 925 H 85.7457 1.86239 -2.33147 0
M  V30 926 C 84.4947 3.25315 -1.22741 0
M  V30 927 H 83.8177 3.41509 -2.07873 0
M  V30 928 H 85.2577 4.04964 -1.25618 0
M  V30 929 C 83.7167 3.36838 0.0647316 0
M  V30 930 O 84.2467 3.88073 1.03741 0
M  V30 931 N 82.4527 2.90329 0.125544 0
M  V30 932 H 81.9997 2.48823 -0.666682 0
M  V30 933 H 81.9577 2.98418 0.989639 0
M  V30 934 N 85.7298 1.2412 0.971189 0
M  V30 935 C 87.1408 1.07236 1.52831 0
M  V30 936 C 87.4918 -0.357352 1.92918 0
M  V30 937 O 86.6168 -1.24528 1.76979 0
M  V30 938 C 87.2118 1.94043 2.77728 0
M  V30 939 C 85.7708 1.81394 3.29808 0
M  V30 940 C 84.9178 1.89189 2.02738 0
M  V30 941 H 87.8688 1.37648 0.789864 0
M  V30 942 H 87.8898 1.47066 3.5093 0
M  V30 943 H 87.4018 2.98093 2.4852 0
M  V30 944 H 85.5028 0.801634 3.63874 0
M  V30 945 H 85.6158 2.65294 3.98944 0
M  V30 946 H 83.9798 1.32877 2.17292 0
M  V30 947 H 84.7628 2.94812 1.759 0
M  V30 948 N 87.2079 -1.17134 1.05439 0
M  V30 949 C 88.4359 -1.91372 0.786414 0
M  V30 950 C 88.8509 -1.76955 -0.658202 0
M  V30 951 O 88.2079 -1.10838 -1.44987 0
M  V30 952 C 88.2589 -3.42356 1.1608 0
M  V30 953 O 87.9799 -3.56332 2.54871 0
M  V30 954 C 89.4809 -4.33663 0.919322 0
M  V30 955 H 86.7009 -0.607118 0.285743 0
M  V30 956 H 89.2449 -1.48525 1.40572 0
M  V30 957 H 87.3999 -3.82939 0.586191 0
M  V30 958 H 87.8139 -4.49896 2.69618 0
M  V30 959 H 89.2879 -5.38099 1.231 0
M  V30 960 H 89.7649 -4.38959 -0.145359 0
M  V30 961 H 90.3709 -3.98796 1.47789 0
M  V30 962 N 88.686 -0.835752 -1.33615 0
M  V30 963 C 89.914 -0.443344 -2.02094 0
M  V30 964 C 90.329 0.954522 -1.62894 0
M  V30 965 O 89.686 1.61982 -0.840723 0
M  V30 966 C 89.737 -0.550775 -3.5728 0
M  V30 967 O 89.458 -1.89356 -3.95065 0
M  V30 968 C 90.959 -0.154919 -4.43029 0
M  V30 969 H 88.179 -0.176359 -0.647409 0
M  V30 970 H 90.723 -1.12746 -1.70612 0
M  V30 971 H 88.878 0.0853997 -3.87306 0
M  V30 972 H 89.292 -1.87687 -4.89769 0
M  V30 973 H 90.766 -0.281144 -5.51284 0
M  V30 974 H 91.243 0.902863 -4.2982 0
M  V30 975 H 91.849 -0.765404 -4.18356 0
M  V30 976 N 90.1641 1.46063 -0.591896 0
M  V30 977 C 91.4121 2.01938 -0.0808391 0
M  V30 978 C 91.7331 1.46475 1.28725 0
M  V30 979 O 91.0031 0.652944 1.84698 0
M  V30 980 H 89.5831 0.746516 -0.0268938 0
M  V30 981 H 92.2451 1.79055 -0.769752 0
M  V30 982 H 91.3411 3.12094 -0.0187578 0
M  V30 983 N 91.6422 0.330177 1.54103 0
M  V30 984 C 92.5522 -0.541534 2.28264 0
M  V30 985 C 93.5682 -1.12351 1.32866 0
M  V30 986 O 94.7442 -1.14206 1.65888 0
M  V30 987 C 91.8092 -1.68322 3.03098 0
M  V30 988 C 90.8702 -1.13238 4.14096 0
M  V30 989 C 90.1032 -2.21966 4.85352 0
M  V30 990 O 90.3262 -3.42437 4.56172 0
M  V30 991 O 89.2602 -1.87013 5.7211 0
M  V30 992 H 93.0862 0.060938 3.03639 0
M  V30 993 H 90.6712 0.09565 1.49093 0
M  V30 994 H 92.5532 -2.34777 3.49939 0
M  V30 995 H 91.2282 -2.27176 2.30593 0
M  V30 996 H 90.1352 -0.432736 3.71589 0
M  V30 997 H 91.4682 -0.588898 4.88664 0
M  V30 998 N 93.1203 -1.57491 0.0584922 0
M  V30 999 C 94.3663 -1.93264 -0.614558 0
M  V30 1000 C 94.6993 -0.937717 -1.7006 0
M  V30 1001 O 93.9743 0.0351652 -1.94468 0
M  V30 1002 C 94.2573 -3.3938 -1.20386 0
M  V30 1003 C 94.1103 -4.49625 -0.125375 0
M  V30 1004 C 95.4293 -3.86039 -2.11334 0
M  V30 1005 H 92.5483 -0.702791 -0.221933 0
M  V30 1006 H 95.1903 -1.8961 0.12175 0
M  V30 1007 H 93.3403 -3.42626 -1.83139 0
M  V30 1008 H 95.0123 -4.58506 0.506971 0
M  V30 1009 H 93.2553 -4.30354 0.545672 0
M  V30 1010 H 93.9263 -5.48967 -0.577861 0
M  V30 1011 H 96.4023 -3.84716 -1.58534 0
M  V30 1012 H 95.2783 -4.88914 -2.49507 0
M  V30 1013 H 95.5393 -3.23215 -3.01636 0
M  V30 1014 N 94.5984 0.214957 -1.56127 0
M  V30 1015 C 95.8474 0.936451 -1.78643 0
M  V30 1016 C 96.1604 1.85237 -0.628229 0
M  V30 1017 O 97.3664 2.613 -0.737186 0
M  V30 1018 C 95.8224 1.7154 -3.16389 0
M  V30 1019 C 95.4304 0.845299 -4.39953 0
M  V30 1020 C 97.1744 2.42772 -3.48227 0
M  V30 1021 C 95.0814 1.62198 -5.68723 0
M  V30 1022 H 94.0114 0.353401 -0.666051 0
M  V30 1023 H 96.6624 0.190169 -1.82512 0
M  V30 1024 H 95.0444 2.50484 -3.06715 0
M  V30 1025 H 96.2184 0.0959353 -4.607 0
M  V30 1026 H 94.5334 0.244789 -4.1568 0
M  V30 1027 H 97.1304 3.01394 -4.41663 0
M  V30 1028 H 97.4734 3.15984 -2.71035 0
M  V30 1029 H 98.0064 1.70813 -3.5926 0
M  V30 1030 H 94.7454 0.933011 -6.48826 0
M  V30 1031 H 94.2654 2.34579 -5.52026 0
M  V30 1032 H 95.9444 2.18095 -6.09133 0
M  V30 1033 N 96.0765 1.50051 0.48192 0
M  V30 1034 C 97.3245 1.60181 1.23234 0
M  V30 1035 C 97.6455 0.299176 1.92691 0
M  V30 1036 O 96.9155 -0.682708 1.83619 0
M  V30 1037 H 95.4955 0.590232 0.457859 0
M  V30 1038 H 98.1575 1.86775 0.556881 0
M  V30 1039 H 97.2535 2.40753 1.98607 0
M  V30 1040 N 97.5546 -0.734337 1.39446 0
M  V30 1041 C 98.5046 -1.83949 1.34709 0
M  V30 1042 C 99.4886 -1.59279 0.227851 0
M  V30 1043 O 100.681 -1.70771 0.465438 0
M  V30 1044 C 97.8096 -3.21884 1.19356 0
M  V30 1045 C 96.8956 -3.52381 2.35984 0
M  V30 1046 N 97.2866 -3.53811 3.61457 0
M  V30 1047 C 95.5846 -3.82747 2.28956 0
M  V30 1048 C 96.2856 -3.82122 4.38586 0
M  V30 1049 N 95.2616 -3.9993 3.68181 0
M  V30 1050 H 99.0636 -1.83361 2.29687 0
M  V30 1051 H 96.5776 -0.932609 1.32952 0
M  V30 1052 H 98.5746 -4.00998 1.14046 0
M  V30 1053 H 97.2346 -3.23711 0.253295 0
M  V30 1054 H 98.2456 -3.35107 3.94872 0
M  V30 1055 H 94.9226 -3.92175 1.43194 0
M  V30 1056 H 96.3126 -3.89691 5.47349 0
M  V30 1057 N 99.0327 -1.24633 -0.964593 0
M  V30 1058 C 100.279 -1.08949 -1.71049 0
M  V30 1059 C 100.612 0.370302 -1.90637 0
M  V30 1060 O 99.8867 1.27349 -1.47011 0
M  V30 1061 C 100.17 -1.83329 -3.0994 0
M  V30 1062 C 100.023 -3.37077 -2.97824 0
M  V30 1063 C 101.342 -1.60846 -4.09654 0
M  V30 1064 H 98.4607 -0.397178 -0.620821 0
M  V30 1065 H 101.103 -1.5334 -1.12191 0
M  V30 1066 H 99.2527 -1.45597 -3.60186 0
M  V30 1067 H 100.925 -3.84425 -2.5498 0
M  V30 1068 H 99.1677 -3.65298 -2.33965 0
M  V30 1069 H 99.8387 -3.84324 -3.96231 0
M  V30 1070 H 102.315 -1.93674 -3.68279 0
M  V30 1071 H 101.191 -2.1534 -5.04896 0
M  V30 1072 H 101.452 -0.547434 -4.38698 0
M  V30 1073 N 100.511 1.16574 -1.06058 0
M  V30 1074 C 101.474 2.19085 -0.673392 0
M  V30 1075 C 102.474 1.5835 0.279648 0
M  V30 1076 O 103.664 1.74088 0.0623488 0
M  V30 1077 C 100.796 3.40899 0.00954234 0
M  V30 1078 H 101.989 2.54853 -1.58081 0
M  V30 1079 H 99.5418 1.30808 -0.855516 0
M  V30 1080 H 100.277 3.10684 0.929826 0
M  V30 1081 H 100.062 3.86233 -0.67573 0
M  V30 1082 H 101.552 4.1675 0.266245 0
M  V30 1083 N 101.989 0.842826 1.3317 0
M  V30 1084 C 102.899 0.281444 2.32906 0
M  V30 1085 C 103.915 -0.594587 1.63526 0
M  V30 1086 O 105.091 -0.49777 1.95152 0
M  V30 1087 C 102.156 -0.530929 3.42611 0
M  V30 1088 C 101.217 0.369843 4.27704 0
M  V30 1089 C 100.45 -0.403853 5.3217 0
M  V30 1090 O 100.673 -1.63513 5.46461 0
M  V30 1091 O 99.6069 0.224199 6.01482 0
M  V30 1092 H 103.433 1.10744 2.82789 0
M  V30 1093 H 101.018 0.60545 1.36582 0
M  V30 1094 H 102.9 -0.992437 4.09547 0
M  V30 1095 H 101.575 -1.33392 2.94938 0
M  V30 1096 H 100.482 0.879275 3.6362 0
M  V30 1097 H 101.815 1.13771 4.78871 0
M  V30 1098 N 103.467 -1.45747 0.599634 0
M  V30 1099 C 104.715 -2.01893 0.0915472 0
M  V30 1100 C 105.036 -1.47155 -1.27946 0
M  V30 1101 O 104.306 -0.66273 -1.84349 0
M  V30 1102 H 102.886 -0.746363 0.0308524 0
M  V30 1103 H 105.548 -1.78645 0.779237 0
M  V30 1104 H 104.644 -3.1208 0.0353086 0
M  V30 1105 N 104.945 -0.338344 -1.53925 0
M  V30 1106 C 106.222 0.314774 -1.93051 0
M  V30 1107 C 106.602 1.68669 -1.26941 0
M  V30 1108 O 105.95 2.24636 -0.418445 0
M  V30 1109 C 106.16 0.392249 -3.46789 0
M  V30 1110 C 107.508 0.645554 -4.19664 0
M  V30 1111 O 108.532 0.474575 -3.53024 0
M  V30 1112 O 107.391 0.976408 -5.37707 0
M  V30 1113 H 104.485 0.182598 -0.80659 0
M  V30 1114 H 107.031 -0.389141 -1.65178 0
M  V30 1115 H 105.803 -0.570702 -3.87116 0
M  V30 1116 H 105.426 1.14316 -3.80812 0
M  V30 1117 N 106.423 1.57458 -0.0668435 0
M  V30 1118 C 107.839 1.56947 0.289772 0
M  V30 1119 C 108.039 1.07584 1.70376 0
M  V30 1120 O 107.095 0.739486 2.41429 0
M  V30 1121 C 108.408 3.0052 0.103943 0
M  V30 1122 C 109.956 3.12517 0.173857 0
M  V30 1123 C 110.431 4.57997 0.0163682 0
M  V30 1124 N 111.922 4.63144 0.0721352 0
M  V30 1125 C 112.657 5.73394 -0.0253794 0
M  V30 1126 N 112.153 6.92576 -0.176133 0
M  V30 1127 N 113.946 5.62091 0.0313305 0
M  V30 1128 H 106.097 1.87863 -0.991027 0
M  V30 1129 H 108.36 0.86583 -0.38606 0
M  V30 1130 H 108.066 3.40729 -0.871572 0
M  V30 1131 H 107.94 3.67304 0.858366 0
M  V30 1132 H 110.327 2.72197 1.13985 0
M  V30 1133 H 110.408 2.48381 -0.611586 0
M  V30 1134 H 110.052 4.99005 -0.946374 0
M  V30 1135 H 109.982 5.20158 0.821153 0
M  V30 1136 H 112.473 3.77436 0.187263 0
M  V30 1137 H 112.786 7.72418 -0.242821 0
M  V30 1138 H 111.131 6.94678 -0.211429 0
M  V30 1139 H 114.322 4.67867 0.147773 0
M  V30 1140 H 114.495 6.47982 -0.048121 0
M  V30 1141 N 107.901 -0.206675 1.56239 0
M  V30 1142 C 108.864 -1.23976 1.92776 0
M  V30 1143 C 109.864 -1.39041 0.807729 0
M  V30 1144 O 111.054 -1.37051 1.0753 0
M  V30 1145 C 108.186 -2.61112 2.19165 0
M  V30 1146 H 109.379 -0.927764 2.85189 0
M  V30 1147 H 106.932 -0.447718 1.4975 0
M  V30 1148 H 107.667 -2.97386 1.29352 0
M  V30 1149 H 107.452 -2.51552 3.00772 0
M  V30 1150 H 108.942 -3.35633 2.48476 0
M  V30 1151 N 109.379 -1.50304 -0.473955 0
M  V30 1152 C 110.656 -1.51667 -1.23518 0
M  V30 1153 C 111.036 -0.259701 -2.09496 0
M  V30 1154 O 110.384 0.756986 -2.15597 0
M  V30 1155 C 110.594 -2.81082 -2.06868 0
M  V30 1156 C 111.942 -3.31631 -2.65153 0
M  V30 1157 O 112.966 -2.82384 -2.17113 0
M  V30 1158 O 111.825 -4.17471 -3.52675 0
M  V30 1159 H 108.919 -0.60822 -0.560355 0
M  V30 1160 H 111.465 -1.62592 -0.486011 0
M  V30 1161 H 110.237 -3.64041 -1.4349 0
M  V30 1162 H 109.86 -2.73146 -2.88924 0
M  V30 1163 N 110.857 0.726932 -1.39834 0
M  V30 1164 C 112.103 1.48884 -1.377 0
M  V30 1165 C 112.436 1.94185 0.0244852 0
M  V30 1166 O 111.711 1.67361 0.990986 0
M  V30 1167 C 111.994 2.72288 -2.3565 0
M  V30 1168 C 111.847 2.32956 -3.84775 0
M  V30 1169 C 113.166 3.74414 -2.31306 0
M  V30 1170 H 110.285 0.540062 -0.5015 0
M  V30 1171 H 112.927 0.830547 -1.70886 0
M  V30 1172 H 111.077 3.28457 -2.07481 0
M  V30 1173 H 112.749 1.82356 -4.23726 0
M  V30 1174 H 110.992 1.65088 -4.01159 0
M  V30 1175 H 111.663 3.21362 -4.4881 0
M  V30 1176 H 114.139 3.27849 -2.56231 0
M  V30 1177 H 113.015 4.58414 -3.01907 0
M  V30 1178 H 113.276 4.21909 -1.32081 0
M  V30 1179 N 112.336 1.25143 0.95797 0
M  V30 1180 C 113.613 1.00472 1.67823 0
M  V30 1181 C 113.993 -0.470056 2.058 0
M  V30 1182 O 113.341 -1.44663 1.76875 0
M  V30 1183 C 113.551 1.9372 2.90299 0
M  V30 1184 C 114.899 2.21371 3.62326 0
M  V30 1185 O 115.923 1.91451 3.00375 0
M  V30 1186 O 114.782 2.72231 4.7387 0
M  V30 1187 H 111.876 0.380752 0.734137 0
M  V30 1188 H 114.422 1.36283 1.01119 0
M  V30 1189 H 113.194 2.93316 2.59001 0
M  V30 1190 H 112.817 1.58286 3.64735 0
M  V30 1191 N 113.814 -1.1601 1.06675 0
M  V30 1192 C 115.23 -1.38622 0.790948 0
M  V30 1193 C 115.43 -1.92109 -0.607965 0
M  V30 1194 O 114.486 -2.12239 -1.36787 0
M  V30 1195 C 115.799 -2.36347 1.85905 0
M  V30 1196 C 117.347 -2.50023 1.88301 0
M  V30 1197 C 117.822 -3.51033 2.94176 0
M  V30 1198 N 119.313 -3.58563 2.93235 0
M  V30 1199 C 120.048 -4.36521 3.71803 0
M  V30 1200 N 119.544 -5.17869 4.602 0
M  V30 1201 N 121.337 -4.31541 3.60178 0
M  V30 1202 H 113.488 -0.796294 1.96908 0
M  V30 1203 H 115.751 -0.412597 0.853503 0
M  V30 1204 H 115.457 -2.04147 2.86386 0
M  V30 1205 H 115.331 -3.36042 1.71334 0
M  V30 1206 H 117.718 -2.81524 0.884769 0
M  V30 1207 H 117.799 -1.5035 2.06951 0
M  V30 1208 H 117.443 -3.20268 3.94196 0
M  V30 1209 H 117.373 -4.50445 2.72776 0
M  V30 1210 H 119.864 -3.00496 2.29152 0
M  V30 1211 H 120.177 -5.74578 5.16797 0
M  V30 1212 H 118.522 -5.17199 4.64253 0
M  V30 1213 H 121.713 -3.67051 2.90502 0
M  V30 1214 H 121.886 -4.9205 4.21653 0
M  V30 1215 N 115.292 -0.849877 -1.32721 0
M  V30 1216 C 116.255 -0.296122 -2.27279 0
M  V30 1217 C 117.255 0.541458 -1.5141 0
M  V30 1218 O 118.445 0.353658 -1.70572 0
M  V30 1219 C 115.577 0.581579 -3.35902 0
M  V30 1220 H 116.77 -1.13064 -2.77771 0
M  V30 1221 H 114.323 -0.62383 -1.43311 0
M  V30 1222 H 115.058 1.43809 -2.9067 0
M  V30 1223 H 114.843 -0.0178814 -3.92096 0
M  V30 1224 H 116.333 0.961951 -4.0637 0
M  V30 1225 N 116.77 1.45427 -0.607355 0
M  V30 1226 C 118.016 2.0254 -0.102607 0
M  V30 1227 C 118.349 1.47478 1.26348 0
M  V30 1228 O 117.624 0.64939 1.83339 0
M  V30 1229 C 117.907 3.60044 -0.0634347 0
M  V30 1230 C 117.76 4.2544 -1.46017 0
M  V30 1231 C 119.079 4.35646 0.624514 0
M  V30 1232 H 116.198 0.73598 -0.0387607 0
M  V30 1233 H 118.84 1.73284 -0.779282 0
M  V30 1234 H 116.99 3.85101 0.512808 0
M  V30 1235 H 118.662 4.11569 -2.08347 0
M  V30 1236 H 116.905 3.83849 -2.02094 0
M  V30 1237 H 117.576 5.34342 -1.385 0
M  V30 1238 H 120.052 4.15882 0.134723 0
M  V30 1239 H 118.928 5.45376 0.621028 0
M  V30 1240 H 119.189 4.08501 1.69055 0
M  V30 1241 N 118.248 0.346503 1.53744 0
M  V30 1242 C 119.195 -0.508914 2.25119 0
M  V30 1243 C 120.165 -1.09315 1.25058 0
M  V30 1244 O 121.35 -1.12921 1.53797 0
M  V30 1245 C 118.49 -1.65246 3.02965 0
M  V30 1246 C 117.603 -1.09525 4.17886 0
M  V30 1247 C 116.738 -2.20634 4.83212 0
M  V30 1248 C 115.777 -1.62279 5.90196 0
M  V30 1249 N 114.914 -2.67143 6.49291 0
M  V30 1250 H 119.754 0.106283 2.9781 0
M  V30 1251 H 117.291 0.0642227 1.4696 0
M  V30 1252 H 119.249 -2.32574 3.4636 0
M  V30 1253 H 117.879 -2.2386 2.32565 0
M  V30 1254 H 116.931 -0.312818 3.79112 0
M  V30 1255 H 118.243 -0.628444 4.94825 0
M  V30 1256 H 117.397 -2.95821 5.29693 0
M  V30 1257 H 116.136 -2.70659 4.05703 0
M  V30 1258 H 115.141 -0.855989 5.43096 0
M  V30 1259 H 116.366 -1.13102 6.69615 0
M  V30 1260 H 114.312 -3.16417 5.74645 0
M  V30 1261 H 114.229 -2.25093 7.21713 0
M  V30 1262 H 115.497 -3.4209 7.00425 0
M  V30 1263 N 119.726 -1.57421 0.075193 0
M  V30 1264 C 120.689 -2.11791 -0.876203 0
M  V30 1265 C 121.689 -1.04268 -1.22412 0
M  V30 1266 O 122.879 -1.30242 -1.15684 0
M  V30 1267 C 120.011 -2.62207 -2.17854 0
M  V30 1268 H 121.204 -2.9716 -0.40444 0
M  V30 1269 H 118.757 -1.55333 -0.173557 0
M  V30 1270 H 119.492 -1.803 -2.6956 0
M  V30 1271 H 119.277 -3.40802 -1.93897 0
M  V30 1272 H 120.767 -3.04335 -2.85955 0
M  V30 1273 N 121.204 0.198386 -1.56346 0
M  V30 1274 C 122.167 1.22952 -1.93431 0
M  V30 1275 C 123.167 1.38611 -0.815092 0
M  V30 1276 O 124.357 1.36479 -1.08255 0
M  V30 1277 C 121.489 2.59946 -2.20546 0
M  V30 1278 H 122.682 0.912626 -2.85677 0
M  V30 1279 H 120.235 0.43977 -1.49986 0
M  V30 1280 H 120.97 2.96696 -1.30927 0
M  V30 1281 H 120.755 2.49953 -3.02102 0
M  V30 1282 H 122.245 3.3431 -2.50253 0
M  V30 1283 N 122.682 1.50554 0.465978 0
M  V30 1284 C 124.098 1.38093 0.800154 0
M  V30 1285 C 124.298 0.440988 1.96615 0
M  V30 1286 O 123.354 -0.114499 2.5224 0
M  V30 1287 C 124.667 2.79565 1.10742 0
M  V30 1288 C 126.215 2.88516 1.21357 0
M  V30 1289 C 126.69 4.30833 1.55393 0
M  V30 1290 N 128.181 4.33807 1.62375 0
M  V30 1291 C 128.916 5.40927 1.90225 0
M  V30 1292 N 128.412 6.58247 2.16062 0
M  V30 1293 N 130.205 5.28376 1.9177 0
M  V30 1294 H 122.356 2.10237 -0.302366 0
M  V30 1295 H 124.619 0.945203 -0.0727746 0
M  V30 1296 H 124.325 3.50208 0.323661 0
M  V30 1297 H 124.199 3.17125 2.04234 0
M  V30 1298 H 126.586 2.1809 1.98799 0
M  V30 1299 H 126.667 2.54492 0.258321 0
M  V30 1300 H 126.311 5.01799 0.784889 0
M  V30 1301 H 126.241 4.62347 2.52076 0
M  V30 1302 H 128.732 3.49212 1.44427 0
M  V30 1303 H 129.045 7.3569 2.36601 0
M  V30 1304 H 127.39 6.61413 2.13444 0
M  V30 1305 H 130.581 4.35715 1.71085 0
M  V30 1306 H 130.754 6.11944 2.13139 0
M  V30 1307 N 124.16 -0.719506 1.40217 0
M  V30 1308 C 125.07 -1.86378 1.42479 0
M  V30 1309 C 126.086 -1.71073 0.317834 0
M  V30 1310 O 127.262 -1.93406 0.561794 0
M  V30 1311 C 124.327 -3.22136 1.28178 0
M  V30 1312 C 123.388 -3.49723 2.48982 0
M  V30 1313 C 122.621 -4.79004 2.35353 0
M  V30 1314 O 122.844 -5.53821 1.36524 0
M  V30 1315 O 121.778 -5.06839 3.2465 0
M  V30 1316 H 125.604 -1.87425 2.38968 0
M  V30 1317 H 123.189 -0.869405 1.21498 0
M  V30 1318 H 125.071 -4.03234 1.22395 0
M  V30 1319 H 123.746 -3.21825 0.347934 0
M  V30 1320 H 122.653 -2.6865 2.60342 0
M  V30 1321 H 123.986 -3.54828 3.41113 0
M  V30 1322 N 125.638 -1.25649 -0.95132 0
M  V30 1323 C 126.601 -1.06399 -2.03007 0
M  V30 1324 C 127.601 -0.0156794 -1.60792 0
M  V30 1325 O 128.791 -0.25817 -1.72276 0
M  V30 1326 C 125.923 -0.616184 -3.35285 0
M  V30 1327 H 127.116 -2.02164 -2.21517 0
M  V30 1328 H 124.669 -1.08103 -1.12887 0
M  V30 1329 H 125.404 0.343917 -3.22471 0
M  V30 1330 H 125.189 -1.37301 -3.67275 0
M  V30 1331 H 126.679 -0.503032 -4.14559 0
M  V30 1332 N 127.117 1.15442 -1.07289 0
M  V30 1333 C 128.364 1.86213 -0.795668 0
M  V30 1334 C 128.692 1.82291 0.678238 0
M  V30 1335 O 127.947 1.24057 1.51355 0
M  V30 1336 C 128.246 3.3489 -1.24834 0
M  V30 1337 C 127.912 3.59007 -2.72809 0
M  V30 1338 C 126.574 3.65298 -3.13227 0
M  V30 1339 C 128.926 3.68762 -3.68326 0
M  V30 1340 C 126.254 3.78854 -4.4798 0
M  V30 1341 C 128.606 3.83842 -5.0284 0
M  V30 1342 C 127.27 3.88378 -5.4288 0
M  V30 1343 H 126.54 0.681403 -0.291155 0
M  V30 1344 H 129.187 1.36435 -1.34379 0
M  V30 1345 H 127.492 3.8687 -0.619595 0
M  V30 1346 H 129.189 3.88052 -1.01076 0
M  V30 1347 H 125.779 3.5475 -2.40521 0
M  V30 1348 H 129.963 3.63202 -3.38227 0
M  V30 1349 H 125.219 3.80623 -4.78472 0
M  V30 1350 H 129.393 3.90332 -5.76727 0
M  V30 1351 H 127.02 3.98635 -6.47298 0
M  V30 1352 N 128.595 0.856903 1.32268 0
M  V30 1353 C 130.011 0.547061 1.49931 0
M  V30 1354 C 130.211 -0.921781 1.7918 0
M  V30 1355 O 129.267 -1.70469 1.8627 0
M  V30 1356 C 130.58 1.43599 2.64196 0
M  V30 1357 C 132.128 1.43665 2.78081 0
M  V30 1358 C 132.603 2.31085 3.95428 0
M  V30 1359 N 134.094 2.28893 4.02694 0
M  V30 1360 C 134.829 2.93262 4.92732 0
M  V30 1361 N 134.325 3.66751 5.87763 0
M  V30 1362 N 136.118 2.82638 4.85873 0
M  V30 1363 H 128.269 1.8075 1.11549 0
M  V30 1364 H 130.532 0.772144 0.549997 0
M  V30 1365 H 130.238 2.48058 2.49319 0
M  V30 1366 H 130.112 1.12502 3.60032 0
M  V30 1367 H 132.499 0.399701 2.92381 0
M  V30 1368 H 132.58 1.7878 1.82952 0
M  V30 1369 H 132.224 3.34849 3.81888 0
M  V30 1370 H 132.154 1.93302 4.89839 0
M  V30 1371 H 134.645 1.75466 3.34694 0
M  V30 1372 H 134.958 4.13027 6.53168 0
M  V30 1373 H 133.303 3.70859 5.87783 0
M  V30 1374 H 136.494 2.24774 4.10602 0
M  V30 1375 H 136.667 3.33084 5.55841 0
M  V30 1376 N 130.073 -1.45103 0.615059 0
M  V30 1377 C 131.003 -2.33339 -0.0865619 0
M  V30 1378 C 131.984 -1.4727 -0.851209 0
M  V30 1379 O 133.169 -1.76026 -0.820281 0
M  V30 1380 C 130.299 -3.30095 -1.07956 0
M  V30 1381 C 129.253 -4.25858 -0.427628 0
M  V30 1382 C 128.579 -5.12361 -1.5294 0
M  V30 1383 C 129.879 -5.18165 0.655944 0
M  V30 1384 H 131.573 -2.92254 0.650224 0
M  V30 1385 H 129.119 -1.40532 0.314138 0
M  V30 1386 H 131.072 -3.90698 -1.57901 0
M  V30 1387 H 129.796 -2.69355 -1.84703 0
M  V30 1388 H 128.455 -3.66564 0.0510292 0
M  V30 1389 H 128.103 -4.47984 -2.28734 0
M  V30 1390 H 127.803 -5.77238 -1.09865 0
M  V30 1391 H 129.327 -5.75833 -2.03098 0
M  V30 1392 H 130.741 -5.72796 0.240257 0
M  V30 1393 H 129.138 -5.91559 1.00888 0
M  V30 1394 H 130.208 -4.60144 1.52957 0
M  V30 1395 N 131.551 -0.354651 -1.53558 0
M  V30 1396 C 132.799 0.237972 -2.00694 0
M  V30 1397 C 133.12 1.50173 -1.24391 0
M  V30 1398 O 132.39 1.92673 -0.354135 0
M  V30 1399 H 130.97 0.0909256 -0.741446 0
M  V30 1400 H 133.632 -0.478368 -1.88938 0
M  V30 1401 H 132.728 0.47264 -3.085 0
M  V30 1402 N 133.029 1.57378 -0.0835403 0
M  V30 1403 C 134.254 1.98682 0.594987 0
M  V30 1404 C 134.679 0.961969 1.61641 0
M  V30 1405 O 134.037 -0.0709989 1.81161 0
M  V30 1406 C 134.085 3.38988 1.2296 0
M  V30 1407 O 133.189 3.39208 2.34546 0
M  V30 1408 H 132.53 0.646368 0.152002 0
M  V30 1409 H 135.06 2.03961 -0.161533 0
M  V30 1410 H 135.07 3.76431 1.57366 0
M  V30 1411 H 133.745 4.13107 0.481228 0
M  V30 1412 H 132.322 3.13548 2.01846 0
M  V30 1413 N 134.507 -0.190092 1.56449 0
M  V30 1414 C 135.918 -0.754312 1.70784 0
M  V30 1415 C 136.269 -1.83631 0.690951 0
M  V30 1416 O 135.394 -2.15868 -0.151604 0
M  V30 1417 C 135.989 -1.37503 3.09642 0
M  V30 1418 C 134.548 -1.88628 3.25725 0
M  V30 1419 C 133.695 -0.758098 2.66736 0
M  V30 1420 H 136.646 0.0350524 1.58661 0
M  V30 1421 H 136.667 -2.2445 3.0725 0
M  V30 1422 H 136.179 -0.587302 3.83631 0
M  V30 1423 H 134.28 -2.70103 2.56661 0
M  V30 1424 H 134.393 -2.04462 4.3328 0
M  V30 1425 H 132.757 -1.17369 2.26046 0
M  V30 1426 H 133.54 0.0174705 3.43296 0
M  V30 1427 N 135.985 -1.50799 -0.457987 0
M  V30 1428 C 137.231 -1.63648 -1.20792 0
M  V30 1429 C 137.586 -0.338662 -1.89396 0
M  V30 1430 O 136.879 0.664291 -1.79716 0
M  V30 1431 C 137.073 -2.76358 -2.2663 0
M  V30 1432 C 136.902 -4.16974 -1.68411 0
M  V30 1433 C 135.672 -4.83199 -1.47807 0
M  V30 1434 C 137.87 -5.00774 -1.17176 0
M  V30 1435 N 135.852 -6.07991 -0.849692 0
M  V30 1436 C 137.223 -6.16397 -0.667403 0
M  V30 1437 C 139.278 -4.86452 -1.06155 0
M  V30 1438 C 137.981 -7.19272 -0.0636908 0
M  V30 1439 C 140.007 -5.89515 -0.471759 0
M  V30 1440 C 139.369 -7.04397 0.0221557 0
M  V30 1441 H 135.468 -0.652888 -0.43042 0
M  V30 1442 H 138.052 -1.87962 -0.507785 0
M  V30 1443 H 136.223 -2.53744 -2.94056 0
M  V30 1444 H 137.955 -2.78496 -2.93636 0
M  V30 1445 H 134.71 -4.40714 -1.73403 0
M  V30 1446 H 135.134 -6.74733 -0.553537 0
M  V30 1447 H 139.776 -3.97907 -1.42932 0
M  V30 1448 H 137.494 -8.07481 0.316253 0
M  V30 1449 H 141.08 -5.805 -0.388671 0
M  V30 1450 H 139.96 -7.82782 0.471375 0
M  V30 1451 N 137.463 0.71206 -1.40597 0
M  V30 1452 C 138.879 1.02058 -1.22704 0
M  V30 1453 C 139.079 2.01228 -0.104729 0
M  V30 1454 O 138.135 2.4674 0.53624 0
M  V30 1455 C 139.448 1.56094 -2.57012 0
M  V30 1456 C 140.996 1.6806 -2.64054 0
M  V30 1457 C 141.471 2.25501 -3.9864 0
M  V30 1458 N 142.962 2.32882 -4.004 0
M  V30 1459 C 143.697 2.78317 -5.01325 0
M  V30 1460 N 143.193 3.23478 -6.12645 0
M  V30 1461 N 144.986 2.77733 -4.88693 0
M  V30 1462 H 137.137 0.0547896 -2.12329 0
M  V30 1463 H 139.4 0.0869027 -0.944008 0
M  V30 1464 H 139.106 0.906865 -3.39807 0
M  V30 1465 H 138.98 2.54564 -2.78347 0
M  V30 1466 H 141.367 2.32583 -1.81629 0
M  V30 1467 H 141.448 0.681802 -2.46546 0
M  V30 1468 H 141.092 1.61598 -4.81506 0
M  V30 1469 H 141.022 3.26102 -4.13479 0
M  V30 1470 H 143.513 2.00991 -3.20017 0
M  V30 1471 H 143.826 3.56725 -6.85542 0
M  V30 1472 H 142.171 3.21429 -6.16205 0
M  V30 1473 H 145.362 2.4179 -4.00818 0
M  V30 1474 H 145.535 3.12826 -5.67489 0
M  V30 1475 N 138.941 1.26152 0.944643 0
M  V30 1476 C 140.357 1.03189 1.21754 0
M  V30 1477 C 140.557 -0.245112 2.00004 0
M  V30 1478 O 139.613 -0.955176 2.33736 0
M  V30 1479 C 140.926 2.26119 1.98219 0
M  V30 1480 C 142.474 2.30984 2.11224 0
M  V30 1481 C 142.949 3.53597 2.91089 0
M  V30 1482 N 144.44 3.54053 2.98664 0
M  V30 1483 C 145.175 4.45593 3.60881 0
M  V30 1484 N 144.671 5.47416 4.24626 0
M  V30 1485 N 146.464 4.33252 3.58119 0
M  V30 1486 H 138.615 2.08177 0.421437 0
M  V30 1487 H 140.878 0.914723 0.248969 0
M  V30 1488 H 140.584 3.18984 1.48128 0
M  V30 1489 H 140.458 2.3009 2.98895 0
M  V30 1490 H 142.845 1.38635 2.60508 0
M  V30 1491 H 142.926 2.31026 1.09821 0
M  V30 1492 H 142.57 4.46273 2.42493 0
M  V30 1493 H 142.5 3.50802 3.92741 0
M  V30 1494 H 144.991 2.80403 2.53343 0
M  V30 1495 H 145.304 6.13459 4.69987 0
M  V30 1496 H 143.649 5.51278 4.23223 0
M  V30 1497 H 146.84 3.52924 3.0751 0
M  V30 1498 H 147.013 5.04786 4.06319 0
M  V30 1499 N 140.419 -1.14872 1.07899 0
M  V30 1500 C 141.352 -2.18794 0.64841 0
M  V30 1501 C 142.33 -1.59065 -0.337189 0
M  V30 1502 O 143.514 -1.86936 -0.242284 0
M  V30 1503 C 140.641 -3.38667 -0.0470417 0
M  V30 1504 C 139.687 -4.16942 0.897884 0
M  V30 1505 S 140.52 -4.78615 2.40183 0
M  V30 1506 C 141.676 -6.0185 1.71834 0
M  V30 1507 H 141.909 -2.5498 1.52881 0
M  V30 1508 H 139.442 -1.25922 0.893484 0
M  V30 1509 H 141.4 -4.08113 -0.442027 0
M  V30 1510 H 140.061 -3.00814 -0.903861 0
M  V30 1511 H 139.254 -5.02726 0.358096 0
M  V30 1512 H 138.856 -3.53073 1.23352 0
M  V30 1513 H 141.148 -6.69574 1.03328 0
M  V30 1514 H 142.091 -6.60408 2.55473 0
M  V30 1515 H 142.499 -5.5173 1.19392 0
M  V30 1516 N 141.898 -0.863906 -1.31812 0
M  V30 1517 C 143.175 -0.39275 -1.91616 0
M  V30 1518 C 143.555 1.12461 -1.7865 0
M  V30 1519 O 142.903 1.95045 -1.19037 0
M  V30 1520 C 143.113 -0.867385 -3.38049 0
M  V30 1521 C 144.461 -0.889966 -4.15168 0
M  V30 1522 O 145.485 -0.812635 -3.46806 0
M  V30 1523 O 144.344 -1.00079 -5.37258 0
M  V30 1524 H 141.438 -0.116358 -0.818773 0
M  V30 1525 H 143.984 -0.951418 -1.40521 0
M  V30 1526 H 142.756 -1.91081 -3.41473 0
M  V30 1527 H 142.379 -0.286687 -3.96565 0
M  V30 1528 N 143.376 1.44774 -0.622745 0
M  V30 1529 C 144.339 2.29069 0.0774015 0
M  V30 1530 C 145.339 1.4059 0.780461 0
M  V30 1531 O 146.529 1.62551 0.626322 0
M  V30 1532 C 143.661 3.21974 1.12006 0
M  V30 1533 H 144.854 2.92459 -0.663901 0
M  V30 1534 H 142.407 1.51548 -0.382486 0
M  V30 1535 H 143.142 2.63417 1.89162 0
M  V30 1536 H 142.927 3.87168 0.619951 0
M  V30 1537 H 144.417 3.85318 1.60995 0
M  V30 1538 N 144.854 0.36279 1.53368 0
M  V30 1539 C 146.079 -0.231226 2.06107 0
M  V30 1540 C 146.504 -1.419 1.23474 0
M  V30 1541 O 145.862 -1.79524 0.253128 0
M  V30 1542 C 145.91 -0.605523 3.5548 0
M  V30 1543 O 145.014 -1.70312 3.7559 0
M  V30 1544 H 144.355 -0.034327 0.663112 0
M  V30 1545 H 146.885 0.522584 1.97814 0
M  V30 1546 H 146.895 -0.877314 3.98456 0
M  V30 1547 H 145.57 0.263004 4.15068 0
M  V30 1548 H 144.147 -1.4271 3.44512 0
M  V30 1549 N 146.332 -1.57332 0.0918853 0
M  V30 1550 C 147.242 -2.17368 -0.882505 0
M  V30 1551 C 148.258 -1.14226 -1.31257 0
M  V30 1552 O 149.434 -1.46582 -1.38115 0
M  V30 1553 C 146.499 -2.73962 -2.12476 0
M  V30 1554 C 145.56 -3.92048 -1.7492 0
M  V30 1555 C 144.793 -4.45933 -2.93223 0
M  V30 1556 O 145.016 -3.98764 -4.07852 0
M  V30 1557 O 143.95 -5.36999 -2.71875 0
M  V30 1558 H 147.776 -3.01031 -0.40172 0
M  V30 1559 H 145.361 -1.48813 -0.132291 0
M  V30 1560 H 147.243 -3.10147 -2.85283 0
M  V30 1561 H 145.918 -1.93347 -2.59613 0
M  V30 1562 H 144.825 -3.6068 -0.993025 0
M  V30 1563 H 146.158 -4.74017 -1.32548 0
M  V30 1564 N 147.81 0.181792 -1.56548 0
M  V30 1565 C 149.226 0.53316 -1.50431 0
M  V30 1566 C 149.426 1.85184 -0.794297 0
M  V30 1567 O 148.482 2.50058 -0.350318 0
M  V30 1568 C 149.795 0.575597 -2.9514 0
M  V30 1569 C 151.343 0.663519 -3.05886 0
M  V30 1570 C 151.818 0.736946 -4.52032 0
M  V30 1571 N 153.309 0.800118 -4.56237 0
M  V30 1572 C 154.044 0.877327 -5.66649 0
M  V30 1573 N 153.54 0.916016 -6.86718 0
M  V30 1574 N 155.333 0.915542 -5.54594 0
M  V30 1575 H 147.484 -0.683025 -2.01118 0
M  V30 1576 H 149.747 -0.244988 -0.915797 0
M  V30 1577 H 149.453 -0.324482 -3.502 0
M  V30 1578 H 149.327 1.42572 -3.49218 0
M  V30 1579 H 151.714 1.55403 -2.50867 0
M  V30 1580 H 151.795 -0.21307 -2.54911 0
M  V30 1581 H 151.439 -0.149262 -5.07681 0
M  V30 1582 H 151.369 1.62953 -5.00753 0
M  V30 1583 H 153.86 0.778926 -3.69785 0
M  V30 1584 H 154.173 0.975813 -7.66614 0
M  V30 1585 H 152.518 0.884469 -6.89349 0
M  V30 1586 H 155.709 0.882245 -4.59711 0
M  V30 1587 H 155.882 0.972253 -6.40665 0
M  V30 1588 N 149.288 1.51039 0.449983 0
M  V30 1589 C 150.536 1.62759 1.19808 0
M  V30 1590 C 150.857 0.339981 1.92013 0
M  V30 1591 O 150.127 -0.643606 1.85026 0
M  V30 1592 H 148.707 0.599811 0.445237 0
M  V30 1593 H 151.369 1.87914 0.517138 0
M  V30 1594 H 150.465 2.44911 1.93455 0
M  V30 1595 N 150.766 -0.704594 1.40972 0
M  V30 1596 C 152.182 -1.01406 1.23244 0
M  V30 1597 C 152.382 -2.01169 0.115399 0
M  V30 1598 O 151.438 -2.47021 -0.523147 0
M  V30 1599 C 152.751 -1.54728 2.57836 0
M  V30 1600 C 154.299 -1.66658 2.64942 0
M  V30 1601 C 154.774 -2.23383 3.9983 0
M  V30 1602 N 156.265 -2.30756 4.01629 0
M  V30 1603 C 157 -2.75655 5.02794 0
M  V30 1604 N 156.496 -3.20225 6.14352 0
M  V30 1605 N 158.289 -2.75138 4.90159 0
M  V30 1606 H 150.44 -0.0435285 2.12355 0
M  V30 1607 H 152.703 -0.0818951 0.944456 0
M  V30 1608 H 152.409 -0.888832 3.40283 0
M  V30 1609 H 152.283 -2.53084 2.79693 0
M  V30 1610 H 154.67 -2.31617 1.8286 0
M  V30 1611 H 154.751 -0.668717 2.46904 0
M  V30 1612 H 154.395 -1.59043 4.82357 0
M  V30 1613 H 154.325 -3.23904 4.15203 0
M  V30 1614 H 156.816 -1.99291 3.21079 0
M  V30 1615 H 157.129 -3.53084 6.87424 0
M  V30 1616 H 155.474 -3.18156 6.17901 0
M  V30 1617 H 158.665 -2.39661 4.02095 0
M  V30 1618 H 158.838 -3.09812 5.6914 0
M  V30 1619 N 152.244 -1.26651 -0.937939 0
M  V30 1620 C 153.174 -1.10993 -2.05433 0
M  V30 1621 C 154.155 -0.0142161 -1.70094 0
M  V30 1622 O 155.34 -0.186837 -1.93299 0
M  V30 1623 C 152.47 -0.745561 -3.39203 0
M  V30 1624 C 151.424 -1.79337 -3.88616 0
M  V30 1625 C 150.75 -1.28324 -5.19073 0
M  V30 1626 C 152.05 -3.19553 -4.13138 0
M  V30 1627 H 153.744 -2.0438 -2.1879 0
M  V30 1628 H 151.29 -0.984041 -1.05131 0
M  V30 1629 H 153.243 -0.622888 -4.16771 0
M  V30 1630 H 151.967 0.22401 -3.25831 0
M  V30 1631 H 150.626 -1.90477 -3.13231 0
M  V30 1632 H 150.274 -0.303414 -5.02084 0
M  V30 1633 H 149.974 -1.98369 -5.53103 0
M  V30 1634 H 151.498 -1.1733 -5.99221 0
M  V30 1635 H 152.912 -3.11471 -4.81309 0
M  V30 1636 H 151.309 -3.87218 -4.58457 0
M  V30 1637 H 152.379 -3.65368 -3.18801 0
M  V30 1638 N 153.722 1.14298 -1.08507 0
M  V30 1639 C 154.652 2.21542 -0.737646 0
M  V30 1640 C 155.633 1.67773 0.280377 0
M  V30 1641 O 156.818 1.93616 0.150521 0
M  V30 1642 C 153.948 3.46988 -0.147259 0
M  V30 1643 C 152.902 4.13789 -1.09374 0
M  V30 1644 C 152.228 5.33449 -0.365524 0
M  V30 1645 C 153.528 4.62208 -2.4323 0
M  V30 1646 H 155.222 2.5086 -1.6343 0
M  V30 1647 H 152.768 1.20576 -0.787243 0
M  V30 1648 H 154.721 4.21262 0.107808 0
M  V30 1649 H 153.445 3.17037 0.784538 0
M  V30 1650 H 152.104 3.4147 -1.33393 0
M  V30 1651 H 151.752 4.99759 0.57011 0
M  V30 1652 H 151.452 5.79088 -0.996512 0
M  V30 1653 H 152.976 6.10485 -0.118534 0
M  V30 1654 H 154.39 5.27952 -2.23472 0
M  V30 1655 H 152.787 5.18553 -3.02031 0
M  V30 1656 H 153.857 3.77224 -3.04681 0
M  V30 1657 N 155.201 0.870884 1.31352 0
M  V30 1658 C 156.149 0.316445 2.30437 0
M  V30 1659 C 157.143 -0.568965 1.59559 0
M  V30 1660 O 158.349 -0.454964 1.74155 0
M  V30 1661 H 154.724 0.0836521 0.747333 0
M  V30 1662 H 156.695 1.16606 2.74673 0
M  V30 1663 C 155.444 -0.46635 3.44558 0
M  V30 1664 H 154.767 0.205687 3.99271 0
M  V30 1665 H 156.207 -0.819614 4.16003 0
M  V30 1666 C 154.666 -1.65797 2.9328 0
M  V30 1667 O 155.196 -2.75728 2.92125 0
M  V30 1668 N 153.402 -1.49041 2.4947 0
M  V30 1669 H 152.949 -0.59612 2.50608 0
M  V30 1670 H 152.907 -2.28911 2.15516 0
M  V30 1671 N 156.679 -1.44442 0.630414 0
M  V30 1672 C 157.609 -2.33418 -0.0618083 0
M  V30 1673 C 158.59 -1.48165 -0.835541 0
M  V30 1674 O 159.775 -1.76886 -0.801564 0
M  V30 1675 C 156.905 -3.31222 -1.04449 0
M  V30 1676 C 155.859 -4.26288 -0.382436 0
M  V30 1677 C 155.185 -5.13954 -1.47497 0
M  V30 1678 C 156.485 -5.1744 0.710865 0
M  V30 1679 H 158.179 -2.91548 0.681184 0
M  V30 1680 H 155.725 -1.40191 0.329026 0
M  V30 1681 H 157.678 -3.92351 -1.53748 0
M  V30 1682 H 156.402 -2.71299 -1.81836 0
M  V30 1683 H 155.061 -3.6649 0.0899054 0
M  V30 1684 H 154.709 -4.50385 -2.2397 0
M  V30 1685 H 154.409 -5.7837 -1.03737 0
M  V30 1686 H 155.933 -5.77955 -1.96979 0
M  V30 1687 H 157.347 -5.72509 0.300996 0
M  V30 1688 H 155.744 -5.90455 1.07156 0
M  V30 1689 H 156.814 -4.58496 1.57829 0
M  V30 1690 N 158.157 -0.370918 -1.53173 0
M  V30 1691 C 159.087 0.464847 -2.28826 0
M  V30 1692 C 160.068 1.07936 -1.31468 0
M  V30 1693 O 161.253 1.0956 -1.60344 0
M  V30 1694 C 158.383 1.60196 -3.08147 0
M  V30 1695 C 157.337 1.11443 -4.13237 0
M  V30 1696 C 156.663 2.3422 -4.80672 0
M  V30 1697 C 157.963 0.195384 -5.21934 0
M  V30 1698 H 159.657 -0.166329 -2.98938 0
M  V30 1699 H 157.203 -0.0814359 -1.4377 0
M  V30 1700 H 159.156 2.19332 -3.59822 0
M  V30 1701 H 157.88 2.26045 -2.35735 0
M  V30 1702 H 156.539 0.545727 -3.62515 0
M  V30 1703 H 156.187 2.98537 -4.04827 0
M  V30 1704 H 155.887 2.02269 -5.51689 0
M  V30 1705 H 157.411 2.94032 -5.35143 0
M  V30 1706 H 158.825 0.694375 -5.69079 0
M  V30 1707 H 157.222 -0.0335027 -6.00091 0
M  V30 1708 H 158.292 -0.760961 -4.78892 0
M  V30 1709 N 159.635 1.57281 -0.100228 0
M  V30 1710 C 160.598 2.13158 0.842398 0
M  V30 1711 C 161.598 1.06202 1.20738 0
M  V30 1712 O 162.788 1.32066 1.13597 0
M  V30 1713 C 159.92 2.65639 2.13655 0
M  V30 1714 H 161.113 2.97766 0.357114 0
M  V30 1715 H 158.666 1.5559 0.148823 0
M  V30 1716 H 159.401 1.84566 2.66657 0
M  V30 1717 H 159.186 3.43844 1.88451 0
M  V30 1718 H 160.676 3.08846 2.81077 0
M  V30 1719 N 161.113 -0.173488 1.56642 0
M  V30 1720 C 162.39 -0.917617 1.7274 0
M  V30 1721 C 162.77 -2.00484 0.661027 0
M  V30 1722 O 162.118 -2.26184 -0.32453 0
M  V30 1723 C 162.328 -1.48433 3.15862 0
M  V30 1724 C 163.676 -1.95809 3.76754 0
M  V30 1725 O 164.7 -1.58231 3.19126 0
M  V30 1726 O 163.559 -2.65024 4.77938 0
M  V30 1727 H 160.653 -0.431772 0.705338 0
M  V30 1728 H 163.199 -0.161487 1.6893 0
M  V30 1729 H 161.971 -0.701715 3.84957 0
M  V30 1730 H 161.594 -2.30471 3.23989 0
M  V30 1731 N 162.591 -1.51276 -0.441967 0
M  V30 1732 C 163.521 -1.752 -1.54361 0
M  V30 1733 C 164.502 -0.601682 -1.59103 0
M  V30 1734 O 165.687 -0.843913 -1.74905 0
M  V30 1735 C 162.817 -1.87282 -2.92477 0
M  V30 1736 C 161.771 -3.02687 -3.02596 0
M  V30 1737 C 161.097 -2.99947 -4.42647 0
M  V30 1738 C 162.397 -4.4273 -2.77106 0
M  V30 1739 H 164.091 -2.67442 -1.34592 0
M  V30 1740 H 161.637 -1.28694 -0.646048 0
M  V30 1741 H 163.59 -2.02602 -3.695 0
M  V30 1742 H 162.314 -0.916844 -3.13467 0
M  V30 1743 H 160.973 -2.87065 -2.28012 0
M  V30 1744 H 160.621 -2.02136 -4.60597 0
M  V30 1745 H 160.321 -3.77439 -4.50348 0
M  V30 1746 H 161.845 -3.17354 -5.2165 0
M  V30 1747 H 163.259 -4.58727 -3.43864 0
M  V30 1748 H 161.656 -5.21893 -2.96222 0
M  V30 1749 H 162.726 -4.53087 -1.72744 0
M  V30 1750 N 164.069 0.697108 -1.41344 0
M  V30 1751 C 165.315 1.4593 -1.40827 0
M  V30 1752 C 165.648 1.94193 -0.0167098 0
M  V30 1753 O 164.923 1.69425 0.955263 0
M  V30 1754 C 165.206 2.67229 -2.41373 0
M  V30 1755 C 165.059 2.24741 -3.8963 0
M  V30 1756 C 166.378 3.69423 -2.39196 0
M  V30 1757 H 163.497 0.529303 -0.512842 0
M  V30 1758 H 166.139 0.794112 -1.72609 0
M  V30 1759 H 164.289 3.23982 -2.14401 0
M  V30 1760 H 165.961 1.73327 -4.27499 0
M  V30 1761 H 164.204 1.56542 -4.0457 0
M  V30 1762 H 164.875 3.1177 -4.55525 0
M  V30 1763 H 167.351 3.2234 -2.63128 0
M  V30 1764 H 166.227 4.51907 -3.11563 0
M  V30 1765 H 166.488 4.19012 -1.41001 0
M  V30 1766 N 165.547 1.27147 0.931209 0
M  V30 1767 C 166.457 1.11372 2.06478 0
M  V30 1768 C 167.473 0.044645 1.73943 0
M  V30 1769 O 168.649 0.250417 1.99837 0
M  V30 1770 C 165.714 0.758838 3.38294 0
M  V30 1771 C 164.775 1.90841 3.84549 0
M  V30 1772 C 164.008 1.57036 5.10074 0
M  V30 1773 O 164.231 0.476645 5.68405 0
M  V30 1774 O 163.165 2.40839 5.51616 0
M  V30 1775 H 166.991 2.06493 2.22698 0
M  V30 1776 H 164.576 1.06301 1.04978 0
M  V30 1777 H 166.458 0.574098 4.17471 0
M  V30 1778 H 165.133 -0.162879 3.2329 0
M  V30 1779 H 164.04 2.14819 3.06274 0
M  V30 1780 H 165.373 2.81021 4.04089 0
M  V30 1781 N 167.025 -1.13721 1.09112 0
M  V30 1782 C 168.441 -1.36914 0.820174 0
M  V30 1783 C 168.641 -1.93356 -0.567079 0
M  V30 1784 O 167.697 -2.15093 -1.32255 0
M  V30 1785 C 169.01 -2.3235 1.90877 0
M  V30 1786 C 170.558 -2.45973 1.93562 0
M  V30 1787 C 171.033 -3.44714 3.01556 0
M  V30 1788 N 172.524 -3.52263 3.00775 0
M  V30 1789 C 173.259 -4.28536 3.80978 0
M  V30 1790 N 172.755 -5.07991 4.71081 0
M  V30 1791 N 174.548 -4.23804 3.69251 0
M  V30 1792 H 166.699 -0.754348 1.98553 0
M  V30 1793 H 168.962 -0.3944 0.862063 0
M  V30 1794 H 168.668 -1.98027 2.90651 0
M  V30 1795 H 168.542 -3.32332 1.78424 0
M  V30 1796 H 170.929 -2.79584 0.944286 0
M  V30 1797 H 171.01 -1.45926 2.10093 0
M  V30 1798 H 170.654 -3.11835 4.00901 0
M  V30 1799 H 170.584 -4.44558 2.82269 0
M  V30 1800 H 173.075 -2.95567 2.35475 0
M  V30 1801 H 173.388 -5.63487 5.28869 0
M  V30 1802 H 171.733 -5.07235 4.75119 0
M  V30 1803 H 174.924 -3.60806 2.98222 0
M  V30 1804 H 175.097 -4.82995 4.31995 0
M  V30 1805 N 168.503 -0.877838 -1.30888 0
M  V30 1806 C 169.78 -0.413052 -1.91189 0
M  V30 1807 C 170.16 1.1056 -1.79832 0
M  V30 1808 O 169.508 1.93771 -1.21099 0
M  V30 1809 C 169.718 -0.903191 -3.3711 0
M  V30 1810 C 171.066 -0.93395 -4.14201 0
M  V30 1811 O 172.09 -0.849373 -3.45925 0
M  V30 1812 O 170.949 -1.05772 -5.36167 0
M  V30 1813 H 168.043 -0.125035 -0.817493 0
M  V30 1814 H 170.589 -0.966269 -1.39504 0
M  V30 1815 H 169.361 -1.94692 -3.39427 0
M  V30 1816 H 168.984 -0.328732 -3.96239 0
M  V30 1817 N 169.982 1.44106 -0.638065 0
M  V30 1818 C 171.398 1.56672 -0.304286 0
M  V30 1819 C 171.598 1.6244 1.19228 0
M  V30 1820 O 170.654 1.57121 1.9766 0
M  V30 1821 C 171.967 2.83503 -1.00231 0
M  V30 1822 C 173.515 2.97226 -0.981116 0
M  V30 1823 C 173.99 4.26868 -1.65974 0
M  V30 1824 N 175.481 4.33698 -1.62666 0
M  V30 1825 C 176.216 5.32745 -2.12063 0
M  V30 1826 N 175.712 6.38157 -2.6968 0
M  V30 1827 N 177.505 5.24299 -2.02651 0
M  V30 1828 H 169.656 1.38605 -1.60942 0
M  V30 1829 H 171.919 0.664661 -0.675965 0
M  V30 1830 H 171.625 2.85251 -2.0573 0
M  V30 1831 H 171.499 3.73251 -0.54439 0
M  V30 1832 H 173.886 2.95027 0.0654188 0
M  V30 1833 H 173.967 2.08808 -1.47759 0
M  V30 1834 H 173.611 4.29826 -2.70576 0
M  V30 1835 H 173.541 5.14156 -1.13804 0
M  V30 1836 H 176.032 3.58138 -1.20606 0
M  V30 1837 H 176.345 7.10029 -3.05087 0
M  V30 1838 H 174.69 6.38823 -2.73734 0
M  V30 1839 H 177.881 4.4086 -1.57353 0
M  V30 1840 H 178.054 6.01334 -2.41457 0
M  V30 1841 N 171.46 0.379036 1.52974 0
M  V30 1842 C 172.706 -0.206727 2.01744 0
M  V30 1843 C 173.039 -1.47314 1.26539 0
M  V30 1844 O 172.314 -1.91084 0.362903 0
M  V30 1845 C 172.597 -0.485066 3.56818 0
M  V30 1846 C 172.45 0.795919 4.42702 0
M  V30 1847 C 173.769 -1.28003 4.21074 0
M  V30 1848 H 170.888 -0.0736607 0.73331 0
M  V30 1849 H 173.53 0.506581 1.83122 0
M  V30 1850 H 171.68 -1.09272 3.72816 0
M  V30 1851 H 173.352 1.43307 4.38476 0
M  V30 1852 H 171.595 1.41344 4.10127 0
M  V30 1853 H 172.266 0.555947 5.49193 0
M  V30 1854 H 174.742 -0.765867 4.08991 0
M  V30 1855 H 173.618 -1.44352 5.29579 0
M  V30 1856 H 173.879 -2.29236 3.78026 0
M  V30 1857 N 172.938 -1.57226 0.108567 0
M  V30 1858 C 174.168 -1.9889 -0.559142 0
M  V30 1859 C 174.576 -0.986889 -1.61422 0
M  V30 1860 O 173.919 0.0298705 -1.83676 0
M  V30 1861 C 173.981 -3.36952 -1.25315 0
M  V30 1862 C 173.645 -4.55679 -0.347248 0
M  V30 1863 C 174.642 -5.18281 0.409996 0
M  V30 1864 C 172.327 -5.0162 -0.261367 0
M  V30 1865 C 174.321 -6.25203 1.24096 0
M  V30 1866 C 172.008 -6.08405 0.573238 0
M  V30 1867 C 173.006 -6.70063 1.32304 0
M  V30 1868 O 172.694 -7.74788 2.14381 0
M  V30 1869 H 172.426 -0.658343 -0.153492 0
M  V30 1870 H 174.98 -2.04532 0.188584 0
M  V30 1871 H 173.21 -3.28032 -2.04773 0
M  V30 1872 H 174.899 -3.62974 -1.81673 0
M  V30 1873 H 175.665 -4.8371 0.353457 0
M  V30 1874 H 171.544 -4.53381 -0.834656 0
M  V30 1875 H 175.088 -6.73259 1.82669 0
M  V30 1876 H 170.985 -6.42406 0.631208 0
M  V30 1877 H 171.753 -7.91837 2.07209 0
M  V30 1878 N 174.416 0.165178 -1.56732 0
M  V30 1879 C 175.346 1.20651 -1.99914 0
M  V30 1880 C 176.327 1.45827 -0.875705 0
M  V30 1881 O 177.512 1.57057 -1.14223 0
M  V30 1882 C 174.642 2.54401 -2.36427 0
M  V30 1883 C 173.596 2.43782 -3.51787 0
M  V30 1884 C 172.922 3.82078 -3.7406 0
M  V30 1885 C 174.222 1.93732 -4.85041 0
M  V30 1886 H 175.916 0.847534 -2.87154 0
M  V30 1887 H 173.462 0.40625 -1.38151 0
M  V30 1888 H 175.415 3.27458 -2.65234 0
M  V30 1889 H 174.139 2.92098 -1.46103 0
M  V30 1890 H 172.798 1.73178 -3.23117 0
M  V30 1891 H 172.446 4.17179 -2.81017 0
M  V30 1892 H 172.146 3.7584 -4.51684 0
M  V30 1893 H 173.67 4.56712 -4.05274 0
M  V30 1894 H 175.084 2.56569 -5.12684 0
M  V30 1895 H 173.481 1.98428 -5.66345 0
M  V30 1896 H 174.551 0.891962 -4.76626 0
M  V30 1897 N 175.894 1.51508 0.433938 0
M  V30 1898 C 176.857 1.72473 1.50949 0
M  V30 1899 C 177.857 0.594725 1.49398 0
M  V30 1900 O 179.047 0.862315 1.5136 0
M  V30 1901 C 176.179 1.78431 2.90474 0
M  V30 1902 H 177.372 2.68467 1.33662 0
M  V30 1903 H 174.925 1.41549 0.662836 0
M  V30 1904 H 175.66 0.842645 3.13161 0
M  V30 1905 H 175.445 2.60558 2.93005 0
M  V30 1906 H 176.935 1.96479 3.68491 0
M  V30 1907 N 177.372 -0.689602 1.41712 0
M  V30 1908 C 178.597 -1.48329 1.44959 0
M  V30 1909 C 179.022 -1.8801 0.0581283 0
M  V30 1910 O 178.38 -1.55026 -0.940035 0
M  V30 1911 C 178.428 -2.71835 2.36935 0
M  V30 1912 O 177.532 -3.69549 1.8305 0
M  V30 1913 H 176.873 -0.446199 0.491734 0
M  V30 1914 H 179.403 -0.847127 1.86239 0
M  V30 1915 H 179.413 -3.20076 2.53013 0
M  V30 1916 H 178.088 -2.42291 3.38035 0
M  V30 1917 H 176.665 -3.2851 1.76452 0
M  V30 1918 N 178.85 -1.27639 -0.924453 0
M  V30 1919 C 179.78 -1.13166 -2.04244 0
M  V30 1920 C 180.761 -0.032256 -1.70069 0
M  V30 1921 O 181.946 -0.207328 -1.9309 0
M  V30 1922 C 179.076 -0.781496 -3.38393 0
M  V30 1923 C 178.03 -1.83449 -3.86692 0
M  V30 1924 C 177.356 -1.33822 -5.17683 0
M  V30 1925 C 178.656 -3.23917 -4.09726 0
M  V30 1926 H 180.35 -2.06689 -2.1661 0
M  V30 1927 H 177.896 -0.995136 -1.04082 0
M  V30 1928 H 179.849 -0.667057 -4.16087 0
M  V30 1929 H 178.573 0.189439 -3.2605 0
M  V30 1930 H 177.232 -1.93789 -3.11193 0
M  V30 1931 H 176.88 -0.35665 -5.01734 0
M  V30 1932 H 176.58 -2.04224 -5.50968 0
M  V30 1933 H 178.104 -1.23679 -5.97943 0
M  V30 1934 H 179.518 -3.16559 -4.77978 0
M  V30 1935 H 177.915 -3.92059 -4.54324 0
M  V30 1936 H 178.985 -3.68729 -3.14908 0
M  V30 1937 N 180.328 1.1314 -1.09713 0
M  V30 1938 C 181.238 2.22242 -0.751367 0
M  V30 1939 C 182.254 1.72224 0.247938 0
M  V30 1940 O 183.43 2.01205 0.0885463 0
M  V30 1941 C 180.495 3.46231 -0.180274 0
M  V30 1942 C 179.556 4.11125 -1.2359 0
M  V30 1943 C 178.789 5.29195 -0.691966 0
M  V30 1944 O 179.012 5.68342 0.48414 0
M  V30 1945 O 177.946 5.84214 -1.44838 0
M  V30 1946 H 181.772 2.54197 -1.66186 0
M  V30 1947 H 179.357 1.21331 -0.871735 0
M  V30 1948 H 181.239 4.21185 0.134739 0
M  V30 1949 H 179.914 3.1597 0.703185 0
M  V30 1950 H 178.821 3.37985 -1.60366 0
M  V30 1951 H 180.154 4.45524 -2.09211 0
M  V30 1952 N 181.806 0.884767 1.30421 0
M  V30 1953 C 183.034 0.518044 2.0031 0
M  V30 1954 C 183.449 -0.893408 1.66324 0
M  V30 1955 O 182.806 -1.5875 0.900262 0
M  V30 1956 C 182.857 0.682997 3.54989 0
M  V30 1957 O 182.578 2.03888 3.87764 0
M  V30 1958 C 184.079 0.31924 4.42149 0
M  V30 1959 H 181.299 0.200265 0.640418 0
M  V30 1960 H 183.843 1.19001 1.6631 0
M  V30 1961 H 181.998 0.0584052 3.87356 0
M  V30 1962 H 182.412 2.05735 4.82466 0
M  V30 1963 H 183.886 0.485555 5.4986 0
M  V30 1964 H 184.363 -0.742717 4.32875 0
M  V30 1965 H 184.969 0.920147 4.15227 0
M  V30 1966 N 183.284 -1.43765 0.645699 0
M  V30 1967 C 184.214 -2.33471 -0.0370477 0
M  V30 1968 C 185.195 -1.49042 -0.819779 0
M  V30 1969 O 186.38 -1.77726 -0.782758 0
M  V30 1970 C 183.51 -3.32311 -1.0093 0
M  V30 1971 C 182.464 -4.2667 -0.337201 0
M  V30 1972 C 181.79 -5.1549 -1.42037 0
M  V30 1973 C 183.09 -5.16657 0.765706 0
M  V30 1974 H 184.784 -2.90809 0.712069 0
M  V30 1975 H 182.33 -1.39834 0.343876 0
M  V30 1976 H 184.283 -3.9396 -1.49578 0
M  V30 1977 H 183.007 -2.73213 -1.78948 0
M  V30 1978 H 181.666 -3.66374 0.128771 0
M  V30 1979 H 181.314 -4.52735 -2.1918 0
M  V30 1980 H 181.014 -5.79438 -0.975966 0
M  V30 1981 H 182.538 -5.80012 -1.90838 0
M  V30 1982 H 183.952 -5.72158 0.361702 0
M  V30 1983 H 182.349 -5.89286 1.13413 0
M  V30 1984 H 183.419 -4.56796 1.62683 0
M  V30 1985 N 184.763 -0.387143 -1.52771 0
M  V30 1986 C 186.04 0.253197 -1.93954 0
M  V30 1987 C 186.42 1.64545 -1.32243 0
M  V30 1988 O 185.768 2.23191 -0.489699 0
M  V30 1989 C 185.978 0.281722 -3.47861 0
M  V30 1990 C 187.326 0.511715 -4.21505 0
M  V30 1991 O 188.35 0.362023 -3.54356 0
M  V30 1992 O 187.209 0.804847 -5.40541 0
M  V30 1993 H 184.303 0.156845 -0.811991 0
M  V30 1994 H 186.849 -0.441494 -1.63856 0
M  V30 1995 H 185.621 -0.693571 -3.85104 0
M  V30 1996 H 185.244 1.02142 -3.84256 0
M  V30 1997 N 186.241 1.57166 -0.116904 0
M  V30 1998 C 187.189 2.16457 0.851418 0
M  V30 1999 C 188.183 1.11323 1.27686 0
M  V30 2000 O 189.389 1.2963 1.24884 0
M  V30 2001 H 185.764 0.69271 0.292672 0
M  V30 2002 H 187.735 2.96605 0.32685 0
M  V30 2003 C 186.484 2.77689 2.09246 0
M  V30 2004 H 185.807 3.58285 1.77402 0
M  V30 2005 H 187.247 3.22716 2.7501 0
M  V30 2006 C 185.706 1.74667 2.88085 0
M  V30 2007 O 186.236 1.19877 3.83396 0
M  V30 2008 N 184.442 1.44656 2.52038 0
M  V30 2009 H 183.989 1.89402 1.74599 0
M  V30 2010 H 183.947 0.759675 3.05084 0
M  V30 2011 N 187.719 -0.156864 1.56817 0
M  V30 2012 C 188.967 -0.869404 1.82444 0
M  V30 2013 C 189.288 -1.82147 0.69623 0
M  V30 2014 O 188.558 -1.93847 -0.28287 0
M  V30 2015 H 187.138 -0.324043 0.673056 0
M  V30 2016 H 189.8 -0.153224 1.94297 0
M  V30 2017 H 188.896 -1.43761 2.77019 0
M  V30 2018 N 189.197 -1.51736 -0.425897 0
M  V30 2019 C 190.144 -1.73875 -1.51776 0
M  V30 2020 C 191.114 -0.580702 -1.55618 0
M  V30 2021 O 192.299 -0.81641 -1.72451 0
M  V30 2022 C 189.439 -1.88012 -2.89388 0
M  V30 2023 C 188.552 -3.15606 -2.94986 0
M  V30 2024 C 187.687 -3.20271 -4.23793 0
M  V30 2025 C 186.726 -4.42134 -4.23302 0
M  V30 2026 N 185.863 -4.44284 -5.43651 0
M  V30 2027 H 190.703 -2.67071 -1.32201 0
M  V30 2028 H 188.24 -1.32351 -0.642008 0
M  V30 2029 H 190.198 -1.9419 -3.69251 0
M  V30 2030 H 188.828 -0.98213 -3.07496 0
M  V30 2031 H 187.88 -3.18681 -2.07717 0
M  V30 2032 H 189.192 -4.05486 -2.90486 0
M  V30 2033 H 188.346 -3.25428 -5.12036 0
M  V30 2034 H 187.085 -2.28299 -4.30965 0
M  V30 2035 H 186.09 -4.3714 -3.3345 0
M  V30 2036 H 187.315 -5.35382 -4.17783 0
M  V30 2037 H 185.261 -3.55188 -5.51523 0
M  V30 2038 H 185.178 -5.27988 -5.41078 0
M  V30 2039 H 186.446 -4.53649 -6.33895 0
M  V30 2040 N 190.675 0.682077 -1.42076 0
M  V30 2041 C 192.086 1.26246 -1.37546 0
M  V30 2042 C 192.437 1.96092 -0.0651481 0
M  V30 2043 O 191.562 1.99587 0.836297 0
M  V30 2044 C 192.157 2.29594 -2.49143 0
M  V30 2045 C 190.716 2.83175 -2.47969 0
M  V30 2046 C 189.863 1.57395 -2.28303 0
M  V30 2047 H 192.814 0.475937 -1.51395 0
M  V30 2048 H 192.835 3.11175 -2.18976 0
M  V30 2049 H 192.347 1.78729 -3.44496 0
M  V30 2050 H 190.448 3.3818 -1.56413 0
M  V30 2051 H 190.561 3.32687 -3.44755 0
M  V30 2052 H 188.925 1.83699 -1.76428 0
M  V30 2053 H 189.708 1.08507 -3.25701 0
M  V30 2054 N 192.153 1.28127 0.917671 0
M  V30 2055 C 193.4 1.15052 1.66641 0
M  V30 2056 C 193.728 -0.301677 1.92146 0
M  V30 2057 O 192.983 -1.23622 1.51711 0
M  V30 2058 C 193.282 1.89018 3.03327 0
M  V30 2059 C 192.948 3.38832 2.97496 0
M  V30 2060 C 191.61 3.79693 2.95613 0
M  V30 2061 C 193.962 4.34378 2.88036 0
M  V30 2062 C 191.29 5.14447 2.82066 0
M  V30 2063 C 193.642 5.69201 2.7603 0
M  V30 2064 C 192.306 6.09343 2.72502 0
M  V30 2065 H 191.576 0.421006 0.609783 0
M  V30 2066 H 194.223 1.58855 1.06945 0
M  V30 2067 H 192.528 1.37752 3.66785 0
M  V30 2068 H 194.225 1.76321 3.60156 0
M  V30 2069 H 190.815 3.06342 2.99754 0
M  V30 2070 H 194.999 4.03775 2.88581 0
M  V30 2071 H 190.255 5.44681 2.77728 0
M  V30 2072 H 194.429 6.42901 2.67678 0
M  V30 2073 H 192.056 7.13712 2.61762 0
M  V30 2074 N 193.631 -1.12557 1.10312 0
M  V30 2075 C 194.563 -2.17971 0.708625 0
M  V30 2076 C 195.576 -1.60806 -0.254027 0
M  V30 2077 O 196.765 -1.78458 -0.0386891 0
M  V30 2078 C 193.865 -3.38891 0.0248198 0
M  V30 2079 C 193.038 -4.25548 1.01132 0
M  V30 2080 C 192.097 -5.24972 0.35924 0
M  V30 2081 O 191.123 -5.60174 1.00965 0
M  V30 2082 N 192.325 -5.73747 -0.882847 0
M  V30 2083 H 195.09 -2.52427 1.61557 0
M  V30 2084 H 192.651 -1.27967 0.991771 0
M  V30 2085 H 194.643 -4.02485 -0.422852 0
M  V30 2086 H 193.213 -3.02596 -0.784514 0
M  V30 2087 H 192.433 -3.58589 1.6373 0
M  V30 2088 H 193.721 -4.80294 1.67914 0
M  V30 2089 H 193.119 -5.4731 -1.43065 0
M  V30 2090 H 191.676 -6.39234 -1.27369 0
M  V30 2091 N 195.109 -0.891671 -1.2995 0
M  V30 2092 C 196.019 -0.367691 -2.31701 0
M  V30 2093 C 197.035 0.533486 -1.6562 0
M  V30 2094 O 198.211 0.424997 -1.96865 0
M  V30 2095 C 195.276 0.403406 -3.44345 0
M  V30 2096 C 194.337 -0.528328 -4.26037 0
M  V30 2097 C 193.57 0.206063 -5.33302 0
M  V30 2098 O 193.793 1.43119 -5.52153 0
M  V30 2099 O 192.727 -0.447281 -6.00236 0
M  V30 2100 H 196.553 -1.21163 -2.78484 0
M  V30 2101 H 194.138 -0.655725 -1.34241 0
M  V30 2102 H 196.02 0.839753 -4.12948 0
M  V30 2103 H 194.695 1.22354 -2.99685 0
M  V30 2104 H 193.602 -1.01362 -3.60106 0
M  V30 2105 H 194.935 -1.31465 -4.74318 0
M  V30 2106 N 196.587 1.43421 -0.653314 0
M  V30 2107 C 197.812 2.06678 -0.172846 0
M  V30 2108 C 198.237 1.48648 1.15262 0
M  V30 2109 O 197.595 0.596457 1.71208 0
M  V30 2110 C 197.643 3.60474 -0.0953184 0
M  V30 2111 O 196.747 4.01487 0.942442 0
M  V30 2112 H 196.088 0.657181 -0.0949155 0
M  V30 2113 H 198.618 1.83925 -0.896265 0
M  V30 2114 H 198.628 4.07905 0.0879728 0
M  V30 2115 H 197.303 4.02088 -1.06291 0
M  V30 2116 H 195.88 3.65646 0.731932 0
M  V30 2117 N 198.065 0.39524 1.52563 0
M  V30 2118 C 199.295 -0.184675 2.05773 0
M  V30 2119 C 199.703 -1.40571 1.26635 0
M  V30 2120 O 199.046 -1.81105 0.30769 0
M  V30 2121 C 199.108 -0.613551 3.54226 0
M  V30 2122 C 198.772 0.49484 4.54313 0
M  V30 2123 C 199.769 1.3541 5.01956 0
M  V30 2124 C 197.454 0.663565 4.97898 0
M  V30 2125 C 199.448 2.36716 5.91814 0
M  V30 2126 C 197.135 1.67996 5.87555 0
M  V30 2127 C 198.133 2.53017 6.34406 0
M  V30 2128 O 197.821 3.52917 7.22291 0
M  V30 2129 H 197.553 -0.030077 0.675331 0
M  V30 2130 H 200.107 0.560708 1.97599 0
M  V30 2131 H 198.337 -1.411 3.60038 0
M  V30 2132 H 200.026 -1.11981 3.90148 0
M  V30 2133 H 200.792 1.23509 4.6901 0
M  V30 2134 H 196.671 0.0114913 4.60999 0
M  V30 2135 H 200.215 3.03113 6.28306 0
M  V30 2136 H 196.112 1.79933 6.19915 0
M  V30 2137 H 196.88 3.48996 7.40367 0
M  V30 2138 N 199.544 -1.57102 0.125237 0
M  V30 2139 C 200.507 -2.14471 -0.80838 0
M  V30 2140 C 201.507 -1.0811 -1.19033 0
M  V30 2141 O 202.697 -1.33856 -1.11482 0
M  V30 2142 C 199.829 -2.69005 -2.09402 0
M  V30 2143 H 201.022 -2.98297 -0.309696 0
M  V30 2144 H 198.575 -1.55807 -0.124051 0
M  V30 2145 H 199.31 -1.88785 -2.63687 0
M  V30 2146 H 199.095 -3.46799 -1.82957 0
M  V30 2147 H 200.585 -3.13278 -2.76128 0
M  V30 2148 N 201.022 0.148545 -1.56898 0
M  V30 2149 C 201.952 1.18524 -2.01182 0
M  V30 2150 C 202.933 1.4489 -0.891123 0
M  V30 2151 O 204.118 1.55836 -1.15882 0
M  V30 2152 C 201.248 2.51879 -2.39112 0
M  V30 2153 C 200.202 2.40038 -3.54353 0
M  V30 2154 C 199.528 3.78089 -3.78091 0
M  V30 2155 C 200.828 1.88577 -4.87069 0
M  V30 2156 H 202.522 0.817029 -2.88036 0
M  V30 2157 H 200.068 0.391575 -1.38574 0
M  V30 2158 H 202.021 3.24627 -2.68692 0
M  V30 2159 H 200.745 2.90532 -1.49193 0
M  V30 2160 H 199.404 1.69742 -3.24936 0
M  V30 2161 H 199.052 4.14175 -2.85426 0
M  V30 2162 H 198.752 3.71028 -4.55645 0
M  V30 2163 H 200.276 4.52387 -4.10095 0
M  V30 2164 H 201.69 2.51117 -5.15377 0
M  V30 2165 H 200.087 1.9241 -5.68417 0
M  V30 2166 H 201.157 0.84136 -4.77545 0
M  V30 2167 N 202.5 1.5196 0.417844 0
M  V30 2168 C 203.777 1.56146 1.17803 0
M  V30 2169 C 204.157 0.337275 2.08388 0
M  V30 2170 O 203.505 -0.676447 2.18258 0
M  V30 2171 C 203.715 2.88566 1.96293 0
M  V30 2172 C 205.063 3.41244 2.52662 0
M  V30 2173 O 206.087 2.90247 2.06483 0
M  V30 2174 O 204.946 4.30273 3.36938 0
M  V30 2175 H 202.04 0.628598 0.537395 0
M  V30 2176 H 204.586 1.64283 0.425331 0
M  V30 2177 H 203.358 3.69116 1.2988 0
M  V30 2178 H 202.981 2.83681 2.78587 0
M  V30 2179 N 203.978 -0.674533 1.42435 0
M  V30 2180 C 204.908 -1.80009 1.48724 0
M  V30 2181 C 205.889 -1.6659 0.343793 0
M  V30 2182 O 207.074 -1.86007 0.558137 0
M  V30 2183 C 204.204 -3.18306 1.38919 0
M  V30 2184 C 203.158 -3.46461 2.51294 0
M  V30 2185 C 202.484 -4.84335 2.26547 0
M  V30 2186 C 203.784 -3.43328 3.93603 0
M  V30 2187 H 205.478 -1.75004 2.42928 0
M  V30 2188 H 203.024 -0.840533 1.16923 0
M  V30 2189 H 204.977 -3.9678 1.41927 0
M  V30 2190 H 203.701 -3.2399 0.412094 0
M  V30 2191 H 202.36 -2.70348 2.47604 0
M  V30 2192 H 202.008 -4.86669 1.2713 0
M  V30 2193 H 201.708 -5.04136 3.01861 0
M  V30 2194 H 203.232 -5.65094 2.31304 0
M  V30 2195 H 204.646 -4.11772 3.98894 0
M  V30 2196 H 203.043 -3.74664 4.68771 0
M  V30 2197 H 204.113 -2.41897 4.20255 0
M  V30 2198 N 205.456 -1.28612 -0.910864 0
M  V30 2199 C 206.733 -1.06632 -1.63979 0
M  V30 2200 C 207.113 0.393351 -2.07403 0
M  V30 2201 O 206.461 1.37999 -1.82122 0
M  V30 2202 C 206.671 -2.0436 -2.8291 0
M  V30 2203 C 208.019 -2.34666 -3.5386 0
M  V30 2204 O 209.043 -2.02467 -2.93062 0
M  V30 2205 O 207.902 -2.89631 -4.63439 0
M  V30 2206 H 204.996 -0.407737 -0.7195 0
M  V30 2207 H 207.542 -1.39942 -0.959914 0
M  V30 2208 H 206.314 -3.02727 -2.47936 0
M  V30 2209 H 205.937 -1.71714 -3.58609 0
M  V30 2210 N 206.934 1.1197 -1.10907 0
M  V30 2211 C 207.844 2.21433 -0.774896 0
M  V30 2212 C 208.86 1.72478 0.229657 0
M  V30 2213 O 210.036 2.01288 0.0672008 0
M  V30 2214 C 207.101 3.4602 -0.216986 0
M  V30 2215 C 206.162 4.09791 -1.27944 0
M  V30 2216 C 205.395 5.28431 -0.748055 0
M  V30 2217 O 205.618 5.68823 0.423833 0
M  V30 2218 O 204.552 5.82644 -1.51027 0
M  V30 2219 H 208.378 2.5242 -1.68873 0
M  V30 2220 H 205.963 1.20399 -0.884555 0
M  V30 2221 H 207.845 4.21304 0.090059 0
M  V30 2222 H 206.52 3.16698 0.669633 0
M  V30 2223 H 205.427 3.36265 -1.63941 0
M  V30 2224 H 206.76 4.4328 -2.13925 0
M  V30 2225 N 208.412 0.89855 1.29475 0
M  V30 2226 C 209.658 0.524658 1.95896 0
M  V30 2227 C 209.991 -0.926468 1.70676 0
M  V30 2228 O 209.266 -1.65665 1.01908 0
M  V30 2229 C 209.549 0.81633 3.50725 0
M  V30 2230 C 209.402 2.31907 3.85408 0
M  V30 2231 C 210.721 0.302038 4.39062 0
M  V30 2232 H 207.84 0.19209 0.711527 0
M  V30 2233 H 210.482 1.12502 1.53112 0
M  V30 2234 H 208.632 0.305369 3.87298 0
M  V30 2235 H 210.304 2.89949 3.58786 0
M  V30 2236 H 208.547 2.78027 3.32992 0
M  V30 2237 H 209.218 2.47373 4.93468 0
M  V30 2238 H 211.694 0.739551 4.09475 0
M  V30 2239 H 210.57 0.535331 5.46283 0
M  V30 2240 H 210.831 -0.797216 4.34853 0
M  V30 2241 N 209.89 -1.43072 0.660911 0
M  V30 2242 C 211.139 -2.00942 0.174735 0
M  V30 2243 C 211.452 -1.52797 -1.22117 0
M  V30 2244 O 212.658 -2.02991 -1.80297 0
M  V30 2245 C 211.114 -3.58948 0.261559 0
M  V30 2246 C 210.722 -4.16085 1.66064 0
M  V30 2247 C 212.466 -4.24173 -0.166617 0
M  V30 2248 C 210.373 -5.6641 1.70098 0
M  V30 2249 H 209.303 -0.751483 0.0615631 0
M  V30 2250 H 211.954 -1.63955 0.824069 0
M  V30 2251 H 210.336 -3.93372 -0.455421 0
M  V30 2252 H 211.51 -3.93147 2.40359 0
M  V30 2253 H 209.825 -3.6326 2.03546 0
M  V30 2254 H 212.422 -5.34471 -0.156433 0
M  V30 2255 H 212.765 -3.98647 -1.19943 0
M  V30 2256 H 213.298 -3.94659 0.498875 0
M  V30 2257 H 210.037 -5.96715 2.71315 0
M  V30 2258 H 209.557 -5.91382 1.00139 0
M  V30 2259 H 211.236 -6.30585 1.44816 0
M  V30 2260 N 211.368 -0.403325 -1.52352 0
M  V30 2261 C 212.315 0.425011 -2.26853 0
M  V30 2262 C 213.285 1.04598 -1.29029 0
M  V30 2263 O 214.47 1.07135 -1.57882 0
M  V30 2264 C 211.61 1.53888 -3.08889 0
M  V30 2265 C 210.723 0.939396 -4.21663 0
M  V30 2266 C 209.858 2.02547 -4.91068 0
M  V30 2267 C 208.897 1.40263 -5.95813 0
M  V30 2268 N 208.034 2.4286 -6.58759 0
M  V30 2269 H 212.874 -0.21674 -2.97211 0
M  V30 2270 H 210.411 -0.118722 -1.4662 0
M  V30 2271 H 212.369 2.19558 -3.54753 0
M  V30 2272 H 210.999 2.15074 -2.40714 0
M  V30 2273 H 210.051 0.171898 -3.80011 0
M  V30 2274 H 211.363 0.44436 -4.96817 0
M  V30 2275 H 210.517 2.75958 -5.40308 0
M  V30 2276 H 209.256 2.55415 -4.15469 0
M  V30 2277 H 208.261 0.653833 -5.45898 0
M  V30 2278 H 209.486 0.881719 -6.73352 0
M  V30 2279 H 207.432 2.94871 -5.85992 0
M  V30 2280 H 207.349 1.98152 -7.2957 0
M  V30 2281 H 208.617 3.15858 -7.12639 0
M  V30 2282 N 212.846 1.57033 -0.133567 0
M  V30 2283 C 214.092 1.95976 0.521649 0
M  V30 2284 C 214.425 1.01779 1.65393 0
M  V30 2285 O 213.7 0.0576581 1.94415 0
M  V30 2286 C 213.983 3.44738 1.04057 0
M  V30 2287 C 213.836 4.49711 -0.0892897 0
M  V30 2288 C 215.155 3.95682 1.92675 0
M  V30 2289 H 212.274 0.712579 0.188149 0
M  V30 2290 H 214.916 1.88813 -0.212076 0
M  V30 2291 H 213.066 3.50973 1.66583 0
M  V30 2292 H 214.738 4.55565 -0.725152 0
M  V30 2293 H 212.981 4.27261 -0.750378 0
M  V30 2294 H 213.652 5.51099 0.315284 0
M  V30 2295 H 216.128 3.91841 1.39998 0
M  V30 2296 H 215.004 5.00262 2.25897 0
M  V30 2297 H 215.265 3.37239 2.85872 0
M  V30 2298 N 214.325 -0.140222 1.56975 0
M  V30 2299 C 215.555 -0.865181 1.87612 0
M  V30 2300 C 215.963 -1.74942 0.72055 0
M  V30 2301 O 215.306 -1.80917 -0.318561 0
M  V30 2302 C 215.368 -1.76782 3.13031 0
M  V30 2303 C 215.032 -1.06005 4.44536 0
M  V30 2304 C 216.029 -0.410768 5.18275 0
M  V30 2305 C 213.714 -1.04754 4.91255 0
M  V30 2306 C 215.708 0.241572 6.36942 0
M  V30 2307 C 213.395 -0.391394 6.09845 0
M  V30 2308 C 214.393 0.252029 6.82535 0
M  V30 2309 O 214.081 0.897757 7.98871 0
M  V30 2310 H 213.813 -0.255188 0.625983 0
M  V30 2311 H 216.367 -0.135653 2.04952 0
M  V30 2312 H 214.597 -2.53846 2.91718 0
M  V30 2313 H 216.286 -2.36533 3.29859 0
M  V30 2314 H 217.052 -0.412195 4.83245 0
M  V30 2315 H 212.931 -1.53777 4.34596 0
M  V30 2316 H 216.475 0.744375 6.93617 0
M  V30 2317 H 212.372 -0.387656 6.44335 0
M  V30 2318 H 213.14 0.800102 8.1458 0
M  V30 2319 N 215.803 -1.52179 -0.40978 0
M  V30 2320 C 217.219 -1.40968 -0.74835 0
M  V30 2321 C 217.419 -0.513657 -1.94843 0
M  V30 2322 O 216.475 0.0208026 -2.52491 0
M  V30 2323 C 217.788 -2.83483 -1.0029 0
M  V30 2324 C 219.336 -2.92821 -1.10565 0
M  V30 2325 C 219.811 -4.36303 -1.39296 0
M  V30 2326 N 221.302 -4.39535 -1.46162 0
M  V30 2327 C 222.037 -5.47614 -1.70018 0
M  V30 2328 N 221.533 -6.65812 -1.91483 0
M  V30 2329 N 223.326 -5.35129 -1.72027 0
M  V30 2330 H 215.477 -2.0897 0.380186 0
M  V30 2331 H 217.74 -0.94185 0.107805 0
M  V30 2332 H 217.446 -3.51168 -0.193461 0
M  V30 2333 H 217.32 -3.24487 -1.92323 0
M  V30 2334 H 219.707 -2.25318 -1.90568 0
M  V30 2335 H 219.788 -2.55276 -0.16369 0
M  V30 2336 H 219.432 -5.04366 -0.598109 0
M  V30 2337 H 219.362 -4.71385 -2.34743 0
M  V30 2338 H 221.853 -3.54332 -1.31367 0
M  V30 2339 H 222.166 -7.43964 -2.09134 0
M  V30 2340 H 220.511 -6.68879 -1.88749 0
M  V30 2341 H 223.702 -4.41764 -1.54796 0
M  V30 2342 H 223.875 -6.19433 -1.9028 0
M  V30 2343 N 217.281 0.66697 -1.42791 0
M  V30 2344 C 218.511 1.45294 -1.46878 0
M  V30 2345 C 218.919 1.89027 -0.0809861 0
M  V30 2346 O 218.262 1.59219 0.916246 0
M  V30 2347 C 218.324 2.72908 -2.34012 0
M  V30 2348 C 217.988 2.51203 -3.81767 0
M  V30 2349 C 218.985 2.15302 -4.73224 0
M  V30 2350 C 216.67 2.65954 -4.26115 0
M  V30 2351 C 218.664 1.94431 -6.07022 0
M  V30 2352 C 216.351 2.44699 -5.59969 0
M  V30 2353 C 217.349 2.08992 -6.5024 0
M  V30 2354 O 217.037 1.87948 -7.81621 0
M  V30 2355 H 216.769 0.453306 -0.501487 0
M  V30 2356 H 219.323 0.826232 -1.88049 0
M  V30 2357 H 217.553 3.38089 -1.87703 0
M  V30 2358 H 219.242 3.34816 -2.29462 0
M  V30 2359 H 220.008 2.03495 -4.40244 0
M  V30 2360 H 215.887 2.92724 -3.56137 0
M  V30 2361 H 219.431 1.66484 -6.77443 0
M  V30 2362 H 215.328 2.56105 -5.9252 0
M  V30 2363 H 216.096 2.02483 -7.93059 0
M  V30 2364 N 218.759 1.29093 0.90403 0
M  V30 2365 C 220.006 1.16813 1.65411 0
M  V30 2366 C 220.334 -0.28128 1.92455 0
M  V30 2367 O 219.589 -1.22006 1.53013 0
M  V30 2368 C 219.888 1.92224 3.01305 0
M  V30 2369 C 219.554 3.41968 2.93885 0
M  V30 2370 C 218.216 3.82807 2.91569 0
M  V30 2371 C 220.568 4.37409 2.83413 0
M  V30 2372 C 217.896 5.1741 2.76594 0
M  V30 2373 C 220.248 5.72097 2.69977 0
M  V30 2374 C 218.912 6.12199 2.66024 0
M  V30 2375 H 218.182 0.42745 0.605283 0
M  V30 2376 H 220.829 1.59981 1.05254 0
M  V30 2377 H 219.134 1.41635 3.65304 0
M  V30 2378 H 220.831 1.80131 3.58265 0
M  V30 2379 H 217.421 3.09504 2.96488 0
M  V30 2380 H 221.605 4.06813 2.84283 0
M  V30 2381 H 216.861 5.47596 2.71935 0
M  V30 2382 H 221.035 6.45704 2.60844 0
M  V30 2383 H 218.662 7.16448 2.54178 0
M  V30 2384 N 220.237 -1.11381 1.11499 0
M  V30 2385 C 221.2 -2.15622 0.777153 0
M  V30 2386 C 222.2 -1.59504 -0.203779 0
M  V30 2387 O 223.39 -1.74188 0.020782 0
M  V30 2388 C 220.522 -3.40556 0.153116 0
M  V30 2389 H 221.715 -2.47021 1.70061 0
M  V30 2390 H 219.268 -1.26577 0.916952 0
M  V30 2391 H 220.003 -3.14767 -0.780536 0
M  V30 2392 H 219.788 -3.8257 0.859238 0
M  V30 2393 H 221.278 -4.17546 -0.0671044 0
M  V30 2394 N 221.715 -0.905404 -1.28997 0
M  V30 2395 C 222.963 -0.533192 -1.9494 0
M  V30 2396 C 223.284 0.924618 -1.71685 0
M  V30 2397 O 222.554 1.65268 -1.05183 0
M  V30 2398 H 221.134 -0.194194 -0.721317 0
M  V30 2399 H 223.796 -1.15294 -1.57141 0
M  V30 2400 H 222.892 -0.72059 -3.03667 0
M  V30 2401 N 223.193 1.4272 -0.668489 0
M  V30 2402 C 224.439 2.02443 -0.197076 0
M  V30 2403 C 224.794 1.51882 1.18109 0
M  V30 2404 O 224.087 0.708618 1.78015 0
M  V30 2405 C 224.281 3.57021 -0.164499 0
M  V30 2406 C 224.11 4.22583 -1.53797 0
M  V30 2407 C 222.88 4.58019 -2.13416 0
M  V30 2408 C 225.078 4.50588 -2.47941 0
M  V30 2409 N 223.06 5.08729 -3.4361 0
M  V30 2410 C 224.431 5.02782 -3.62782 0
M  V30 2411 C 226.486 4.32571 -2.46551 0
M  V30 2412 C 225.189 5.38852 -4.76478 0
M  V30 2413 C 227.215 4.69713 -3.59338 0
M  V30 2414 C 226.577 5.22053 -4.72906 0
M  V30 2415 H 222.676 0.773214 -0.116894 0
M  V30 2416 H 225.26 1.73673 -0.880108 0
M  V30 2417 H 223.431 3.85323 0.487925 0
M  V30 2418 H 225.163 4.03439 0.319207 0
M  V30 2419 H 221.918 4.43566 -1.65969 0
M  V30 2420 H 222.342 5.38521 -4.10273 0
M  V30 2421 H 226.984 3.91365 -1.59978 0
M  V30 2422 H 224.702 5.78993 -5.63731 0
M  V30 2423 H 228.288 4.57454 -3.59482 0
M  V30 2424 H 227.168 5.50258 -5.58736 0
M  V30 2425 N 224.671 0.411399 1.52136 0
M  V30 2426 C 225.634 -0.401089 2.25663 0
M  V30 2427 C 226.634 -0.971732 1.28117 0
M  V30 2428 O 227.824 -0.850254 1.52041 0
M  V30 2429 C 224.956 -1.56483 3.02863 0
M  V30 2430 H 226.149 0.24295 2.98914 0
M  V30 2431 H 223.702 0.163968 1.55438 0
M  V30 2432 H 224.437 -2.24567 2.33967 0
M  V30 2433 H 224.222 -1.16211 3.74483 0
M  V30 2434 H 225.712 -2.13951 3.58629 0
M  V30 2435 N 226.149 -1.5696 0.141893 0
M  V30 2436 C 227.426 -1.87553 -0.555281 0
M  V30 2437 C 227.806 -1.04699 -1.83306 0
M  V30 2438 O 227.154 -0.132346 -2.28116 0
M  V30 2439 C 227.364 -3.39093 -0.825664 0
M  V30 2440 C 228.712 -4.08199 -1.16869 0
M  V30 2441 O 229.736 -3.44242 -0.915185 0
M  V30 2442 O 228.595 -5.21139 -1.6455 0
M  V30 2443 H 225.689 -0.777188 -0.282679 0
M  V30 2444 H 228.235 -1.68763 0.17812 0
M  V30 2445 H 227.007 -3.91221 0.0788633 0
M  V30 2446 H 226.63 -3.63393 -1.61343 0
M  V30 2447 N 227.627 0.131896 -1.57047 0
M  V30 2448 C 228.574 1.16236 -1.99393 0
M  V30 2449 C 229.544 1.41863 -0.863943 0
M  V30 2450 O 230.729 1.53946 -1.12718 0
M  V30 2451 C 227.869 2.48708 -2.39245 0
M  V30 2452 C 226.982 2.30127 -3.65603 0
M  V30 2453 C 226.117 3.55738 -3.94492 0
M  V30 2454 C 225.156 3.32259 -5.14073 0
M  V30 2455 N 224.293 4.50039 -5.38896 0
M  V30 2456 H 229.133 0.794251 -2.87221 0
M  V30 2457 H 226.67 0.380707 -1.42088 0
M  V30 2458 H 228.628 3.25969 -2.60384 0
M  V30 2459 H 227.258 2.83437 -1.54478 0
M  V30 2460 H 226.31 1.43845 -3.52154 0
M  V30 2461 H 227.622 2.08746 -4.5302 0
M  V30 2462 H 226.776 4.41423 -4.1621 0
M  V30 2463 H 225.515 3.80138 -3.05526 0
M  V30 2464 H 224.52 2.44963 -4.92212 0
M  V30 2465 H 225.745 3.09242 -6.04604 0
M  V30 2466 H 223.691 4.74584 -4.52886 0
M  V30 2467 H 223.608 4.31716 -6.2061 0
M  V30 2468 H 224.876 5.36895 -5.65123 0
M  V30 2469 N 229.106 1.52395 0.401703 0
M  V30 2470 C 230.352 1.68019 1.14635 0
M  V30 2471 C 230.707 0.408722 1.88009 0
M  V30 2472 O 230 -0.597133 1.82057 0
M  V30 2473 C 230.194 2.84578 2.16217 0
M  V30 2474 C 230.023 4.22938 1.5282 0
M  V30 2475 C 228.793 4.88352 1.29772 0
M  V30 2476 C 230.991 5.04778 0.985094 0
M  V30 2477 N 228.973 6.10726 0.623455 0
M  V30 2478 C 230.344 6.1845 0.438172 0
M  V30 2479 C 232.399 4.90057 0.880275 0
M  V30 2480 C 231.102 7.19013 -0.203306 0
M  V30 2481 C 233.128 5.9086 0.252639 0
M  V30 2482 C 232.49 7.03829 -0.283573 0
M  V30 2483 H 228.589 0.668413 0.405892 0
M  V30 2484 H 231.173 1.89717 0.437674 0
M  V30 2485 H 229.344 2.64483 2.84435 0
M  V30 2486 H 231.076 2.89202 2.83098 0
M  V30 2487 H 227.831 4.46846 1.56926 0
M  V30 2488 H 228.255 6.76323 0.302733 0
M  V30 2489 H 232.897 4.02938 1.28065 0
M  V30 2490 H 230.615 8.05751 -0.615726 0
M  V30 2491 H 234.201 5.81543 0.172954 0
M  V30 2492 H 233.081 7.80493 -0.761575 0
M  V30 2493 N 230.584 -0.659388 1.43143 0
M  V30 2494 C 231.534 -1.7655 1.44271 0
M  V30 2495 C 232.518 -1.57847 0.311961 0
M  V30 2496 O 233.71 -1.68064 0.555306 0
M  V30 2497 C 230.839 -3.15104 1.36251 0
M  V30 2498 C 229.925 -3.39377 2.54331 0
M  V30 2499 N 230.316 -3.34153 3.79704 0
M  V30 2500 C 228.614 -3.70072 2.48922 0
M  V30 2501 C 229.315 -3.58337 4.58225 0
M  V30 2502 N 228.291 -3.79851 3.88863 0
M  V30 2503 H 232.093 -1.70928 2.39083 0
M  V30 2504 H 229.607 -0.860823 1.37708 0
M  V30 2505 H 231.604 -3.94389 1.35141 0
M  V30 2506 H 230.264 -3.21913 0.424531 0
M  V30 2507 H 231.275 -3.13704 4.1208 0
M  V30 2508 H 227.952 -3.84034 1.63781 0
M  V30 2509 H 229.342 -3.60129 5.67236 0
M  V30 2510 N 232.062 -1.29571 -0.897171 0
M  V30 2511 C 233.31 -1.17456 -1.64464 0
M  V30 2512 C 233.631 0.273698 -1.9307 0
M  V30 2513 O 232.901 1.18684 -1.55855 0
M  V30 2514 H 231.481 -0.431706 -0.609622 0
M  V30 2515 H 234.143 -1.62531 -1.07562 0
M  V30 2516 H 233.239 -1.72648 -2.59998 0
M  V30 2517 N 233.54 1.10788 -1.12088 0
M  V30 2518 C 234.487 2.17025 -0.785407 0
M  V30 2519 C 235.457 1.64265 0.246191 0
M  V30 2520 O 236.642 1.90412 0.121584 0
M  V30 2521 C 233.782 3.44249 -0.242177 0
M  V30 2522 C 232.895 4.1098 -1.33115 0
M  V30 2523 C 232.03 5.25911 -0.747741 0
M  V30 2524 C 231.069 5.84538 -1.81609 0
M  V30 2525 N 230.206 6.90853 -1.25167 0
M  V30 2526 H 235.046 2.45066 -1.69548 0
M  V30 2527 H 232.583 1.20297 -0.846582 0
M  V30 2528 H 234.541 4.17101 0.0908026 0
M  V30 2529 H 233.171 3.16571 0.631072 0
M  V30 2530 H 232.223 3.36133 -1.78097 0
M  V30 2531 H 233.535 4.50601 -2.13917 0
M  V30 2532 H 232.689 6.056 -0.365216 0
M  V30 2533 H 231.428 4.87614 0.0915188 0
M  V30 2534 H 230.433 5.03522 -2.20785 0
M  V30 2535 H 231.658 6.249 -2.6585 0
M  V30 2536 H 229.604 6.54562 -0.434174 0
M  V30 2537 H 229.521 7.29166 -1.99633 0
M  V30 2538 H 230.789 7.7433 -0.896259 0
M  V30 2539 N 235.018 0.912232 1.28515 0
M  V30 2540 C 236.246 0.560416 1.99166 0
M  V30 2541 C 236.661 -0.857927 1.68182 0
M  V30 2542 O 236.018 -1.56805 0.933733 0
M  V30 2543 C 236.069 0.758142 3.53461 0
M  V30 2544 O 235.79 2.12067 3.83352 0
M  V30 2545 C 237.291 0.412954 4.41372 0
M  V30 2546 H 234.511 0.213805 0.636026 0
M  V30 2547 H 237.055 1.22502 1.63749 0
M  V30 2548 H 235.21 0.140556 3.87145 0
M  V30 2549 H 235.624 2.15923 4.77993 0
M  V30 2550 H 237.098 0.60208 5.48707 0
M  V30 2551 H 237.575 -0.65073 4.34353 0
M  V30 2552 H 238.181 1.00802 4.13182 0
M  V30 2553 N 236.496 -1.42363 0.676048 0
M  V30 2554 C 237.745 -2.00745 0.196037 0
M  V30 2555 C 238.058 -1.54083 -1.20489 0
M  V30 2556 O 239.264 -2.04891 -1.78134 0
M  V30 2557 C 237.72 -3.58651 0.299616 0
M  V30 2558 C 237.328 -4.143 1.70468 0
M  V30 2559 C 239.072 -4.24326 -0.121619 0
M  V30 2560 C 236.979 -5.64574 1.76096 0
M  V30 2561 H 235.909 -0.750787 0.0695301 0
M  V30 2562 H 238.56 -1.63072 0.841412 0
M  V30 2563 H 236.942 -3.93833 -0.413673 0
M  V30 2564 H 238.116 -3.90575 2.44515 0
M  V30 2565 H 236.431 -3.61081 2.07387 0
M  V30 2566 H 239.028 -5.34607 -0.0997362 0
M  V30 2567 H 239.371 -3.99897 -1.15708 0
M  V30 2568 H 239.904 -3.94108 0.540706 0
M  V30 2569 H 236.643 -5.93804 2.77628 0
M  V30 2570 H 236.163 -5.90286 1.06406 0
M  V30 2571 H 237.842 -6.29013 1.51496 0
M  V30 2572 N 237.974 -0.419461 -1.51915 0
M  V30 2573 C 239.385 0.0477853 -1.86639 0
M  V30 2574 C 239.736 1.43531 -1.33766 0
M  V30 2575 O 238.861 2.05401 -0.68113 0
M  V30 2576 C 239.456 0.0934885 -3.38671 0
M  V30 2577 C 238.015 0.505097 -3.72996 0
M  V30 2578 C 237.162 -0.313792 -2.75519 0
M  V30 2579 H 240.113 -0.636088 -1.45395 0
M  V30 2580 H 240.134 0.906667 -3.6954 0
M  V30 2581 H 239.646 -0.916501 -3.77123 0
M  V30 2582 H 237.747 1.52135 -3.40126 0
M  V30 2583 H 237.86 0.242309 -4.78487 0
M  V30 2584 H 236.224 0.225363 -2.53701 0
M  V30 2585 H 237.007 -1.32232 -3.16812 0
M  V30 2586 N 239.452 1.56882 -0.150215 0
M  V30 2587 C 240.385 2.12712 0.826358 0
M  V30 2588 C 241.363 1.05154 1.24022 0
M  V30 2589 O 242.547 1.33004 1.33575 0
M  V30 2590 C 239.674 2.64945 2.11002 0
M  V30 2591 C 238.72 3.8468 1.84183 0
M  V30 2592 S 239.553 5.25502 1.02995 0
M  V30 2593 C 240.709 5.81125 2.32474 0
M  V30 2594 H 240.942 2.95214 0.351598 0
M  V30 2595 H 238.475 1.54267 0.0641211 0
M  V30 2596 H 240.433 2.95689 2.84742 0
M  V30 2597 H 239.094 1.82568 2.55593 0
M  V30 2598 H 238.287 4.19482 2.79375 0
M  V30 2599 H 237.889 3.54714 1.1855 0
M  V30 2600 H 240.181 5.92753 3.281 0
M  V30 2601 H 241.124 6.78625 2.02171 0
M  V30 2602 H 241.532 5.09392 2.43269 0
M  V30 2603 N 240.93 -0.123565 1.57115 0
M  V30 2604 C 242.207 -0.862196 1.75572 0
M  V30 2605 C 242.587 -1.98279 0.724475 0
M  V30 2606 O 241.935 -2.27102 -0.252407 0
M  V30 2607 C 242.145 -1.38309 3.20424 0
M  V30 2608 C 243.493 -1.83724 3.82793 0
M  V30 2609 O 244.517 -1.47999 3.23998 0
M  V30 2610 O 243.376 -2.49685 4.86127 0
M  V30 2611 H 240.47 -0.409113 0.718718 0
M  V30 2612 H 243.016 -0.107661 1.69358 0
M  V30 2613 H 241.788 -0.578889 3.86994 0
M  V30 2614 H 241.411 -2.20046 3.31158 0
M  V30 2615 N 242.408 -1.52605 -0.393616 0
M  V30 2616 C 243.656 -1.67093 -1.13685 0
M  V30 2617 C 243.977 -0.411011 -1.90619 0
M  V30 2618 O 243.247 0.574491 -1.87287 0
M  V30 2619 H 241.827 -0.615923 -0.422668 0
M  V30 2620 H 244.489 -1.89704 -0.447039 0
M  V30 2621 H 243.585 -2.51922 -1.84232 0
M  V30 2622 N 243.887 0.651787 -1.4349 0
M  V30 2623 C 244.819 1.77725 -1.44729 0
M  V30 2624 C 245.832 1.59141 -0.343231 0
M  V30 2625 O 247.021 1.67835 -0.607751 0
M  V30 2626 C 244.121 3.15172 -1.24579 0
M  V30 2627 C 243.294 3.60402 -2.47849 0
M  V30 2628 C 242.353 4.76656 -2.22902 0
M  V30 2629 O 241.379 4.86022 -2.96263 0
M  V30 2630 N 242.581 5.66958 -1.24656 0
M  V30 2631 H 245.346 1.77141 -2.41746 0
M  V30 2632 H 242.907 0.835678 -1.38665 0
M  V30 2633 H 244.899 3.90634 -1.0577 0
M  V30 2634 H 243.469 3.1052 -0.360015 0
M  V30 2635 H 242.689 2.75369 -2.82073 0
M  V30 2636 H 243.977 3.87368 -3.29884 0
M  V30 2637 H 243.375 5.62065 -0.640265 0
M  V30 2638 H 241.932 6.42135 -1.1183 0
M  V30 2639 N 245.365 1.30045 0.890287 0
M  V30 2640 C 246.315 1.12592 1.9826 0
M  V30 2641 C 247.299 0.0426021 1.60844 0
M  V30 2642 O 248.491 0.265346 1.75 0
M  V30 2643 C 245.62 0.814301 3.33503 0
M  V30 2644 C 244.706 1.93761 3.7725 0
M  V30 2645 N 245.097 3.18232 3.93143 0
M  V30 2646 C 243.395 1.83277 4.06602 0
M  V30 2647 C 244.096 3.9158 4.30163 0
M  V30 2648 N 243.072 3.19591 4.3973 0
M  V30 2649 H 246.874 2.07003 2.08631 0
M  V30 2650 H 244.388 1.21307 1.07974 0
M  V30 2651 H 246.385 0.67029 4.11476 0
M  V30 2652 H 245.045 -0.121797 3.24471 0
M  V30 2653 H 246.056 3.53581 3.78419 0
M  V30 2654 H 242.733 0.97001 4.06075 0
M  V30 2655 H 244.123 4.98744 4.50226 0
M  V30 2656 N 246.843 -1.10192 1.12674 0
M  V30 2657 C 248.09 -1.82205 0.883606 0
M  V30 2658 C 248.418 -1.8532 -0.590492 0
M  V30 2659 O 247.673 -1.31137 -1.45264 0
M  V30 2660 C 247.972 -3.28552 1.4067 0
M  V30 2661 C 247.638 -3.45582 2.89627 0
M  V30 2662 C 246.3 -3.49937 3.30299 0
M  V30 2663 C 248.652 -3.50768 3.85501 0
M  V30 2664 C 245.98 -3.57049 4.65546 0
M  V30 2665 C 248.332 -3.59414 5.20581 0
M  V30 2666 C 246.996 -3.62034 5.60792 0
M  V30 2667 H 246.266 -0.666735 0.323334 0
M  V30 2668 H 248.913 -1.29868 1.40736 0
M  V30 2669 H 247.218 -3.83473 0.80347 0
M  V30 2670 H 248.915 -3.82788 1.19475 0
M  V30 2671 H 245.505 -3.42871 2.57172 0
M  V30 2672 H 249.689 -3.46651 3.55171 0
M  V30 2673 H 244.945 -3.57361 4.96088 0
M  V30 2674 H 249.119 -3.62371 5.94693 0
M  V30 2675 H 246.746 -3.67298 6.6558 0
M  V30 2676 N 248.321 -0.919034 -1.28029 0
M  V30 2677 C 249.561 -0.562107 -1.96519 0
M  V30 2678 C 249.925 0.878784 -1.70708 0
M  V30 2679 O 251.126 1.34355 -2.32813 0
M  V30 2680 C 249.397 -0.868953 -3.46676 0
M  V30 2681 S 250.956 -0.619237 -4.34409 0
M  V30 2682 H 247.774 -0.2078 -0.679956 0
M  V30 2683 H 250.376 -1.18562 -1.55446 0
M  V30 2684 H 249.08 -1.91547 -3.62957 0
M  V30 2685 H 248.611 -0.234301 -3.92702 0
M  V30 2686 H 250.626 0.526995 -4.93394 0
M  V30 2687 N 249.799 1.42003 -0.683588 0
M  V30 2688 C 251.046 2.01413 -0.209514 0
M  V30 2689 C 251.374 1.54088 1.1869 0
M  V30 2690 O 250.629 0.737591 1.81268 0
M  V30 2691 C 250.928 3.56827 -0.202357 0
M  V30 2692 C 250.594 4.23617 -1.54464 0
M  V30 2693 C 249.256 4.41577 -1.91215 0
M  V30 2694 C 251.608 4.61178 -2.42826 0
M  V30 2695 C 248.936 4.9437 -3.15935 0
M  V30 2696 C 251.288 5.15355 -3.66867 0
M  V30 2697 C 249.952 5.31528 -4.03776 0
M  V30 2698 H 249.222 0.737023 -0.0766668 0
M  V30 2699 H 251.869 1.70067 -0.880312 0
M  V30 2700 H 250.174 3.87892 0.551969 0
M  V30 2701 H 251.871 4.00588 0.181793 0
M  V30 2702 H 248.461 4.10004 -1.24877 0
M  V30 2703 H 252.645 4.46968 -2.15717 0
M  V30 2704 H 247.901 5.05076 -3.44541 0
M  V30 2705 H 252.075 5.43402 -4.35531 0
M  V30 2706 H 249.702 5.72199 -5.00492 0
M  V30 2707 N 251.277 0.427512 1.51691 0
M  V30 2708 C 252.505 -0.141191 2.06418 0
M  V30 2709 C 252.92 -1.37303 1.29589 0
M  V30 2710 O 252.277 -1.79059 0.352732 0
M  V30 2711 C 252.328 -0.473266 3.58389 0
M  V30 2712 O 252.049 0.709673 4.32314 0
M  V30 2713 C 253.55 -1.09371 4.29596 0
M  V30 2714 H 250.77 -0.0122747 0.670888 0
M  V30 2715 H 253.314 0.603764 1.95384 0
M  V30 2716 H 251.469 -1.16812 3.69369 0
M  V30 2717 H 251.883 0.42807 5.2275 0
M  V30 2718 H 253.357 -1.27613 5.37046 0
M  V30 2719 H 253.834 -2.072 3.87253 0
M  V30 2720 H 254.44 -0.43853 4.23033 0
M  V30 2721 N 252.755 -1.56801 0.158532 0
M  V30 2722 C 254.171 -1.5837 -0.197774 0
M  V30 2723 C 254.371 -1.17334 -1.63814 0
M  V30 2724 O 253.427 -0.878988 -2.36707 0
M  V30 2725 C 254.74 -3.00615 0.0714459 0
M  V30 2726 C 256.288 -3.12999 0.00864533 0
M  V30 2727 C 256.763 -4.57313 0.250685 0
M  V30 2728 N 258.254 -4.62777 0.198014 0
M  V30 2729 C 258.989 -5.72271 0.359642 0
M  V30 2730 N 258.485 -6.90371 0.579625 0
M  V30 2731 N 260.278 -5.61318 0.296438 0
M  V30 2732 H 252.429 -1.81765 1.09887 0
M  V30 2733 H 254.692 -0.841849 0.435884 0
M  V30 2734 H 254.398 -3.35068 1.06874 0
M  V30 2735 H 254.272 -3.71683 -0.642757 0
M  V30 2736 H 256.659 -2.7838 -0.979217 0
M  V30 2737 H 256.74 -2.44393 0.755359 0
M  V30 2738 H 256.384 -4.92639 1.2357 0
M  V30 2739 H 256.314 -5.24061 -0.516489 0
M  V30 2740 H 258.805 -3.77885 0.0331115 0
M  V30 2741 H 259.118 -7.69689 0.69275 0
M  V30 2742 H 257.463 -6.92264 0.616087 0
M  V30 2743 H 260.654 -4.67932 0.125258 0
M  V30 2744 H 260.827 -6.46599 0.425831 0
M  V30 2745 N 254.233 0.115231 -1.57178 0
M  V30 2746 C 255.183 1.14707 -1.97044 0
M  V30 2747 C 256.167 1.36866 -0.845957 0
M  V30 2748 O 257.359 1.37895 -1.10968 0
M  V30 2749 C 254.488 2.47266 -2.38148 0
M  V30 2750 C 253.574 2.28566 -3.57237 0
M  V30 2751 N 253.965 1.79685 -4.72807 0
M  V30 2752 C 252.263 2.59208 -3.62943 0
M  V30 2753 C 252.964 1.74781 -5.54821 0
M  V30 2754 N 251.94 2.19264 -4.97417 0
M  V30 2755 H 255.742 0.761754 -2.83857 0
M  V30 2756 H 253.256 0.322928 -1.59157 0
M  V30 2757 H 255.253 3.219 -2.64927 0
M  V30 2758 H 253.913 2.86552 -1.52702 0
M  V30 2759 H 254.924 1.49177 -4.9595 0
M  V30 2760 H 251.601 3.02154 -2.88113 0
M  V30 2761 H 252.991 1.38212 -6.57531 0
M  V30 2762 N 255.711 1.52812 0.385517 0
M  V30 2763 C 256.621 1.80766 1.49535 0
M  V30 2764 C 257.637 0.694651 1.59532 0
M  V30 2765 O 258.813 0.982611 1.75803 0
M  V30 2766 C 255.878 1.97381 2.85029 0
M  V30 2767 C 254.939 3.21295 2.84724 0
M  V30 2768 C 254.172 3.37108 4.13756 0
M  V30 2769 O 254.395 2.5765 5.08893 0
M  V30 2770 O 253.329 4.30378 4.20783 0
M  V30 2771 H 257.155 2.75015 1.28842 0
M  V30 2772 H 254.74 1.37946 0.573697 0
M  V30 2773 H 256.622 2.09996 3.65349 0
M  V30 2774 H 255.297 1.06322 3.05741 0
M  V30 2775 H 254.204 3.1412 2.03174 0
M  V30 2776 H 255.537 4.12212 2.68965 0
M  V30 2777 N 257.189 -0.644168 1.43834 0
M  V30 2778 C 258.6 -1.22554 1.40845 0
M  V30 2779 C 258.951 -1.9585 0.117115 0
M  V30 2780 O 258.076 -2.01734 -0.783086 0
M  V30 2781 C 258.671 -2.22907 2.55143 0
M  V30 2782 C 257.23 -2.76501 2.5539 0
M  V30 2783 C 256.377 -1.51287 2.32396 0
M  V30 2784 H 259.328 -0.43563 1.52604 0
M  V30 2785 H 259.349 -3.05259 2.2715 0
M  V30 2786 H 258.861 -1.69533 3.49114 0
M  V30 2787 H 256.962 -3.33914 1.65324 0
M  V30 2788 H 257.075 -3.23429 3.53455 0
M  V30 2789 H 255.439 -1.78957 1.81236 0
M  V30 2790 H 256.222 -0.998336 3.28463 0
M  V30 2791 N 258.668 -1.30515 -0.883378 0
M  V30 2792 C 259.914 -1.19607 -1.63774 0
M  V30 2793 C 260.247 0.248314 -1.92606 0
M  V30 2794 O 259.522 1.17742 -1.54813 0
M  V30 2795 C 259.805 -2.02669 -2.97653 0
M  V30 2796 C 259.658 -3.55335 -2.75784 0
M  V30 2797 C 260.977 -1.86573 -3.98596 0
M  V30 2798 H 258.096 -0.435856 -0.594305 0
M  V30 2799 H 260.738 -1.60165 -1.02212 0
M  V30 2800 H 258.888 -1.68208 -3.50197 0
M  V30 2801 H 260.56 -3.99863 -2.30016 0
M  V30 2802 H 258.803 -3.79438 -2.1026 0
M  V30 2803 H 259.474 -4.08745 -3.70988 0
M  V30 2804 H 261.95 -2.16703 -3.55217 0
M  V30 2805 H 260.826 -2.47014 -4.90179 0
M  V30 2806 H 261.087 -0.825321 -4.34328 0
M  V30 2807 N 260.146 1.09593 -1.13257 0
M  V30 2808 C 261.394 1.81375 -0.891492 0
M  V30 2809 C 261.715 1.86049 0.584009 0
M  V30 2810 O 260.985 1.34481 1.42449 0
M  V30 2811 H 259.565 0.671708 -0.326828 0
M  V30 2812 H 262.227 1.3256 -1.42877 0
M  V30 2813 H 261.323 2.84612 -1.28071 0
M  V30 2814 N 261.624 0.925811 1.2754 0
M  V30 2815 C 262.87 0.566092 1.94739 0
M  V30 2816 C 263.203 -0.890057 1.72603 0
M  V30 2817 O 262.478 -1.63467 1.05399 0
M  V30 2818 C 262.761 0.89054 3.48915 0
M  V30 2819 C 262.614 2.4003 3.80402 0
M  V30 2820 C 263.933 0.395101 4.38323 0
M  V30 2821 H 261.052 0.20714 0.707292 0
M  V30 2822 H 263.694 1.15725 1.50691 0
M  V30 2823 H 261.844 0.387452 3.86563 0
M  V30 2824 H 263.516 2.97494 3.52555 0
M  V30 2825 H 261.759 2.85028 3.2702 0
M  V30 2826 H 262.43 2.57785 4.8811 0
M  V30 2827 H 264.906 0.826241 4.07814 0
M  V30 2828 H 263.782 0.651086 5.45025 0
M  V30 2829 H 264.043 -0.704798 4.36446 0
M  V30 2830 N 263.102 -1.41638 0.69111 0
M  V30 2831 C 264.342 -2.03166 0.224291 0
M  V30 2832 C 264.706 -1.53537 -1.15284 0
M  V30 2833 O 265.907 -2.0696 -1.71525 0
M  V30 2834 C 264.178 -3.56342 0.274758 0
M  V30 2835 S 265.737 -4.3864 -0.118669 0
M  V30 2836 H 262.555 -0.705188 0.0907263 0
M  V30 2837 H 265.157 -1.7314 0.907895 0
M  V30 2838 H 263.861 -3.89958 1.2791 0
M  V30 2839 H 263.392 -3.91063 -0.428142 0
M  V30 2840 H 265.407 -4.77549 -1.34764 0
M  V30 2841 N 264.58 -0.43555 -1.51462 0
M  V30 2842 C 265.828 0.131254 -2.01673 0
M  V30 2843 C 266.149 1.43368 -1.32177 0
M  V30 2844 O 265.419 1.90524 -0.455769 0
M  V30 2845 H 263.999 0.0514954 -0.745223 0
M  V30 2846 H 266.661 -0.577847 -1.86137 0
M  V30 2847 H 265.757 0.308446 -3.10572 0
M  V30 2848 N 266.058 1.56714 -0.166846 0
M  V30 2849 C 266.99 2.14914 0.796537 0
M  V30 2850 C 268.003 1.10357 1.19688 0
M  V30 2851 O 269.192 1.37561 1.13751 0
M  V30 2852 C 266.292 2.67326 2.08303 0
M  V30 2853 C 265.465 3.96493 1.84696 0
M  V30 2854 C 264.524 4.34014 2.97521 0
M  V30 2855 O 263.55 5.01973 2.6835 0
M  V30 2856 N 264.752 3.95208 4.25196 0
M  V30 2857 H 267.517 2.98205 0.299006 0
M  V30 2858 H 265.078 1.61892 0.0160839 0
M  V30 2859 H 267.07 2.89428 2.82867 0
M  V30 2860 H 265.64 1.88649 2.4926 0
M  V30 2861 H 264.86 3.82814 0.940602 0
M  V30 2862 H 266.148 4.8086 1.66285 0
M  V30 2863 H 265.546 3.40487 4.51758 0
M  V30 2864 H 264.103 4.2232 4.96477 0
M  V30 2865 N 267.536 -0.106894 1.57237 0
M  V30 2866 C 268.785 -0.811163 1.8467 0
M  V30 2867 C 269.098 -1.80469 0.754342 0
M  V30 2868 O 270.304 -2.55601 0.915439 0
M  V30 2869 C 268.76 -1.49337 3.27454 0
M  V30 2870 C 268.368 -0.540217 4.44731 0
M  V30 2871 C 270.112 -2.18206 3.64124 0
M  V30 2872 C 268.019 -1.22634 5.78545 0
M  V30 2873 H 266.949 -0.306679 0.688813 0
M  V30 2874 H 269.6 -0.0639887 1.83388 0
M  V30 2875 H 267.982 -2.2876 3.23241 0
M  V30 2876 H 269.156 0.221659 4.60267 0
M  V30 2877 H 267.471 0.042146 4.16379 0
M  V30 2878 H 270.068 -2.70253 4.61376 0
M  V30 2879 H 270.411 -2.96562 2.92158 0
M  V30 2880 H 270.944 -1.45658 3.70174 0
M  V30 2881 H 267.683 -0.483832 6.53712 0
M  V30 2882 H 267.203 -1.95993 5.66874 0
M  V30 2883 H 268.882 -1.75615 6.2271 0
M  V30 2884 N 269.014 -1.53014 -0.377408 0
M  V30 2885 C 270.263 -1.67845 -1.11853 0
M  V30 2886 C 270.576 -0.430625 -1.90801 0
M  V30 2887 O 271.782 -0.459261 -2.67587 0
M  V30 2888 C 270.238 -2.96668 -2.03756 0
M  V30 2889 C 269.846 -4.28671 -1.30175 0
M  V30 2890 C 271.59 -3.20865 -2.77932 0
M  V30 2891 C 269.497 -5.48591 -2.20911 0
M  V30 2892 H 268.427 -0.625343 -0.421263 0
M  V30 2893 H 271.078 -1.79514 -0.380409 0
M  V30 2894 H 269.46 -2.78773 -2.8125 0
M  V30 2895 H 270.634 -4.57157 -0.578259 0
M  V30 2896 H 268.949 -4.10825 -0.679108 0
M  V30 2897 H 271.546 -4.07642 -3.46024 0
M  V30 2898 H 271.889 -2.36424 -3.4265 0
M  V30 2899 H 272.422 -3.39379 -2.07525 0
M  V30 2900 H 269.161 -6.35474 -1.6079 0
M  V30 2901 H 268.681 -5.244 -2.91144 0
M  V30 2902 H 270.36 -5.8292 -2.80736 0
M  V30 2903 N 270.492 0.636531 -1.44174 0
M  V30 2904 C 271.903 1.21806 -1.41493 0
M  V30 2905 C 272.254 1.95785 -0.1275 0
M  V30 2906 O 271.379 2.02147 0.772376 0
M  V30 2907 C 271.974 2.21551 -2.56321 0
M  V30 2908 C 270.533 2.75143 -2.56853 0
M  V30 2909 C 269.68 1.50052 -2.33195 0
M  V30 2910 H 272.631 0.427531 -1.52833 0
M  V30 2911 H 272.652 3.0405 -2.28765 0
M  V30 2912 H 272.164 1.67679 -3.50008 0
M  V30 2913 H 270.265 3.33033 -1.67093 0
M  V30 2914 H 270.378 3.2155 -3.55165 0
M  V30 2915 H 268.742 1.77993 -1.82183 0
M  V30 2916 H 269.525 0.980903 -3.28988 0
M  V30 2917 N 271.97 1.30982 0.876444 0
M  V30 2918 C 273.216 1.21484 1.63136 0
M  V30 2919 C 273.571 -0.226339 1.91064 0
M  V30 2920 O 272.864 -1.15788 1.52656 0
M  V30 2921 C 273.058 1.98572 2.9716 0
M  V30 2922 C 272.887 3.50039 2.82317 0
M  V30 2923 C 271.657 4.19393 2.81847 0
M  V30 2924 C 273.855 4.45111 2.57644 0
M  V30 2925 N 271.837 5.57061 2.57985 0
M  V30 2926 C 273.208 5.70402 2.42986 0
M  V30 2927 C 275.263 4.3461 2.42937 0
M  V30 2928 C 273.966 6.8638 2.15115 0
M  V30 2929 C 275.992 5.50365 2.16454 0
M  V30 2930 C 275.354 6.74642 2.02578 0
M  V30 2931 H 271.453 0.499632 0.601575 0
M  V30 2932 H 274.037 1.65094 1.03209 0
M  V30 2933 H 272.208 1.5734 3.55104 0
M  V30 2934 H 273.94 1.81146 3.61895 0
M  V30 2935 H 270.695 3.71303 2.93991 0
M  V30 2936 H 271.119 6.29529 2.49043 0
M  V30 2937 H 275.761 3.39199 2.52396 0
M  V30 2938 H 273.479 7.81824 2.04394 0
M  V30 2939 H 277.065 5.44154 2.05884 0
M  V30 2940 H 275.945 7.62699 1.82374 0
M  V30 2941 N 273.449 -1.08991 1.13837 0
M  V30 2942 C 274.397 -2.17841 0.815347 0
M  V30 2943 C 275.391 -1.68164 -0.204233 0
M  V30 2944 O 276.597 -1.79897 -0.0609304 0
M  V30 2945 H 272.972 -0.710654 0.245915 0
M  V30 2946 H 274.943 -2.42315 1.74143 0
M  V30 2947 C 273.692 -3.46381 0.302614 0
M  V30 2948 H 273.015 -3.84979 1.0785 0
M  V30 2949 H 274.455 -4.23844 0.115074 0
M  V30 2950 C 272.914 -3.22556 -0.972591 0
M  V30 2951 O 273.444 -3.45599 -2.04754 0
M  V30 2952 N 271.65 -2.76134 -0.905455 0
M  V30 2953 H 271.197 -2.57582 -0.0305421 0
M  V30 2954 H 271.155 -2.60571 -1.75926 0
M  V30 2955 N 274.927 -0.932562 -1.27047 0
M  V30 2956 C 276.174 -0.575559 -1.94148 0
M  V30 2957 C 276.502 0.883984 -1.73251 0
M  V30 2958 O 275.757 1.64655 -1.0577 0
M  V30 2959 C 276.056 -0.853713 -3.47054 0
M  V30 2960 C 275.722 -2.29577 -3.88079 0
M  V30 2961 C 274.384 -2.68999 -3.9899 0
M  V30 2962 C 276.736 -3.23331 -4.08787 0
M  V30 2963 C 274.064 -4.01289 -4.28 0
M  V30 2964 C 276.416 -4.55207 -4.39282 0
M  V30 2965 C 275.08 -4.94457 -4.48407 0
M  V30 2966 H 274.35 -0.210612 -0.710439 0
M  V30 2967 H 276.997 -1.17744 -1.51025 0
M  V30 2968 H 275.302 -0.169204 -3.91434 0
M  V30 2969 H 276.999 -0.55639 -3.97121 0
M  V30 2970 H 273.589 -1.97994 -3.80127 0
M  V30 2971 H 277.773 -2.94074 -3.99793 0
M  V30 2972 H 273.029 -4.31374 -4.33275 0
M  V30 2973 H 277.203 -5.27852 -4.54252 0
M  V30 2974 H 274.83 -5.96994 -4.7064 0
M  V30 2975 N 276.405 1.4127 -0.698611 0
M  V30 2976 C 277.816 1.84187 -0.305289 0
M  V30 2977 C 278.167 1.58449 1.15708 0
M  V30 2978 O 277.292 1.05651 1.88856 0
M  V30 2979 C 277.887 3.3435 -0.547314 0
M  V30 2980 C 276.446 3.75826 -0.207878 0
M  V30 2981 C 275.593 2.64647 -0.828099 0
M  V30 2982 H 278.544 1.30778 -0.89904 0
M  V30 2983 H 278.565 3.8001 0.192998 0
M  V30 2984 H 278.077 3.53051 -1.61172 0
M  V30 2985 H 276.178 3.62725 0.852143 0
M  V30 2986 H 276.291 4.74462 -0.665021 0
M  V30 2987 H 274.655 2.53395 -0.257458 0
M  V30 2988 H 275.438 2.86165 -1.89643 0
M  V30 2989 N 277.883 0.443576 1.51229 0
M  V30 2990 C 278.813 -0.355142 2.30783 0
M  V30 2991 C 279.794 -1.0154 1.36468 0
M  V30 2992 O 280.979 -1.01785 1.65389 0
M  V30 2993 C 278.109 -1.45312 3.15439 0
M  V30 2994 C 277.063 -0.916002 4.18083 0
M  V30 2995 C 276.389 -2.1102 4.91299 0
M  V30 2996 C 277.689 0.0538602 5.22272 0
M  V30 2997 H 279.383 0.308767 2.97804 0
M  V30 2998 H 276.929 0.149937 1.43217 0
M  V30 2999 H 278.882 -2.01914 3.69876 0
M  V30 3000 H 277.606 -2.14541 2.46252 0
M  V30 3001 H 276.265 -0.372145 3.64706 0
M  V30 3002 H 275.913 -2.78882 4.18609 0
M  V30 3003 H 275.613 -1.75717 5.60712 0
M  V30 3004 H 277.137 -2.68164 5.48562 0
M  V30 3005 H 278.551 -0.422069 5.71744 0
M  V30 3006 H 276.948 0.319776 5.99247 0
M  V30 3007 H 278.018 0.98858 4.74716 0
M  V30 3008 N 279.361 -1.56624 0.175154 0
M  V30 3009 C 280.607 -1.9729 -0.469506 0
M  V30 3010 C 280.94 -1.06128 -1.62636 0
M  V30 3011 O 280.215 -0.109183 -1.94193 0
M  V30 3012 C 280.498 -3.47375 -0.948804 0
M  V30 3013 C 280.351 -4.49317 0.208491 0
M  V30 3014 C 281.67 -4.00652 -1.82116 0
M  V30 3015 H 278.789 -0.717317 -0.16919 0
M  V30 3016 H 281.431 -1.88184 0.262062 0
M  V30 3017 H 279.581 -3.55267 -1.57219 0
M  V30 3018 H 281.253 -4.53482 0.845682 0
M  V30 3019 H 279.496 -4.25121 0.863395 0
M  V30 3020 H 280.167 -5.51741 -0.169059 0
M  V30 3021 H 282.643 -3.95416 -1.2956 0
M  V30 3022 H 281.519 -5.06075 -2.12554 0
M  V30 3023 H 281.78 -3.44699 -2.7683 0
M  V30 3024 N 280.839 0.0985539 -1.57292 0
M  V30 3025 C 281.772 1.15082 -1.97057 0
M  V30 3026 C 282.75 1.39025 -0.843255 0
M  V30 3027 O 283.934 1.52842 -1.10325 0
M  V30 3028 C 281.061 2.50069 -2.28437 0
M  V30 3029 C 280.107 2.42428 -3.509 0
M  V30 3030 S 280.94 1.84414 -5.02744 0
M  V30 3031 C 282.096 3.21032 -5.37298 0
M  V30 3032 H 282.329 0.811815 -2.86002 0
M  V30 3033 H 279.862 0.306102 -1.51335 0
M  V30 3034 H 281.82 3.27729 -2.47192 0
M  V30 3035 H 280.481 2.8114 -1.40069 0
M  V30 3036 H 279.674 3.41911 -3.70288 0
M  V30 3037 H 279.276 1.72896 -3.31637 0
M  V30 3038 H 281.568 4.17297 -5.33731 0
M  V30 3039 H 282.511 3.06452 -6.38352 0
M  V30 3040 H 282.919 3.20404 -4.64759 0
M  V30 3041 N 282.317 1.53212 0.369288 0
M  V30 3042 C 283.249 1.75668 1.47219 0
M  V30 3043 C 284.262 0.637387 1.49804 0
M  V30 3044 O 285.451 0.913561 1.5335 0
M  V30 3045 C 282.551 1.81818 2.85999 0
M  V30 3046 C 281.724 3.11409 3.07153 0
M  V30 3047 C 280.783 3.08849 4.26026 0
M  V30 3048 O 279.809 3.82659 4.2138 0
M  V30 3049 N 281.011 2.29409 5.33246 0
M  V30 3050 H 283.776 2.70832 1.28337 0
M  V30 3051 H 281.337 1.51944 0.55898 0
M  V30 3052 H 283.329 1.77588 3.63655 0
M  V30 3053 H 281.899 0.939544 2.98146 0
M  V30 3054 H 281.119 3.28971 2.1719 0
M  V30 3055 H 282.407 3.97059 3.18154 0
M  V30 3056 H 281.805 1.68946 5.39883 0
M  V30 3057 H 280.362 2.31001 6.09493 0
M  V30 3058 N 283.795 -0.628877 1.44509 0
M  V30 3059 C 285.043 -1.38565 1.4712 0
M  V30 3060 C 285.364 -1.94712 0.105899 0
M  V30 3061 O 284.634 -1.75912 -0.862079 0
M  V30 3062 H 283.214 -0.514333 0.541729 0
M  V30 3063 H 285.876 -0.740018 1.80305 0
M  V30 3064 H 284.972 -2.21583 2.19789 0
M  V30 3065 N 285.273 -1.31445 -0.869486 0
M  V30 3066 C 286.519 -1.22347 -1.62489 0
M  V30 3067 C 286.874 0.216204 -1.91181 0
M  V30 3068 O 286.167 1.14977 -1.53268 0
M  V30 3069 C 286.361 -2.00145 -2.96102 0
M  V30 3070 C 286.19 -3.51531 -2.80456 0
M  V30 3071 C 284.96 -4.20882 -2.79618 0
M  V30 3072 C 287.158 -4.46471 -2.5528 0
M  V30 3073 N 285.14 -5.58421 -2.55027 0
M  V30 3074 C 286.511 -5.71682 -2.39957 0
M  V30 3075 C 288.566 -4.35892 -2.40629 0
M  V30 3076 C 287.269 -6.87511 -2.11472 0
M  V30 3077 C 289.295 -5.51505 -2.13532 0
M  V30 3078 C 288.657 -6.75707 -1.98998 0
M  V30 3079 H 284.756 -0.502815 -0.598917 0
M  V30 3080 H 287.34 -1.65639 -1.02332 0
M  V30 3081 H 285.511 -1.59221 -3.54264 0
M  V30 3082 H 287.243 -1.83063 -3.60929 0
M  V30 3083 H 283.998 -3.72857 -2.92018 0
M  V30 3084 H 284.422 -6.30841 -2.45701 0
M  V30 3085 H 289.064 -3.40533 -2.50593 0
M  V30 3086 H 286.782 -7.82897 -2.00245 0
M  V30 3087 H 290.368 -5.45238 -2.02995 0
M  V30 3088 H 289.248 -7.63655 -1.78326 0
M  V30 3089 N 286.751 1.08385 -1.14413 0
M  V30 3090 C 287.698 2.15311 -0.831265 0
M  V30 3091 C 288.668 1.64751 0.211292 0
M  V30 3092 O 289.853 1.90627 0.0811674 0
M  V30 3093 C 286.993 3.43658 -0.315143 0
M  V30 3094 C 286.106 4.08064 -1.41802 0
M  V30 3095 C 285.241 5.24207 -0.859126 0
M  V30 3096 C 284.28 5.80554 -1.93967 0
M  V30 3097 N 283.417 6.88042 -1.39793 0
M  V30 3098 H 288.257 2.41415 -1.74708 0
M  V30 3099 H 285.794 1.18474 -0.871909 0
M  V30 3100 H 287.752 4.172 0.00230884 0
M  V30 3101 H 286.382 3.17839 0.56378 0
M  V30 3102 H 285.434 3.3228 -1.85187 0
M  V30 3103 H 286.746 4.45962 -2.23427 0
M  V30 3104 H 285.9 6.04689 -0.49359 0
M  V30 3105 H 284.639 4.87699 -0.011932 0
M  V30 3106 H 283.644 4.98725 -2.31415 0
M  V30 3107 H 284.869 6.19121 -2.79046 0
M  V30 3108 H 282.815 6.53493 -0.572919 0
M  V30 3109 H 282.732 7.24767 -2.15054 0
M  V30 3110 H 284 7.72255 -1.0603 0
M  V30 3111 N 288.23 0.939286 1.26551 0
M  V30 3112 C 289.16 0.465044 2.28822 0
M  V30 3113 C 290.141 -0.480692 1.63167 0
M  V30 3114 O 291.326 -0.382955 1.90387 0
M  V30 3115 C 288.456 -0.27234 3.46231 0
M  V30 3116 C 287.41 0.58666 4.2396 0
M  V30 3117 C 286.736 -0.280573 5.33963 0
M  V30 3118 C 288.036 1.85704 4.88171 0
M  V30 3119 H 289.73 1.31979 2.68741 0
M  V30 3120 H 287.276 0.636061 1.29191 0
M  V30 3121 H 289.229 -0.615133 4.16886 0
M  V30 3122 H 287.953 -1.16121 3.0526 0
M  V30 3123 H 286.612 0.91232 3.55067 0
M  V30 3124 H 286.26 -1.16874 4.89234 0
M  V30 3125 H 285.96 0.29076 5.8688 0
M  V30 3126 H 287.484 -0.618678 6.07458 0
M  V30 3127 H 288.898 1.58161 5.51052 0
M  V30 3128 H 287.295 2.37279 5.51197 0
M  V30 3129 H 288.365 2.56957 4.11219 0
M  V30 3130 N 289.708 -1.40897 0.706093 0
M  V30 3131 C 290.671 -2.29131 0.0562841 0
M  V30 3132 C 291.671 -1.44901 -0.697166 0
M  V30 3133 O 292.861 -1.65926 -0.530484 0
M  V30 3134 C 289.993 -3.27957 -0.93043 0
M  V30 3135 H 291.186 -2.88091 0.833284 0
M  V30 3136 H 288.739 -1.4906 0.470192 0
M  V30 3137 H 289.474 -2.73997 -1.73482 0
M  V30 3138 H 289.259 -3.90124 -0.393166 0
M  V30 3139 H 290.749 -3.94049 -1.38256 0
M  V30 3140 N 291.186 -0.45159 -1.50991 0
M  V30 3141 C 292.597 0.00818571 -1.86698 0
M  V30 3142 C 292.948 1.40661 -1.3678 0
M  V30 3143 O 292.073 2.0391 -0.724546 0
M  V30 3144 C 292.668 0.0216303 -3.38793 0
M  V30 3145 C 291.227 0.425865 -3.73983 0
M  V30 3146 C 290.374 -0.372163 -2.74791 0
M  V30 3147 H 293.325 -0.666785 -1.44013 0
M  V30 3148 H 293.346 0.828078 -3.7138 0
M  V30 3149 H 292.858 -0.996288 -3.75094 0
M  V30 3150 H 290.959 1.44886 -3.43277 0
M  V30 3151 H 291.072 0.140761 -4.78893 0
M  V30 3152 H 289.436 0.171498 -2.54122 0
M  V30 3153 H 290.219 -1.38922 -3.13935 0
M  V30 3154 N 292.664 1.56529 -0.183458 0
M  V30 3155 C 293.627 2.17324 0.728223 0
M  V30 3156 C 294.627 1.12453 1.14939 0
M  V30 3157 O 295.817 1.37902 1.06437 0
M  V30 3158 C 292.949 2.76591 1.99274 0
M  V30 3159 H 294.142 2.99241 0.198772 0
M  V30 3160 H 291.695 1.5616 0.0661391 0
M  V30 3161 H 292.43 1.98441 2.56499 0
M  V30 3162 H 292.215 3.5335 1.69959 0
M  V30 3163 H 293.705 3.23311 2.6431 0
M  V30 3164 N 294.142 -0.090211 1.57342 0
M  V30 3165 C 295.072 -1.10976 2.05443 0
M  V30 3166 C 296.053 -1.41482 0.944284 0
M  V30 3167 O 297.238 -1.51428 1.21586 0
M  V30 3168 C 294.368 -2.42831 2.48295 0
M  V30 3169 C 293.322 -2.26721 3.63018 0
M  V30 3170 C 292.648 -3.63796 3.91863 0
M  V30 3171 C 293.948 -1.7037 4.93732 0
M  V30 3172 H 295.642 -0.709564 2.9087 0
M  V30 3173 H 293.188 -0.339874 1.39932 0
M  V30 3174 H 295.141 -3.14431 2.80555 0
M  V30 3175 H 293.865 -2.84795 1.59873 0
M  V30 3176 H 292.524 -1.57565 3.31012 0
M  V30 3177 H 292.172 -4.03297 3.00601 0
M  V30 3178 H 291.872 -3.53861 4.69101 0
M  V30 3179 H 293.396 -4.36855 4.26603 0
M  V30 3180 H 294.81 -2.31816 5.24342 0
M  V30 3181 H 293.207 -1.71181 5.75167 0
M  V30 3182 H 294.277 -0.663542 4.80339 0
M  V30 3183 N 295.62 -1.53406 -0.361157 0
M  V30 3184 C 296.583 -1.79479 -1.42548 0
M  V30 3185 C 297.583 -0.665327 -1.4639 0
M  V30 3186 O 298.773 -0.933549 -1.47073 0
M  V30 3187 C 295.905 -1.92087 -2.8163 0
M  V30 3188 H 297.098 -2.74538 -1.20701 0
M  V30 3189 H 294.651 -1.4455 -0.594546 0
M  V30 3190 H 295.386 -0.991099 -3.08784 0
M  V30 3191 H 295.171 -2.74241 -2.80239 0
M  V30 3192 H 296.661 -2.13836 -3.58697 0
M  V30 3193 N 297.098 0.621204 -1.44841 0
M  V30 3194 C 298.326 1.40752 -1.51646 0
M  V30 3195 C 298.741 1.88246 -0.144549 0
M  V30 3196 O 298.098 1.61422 0.851416 0
M  V30 3197 C 298.149 2.62119 -2.4895 0
M  V30 3198 O 297.87 2.16602 -3.80808 0
M  V30 3199 C 299.371 3.55135 -2.65319 0
M  V30 3200 H 296.591 0.431325 -0.514004 0
M  V30 3201 H 299.135 0.758835 -1.899 0
M  V30 3202 H 297.29 3.23058 -2.13805 0
M  V30 3203 H 297.704 2.95358 -4.33433 0
M  V30 3204 H 299.178 4.36874 -3.37409 0
M  V30 3205 H 299.655 4.04592 -1.70886 0
M  V30 3206 H 300.261 3.00058 -3.01405 0
M  V30 3207 N 298.576 1.31904 0.862503 0
M  V30 3208 C 299.824 1.21776 1.61292 0
M  V30 3209 C 300.145 -0.222413 1.93727 0
M  V30 3210 O 299.415 -1.1451 1.58947 0
M  V30 3211 H 297.995 0.447717 0.597962 0
M  V30 3212 H 300.657 1.65326 1.03215 0
M  V30 3213 H 299.753 1.7948 2.5533 0
M  V30 3214 N 300.054 -1.07777 1.14986 0
M  V30 3215 C 301.002 -2.16964 0.838406 0
M  V30 3216 C 301.996 -1.68372 -0.186386 0
M  V30 3217 O 303.202 -1.79951 -0.0418465 0
M  V30 3218 H 299.577 -0.708006 0.253439 0
M  V30 3219 H 301.548 -2.40454 1.76704 0
M  V30 3220 C 300.297 -3.4604 0.339335 0
M  V30 3221 H 299.62 -3.83813 1.11927 0
M  V30 3222 H 301.06 -4.23698 0.160021 0
M  V30 3223 C 299.519 -3.23569 -0.938325 0
M  V30 3224 O 300.049 -3.47752 -2.01077 0
M  V30 3225 N 298.255 -2.77079 -0.876117 0
M  V30 3226 H 297.802 -2.576 -0.00322037 0
M  V30 3227 H 297.76 -2.62422 -1.73153 0
M  V30 3228 N 301.532 -0.945985 -1.26051 0
M  V30 3229 C 302.76 -0.613025 -1.9761 0
M  V30 3230 C 303.175 0.813035 -1.70397 0
M  V30 3231 O 302.532 1.54274 -0.974979 0
M  V30 3232 C 302.583 -0.85159 -3.51326 0
M  V30 3233 O 302.304 -2.22157 -3.77595 0
M  V30 3234 C 303.805 -0.529831 -4.40122 0
M  V30 3235 H 301.025 -0.230593 -0.630133 0
M  V30 3236 H 303.569 -1.268 -1.60443 0
M  V30 3237 H 301.724 -0.243151 -3.86636 0
M  V30 3238 H 302.138 -2.2852 -4.721 0
M  V30 3239 H 303.612 -0.747348 -5.46917 0
M  V30 3240 H 304.089 0.535341 -4.35925 0
M  V30 3241 H 304.695 -1.11721 -4.10364 0
M  V30 3242 N 303.011 1.40521 -0.713556 0
M  V30 3243 C 304.257 2.01221 -0.252564 0
M  V30 3244 C 304.59 1.56444 1.1506 0
M  V30 3245 O 303.865 0.783597 1.78017 0
M  V30 3246 C 304.148 3.58582 -0.330332 0
M  V30 3247 C 304.001 4.13437 -1.77173 0
M  V30 3248 C 305.32 4.39079 0.299641 0
M  V30 3249 H 302.439 0.731077 -0.0932471 0
M  V30 3250 H 305.081 1.67026 -0.905673 0
M  V30 3251 H 303.231 3.87844 0.225737 0
M  V30 3252 H 304.903 3.9498 -2.38303 0
M  V30 3253 H 303.146 3.67801 -2.3001 0
M  V30 3254 H 303.817 5.22597 -1.77755 0
M  V30 3255 H 306.293 4.15735 -0.174139 0
M  V30 3256 H 305.169 5.4848 0.214771 0
M  V30 3257 H 305.43 4.19915 1.38288 0
M  V30 3258 N 304.489 0.459591 1.5075 0
M  V30 3259 C 305.735 -0.0994966 2.02556 0
M  V30 3260 C 306.068 -1.40399 1.3417 0
M  V30 3261 O 305.343 -1.88892 0.463683 0
M  V30 3262 C 305.626 -0.295242 3.58888 0
M  V30 3263 C 305.479 1.02947 4.37861 0
M  V30 3264 C 306.798 -1.05502 4.27267 0
M  V30 3265 H 303.917 -0.034686 0.736183 0
M  V30 3266 H 306.559 0.602938 1.8018 0
M  V30 3267 H 304.709 -0.893563 3.78084 0
M  V30 3268 H 306.381 1.66348 4.30263 0
M  V30 3269 H 304.624 1.62885 4.02058 0
M  V30 3270 H 305.295 0.846281 5.45474 0
M  V30 3271 H 307.771 -0.547993 4.12476 0
M  V30 3272 H 306.647 -1.16077 5.36486 0
M  V30 3273 H 306.908 -2.08875 3.89645 0
M  V30 3274 N 305.967 -1.56429 0.191757 0
M  V30 3275 C 306.9 -2.14829 -0.76967 0
M  V30 3276 C 307.878 -1.08405 -1.2119 0
M  V30 3277 O 309.062 -1.36498 -1.30002 0
M  V30 3278 C 306.189 -2.70446 -2.03903 0
M  V30 3279 C 305.235 -3.89428 -1.7392 0
M  V30 3280 S 306.068 -5.28048 -0.890265 0
M  V30 3281 C 307.224 -5.87085 -2.16984 0
M  V30 3282 H 307.457 -2.96042 -0.273204 0
M  V30 3283 H 304.99 -1.54383 -0.0231975 0
M  V30 3284 H 306.948 -3.03134 -2.76803 0
M  V30 3285 H 305.609 -1.89281 -2.50662 0
M  V30 3286 H 304.802 -4.26742 -2.68155 0
M  V30 3287 H 304.404 -3.57732 -1.09103 0
M  V30 3288 H 306.696 -6.01244 -3.12269 0
M  V30 3289 H 307.639 -6.83747 -1.84108 0
M  V30 3290 H 308.047 -5.15663 -2.29678 0
M  V30 3291 N 307.445 0.0818655 -1.57387 0
M  V30 3292 C 308.392 1.09834 -2.0299 0
M  V30 3293 C 309.362 1.39043 -0.908639 0
M  V30 3294 O 310.547 1.50282 -1.17559 0
M  V30 3295 C 307.687 2.40971 -2.47037 0
M  V30 3296 C 306.8 2.18379 -3.7274 0
M  V30 3297 C 305.935 3.43008 -4.0561 0
M  V30 3298 C 304.974 3.15736 -5.24383 0
M  V30 3299 N 304.111 4.32667 -5.52941 0
M  V30 3300 H 308.951 0.702472 -2.89602 0
M  V30 3301 H 306.488 0.33531 -1.43227 0
M  V30 3302 H 308.446 3.1752 -2.70623 0
M  V30 3303 H 307.076 2.78379 -1.63417 0
M  V30 3304 H 306.128 1.32569 -3.56552 0
M  V30 3305 H 307.44 1.94227 -4.59431 0
M  V30 3306 H 306.594 4.27958 -4.30043 0
M  V30 3307 H 305.333 3.70225 -3.17466 0
M  V30 3308 H 304.338 2.2918 -4.99757 0
M  V30 3309 H 305.563 2.8985 -6.14136 0
M  V30 3310 H 303.509 4.59935 -4.67756 0
M  V30 3311 H 303.426 4.11753 -6.34031 0
M  V30 3312 H 304.694 5.18644 -5.81918 0
M  V30 3313 N 308.923 1.53595 0.353017 0
M  V30 3314 C 310.169 1.70638 1.09593 0
M  V30 3315 C 310.502 0.463286 1.88593 0
M  V30 3316 O 309.777 -0.539597 1.86865 0
M  V30 3317 C 310.06 2.96406 2.04489 0
M  V30 3318 C 309.913 4.30901 1.29014 0
M  V30 3319 C 311.232 3.17812 3.0444 0
M  V30 3320 H 308.351 0.620913 0.397034 0
M  V30 3321 H 310.993 1.86254 0.375446 0
M  V30 3322 H 309.143 2.83223 2.65927 0
M  V30 3323 H 310.815 4.55917 0.702638 0
M  V30 3324 H 309.058 4.29741 0.592071 0
M  V30 3325 H 309.729 5.1506 1.98537 0
M  V30 3326 H 312.205 3.30263 2.53112 0
M  V30 3327 H 311.081 4.07223 3.6805 0
M  V30 3328 H 311.342 2.33669 3.75301 0
M  V30 3329 N 310.401 -0.613514 1.45168 0
M  V30 3330 C 311.364 -1.7065 1.53007 0
M  V30 3331 C 312.364 -1.5548 0.410184 0
M  V30 3332 O 313.554 -1.60656 0.673455 0
M  V30 3333 C 310.686 -3.09875 1.42093 0
M  V30 3334 H 311.879 -1.65068 2.50385 0
M  V30 3335 H 309.432 -0.828728 1.32521 0
M  V30 3336 H 310.167 -3.21039 0.458769 0
M  V30 3337 H 309.952 -3.22293 2.23315 0
M  V30 3338 H 311.442 -3.895 1.50598 0
M  V30 3339 N 311.879 -1.3236 -0.855495 0
M  V30 3340 C 312.789 -1.23221 -1.99634 0
M  V30 3341 C 313.805 -0.145983 -1.73387 0
M  V30 3342 O 314.981 -0.366502 -1.98037 0
M  V30 3343 C 312.046 -0.954782 -3.33294 0
M  V30 3344 C 311.107 -2.12937 -3.72769 0
M  V30 3345 C 310.34 -1.86508 -5.00051 0
M  V30 3346 O 310.563 -0.807231 -5.64659 0
M  V30 3347 O 309.497 -2.72591 -5.36636 0
M  V30 3348 H 313.323 -2.19126 -2.1028 0
M  V30 3349 H 310.908 -1.12241 -0.986018 0
M  V30 3350 H 312.79 -0.816519 -4.13414 0
M  V30 3351 H 311.465 -0.0258854 -3.2369 0
M  V30 3352 H 310.372 -2.3231 -2.93228 0
M  V30 3353 H 311.705 -3.04102 -3.87018 0
M  V30 3354 N 313.357 1.07166 -1.15556 0
M  V30 3355 C 314.289 2.14341 -0.811815 0
M  V30 3356 C 315.302 1.61835 0.177015 0
M  V30 3357 O 316.491 1.78439 -0.0464996 0
M  V30 3358 C 313.591 3.38387 -0.186481 0
M  V30 3359 C 312.764 4.20238 -1.21321 0
M  V30 3360 C 311.823 5.2266 -0.609302 0
M  V30 3361 O 310.849 5.54719 -1.27576 0
M  V30 3362 N 312.051 5.77306 0.608099 0
M  V30 3363 H 314.816 2.44431 -1.73417 0
M  V30 3364 H 312.377 1.23089 -1.0517 0
M  V30 3365 H 314.369 4.04044 0.230339 0
M  V30 3366 H 312.939 3.05994 0.639249 0
M  V30 3367 H 312.159 3.50369 -1.80652 0
M  V30 3368 H 313.447 4.71736 -1.90638 0
M  V30 3369 H 312.845 5.53513 1.1679 0
M  V30 3370 H 311.402 6.44583 0.96725 0
M  V30 3371 N 314.835 0.952656 1.25548 0
M  V30 3372 C 316.063 0.623496 1.97282 0
M  V30 3373 C 316.478 -0.803987 1.70826 0
M  V30 3374 O 315.835 -1.53755 0.983147 0
M  V30 3375 C 315.886 0.870209 3.5087 0
M  V30 3376 O 315.607 2.24156 3.76412 0
M  V30 3377 C 317.108 0.553164 4.39835 0
M  V30 3378 H 314.328 0.233931 0.628902 0
M  V30 3379 H 316.872 1.27649 1.59768 0
M  V30 3380 H 315.027 0.263652 3.86502 0
M  V30 3381 H 315.441 2.31021 4.70882 0
M  V30 3382 H 316.915 0.776342 5.46513 0
M  V30 3383 H 317.392 -0.512215 4.36203 0
M  V30 3384 H 317.998 1.13896 4.09766 0
M  V30 3385 N 316.313 -1.40141 0.720998 0
M  V30 3386 C 317.724 -1.83678 0.334553 0
M  V30 3387 C 318.075 -1.6027 -1.13173 0
M  V30 3388 O 317.2 -1.08643 -1.87152 0
M  V30 3389 C 317.795 -3.33437 0.600437 0
M  V30 3390 C 316.354 -3.75447 0.267642 0
M  V30 3391 C 315.501 -2.63296 0.870097 0
M  V30 3392 H 318.452 -1.29331 0.919732 0
M  V30 3393 H 318.473 -3.80269 -0.132517 0
M  V30 3394 H 317.985 -3.50442 1.66768 0
M  V30 3395 H 316.086 -3.64035 -0.794329 0
M  V30 3396 H 316.199 -4.73344 0.74042 0
M  V30 3397 H 314.563 -2.52954 0.297739 0
M  V30 3398 H 315.346 -2.83112 1.94172 0
M  V30 3399 N 317.792 -0.46758 -1.50504 0
M  V30 3400 C 318.722 0.318381 -2.31319 0
M  V30 3401 C 319.703 0.993564 -1.38066 0
M  V30 3402 O 320.888 0.991411 -1.66987 0
M  V30 3403 C 318.018 1.40275 -3.17711 0
M  V30 3404 C 316.972 0.849373 -4.19487 0
M  V30 3405 C 316.298 2.03177 -4.94594 0
M  V30 3406 C 317.598 -0.136942 -5.2212 0
M  V30 3407 H 319.292 -0.356106 -2.97275 0
M  V30 3408 H 316.838 -0.172703 -1.42961 0
M  V30 3409 H 318.791 1.96004 -3.73042 0
M  V30 3410 H 317.515 2.10596 -2.49634 0
M  V30 3411 H 316.174 0.314076 -3.65252 0
M  V30 3412 H 315.822 2.72187 -4.22993 0
M  V30 3413 H 315.522 1.66774 -5.63436 0
M  V30 3414 H 317.046 2.59403 -5.52759 0
M  V30 3415 H 318.46 0.331056 -5.72343 0
M  V30 3416 H 316.857 -0.41507 -5.98663 0
M  V30 3417 H 317.927 -1.06398 -4.73083 0
M  V30 3418 N 319.27 1.56325 -0.20005 0
M  V30 3419 C 320.495 2.02548 0.44597 0
M  V30 3420 C 320.92 1.07922 1.5406 0
M  V30 3421 O 320.278 0.0635775 1.81188 0
M  V30 3422 C 320.326 3.47175 0.974761 0
M  V30 3423 O 319.43 3.55671 2.08739 0
M  V30 3424 H 318.771 0.655862 0.103638 0
M  V30 3425 H 321.301 2.02201 -0.312381 0
M  V30 3426 H 321.311 3.87067 1.2901 0
M  V30 3427 H 319.986 4.15538 0.17347 0
M  V30 3428 H 318.563 3.27657 1.78032 0
M  V30 3429 N 320.748 -0.0735177 1.57428 0
M  V30 3430 C 321.711 -1.07192 2.02589 0
M  V30 3431 C 322.711 -1.31695 0.922661 0
M  V30 3432 O 323.901 -1.27445 1.18758 0
M  V30 3433 C 321.033 -2.41599 2.40506 0
M  V30 3434 H 322.226 -0.682727 2.92025 0
M  V30 3435 H 319.779 -0.319193 1.53006 0
M  V30 3436 H 320.514 -2.85354 1.5409 0
M  V30 3437 H 320.299 -2.25156 3.21009 0
M  V30 3438 H 321.789 -3.13367 2.76027 0
M  V30 3439 N 322.226 -1.5378 -0.344866 0
M  V30 3440 C 323.156 -1.84662 -1.42906 0
M  V30 3441 C 324.137 -0.701648 -1.54955 0
M  V30 3442 O 325.322 -0.953438 -1.69184 0
M  V30 3443 C 322.452 -2.05503 -2.79974 0
M  V30 3444 C 321.406 -3.21318 -2.82734 0
M  V30 3445 C 320.732 -3.2749 -4.22675 0
M  V30 3446 C 322.032 -4.59456 -2.48389 0
M  V30 3447 H 323.726 -2.75461 -1.17311 0
M  V30 3448 H 321.272 -1.32542 -0.562896 0
M  V30 3449 H 323.225 -2.25691 -3.55867 0
M  V30 3450 H 321.949 -1.11434 -3.07002 0
M  V30 3451 H 320.608 -3.00984 -2.09294 0
M  V30 3452 H 320.256 -2.31019 -4.4681 0
M  V30 3453 H 319.956 -4.05316 -4.25433 0
M  V30 3454 H 321.48 -3.49887 -5.00412 0
M  V30 3455 H 322.894 -4.79667 -3.13995 0
M  V30 3456 H 321.291 -5.39675 -2.62432 0
M  V30 3457 H 322.361 -4.63155 -1.4358 0
M  V30 3458 N 323.704 0.605807 -1.45491 0
M  V30 3459 C 324.934 1.38934 -1.52908 0
M  V30 3460 C 325.342 1.88513 -0.161086 0
M  V30 3461 O 324.685 1.62962 0.847891 0
M  V30 3462 C 324.747 2.62737 -2.45376 0
M  V30 3463 C 324.411 2.34785 -3.92078 0
M  V30 3464 C 325.408 1.95038 -4.8193 0
M  V30 3465 C 323.093 2.47642 -4.37011 0
M  V30 3466 C 325.087 1.68511 -6.14722 0
M  V30 3467 C 322.774 2.20728 -5.69844 0
M  V30 3468 C 323.772 1.81225 -6.58519 0
M  V30 3469 O 323.46 1.54627 -7.88889 0
M  V30 3470 H 323.192 0.431629 -0.520262 0
M  V30 3471 H 325.746 0.74573 -1.91384 0
M  V30 3472 H 323.976 3.29824 -2.01874 0
M  V30 3473 H 325.665 3.24783 -2.43456 0
M  V30 3474 H 326.431 1.84639 -4.48479 0
M  V30 3475 H 322.31 2.77356 -3.68232 0
M  V30 3476 H 325.854 1.37602 -6.83894 0
M  V30 3477 H 321.751 2.30744 -6.02849 0
M  V30 3478 H 322.519 1.68665 -8.00933 0
M  V30 3479 N 325.182 1.32811 0.848464 0
M  V30 3480 C 326.112 1.24882 1.97299 0
M  V30 3481 C 327.093 0.131357 1.69592 0
M  V30 3482 O 328.278 0.319553 1.91553 0
M  V30 3483 C 325.408 0.97746 3.33261 0
M  V30 3484 C 324.362 2.05682 3.75338 0
M  V30 3485 C 323.688 1.63777 5.09 0
M  V30 3486 C 324.988 3.47254 3.90144 0
M  V30 3487 H 326.682 2.18966 2.04191 0
M  V30 3488 H 324.228 1.05413 0.981029 0
M  V30 3489 H 326.181 0.908513 4.1149 0
M  V30 3490 H 324.905 0.000980011 3.266 0
M  V30 3491 H 323.564 2.11603 2.99366 0
M  V30 3492 H 323.212 0.648569 4.98801 0
M  V30 3493 H 322.912 2.36 5.38124 0
M  V30 3494 H 324.436 1.5833 5.89715 0
M  V30 3495 H 325.85 3.43888 4.58709 0
M  V30 3496 H 324.247 4.1788 4.30693 0
M  V30 3497 H 325.317 3.86462 2.92874 0
M  V30 3498 N 326.66 -1.06551 1.16123 0
M  V30 3499 C 327.623 -2.12132 0.867906 0
M  V30 3500 C 328.623 -1.60224 -0.135944 0
M  V30 3501 O 329.813 -1.73943 0.0946422 0
M  V30 3502 C 326.945 -3.396 0.297419 0
M  V30 3503 H 328.138 -2.39586 1.80385 0
M  V30 3504 H 325.691 -1.22574 0.969812 0
M  V30 3505 H 326.426 -3.17794 -0.64633 0
M  V30 3506 H 326.211 -3.78581 1.02073 0
M  V30 3507 H 327.701 -4.17455 0.110052 0
M  V30 3508 N 328.138 -0.959301 -1.25041 0
M  V30 3509 C 329.363 -0.633507 -1.97488 0
M  V30 3510 C 329.788 0.788555 -1.70773 0
M  V30 3511 O 329.146 1.53394 -0.966431 0
M  V30 3512 C 329.194 -0.904057 -3.49083 0
M  V30 3513 O 328.298 0.0147939 -4.12397 0
M  V30 3514 H 327.639 -0.240368 -0.618966 0
M  V30 3515 H 330.169 -1.28717 -1.59038 0
M  V30 3516 H 330.179 -0.832203 -3.99423 0
M  V30 3517 H 328.854 -1.94048 -3.67856 0
M  V30 3518 H 327.431 -0.109664 -3.72739 0
M  V30 3519 N 329.616 1.39756 -0.72842 0
M  V30 3520 C 330.546 2.33289 -0.0991354 0
M  V30 3521 C 331.527 1.53568 0.731489 0
M  V30 3522 O 332.712 1.81987 0.677807 0
M  V30 3523 C 329.842 3.3763 0.813834 0
M  V30 3524 C 328.796 4.2791 0.0878663 0
M  V30 3525 C 328.122 5.22894 1.11741 0
M  V30 3526 C 329.422 5.11314 -1.06563 0
M  V30 3527 H 331.116 2.86163 -0.880408 0
M  V30 3528 H 328.662 1.37591 -0.424819 0
M  V30 3529 H 330.615 4.0201 1.26355 0
M  V30 3530 H 329.339 2.83181 1.62715 0
M  V30 3531 H 327.998 3.65 -0.342159 0
M  V30 3532 H 327.646 4.64744 1.92412 0
M  V30 3533 H 327.346 5.84143 0.636477 0
M  V30 3534 H 328.87 5.90151 1.56697 0
M  V30 3535 H 330.284 5.69076 -0.694671 0
M  V30 3536 H 328.681 5.81671 -1.47577 0
M  V30 3537 H 329.751 4.46534 -1.89038 0
M  V30 3538 N 331.094 0.475555 1.50254 0
M  V30 3539 C 332.343 -0.0795996 2.01543 0
M  V30 3540 C 332.656 -1.4038 1.36209 0
M  V30 3541 O 333.862 -2.04415 1.7868 0
M  V30 3542 C 332.318 -0.192363 3.59386 0
M  V30 3543 C 331.926 1.12367 4.33679 0
M  V30 3544 C 333.67 -0.699238 4.18701 0
M  V30 3545 C 331.577 0.974453 5.83317 0
M  V30 3546 H 330.507 -0.0335228 0.753254 0
M  V30 3547 H 333.158 0.611128 1.73025 0
M  V30 3548 H 331.54 -0.946974 3.84511 0
M  V30 3549 H 332.714 1.88958 4.20276 0
M  V30 3550 H 331.029 1.562 3.85993 0
M  V30 3551 H 333.626 -0.827978 5.28251 0
M  V30 3552 H 333.969 -1.69171 3.80377 0
M  V30 3553 H 334.502 -0.00188807 3.978 0
M  V30 3554 H 331.241 1.94042 6.26121 0
M  V30 3555 H 330.761 0.248998 5.99283 0
M  V30 3556 H 332.44 0.642867 6.43798 0
M  V30 3557 N 332.573 -1.56217 0.208337 0
M  V30 3558 C 333.52 -2.19699 -0.707192 0
M  V30 3559 C 334.49 -1.14836 -1.20008 0
M  V30 3560 O 335.675 -1.4314 -1.26157 0
M  V30 3561 C 332.815 -2.87061 -1.91546 0
M  V30 3562 C 331.928 -4.06483 -1.46271 0
M  V30 3563 C 331.063 -4.61665 -2.62752 0
M  V30 3564 C 330.102 -5.73417 -2.14147 0
M  V30 3565 N 329.239 -6.22948 -3.23853 0
M  V30 3566 H 334.079 -2.97575 -0.159111 0
M  V30 3567 H 331.616 -1.46948 -0.0667874 0
M  V30 3568 H 333.574 -3.24294 -2.62468 0
M  V30 3569 H 332.204 -2.11725 -2.43664 0
M  V30 3570 H 331.256 -3.74825 -0.648886 0
M  V30 3571 H 332.568 -4.87271 -1.06622 0
M  V30 3572 H 331.722 -5.01272 -3.41776 0
M  V30 3573 H 330.461 -3.80013 -3.05682 0
M  V30 3574 H 329.466 -5.33326 -1.33581 0
M  V30 3575 H 330.691 -6.56897 -1.72232 0
M  V30 3576 H 328.637 -5.44213 -3.6629 0
M  V30 3577 H 328.554 -6.98823 -2.88414 0
M  V30 3578 H 329.822 -6.6721 -4.03052 0
M  V30 3579 N 334.051 0.0651679 -1.57465 0
M  V30 3580 C 334.961 1.09448 -2.07505 0
M  V30 3581 C 335.977 1.41974 -1.00595 0
M  V30 3582 O 337.153 1.52018 -1.32107 0
M  V30 3583 C 334.218 2.38689 -2.51453 0
M  V30 3584 C 333.279 2.13073 -3.72691 0
M  V30 3585 C 332.512 3.36152 -4.14533 0
M  V30 3586 O 332.735 4.45517 -3.56189 0
M  V30 3587 O 331.669 3.23974 -5.07272 0
M  V30 3588 H 335.495 0.69935 -2.95538 0
M  V30 3589 H 333.08 0.279752 -1.46757 0
M  V30 3590 H 334.962 3.14736 -2.80212 0
M  V30 3591 H 333.637 2.77568 -1.66546 0
M  V30 3592 H 332.544 1.34709 -3.49005 0
M  V30 3593 H 333.877 1.79071 -4.5847 0
M  V30 3594 N 335.529 1.53961 0.336706 0
M  V30 3595 C 336.492 1.81724 1.39675 0
M  V30 3596 C 337.492 0.688532 1.45313 0
M  V30 3597 O 338.682 0.956829 1.45569 0
M  V30 3598 C 335.814 1.96543 2.78538 0
M  V30 3599 H 337.007 2.76424 1.16318 0
M  V30 3600 H 334.56 1.45478 0.571474 0
M  V30 3601 H 335.295 1.0401 3.07168 0
M  V30 3602 H 335.08 2.78665 2.75841 0
M  V30 3603 H 336.57 2.19516 3.5525 0
M  V30 3604 N 337.007 -0.598083 1.45811 0
M  V30 3605 C 338.255 -1.35413 1.50026 0
M  V30 3606 C 338.576 -1.94444 0.147177 0
M  V30 3607 O 337.846 -1.77701 -0.824571 0
M  V30 3608 H 336.426 -0.502727 0.552517 0
M  V30 3609 H 339.088 -0.701606 1.81834 0
M  V30 3610 H 338.184 -2.16871 2.2444 0
M  V30 3611 N 338.485 -1.33259 -0.841409 0
M  V30 3612 C 339.732 -1.24572 -1.5965 0
M  V30 3613 C 340.06 0.189137 -1.93578 0
M  V30 3614 O 339.315 1.14566 -1.5866 0
M  V30 3615 C 339.614 -2.06381 -2.9179 0
M  V30 3616 C 339.28 -3.556 -2.77235 0
M  V30 3617 C 337.942 -3.96282 -2.72973 0
M  V30 3618 C 340.294 -4.50433 -2.62221 0
M  V30 3619 C 337.622 -5.30017 -2.51592 0
M  V30 3620 C 339.974 -5.84327 -2.42374 0
M  V30 3621 C 338.638 -6.24194 -2.36512 0
M  V30 3622 H 337.908 -0.455842 -0.5842 0
M  V30 3623 H 340.555 -1.6482 -0.975016 0
M  V30 3624 H 338.86 -1.58903 -3.5813 0
M  V30 3625 H 340.557 -1.97019 -3.49263 0
M  V30 3626 H 337.147 -3.23298 -2.81384 0
M  V30 3627 H 341.331 -4.19914 -2.64549 0
M  V30 3628 H 336.587 -5.59947 -2.45499 0
M  V30 3629 H 340.761 -6.57414 -2.29739 0
M  V30 3630 H 338.388 -7.27759 -2.19706 0
M  V30 3631 N 339.963 1.05934 -1.16686 0
M  V30 3632 C 341.374 1.60263 -0.957745 0
M  V30 3633 C 341.725 1.89789 0.49745 0
M  V30 3634 O 340.85 1.67401 1.37135 0
M  V30 3635 C 341.445 2.91172 -1.73218 0
M  V30 3636 C 340.004 3.42188 -1.56794 0
M  V30 3637 C 339.151 2.16028 -1.73859 0
M  V30 3638 H 342.102 0.888392 -1.31504 0
M  V30 3639 H 342.123 3.60744 -1.21014 0
M  V30 3640 H 341.635 2.6965 -2.79124 0
M  V30 3641 H 339.736 3.68762 -0.533437 0
M  V30 3642 H 339.849 4.17273 -2.35414 0
M  V30 3643 H 338.213 2.26426 -1.16633 0
M  V30 3644 H 338.996 1.96985 -2.81161 0
M  V30 3645 N 341.441 0.965919 1.2453 0
M  V30 3646 C 342.852 0.665929 1.7442 0
M  V30 3647 C 343.203 -0.818407 1.78316 0
M  V30 3648 O 342.328 -1.64037 1.41141 0
M  V30 3649 C 342.923 1.20211 3.16757 0
M  V30 3650 C 341.482 0.952059 3.6416 0
M  V30 3651 C 340.629 1.33848 2.42858 0
M  V30 3652 H 343.58 1.14144 1.10258 0
M  V30 3653 H 343.601 0.567544 3.76244 0
M  V30 3654 H 343.113 2.28244 3.13889 0
M  V30 3655 H 341.214 -0.112821 3.72429 0
M  V30 3656 H 341.327 1.59645 4.51719 0
M  V30 3657 H 339.691 0.756864 2.43195 0
M  V30 3658 H 340.474 2.42827 2.42673 0
M  V30 3659 N 342.919 -1.39368 0.735821 0
M  V30 3660 C 344.167 -2.00101 0.283562 0
M  V30 3661 C 344.488 -1.5868 -1.13338 0
M  V30 3662 O 343.758 -0.835423 -1.77193 0
M  V30 3663 H 342.338 -0.740024 0.101851 0
M  V30 3664 H 345 -1.70404 0.945962 0
M  V30 3665 H 344.096 -3.10323 0.332604 0
M  V30 3666 N 344.397 -0.483516 -1.5 0
M  V30 3667 C 345.643 0.0672592 -2.02688 0
M  V30 3668 C 345.976 1.38247 -1.36387 0
M  V30 3669 O 345.251 1.88131 -0.493675 0
M  V30 3670 C 345.534 0.238109 -3.59312 0
M  V30 3671 C 345.387 -1.099 -4.36168 0
M  V30 3672 C 346.706 0.986916 -4.28892 0
M  V30 3673 H 343.825 0.0229696 -0.736642 0
M  V30 3674 H 346.467 -0.631527 -1.79197 0
M  V30 3675 H 344.617 0.8333 -3.79458 0
M  V30 3676 H 346.289 -1.73172 -4.27562 0
M  V30 3677 H 344.532 -1.69261 -3.99416 0
M  V30 3678 H 345.203 -0.932954 -5.44059 0
M  V30 3679 H 347.679 0.482302 -4.13295 0
M  V30 3680 H 346.555 1.07527 -5.38265 0
M  V30 3681 H 346.816 2.0265 -3.92919 0
M  V30 3682 N 345.875 1.56104 -0.216619 0
M  V30 3683 C 347.121 1.98466 0.417033 0
M  V30 3684 C 347.454 1.10403 1.59765 0
M  V30 3685 O 346.729 0.160632 1.93836 0
M  V30 3686 C 347.012 3.49769 0.85637 0
M  V30 3687 C 346.865 4.48606 -0.327546 0
M  V30 3688 C 348.184 4.05339 1.7143 0
M  V30 3689 H 345.303 0.721551 0.150112 0
M  V30 3690 H 347.945 1.87423 -0.311864 0
M  V30 3691 H 346.095 3.5931 1.47745 0
M  V30 3692 H 347.767 4.5108 -0.965618 0
M  V30 3693 H 346.01 4.22682 -0.975805 0
M  V30 3694 H 346.681 5.51995 0.0227149 0
M  V30 3695 H 349.157 3.98712 1.19031 0
M  V30 3696 H 348.033 5.11533 1.99061 0
M  V30 3697 H 348.294 3.51918 2.67593 0
M  V30 3698 N 347.353 -0.0568162 1.57498 0
M  V30 3699 C 348.301 -1.08452 2.05769 0
M  V30 3700 C 349.295 -1.39164 0.965903 0
M  V30 3701 O 350.501 -1.38395 1.15095 0
M  V30 3702 H 346.876 -0.367148 0.656282 0
M  V30 3703 H 348.847 -0.651368 2.91204 0
M  V30 3704 C 347.596 -2.38543 2.52968 0
M  V30 3705 H 346.919 -2.15765 3.36579 0
M  V30 3706 H 348.359 -3.08863 2.90481 0
M  V30 3707 C 346.818 -3.05562 1.41893 0
M  V30 3708 O 347.348 -3.94262 0.769442 0
M  V30 3709 N 345.554 -2.6643 1.16032 0
M  V30 3710 H 345.101 -1.94387 1.6903 0
M  V30 3711 H 345.059 -3.11593 0.419219 0
M  V30 3712 N 348.832 -1.54138 -0.328536 0
M  V30 3713 C 350.081 -1.71318 -1.06456 0
M  V30 3714 C 350.394 -0.491109 -1.89334 0
M  V30 3715 O 351.6 -0.54416 -2.65991 0
M  V30 3716 C 350.056 -3.03 -1.94214 0
M  V30 3717 C 349.664 -4.32595 -1.16471 0
M  V30 3718 C 351.408 -3.29544 -2.67583 0
M  V30 3719 C 349.315 -5.55341 -2.03347 0
M  V30 3720 H 348.245 -0.638429 -0.401155 0
M  V30 3721 H 350.896 -1.80633 -0.323106 0
M  V30 3722 H 349.278 -2.87579 -2.72239 0
M  V30 3723 H 350.452 -4.58766 -0.432525 0
M  V30 3724 H 348.767 -4.12777 -0.548063 0
M  V30 3725 H 351.364 -4.18444 -3.3288 0
M  V30 3726 H 351.707 -2.47206 -3.34955 0
M  V30 3727 H 352.24 -3.45809 -1.96623 0
M  V30 3728 H 348.979 -6.40268 -1.40491 0
M  V30 3729 H 348.499 -5.33397 -2.74313 0
M  V30 3730 H 350.178 -5.91557 -2.62049 0
M  V30 3731 N 350.31 0.590341 -1.46126 0
M  V30 3732 C 351.559 1.34499 -1.50309 0
M  V30 3733 C 351.872 1.94977 -0.156021 0
M  V30 3734 O 353.078 2.71395 -0.0756037 0
M  V30 3735 C 351.534 2.43723 -2.64815 0
M  V30 3736 C 351.142 1.89582 -4.0591 0
M  V30 3737 C 352.886 3.20579 -2.78262 0
M  V30 3738 C 350.793 2.9639 -5.11769 0
M  V30 3739 H 349.723 0.505593 -0.559368 0
M  V30 3740 H 352.374 0.630848 -1.72315 0
M  V30 3741 H 350.756 3.17902 -2.36124 0
M  V30 3742 H 351.93 1.21997 -4.44357 0
M  V30 3743 H 350.245 1.25418 -3.97063 0
M  V30 3744 H 352.842 4.00276 -3.54519 0
M  V30 3745 H 353.185 3.72684 -1.85505 0
M  V30 3746 H 353.718 2.53505 -3.06562 0
M  V30 3747 H 350.457 2.49181 -6.06291 0
M  V30 3748 H 349.977 3.62487 -4.77873 0
M  V30 3749 H 351.656 3.60474 -5.37278 0
M  V30 3750 N 351.788 1.33704 0.83433 0
M  V30 3751 C 353.016 1.28467 1.62185 0
M  V30 3752 C 353.431 -0.143526 1.88254 0
M  V30 3753 O 352.788 -1.08709 1.4659 0
M  V30 3754 C 352.839 2.06174 2.96942 0
M  V30 3755 O 352.56 3.43422 2.72016 0
M  V30 3756 C 354.061 2.08201 3.91366 0
M  V30 3757 H 351.281 0.4424 0.504503 0
M  V30 3758 H 353.825 1.76145 1.03891 0
M  V30 3759 H 351.98 1.62167 3.51825 0
M  V30 3760 H 352.394 3.83453 3.57861 0
M  V30 3761 H 353.868 2.67017 4.83121 0
M  V30 3762 H 354.345 1.07343 4.2588 0
M  V30 3763 H 354.951 2.52246 3.42421 0
M  V30 3764 N 353.266 -1.05314 1.17247 0
M  V30 3765 C 354.514 -1.77941 0.958194 0
M  V30 3766 C 354.835 -1.88089 -0.514556 0
M  V30 3767 O 354.105 -1.39676 -1.37359 0
M  V30 3768 H 352.685 -0.659116 0.351533 0
M  V30 3769 H 355.347 -1.27166 1.47699 0
M  V30 3770 H 354.443 -2.79663 1.38546 0
M  V30 3771 N 354.744 -0.972509 -1.24016 0
M  V30 3772 C 355.974 -0.653853 -1.9598 0
M  V30 3773 C 356.382 0.781801 -1.72292 0
M  V30 3774 O 355.725 1.53677 -1.00644 0
M  V30 3775 C 355.787 -0.854608 -3.49194 0
M  V30 3776 C 355.451 -2.27082 -3.96589 0
M  V30 3777 C 356.448 -3.24892 -4.05883 0
M  V30 3778 C 354.133 -2.5998 -4.29786 0
M  V30 3779 C 356.127 -4.53684 -4.47716 0
M  V30 3780 C 353.814 -3.88997 -4.71301 0
M  V30 3781 C 354.812 -4.85661 -4.80232 0
M  V30 3782 O 354.5 -6.12376 -5.20818 0
M  V30 3783 H 354.232 -0.242572 -0.630979 0
M  V30 3784 H 356.786 -1.30431 -1.58673 0
M  V30 3785 H 355.016 -0.146985 -3.86421 0
M  V30 3786 H 356.705 -0.534311 -4.02368 0
M  V30 3787 H 357.471 -3.00805 -3.80449 0
M  V30 3788 H 353.35 -1.85457 -4.22051 0
M  V30 3789 H 356.894 -5.29135 -4.54601 0
M  V30 3790 H 352.791 -4.12882 -4.96184 0
M  V30 3791 H 353.559 -6.16013 -5.38953 0
M  V30 3792 N 356.222 1.38976 -0.743202 0
M  V30 3793 C 357.47 1.99948 -0.29417 0
M  V30 3794 C 357.791 1.59279 1.12495 0
M  V30 3795 O 357.061 0.844808 1.76748 0
M  V30 3796 H 355.641 0.739473 -0.105774 0
M  V30 3797 H 358.303 1.699 -0.954986 0
M  V30 3798 H 357.399 3.10142 -0.349056 0
M  V30 3799 N 357.7 0.491464 1.49741 0
M  V30 3800 C 359.111 0.0413169 1.86654 0
M  V30 3801 C 359.462 -1.36985 1.40462 0
M  V30 3802 O 358.587 -2.01917 0.778354 0
M  V30 3803 C 359.182 0.0682023 3.38731 0
M  V30 3804 C 357.741 -0.32656 3.74981 0
M  V30 3805 C 356.888 0.444888 2.73708 0
M  V30 3806 H 359.839 0.704733 1.42194 0
M  V30 3807 H 359.86 -0.729322 3.73445 0
M  V30 3808 H 359.372 1.09539 3.72321 0
M  V30 3809 H 357.473 -1.35734 3.46997 0
M  V30 3810 H 357.586 -0.013741 4.79098 0
M  V30 3811 H 355.95 -0.104062 2.54487 0
M  V30 3812 H 356.733 1.47197 3.10142 0
M  V30 3813 N 359.178 -1.55987 0.224894 0
M  V30 3814 C 360.406 -2.02784 -0.410665 0
M  V30 3815 C 360.821 -1.10464 -1.53112 0
M  V30 3816 O 360.178 -0.114871 -1.82138 0
M  V30 3817 C 360.229 -3.49087 -0.939165 0
M  V30 3818 O 359.95 -4.37887 0.136614 0
M  V30 3819 C 361.451 -4.11543 -1.64763 0
M  V30 3820 H 358.671 -0.663484 -0.100148 0
M  V30 3821 H 361.215 -2.01614 0.342326 0
M  V30 3822 H 359.37 -3.50861 -1.64242 0
M  V30 3823 H 359.784 -5.23849 -0.261155 0
M  V30 3824 H 361.258 -5.15673 -1.96939 0
M  V30 3825 H 361.735 -3.56736 -2.56195 0
M  V30 3826 H 362.341 -4.13629 -0.989503 0
M  V30 3827 N 360.656 0.0484629 -1.57525 0
M  V30 3828 C 361.619 1.03956 -2.04269 0
M  V30 3829 C 362.619 1.30211 -0.943496 0
M  V30 3830 O 363.809 1.25539 -1.20771 0
M  V30 3831 C 360.941 2.37742 -2.44319 0
M  V30 3832 H 362.134 0.636182 -2.93075 0
M  V30 3833 H 359.687 0.294811 -1.53494 0
M  V30 3834 H 360.422 2.82866 -1.5861 0
M  V30 3835 H 360.207 2.20021 -3.24551 0
M  V30 3836 H 361.697 3.08936 -2.80978 0
M  V30 3837 N 362.134 1.5431 0.320358 0
M  V30 3838 C 363.382 1.72327 1.05583 0
M  V30 3839 C 363.703 0.50149 1.88441 0
M  V30 3840 O 362.973 -0.48448 1.89815 0
M  V30 3841 H 361.553 0.635387 0.3928 0
M  V30 3842 H 364.215 1.91621 0.356019 0
M  V30 3843 H 363.311 2.60426 1.72003 0
M  V30 3844 N 363.613 -0.582584 1.46437 0
M  V30 3845 C 364.576 -1.67366 1.56592 0
M  V30 3846 C 365.576 -1.54575 0.443072 0
M  V30 3847 O 366.766 -1.59191 0.707381 0
M  V30 3848 C 363.898 -3.06791 1.48634 0
M  V30 3849 H 365.091 -1.5972 2.5383 0
M  V30 3850 H 362.644 -0.800432 1.34249 0
M  V30 3851 H 363.379 -3.19993 0.526763 0
M  V30 3852 H 363.164 -3.17484 2.30101 0
M  V30 3853 H 364.654 -3.86218 1.58826 0
M  V30 3854 N 365.091 -1.34144 -0.827227 0
M  V30 3855 C 366.054 -1.25264 -1.91942 0
M  V30 3856 C 367.054 -0.168866 -1.59911 0
M  V30 3857 O 368.244 -0.421198 -1.69031 0
M  V30 3858 C 365.376 -0.932952 -3.27885 0
M  V30 3859 H 366.569 -2.22357 -2.0124 0
M  V30 3860 H 364.122 -1.1837 -1.0207 0
M  V30 3861 H 364.857 0.0349917 -3.24281 0
M  V30 3862 H 364.642 -1.71682 -3.52516 0
M  V30 3863 H 366.132 -0.895874 -4.07877 0
M  V30 3864 N 366.569 1.04691 -1.17803 0
M  V30 3865 C 367.818 1.77176 -0.963931 0
M  V30 3866 C 368.131 1.88888 0.508015 0
M  V30 3867 O 369.337 2.58164 0.840465 0
M  V30 3868 C 367.793 3.18518 -1.67555 0
M  V30 3869 C 367.401 3.14919 -3.18637 0
M  V30 3870 C 369.145 3.95424 -1.54402 0
M  V30 3871 C 367.052 4.51081 -3.82466 0
M  V30 3872 H 365.982 0.664116 -0.357023 0
M  V30 3873 H 368.633 1.17303 -1.4111 0
M  V30 3874 H 367.015 3.78748 -1.15613 0
M  V30 3875 H 368.189 2.64178 -3.77554 0
M  V30 3876 H 366.504 2.51512 -3.31859 0
M  V30 3877 H 369.101 4.96106 -1.99456 0
M  V30 3878 H 369.444 4.13343 -0.495329 0
M  V30 3879 H 369.977 3.41754 -2.0359 0
M  V30 3880 H 366.716 4.38368 -4.87354 0
M  V30 3881 H 366.236 5.01951 -3.28337 0
M  V30 3882 H 367.915 5.2001 -3.84965 0
M  V30 3883 N 368.047 0.979072 1.23499 0
M  V30 3884 C 369.01 0.523244 2.23147 0
M  V30 3885 C 370.01 -0.386406 1.56088 0
M  V30 3886 O 371.2 -0.180283 1.73265 0
M  V30 3887 C 368.332 -0.240739 3.40049 0
M  V30 3888 H 369.525 1.40432 2.64989 0
M  V30 3889 H 367.078 0.764824 1.36309 0
M  V30 3890 H 367.813 -1.13841 3.03662 0
M  V30 3891 H 367.598 0.412207 3.89927 0
M  V30 3892 H 369.088 -0.548297 4.13985 0
M  V30 3893 N 369.525 -1.3858 0.750561 0
M  V30 3894 C 370.457 -2.29057 0.0810714 0
M  V30 3895 C 371.47 -1.47596 -0.686973 0
M  V30 3896 O 372.659 -1.70495 -0.528563 0
M  V30 3897 C 369.759 -3.26475 -0.909247 0
M  V30 3898 C 368.932 -4.36945 -0.199478 0
M  V30 3899 C 367.991 -5.14572 -1.10011 0
M  V30 3900 O 367.017 -5.66321 -0.57177 0
M  V30 3901 N 368.219 -5.27262 -2.42849 0
M  V30 3902 H 370.984 -2.87153 0.858087 0
M  V30 3903 H 368.545 -1.50328 0.60109 0
M  V30 3904 H 370.537 -3.75285 -1.51471 0
M  V30 3905 H 369.107 -2.69298 -1.58736 0
M  V30 3906 H 368.327 -3.8981 0.586664 0
M  V30 3907 H 369.615 -5.07963 0.291783 0
M  V30 3908 H 369.013 -4.86763 -2.88233 0
M  V30 3909 H 367.57 -5.79456 -2.98453 0
M  V30 3910 N 371.003 -0.499398 -1.49478 0
M  V30 3911 C 371.953 0.299103 -2.2603 0
M  V30 3912 C 372.937 0.936934 -1.30807 0
M  V30 3913 O 374.129 0.844798 -1.55538 0
M  V30 3914 C 371.258 1.36391 -3.15044 0
M  V30 3915 C 370.344 0.732398 -4.17728 0
M  V30 3916 N 370.735 -0.164028 -5.05534 0
M  V30 3917 C 369.033 0.993162 -4.34801 0
M  V30 3918 C 369.734 -0.525345 -5.79323 0
M  V30 3919 N 368.71 0.106348 -5.43496 0
M  V30 3920 H 372.512 -0.391003 -2.91287 0
M  V30 3921 H 370.026 -0.31537 -1.59308 0
M  V30 3922 H 372.023 1.94939 -3.68516 0
M  V30 3923 H 370.683 2.05571 -2.51338 0
M  V30 3924 H 371.694 -0.534736 -5.15132 0
M  V30 3925 H 368.371 1.67783 -3.82302 0
M  V30 3926 H 369.761 -1.25862 -6.60006 0
M  V30 3927 N 372.481 1.55866 -0.233164 0
M  V30 3928 C 373.727 1.98897 0.395959 0
M  V30 3929 C 374.06 1.12091 1.58585 0
M  V30 3930 O 373.335 0.181182 1.93654 0
M  V30 3931 C 373.618 3.50658 0.819224 0
M  V30 3932 C 373.471 4.48233 -0.375109 0
M  V30 3933 C 374.79 4.07135 1.67121 0
M  V30 3934 H 371.909 0.723102 0.142451 0
M  V30 3935 H 374.551 1.87082 -0.331725 0
M  V30 3936 H 372.701 3.60857 1.43925 0
M  V30 3937 H 374.373 4.50031 -1.01341 0
M  V30 3938 H 372.616 4.21624 -1.02058 0
M  V30 3939 H 373.287 5.51988 -0.0358328 0
M  V30 3940 H 375.763 3.99952 1.14795 0
M  V30 3941 H 374.639 5.13615 1.93625 0
M  V30 3942 H 374.9 3.54736 2.63846 0
M  V30 3943 N 373.959 -0.0401083 1.57549 0
M  V30 3944 C 375.236 -0.767917 1.79896 0
M  V30 3945 C 375.616 -1.9416 0.82856 0
M  V30 3946 O 374.964 -2.2812 -0.131671 0
M  V30 3947 C 375.174 -1.2113 3.27305 0
M  V30 3948 C 376.522 -1.63175 3.91994 0
M  V30 3949 O 377.546 -1.30616 3.31388 0
M  V30 3950 O 376.405 -2.23565 4.98679 0
M  V30 3951 H 373.499 -0.370441 0.739393 0
M  V30 3952 H 376.045 -0.017737 1.69691 0
M  V30 3953 H 374.817 -0.372937 3.89519 0
M  V30 3954 H 374.44 -2.02183 3.42356 0
M  V30 3955 N 375.437 -1.54477 -0.31217 0
M  V30 3956 C 376.683 -1.73483 -1.0503 0
M  V30 3957 C 377.016 -0.513125 -1.87298 0
M  V30 3958 O 376.291 0.489864 -1.8823 0
M  V30 3959 C 376.574 -3.01723 -1.96558 0
M  V30 3960 C 376.427 -4.3417 -1.17545 0
M  V30 3961 C 377.746 -3.25772 -2.95907 0
M  V30 3962 H 374.865 -0.631222 -0.380432 0
M  V30 3963 H 377.507 -1.87184 -0.325932 0
M  V30 3964 H 375.657 -2.90174 -2.58324 0
M  V30 3965 H 377.329 -4.5762 -0.581513 0
M  V30 3966 H 375.572 -4.31159 -0.477925 0
M  V30 3967 H 376.243 -5.20143 -1.84811 0
M  V30 3968 H 378.719 -3.36857 -2.44267 0
M  V30 3969 H 377.595 -4.16838 -3.57123 0
M  V30 3970 H 377.856 -2.43537 -3.68974 0
M  V30 3971 N 376.915 0.57481 -1.46744 0
M  V30 3972 C 378.192 1.3352 -1.4294 0
M  V30 3973 C 378.572 2.10775 -0.117009 0
M  V30 3974 O 377.92 2.09966 0.901474 0
M  V30 3975 C 378.13 2.25456 -2.66403 0
M  V30 3976 C 379.478 2.87035 -3.12883 0
M  V30 3977 O 380.502 2.35766 -2.67007 0
M  V30 3978 O 379.361 3.80179 -3.92589 0
M  V30 3979 H 376.455 0.600318 -0.568812 0
M  V30 3980 H 379.001 0.595171 -1.58921 0
M  V30 3981 H 377.773 1.67851 -3.53471 0
M  V30 3982 H 377.396 3.06785 -2.52921 0
M  V30 3983 N 378.394 1.34581 0.820102 0
M  V30 3984 C 379.341 1.2639 1.93117 0
M  V30 3985 C 380.311 0.138554 1.65521 0
M  V30 3986 O 381.496 0.320004 1.88097 0
M  V30 3987 C 378.636 1.02812 3.29429 0
M  V30 3988 C 377.749 2.24146 3.693 0
M  V30 3989 C 376.884 1.93829 4.94574 0
M  V30 3990 C 375.923 3.1129 5.27034 0
M  V30 3991 N 375.06 2.80838 6.43486 0
M  V30 3992 H 379.9 2.21408 1.99455 0
M  V30 3993 H 377.437 1.10077 0.975784 0
M  V30 3994 H 379.395 0.871788 4.0799 0
M  V30 3995 H 378.025 0.114612 3.22596 0
M  V30 3996 H 377.077 2.50691 2.86109 0
M  V30 3997 H 378.389 3.11899 3.89257 0
M  V30 3998 H 377.543 1.74948 5.80929 0
M  V30 3999 H 376.282 1.03341 4.76626 0
M  V30 4000 H 375.287 3.30764 4.39175 0
M  V30 4001 H 376.512 4.02561 5.4692 0
M  V30 4002 H 374.458 1.92929 6.26988 0
M  V30 4003 H 374.375 3.62123 6.63629 0
M  V30 4004 H 375.643 2.65467 7.32903 0
M  V30 4005 N 379.872 -1.04064 1.18357 0
M  V30 4006 C 381.118 -1.77528 0.980397 0
M  V30 4007 C 381.451 -1.87948 -0.48879 0
M  V30 4008 O 380.726 -1.3876 -1.36293 0
M  V30 4009 C 381.009 -3.20797 1.63588 0
M  V30 4010 C 380.862 -3.1832 3.17793 0
M  V30 4011 C 382.181 -4.18911 1.34914 0
M  V30 4012 H 379.3 -0.644443 0.357578 0
M  V30 4013 H 381.942 -1.2156 1.46024 0
M  V30 4014 H 380.092 -3.68586 1.22788 0
M  V30 4015 H 381.764 -2.78521 3.67728 0
M  V30 4016 H 380.007 -2.56351 3.49952 0
M  V30 4017 H 380.678 -4.19489 3.58794 0
M  V30 4018 H 383.154 -3.7967 1.70265 0
M  V30 4019 H 382.03 -5.17374 1.83346 0
M  V30 4020 H 382.291 -4.41262 0.272027 0
M  V30 4021 N 381.35 -0.985608 -1.22978 0
M  V30 4022 C 382.313 -0.535071 -2.22867 0
M  V30 4023 C 383.313 0.378123 -1.56291 0
M  V30 4024 O 384.503 0.171092 -1.73358 0
M  V30 4025 C 381.635 0.222702 -3.40172 0
M  V30 4026 H 382.828 -1.41835 -2.6424 0
M  V30 4027 H 380.381 -0.772042 -1.35901 0
M  V30 4028 H 381.116 1.12229 -3.04262 0
M  V30 4029 H 380.901 -0.43288 -3.89703 0
M  V30 4030 H 382.391 0.526335 -4.1427 0
M  V30 4031 N 382.828 1.3818 -0.7579 0
M  V30 4032 C 384.075 2.00019 -0.315985 0
M  V30 4033 C 384.403 1.60163 1.10355 0
M  V30 4034 O 383.658 0.83264 1.77103 0
M  V30 4035 C 383.957 3.55252 -0.391218 0
M  V30 4036 C 383.623 4.14834 -1.76702 0
M  V30 4037 C 382.285 4.30821 -2.14353 0
M  V30 4038 C 384.637 4.47658 -2.66931 0
M  V30 4039 C 381.965 4.76928 -3.41696 0
M  V30 4040 C 384.317 4.95184 -3.93669 0
M  V30 4041 C 382.981 5.09377 -4.31383 0
M  V30 4042 H 382.251 0.731923 -0.115627 0
M  V30 4043 H 384.898 1.65161 -0.969223 0
M  V30 4044 H 383.203 3.90273 0.34558 0
M  V30 4045 H 384.9 4.00988 -0.030805 0
M  V30 4046 H 381.49 4.02808 -1.46435 0
M  V30 4047 H 385.674 4.34904 -2.39106 0
M  V30 4048 H 380.93 4.86103 -3.70829 0
M  V30 4049 H 385.104 5.19551 -4.63724 0
M  V30 4050 H 382.731 5.44865 -5.30119 0
M  V30 4051 N 384.306 0.507319 1.49211 0
M  V30 4052 C 385.534 -0.0315749 2.06876 0
M  V30 4053 C 385.949 -1.30241 1.36685 0
M  V30 4054 O 385.306 -1.76937 0.447152 0
M  V30 4055 C 385.357 -0.282627 3.60393 0
M  V30 4056 O 385.078 0.937835 4.27944 0
M  V30 4057 C 386.579 -0.864453 4.3479 0
M  V30 4058 H 383.799 0.0233048 0.670595 0
M  V30 4059 H 386.343 0.706484 1.91909 0
M  V30 4060 H 384.498 -0.97068 3.75042 0
M  V30 4061 H 384.912 0.704567 5.19746 0
M  V30 4062 H 386.386 -0.989664 5.43056 0
M  V30 4063 H 386.863 -1.86382 3.97692 0
M  V30 4064 H 387.469 -0.213672 4.24763 0
M  V30 4065 N 385.784 -1.5574 0.241426 0
M  V30 4066 C 387.032 -1.98417 -0.384075 0
M  V30 4067 C 387.353 -1.13078 -1.58866 0
M  V30 4068 O 386.623 -0.212312 -1.94746 0
M  V30 4069 H 385.203 -0.732813 -0.144894 0
M  V30 4070 H 387.865 -1.9193 0.338943 0
M  V30 4071 H 386.961 -3.04219 -0.696939 0
M  V30 4072 N 387.262 0.0317525 -1.57568 0
M  V30 4073 C 388.487 0.738664 -1.938 0
M  V30 4074 C 388.912 1.68242 -0.841208 0
M  V30 4075 O 388.27 1.80157 0.203267 0
M  V30 4076 C 388.318 1.47417 -3.29091 0
M  V30 4077 O 387.422 2.5872 -3.2115 0
M  V30 4078 H 386.763 0.198856 -0.633524 0
M  V30 4079 H 389.293 -0.0119713 -2.04596 0
M  V30 4080 H 389.303 1.84468 -3.63917 0
M  V30 4081 H 387.978 0.781988 -4.08482 0
M  V30 4082 H 386.555 2.24231 -2.97951 0
M  V30 4083 N 388.74 1.54641 0.303973 0
M  V30 4084 C 389.968 1.77768 1.05858 0
M  V30 4085 C 390.383 0.535722 1.8104 0
M  V30 4086 O 389.74 -0.494337 1.75677 0
M  V30 4087 C 389.791 2.9834 2.04146 0
M  V30 4088 O 389.512 4.17736 1.32015 0
M  V30 4089 C 391.013 3.33832 2.91669 0
M  V30 4090 H 388.233 0.592961 0.314067 0
M  V30 4091 H 390.777 2.01583 0.344149 0
M  V30 4092 H 388.932 2.76742 2.71096 0
M  V30 4093 H 389.346 4.85693 1.97998 0
M  V30 4094 H 390.82 4.21448 3.56491 0
M  V30 4095 H 391.297 2.51857 3.59812 0
M  V30 4096 H 391.903 3.57579 2.30254 0
M  V30 4097 N 390.218 -0.567019 1.47046 0
M  V30 4098 C 391.128 -1.70247 1.6141 0
M  V30 4099 C 392.144 -1.66746 0.497157 0
M  V30 4100 O 393.32 -1.86371 0.763389 0
M  V30 4101 C 390.385 -3.06756 1.61561 0
M  V30 4102 C 389.446 -3.21399 2.84607 0
M  V30 4103 C 388.679 -4.51396 2.84741 0
M  V30 4104 O 388.902 -5.36255 1.94388 0
M  V30 4105 O 387.836 -4.69621 3.76483 0
M  V30 4106 H 391.662 -1.61073 2.57467 0
M  V30 4107 H 389.247 -0.735894 1.30019 0
M  V30 4108 H 391.129 -3.8801 1.64396 0
M  V30 4109 H 389.804 -3.16333 0.686684 0
M  V30 4110 H 388.711 -2.39579 2.8732 0
M  V30 4111 H 390.044 -3.16721 3.76761 0
M  V30 4112 N 391.696 -1.35014 -0.812953 0
M  V30 4113 C 392.942 -1.2812 -1.57204 0
M  V30 4114 C 393.275 0.145869 -1.93651 0
M  V30 4115 O 392.55 1.0937 -1.60836 0
M  V30 4116 C 392.833 -2.18162 -2.86492 0
M  V30 4117 C 392.686 -3.69454 -2.56561 0
M  V30 4118 C 394.005 -2.07439 -3.88145 0
M  V30 4119 H 391.124 -0.466746 -0.570366 0
M  V30 4120 H 393.766 -1.65357 -0.935783 0
M  V30 4121 H 391.916 -1.86535 -3.40789 0
M  V30 4122 H 393.588 -4.11493 -2.08497 0
M  V30 4123 H 391.831 -3.9005 -1.89851 0
M  V30 4124 H 392.502 -4.27835 -3.48799 0
M  V30 4125 H 394.978 -2.35228 -3.4323 0
M  V30 4126 H 393.854 -2.7265 -4.76396 0
M  V30 4127 H 394.115 -1.05439 -4.29343 0
M  V30 4128 N 393.175 1.03435 -1.18907 0
M  V30 4129 C 394.423 1.76394 -0.986382 0
M  V30 4130 C 394.744 1.88883 0.484567 0
M  V30 4131 O 394.014 1.41843 1.3512 0
M  V30 4132 H 392.594 0.65344 -0.361975 0
M  V30 4133 H 395.256 1.248 -1.49703 0
M  V30 4134 H 394.352 2.77424 -1.42978 0
M  V30 4135 N 394.653 0.992116 1.22453 0
M  V30 4136 C 395.603 0.512969 2.22155 0
M  V30 4137 C 396.587 -0.418416 1.55364 0
M  V30 4138 O 397.779 -0.245363 1.75291 0
M  V30 4139 C 394.908 -0.171822 3.4287 0
M  V30 4140 C 393.994 0.779822 4.16869 0
M  V30 4141 N 394.385 1.92734 4.6764 0
M  V30 4142 C 392.683 0.59554 4.42006 0
M  V30 4143 C 393.384 2.52458 5.24061 0
M  V30 4144 N 392.36 1.80735 5.12675 0
M  V30 4145 H 396.162 1.38817 2.5905 0
M  V30 4146 H 393.676 0.854277 1.38115 0
M  V30 4147 H 395.673 -0.532469 4.13486 0
M  V30 4148 H 394.333 -1.04317 3.07487 0
M  V30 4149 H 395.344 2.30816 4.63621 0
M  V30 4150 H 392.021 -0.229805 4.16867 0
M  V30 4151 H 393.411 3.49433 5.73887 0
M  V30 4152 N 396.131 -1.37776 0.765217 0
M  V30 4153 C 397.061 -2.32945 0.160953 0
M  V30 4154 C 398.042 -1.55454 -0.690516 0
M  V30 4155 O 399.227 -1.83721 -0.629318 0
M  V30 4156 C 396.357 -3.39669 -0.724031 0
M  V30 4157 C 395.311 -4.27992 0.0256173 0
M  V30 4158 C 394.637 -5.25673 -0.978383 0
M  V30 4159 C 395.937 -5.08309 1.20082 0
M  V30 4160 H 397.631 -2.83728 0.955969 0
M  V30 4161 H 395.177 -1.36416 0.461149 0
M  V30 4162 H 397.13 -4.05219 -1.15652 0
M  V30 4163 H 395.854 -2.87396 -1.5515 0
M  V30 4164 H 394.513 -3.63964 0.438812 0
M  V30 4165 H 394.161 -4.69682 -1.80022 0
M  V30 4166 H 393.861 -5.85625 -0.481378 0
M  V30 4167 H 395.385 -5.94098 -1.40995 0
M  V30 4168 H 396.799 -5.67034 0.845307 0
M  V30 4169 H 395.196 -5.77554 1.62947 0
M  V30 4170 H 396.266 -4.41365 2.00811 0
M  V30 4171 N 397.609 -0.515225 -1.4894 0
M  V30 4172 C 398.858 0.0261361 -2.01683 0
M  V30 4173 C 399.171 1.36719 -1.39883 0
M  V30 4174 O 400.377 1.99606 -1.84037 0
M  V30 4175 C 398.833 0.0970111 -3.59769 0
M  V30 4176 C 398.441 -1.23825 -4.30548 0
M  V30 4177 C 400.185 0.587981 -4.20408 0
M  V30 4178 C 398.092 -1.12877 -5.80528 0
M  V30 4179 H 397.022 0.0135398 -0.753878 0
M  V30 4180 H 399.673 -0.656787 -1.71343 0
M  V30 4181 H 398.055 0.844694 -3.86886 0
M  V30 4182 H 399.229 -2.00034 -4.15118 0
M  V30 4183 H 397.544 -1.66379 -3.81716 0
M  V30 4184 H 400.141 0.68763 -5.3026 0
M  V30 4185 H 400.484 1.59026 -3.84729 0
M  V30 4186 H 401.017 -0.103582 -3.97665 0
M  V30 4187 H 397.756 -2.10575 -6.20756 0
M  V30 4188 H 397.276 -0.407799 -5.98412 0
M  V30 4189 H 398.955 -0.813332 -6.41868 0
M  V30 4190 N 399.087 1.5561 -0.249682 0
M  V30 4191 C 400.019 2.18834 0.681496 0
M  V30 4192 C 401.032 1.16546 1.1367 0
M  V30 4193 O 402.221 1.43397 1.06299 0
M  V30 4194 C 399.321 2.77992 1.9384 0
M  V30 4195 C 398.494 4.05725 1.63419 0
M  V30 4196 C 397.553 4.49174 2.74096 0
M  V30 4197 O 396.579 5.15492 2.41364 0
M  V30 4198 N 397.781 4.17191 4.03649 0
M  V30 4199 H 400.546 2.9937 0.140514 0
M  V30 4200 H 398.107 1.6175 -0.0697541 0
M  V30 4201 H 400.099 3.04015 2.67127 0
M  V30 4202 H 398.669 2.01596 2.38909 0
M  V30 4203 H 397.889 3.87261 0.736358 0
M  V30 4204 H 399.177 4.88999 1.40562 0
M  V30 4205 H 398.575 3.63955 4.33074 0
M  V30 4206 H 397.132 4.48043 4.73393 0
M  V30 4207 N 400.565 -0.0233959 1.57583 0
M  V30 4208 C 401.512 -1.02224 2.06927 0
M  V30 4209 C 402.482 -1.35575 0.959617 0
M  V30 4210 O 403.667 -1.45815 1.23055 0
M  V30 4211 C 400.807 -2.31636 2.5581 0
M  V30 4212 C 399.92 -2.04394 3.80588 0
M  V30 4213 C 399.055 -3.27717 4.18061 0
M  V30 4214 C 398.094 -2.96056 5.3574 0
M  V30 4215 N 397.231 -4.11847 5.68618 0
M  V30 4216 H 402.071 -0.594504 2.9201 0
M  V30 4217 H 399.608 -0.281921 1.44373 0
M  V30 4218 H 401.566 -3.07258 2.82221 0
M  V30 4219 H 400.196 -2.72122 1.73636 0
M  V30 4220 H 399.248 -1.19244 3.61227 0
M  V30 4221 H 400.56 -1.77042 4.66323 0
M  V30 4222 H 399.714 -4.11702 4.4563 0
M  V30 4223 H 398.453 -3.58188 3.30988 0
M  V30 4224 H 397.458 -2.10474 5.07918 0
M  V30 4225 H 398.683 -2.66857 6.24471 0
M  V30 4226 H 396.629 -4.42258 4.84504 0
M  V30 4227 H 396.546 -3.87938 6.48876 0
M  V30 4228 H 397.814 -4.96689 6.00766 0
M  V30 4229 N 402.043 -1.548 -0.295768 0
M  V30 4230 C 403.006 -1.85363 -1.34808 0
M  V30 4231 C 404.006 -0.726817 -1.43436 0
M  V30 4232 O 405.196 -0.995088 -1.42981 0
M  V30 4233 C 402.328 -2.03859 -2.73229 0
M  V30 4234 H 403.521 -2.7941 -1.08949 0
M  V30 4235 H 401.074 -1.46942 -0.532702 0
M  V30 4236 H 401.809 -1.12117 -3.04303 0
M  V30 4237 H 401.594 -2.8588 -2.68356 0
M  V30 4238 H 403.084 -2.28857 -3.49305 0
M  V30 4239 N 403.521 0.559213 -1.47345 0
M  V30 4240 C 404.484 1.64854 -1.59235 0
M  V30 4241 C 405.484 1.53851 -0.467607 0
M  V30 4242 O 406.674 1.58045 -0.732617 0
M  V30 4243 C 403.806 3.04388 -1.53496 0
M  V30 4244 H 404.999 1.55662 -2.56339 0
M  V30 4245 H 402.552 0.778973 -1.35505 0
M  V30 4246 H 403.287 3.19115 -0.577604 0
M  V30 4247 H 403.072 3.13783 -2.35123 0
M  V30 4248 H 404.562 3.83642 -1.6495 0
M  V30 4249 N 404.999 1.35443 0.805782 0
M  V30 4250 C 406.247 1.28507 1.55982 0
M  V30 4251 C 406.568 -0.140046 1.94496 0
M  V30 4252 O 405.838 -1.07666 1.63661 0
M  V30 4253 H 404.418 0.472676 0.578434 0
M  V30 4254 H 407.08 1.69555 0.961098 0
M  V30 4255 H 406.176 1.90148 2.47488 0
M  V30 4256 N 406.477 -1.02803 1.19454 0
M  V30 4257 C 407.754 -1.73299 0.907013 0
M  V30 4258 C 408.134 -2.02772 -0.587086 0
M  V30 4259 O 407.482 -1.68304 -1.54551 0
M  V30 4260 C 407.692 -3.00912 1.76785 0
M  V30 4261 C 409.04 -3.74403 2.00268 0
M  V30 4262 O 410.064 -3.10841 1.73943 0
M  V30 4263 O 408.923 -4.88675 2.4466 0
M  V30 4264 H 406.017 -0.754727 0.338106 0
M  V30 4265 H 408.563 -1.08754 1.30271 0
M  V30 4266 H 407.335 -2.75366 2.7801 0
M  V30 4267 H 406.958 -3.73197 1.37149 0
M  V30 4268 N 407.956 -0.998596 -1.21925 0
M  V30 4269 C 409.181 -0.696015 -1.95372 0
M  V30 4270 C 409.606 0.733826 -1.73195 0
M  V30 4271 O 408.964 1.50242 -1.01474 0
M  V30 4272 C 409.012 -1.01466 -3.4603 0
M  V30 4273 O 408.116 -0.116415 -4.12236 0
M  V30 4274 H 407.457 -0.259938 -0.611006 0
M  V30 4275 H 409.987 -1.33711 -1.54863 0
M  V30 4276 H 409.997 -0.958855 -3.96573 0
M  V30 4277 H 408.672 -2.05653 -3.61497 0
M  V30 4278 H 407.249 -0.228193 -3.72201 0
M  V30 4279 N 409.434 1.37368 -0.772513 0
M  V30 4280 C 410.382 2.32134 -0.147111 0
M  V30 4281 C 411.376 1.54972 0.684106 0
M  V30 4282 O 412.582 1.70363 0.581083 0
M  V30 4283 H 408.957 0.751449 -0.028786 0
M  V30 4284 H 410.928 2.82464 -0.962112 0
M  V30 4285 C 409.677 3.40226 0.71703 0
M  V30 4286 H 409 3.99706 0.0867951 0
M  V30 4287 H 410.44 4.08897 1.12159 0
M  V30 4288 C 408.899 2.80372 1.86797 0
M  V30 4289 O 409.429 2.71183 2.96349 0
M  V30 4290 N 407.635 2.37904 1.66883 0
M  V30 4291 H 407.182 2.45578 0.777759 0
M  V30 4292 H 407.14 1.98202 2.44056 0
M  V30 4293 N 410.912 0.523116 1.48665 0
M  V30 4294 C 411.842 -0.23231 2.32342 0
M  V30 4295 C 412.823 -0.941637 1.41659 0
M  V30 4296 O 414.008 -0.928751 1.70552 0
M  V30 4297 C 411.138 -1.28387 3.22698 0
M  V30 4298 C 410.092 -0.693098 4.22351 0
M  V30 4299 C 409.418 -1.8468 5.01794 0
M  V30 4300 C 410.718 0.33063 5.21252 0
M  V30 4301 H 412.412 0.466192 2.95748 0
M  V30 4302 H 409.958 0.225643 1.42221 0
M  V30 4303 H 411.911 -1.82024 3.80059 0
M  V30 4304 H 410.635 -2.01186 2.57278 0
M  V30 4305 H 409.294 -0.178299 3.66166 0
M  V30 4306 H 408.942 -2.56301 4.32804 0
M  V30 4307 H 408.642 -1.45747 5.69238 0
M  V30 4308 H 410.166 -2.38709 5.62006 0
M  V30 4309 H 411.58 -0.118407 5.73178 0
M  V30 4310 H 409.977 0.636974 5.9671 0
M  V30 4311 H 411.047 1.23883 4.68808 0
M  V30 4312 N 412.39 -1.55475 0.257931 0
M  V30 4313 C 413.337 -2.21837 -0.636939 0
M  V30 4314 C 414.307 -1.18596 -1.16294 0
M  V30 4315 O 415.492 -1.47081 -1.21539 0
M  V30 4316 C 412.632 -2.9301 -1.82317 0
M  V30 4317 C 411.745 -4.10931 -1.33265 0
M  V30 4318 C 410.88 -4.69791 -2.47931 0
M  V30 4319 C 409.919 -5.7994 -1.95796 0
M  V30 4320 N 409.056 -6.32935 -3.0387 0
M  V30 4321 H 413.896 -2.9793 -0.0643591 0
M  V30 4322 H 411.433 -1.47086 -0.0200031 0
M  V30 4323 H 413.391 -3.3248 -2.52018 0
M  V30 4324 H 412.021 -2.1937 -2.36805 0
M  V30 4325 H 411.073 -3.76699 -0.52931 0
M  V30 4326 H 412.385 -4.90417 -0.910654 0
M  V30 4327 H 411.539 -5.11892 -3.25656 0
M  V30 4328 H 410.278 -3.89545 -2.93438 0
M  V30 4329 H 409.283 -5.37305 -1.16546 0
M  V30 4330 H 410.508 -6.62043 -1.51246 0
M  V30 4331 H 408.454 -5.55591 -3.48791 0
M  V30 4332 H 408.371 -7.07645 -2.66035 0
M  V30 4333 H 409.639 -6.79695 -3.81621 0
M  V30 4334 N 413.868 0.0150385 -1.57593 0
M  V30 4335 C 415.284 0.370907 -1.5523 0
M  V30 4336 C 415.484 1.75735 -0.985882 0
M  V30 4337 O 414.54 2.44944 -0.613077 0
M  V30 4338 C 415.853 0.259908 -2.99575 0
M  V30 4339 C 417.401 0.335959 -3.11192 0
M  V30 4340 C 417.876 0.254253 -4.57294 0
M  V30 4341 N 419.367 0.312618 -4.62144 0
M  V30 4342 C 420.102 0.272505 -5.72752 0
M  V30 4343 N 419.598 0.183864 -6.92556 0
M  V30 4344 N 421.391 0.323267 -5.6117 0
M  V30 4345 H 413.542 -0.892104 -1.92757 0
M  V30 4346 H 415.805 -0.340563 -0.884715 0
M  V30 4347 H 415.511 -0.693403 -3.44797 0
M  V30 4348 H 415.385 1.048 -3.62349 0
M  V30 4349 H 417.772 1.27971 -2.65909 0
M  V30 4350 H 417.853 -0.481739 -2.51223 0
M  V30 4351 H 417.497 -0.685887 -5.03247 0
M  V30 4352 H 417.427 1.09024 -5.15191 0
M  V30 4353 H 419.918 0.38307 -3.75953 0
M  V30 4354 H 420.231 0.15874 -7.72637 0
M  V30 4355 H 418.576 0.149708 -6.94839 0
M  V30 4356 H 421.767 0.390607 -4.66467 0
M  V30 4357 H 421.94 0.288539 -6.47357 0
M  V30 4358 N 415.346 1.54954 0.287554 0
M  V30 4359 C 416.592 1.75132 1.02257 0
M  V30 4360 C 416.925 0.542858 1.86458 0
M  V30 4361 O 416.2 -0.459856 1.88986 0
M  V30 4362 C 416.483 3.04812 1.91733 0
M  V30 4363 C 416.336 4.35985 1.10622 0
M  V30 4364 C 417.655 3.30438 2.90687 0
M  V30 4365 H 414.774 0.637194 0.370341 0
M  V30 4366 H 417.416 1.87678 0.296111 0
M  V30 4367 H 415.566 2.94247 2.53675 0
M  V30 4368 H 417.238 4.58487 0.508636 0
M  V30 4369 H 415.481 4.31865 0.409271 0
M  V30 4370 H 416.152 5.23017 1.76513 0
M  V30 4371 H 418.628 3.40701 2.38877 0
M  V30 4372 H 417.504 4.22467 3.50447 0
M  V30 4373 H 417.765 2.49377 3.65053 0
M  V30 4374 N 416.824 -0.551391 1.4764 0
M  V30 4375 C 418.052 -1.33357 1.58189 0
M  V30 4376 C 418.467 -1.87342 0.234199 0
M  V30 4377 O 417.824 -1.65301 -0.77343 0
M  V30 4378 C 417.875 -2.49942 2.61173 0
M  V30 4379 O 417.596 -1.98187 3.90709 0
M  V30 4380 C 419.097 -3.42072 2.8196 0
M  V30 4381 H 416.317 -0.40631 0.533998 0
M  V30 4382 H 418.861 -0.667367 1.93304 0
M  V30 4383 H 417.016 -3.12489 2.28975 0
M  V30 4384 H 417.43 -2.74342 4.47031 0
M  V30 4385 H 418.904 -4.20278 3.57869 0
M  V30 4386 H 419.381 -3.95978 1.89995 0
M  V30 4387 H 419.987 -2.85336 3.15378 0
M  V30 4388 N 418.302 -1.35869 -0.798587 0
M  V30 4389 C 419.232 -1.32118 -1.92528 0
M  V30 4390 C 420.213 -0.194209 -1.68988 0
M  V30 4391 O 421.398 -0.390426 -1.90235 0
M  V30 4392 C 418.528 -1.10047 -3.29404 0
M  V30 4393 C 417.482 -2.19471 -3.67446 0
M  V30 4394 C 416.808 -1.82555 -5.02571 0
M  V30 4395 C 418.108 -3.61495 -3.76987 0
M  V30 4396 H 419.802 -2.26394 -1.95924 0
M  V30 4397 H 417.348 -1.08981 -0.94123 0
M  V30 4398 H 419.301 -1.06061 -4.07835 0
M  V30 4399 H 418.025 -0.122195 -3.26371 0
M  V30 4400 H 416.684 -2.22568 -2.91306 0
M  V30 4401 H 416.332 -0.833249 -4.9605 0
M  V30 4402 H 416.032 -2.5581 -5.28995 0
M  V30 4403 H 417.556 -1.80108 -5.83432 0
M  V30 4404 H 418.97 -3.60676 -4.4563 0
M  V30 4405 H 417.367 -4.33577 -4.14887 0
M  V30 4406 H 418.437 -3.97065 -2.78329 0
M  V30 4407 N 419.78 1.02168 -1.19998 0
M  V30 4408 C 420.69 2.14069 -0.959774 0
M  V30 4409 C 421.706 1.73804 0.082655 0
M  V30 4410 O 422.882 2.01133 -0.103633 0
M  V30 4411 C 419.947 3.42936 -0.509459 0
M  V30 4412 C 419.008 3.97474 -1.62213 0
M  V30 4413 C 418.241 5.2019 -1.19321 0
M  V30 4414 O 418.464 5.70369 -0.0597726 0
M  V30 4415 O 417.398 5.67749 -1.99863 0
M  V30 4416 H 421.224 2.37199 -1.89658 0
M  V30 4417 H 418.809 1.12469 -0.983411 0
M  V30 4418 H 420.691 4.20551 -0.267322 0
M  V30 4419 H 419.366 3.21234 0.398821 0
M  V30 4420 H 418.273 3.21161 -1.9185 0
M  V30 4421 H 419.606 4.23555 -2.50723 0
M  V30 4422 N 421.258 1.00505 1.21394 0
M  V30 4423 C 422.188 0.585684 2.26035 0
M  V30 4424 C 423.169 -0.393525 1.65485 0
M  V30 4425 O 424.354 -0.281497 1.92149 0
M  V30 4426 C 421.484 -0.0884283 3.47187 0
M  V30 4427 C 420.438 0.810567 4.20254 0
M  V30 4428 C 419.764 0.00286382 5.347 0
M  V30 4429 C 421.064 2.1132 4.77641 0
M  V30 4430 H 422.758 1.46039 2.61368 0
M  V30 4431 H 420.304 0.703648 1.25638 0
M  V30 4432 H 422.257 -0.393286 4.19561 0
M  V30 4433 H 420.981 -0.997766 3.10986 0
M  V30 4434 H 419.64 1.09925 3.49731 0
M  V30 4435 H 419.288 -0.907765 4.94741 0
M  V30 4436 H 418.988 0.601444 5.84514 0
M  V30 4437 H 420.512 -0.295808 6.09883 0
M  V30 4438 H 421.926 1.87148 5.41893 0
M  V30 4439 H 420.323 2.66164 5.37845 0
M  V30 4440 H 421.393 2.78393 3.9702 0
M  V30 4441 N 422.737 -1.36956 0.779787 0
M  V30 4442 C 423.985 -1.99097 0.347079 0
M  V30 4443 C 424.306 -1.62206 -1.08232 0
M  V30 4444 O 423.576 -0.891373 -1.74446 0
M  V30 4445 H 422.156 -0.736409 0.125342 0
M  V30 4446 H 424.818 -1.67308 0.999696 0
M  V30 4447 H 423.914 -3.09107 0.431162 0
M  V30 4448 N 424.215 -0.530993 -1.48385 0
M  V30 4449 C 425.463 0.00273189 -2.021 0
M  V30 4450 C 425.784 1.34672 -1.41027 0
M  V30 4451 O 425.054 1.8724 -0.576012 0
M  V30 4452 H 423.634 0.00399774 -0.746989 0
M  V30 4453 H 426.296 -0.695054 -1.82085 0
M  V30 4454 H 425.392 0.11031 -3.11905 0
M  V30 4455 N 425.693 1.55336 -0.266172 0
M  V30 4456 C 426.64 2.22172 0.625165 0
M  V30 4457 C 427.61 1.19211 1.15663 0
M  V30 4458 O 428.795 1.47723 1.20758 0
M  V30 4459 C 425.935 2.93972 1.8076 0
M  V30 4460 C 425.048 4.11632 1.31084 0
M  V30 4461 C 424.183 4.71099 2.45436 0
M  V30 4462 C 423.222 5.8097 1.92718 0
M  V30 4463 N 422.359 6.34538 3.00509 0
M  V30 4464 H 427.199 2.9796 0.0485582 0
M  V30 4465 H 424.736 1.47095 0.0122024 0
M  V30 4466 H 426.694 3.33811 2.50251 0
M  V30 4467 H 425.324 2.20623 2.35638 0
M  V30 4468 H 424.376 3.76975 0.509326 0
M  V30 4469 H 425.688 4.90893 0.884633 0
M  V30 4470 H 424.842 5.13612 3.22936 0
M  V30 4471 H 423.581 3.91096 2.91368 0
M  V30 4472 H 422.586 5.37916 1.13695 0
M  V30 4473 H 423.811 6.62836 1.47733 0
M  V30 4474 H 421.757 5.57433 3.45839 0
M  V30 4475 H 421.674 7.09046 2.62279 0
M  V30 4476 H 422.942 6.81709 3.78011 0
M  V30 4477 N 427.171 -0.0066808 1.57599 0
M  V30 4478 C 428.396 -0.707738 1.94951 0
M  V30 4479 C 428.821 -1.66882 0.867868 0
M  V30 4480 O 428.179 -1.80457 -0.17458 0
M  V30 4481 C 428.227 -1.42162 3.31394 0
M  V30 4482 O 427.331 -2.53578 3.25226 0
M  V30 4483 H 426.672 -0.188752 0.636607 0
M  V30 4484 H 429.202 0.0445193 2.04552 0
M  V30 4485 H 429.212 -1.78655 3.66806 0
M  V30 4486 H 427.887 -0.716903 4.09675 0
M  V30 4487 H 426.464 -2.19463 3.01481 0
M  V30 4488 N 428.649 -1.55105 -0.279332 0
M  V30 4489 C 430.06 -1.66186 -0.850832 0
M  V30 4490 C 430.411 -0.584707 -1.87285 0
M  V30 4491 O 429.536 0.274919 -2.14647 0
M  V30 4492 C 430.131 -3.01264 -1.55001 0
M  V30 4493 C 428.69 -3.14394 -2.06963 0
M  V30 4494 C 427.837 -2.61959 -0.909536 0
M  V30 4495 H 430.788 -1.58602 -0.0558235 0
M  V30 4496 H 430.809 -2.93899 -2.41669 0
M  V30 4497 H 430.321 -3.7964 -0.805931 0
M  V30 4498 H 428.422 -2.4078 -2.84352 0
M  V30 4499 H 428.535 -4.20867 -2.28928 0
M  V30 4500 H 426.899 -2.18957 -1.30116 0
M  V30 4501 H 427.682 -3.42833 -0.179062 0
M  V30 4502 N 430.127 0.543554 -1.4793 0
M  V30 4503 C 431.352 1.32995 -1.59145 0
M  V30 4504 C 431.777 1.86472 -0.246956 0
M  V30 4505 O 431.135 1.63696 0.779324 0
M  V30 4506 C 431.183 2.46623 -2.63077 0
M  V30 4507 O 430.287 3.49261 -2.19295 0
M  V30 4508 H 429.628 0.394472 -0.534124 0
M  V30 4509 H 432.158 0.655489 -1.93816 0
M  V30 4510 H 432.168 2.93001 -2.83926 0
M  V30 4511 H 430.843 2.07059 -3.60693 0
M  V30 4512 H 429.42 3.09094 -2.08603 0
M  V30 4513 N 431.605 1.3629 0.791371 0
M  V30 4514 C 432.854 1.29742 1.54434 0
M  V30 4515 C 433.167 -0.121729 1.95221 0
M  V30 4516 O 434.373 -0.309579 2.69729 0
M  V30 4517 C 432.829 2.27623 2.78776 0
M  V30 4518 C 432.437 3.74963 2.45166 0
M  V30 4519 C 434.181 2.30047 3.56761 0
M  V30 4520 C 432.088 4.64626 3.65891 0
M  V30 4521 H 431.018 0.482113 0.579727 0
M  V30 4522 H 433.669 1.61642 0.868565 0
M  V30 4523 H 432.051 1.88714 3.48142 0
M  V30 4524 H 433.225 4.22596 1.83709 0
M  V30 4525 H 431.54 3.75295 1.80396 0
M  V30 4526 H 434.137 2.94247 4.46456 0
M  V30 4527 H 434.48 1.30846 3.95203 0
M  V30 4528 H 435.013 2.67563 2.94372 0
M  V30 4529 H 431.752 5.64883 3.32547 0
M  V30 4530 H 431.272 4.2171 4.26521 0
M  V30 4531 H 432.951 4.80801 4.32943 0
M  V30 4532 N 433.083 -1.0153 1.20538 0
M  V30 4533 C 434.329 -1.75408 1.01783 0
M  V30 4534 C 434.662 -1.88943 -0.448814 0
M  V30 4535 O 433.937 -1.4162 -1.33319 0
M  V30 4536 C 434.22 -3.17255 1.70356 0
M  V30 4537 C 434.073 -3.11508 3.24473 0
M  V30 4538 C 435.392 -4.15955 1.43769 0
M  V30 4539 H 432.511 -0.636713 0.371167 0
M  V30 4540 H 435.153 -1.18436 1.4857 0
M  V30 4541 H 433.303 -3.65898 1.30578 0
M  V30 4542 H 434.975 -2.70658 3.73553 0
M  V30 4543 H 433.218 -2.4887 3.55311 0
M  V30 4544 H 433.889 -4.11784 3.67611 0
M  V30 4545 H 436.365 -3.75973 1.7828 0
M  V30 4546 H 435.241 -5.13368 1.94279 0
M  V30 4547 H 435.502 -4.40586 0.365564 0
M  V30 4548 N 434.561 -1.01147 -1.20859 0
M  V30 4549 C 435.491 -0.597663 -2.25722 0
M  V30 4550 C 436.472 0.384744 -1.65692 0
M  V30 4551 O 437.657 0.271303 -1.92296 0
M  V30 4552 C 434.787 0.0700149 -3.47229 0
M  V30 4553 C 433.741 -0.832843 -4.19819 0
M  V30 4554 C 433.067 -0.0312202 -5.34691 0
M  V30 4555 C 434.367 -2.1385 -4.76514 0
M  V30 4556 H 436.061 -1.47423 -2.60589 0
M  V30 4557 H 433.607 -0.710301 -1.25263 0
M  V30 4558 H 435.56 0.37103 -4.19763 0
M  V30 4559 H 434.284 0.981259 -3.11511 0
M  V30 4560 H 432.943 -1.11778 -3.49144 0
M  V30 4561 H 432.591 0.881515 -4.95215 0
M  V30 4562 H 432.291 -0.632434 -5.84187 0
M  V30 4563 H 433.815 0.26346 -6.10031 0
M  V30 4564 H 435.229 -1.9002 -5.40893 0
M  V30 4565 H 433.626 -2.69012 -5.36426 0
M  V30 4566 H 434.696 -2.80495 -3.95538 0
M  V30 4567 N 436.039 1.36541 -0.78704 0
M  V30 4568 C 437.002 2.28413 -0.189778 0
M  V30 4569 C 438.002 1.48719 0.611499 0
M  V30 4570 O 439.192 1.68737 0.432842 0
M  V30 4571 C 436.324 3.32824 0.737638 0
M  V30 4572 H 437.517 2.82743 -0.999831 0
M  V30 4573 H 435.07 1.46065 -0.556298 0
M  V30 4574 H 435.805 2.83646 1.57212 0
M  V30 4575 H 435.59 3.91752 0.165044 0
M  V30 4576 H 437.08 4.0144 1.15047 0
M  V30 4577 N 437.518 0.538854 1.48102 0
M  V30 4578 C 438.795 -0.0568108 1.95517 0
M  V30 4579 C 439.175 -1.50408 1.48124 0
M  V30 4580 O 438.523 -2.17133 0.711727 0
M  V30 4581 C 438.733 0.0696262 3.48931 0
M  V30 4582 C 440.081 -0.0851202 4.24515 0
M  V30 4583 O 441.105 -0.0037347 3.562 0
M  V30 4584 O 439.964 -0.257025 5.45895 0
M  V30 4585 H 437.058 -0.0743695 0.823649 0
M  V30 4586 H 439.604 0.604081 1.58584 0
M  V30 4587 H 438.376 1.07744 3.76174 0
M  V30 4588 H 437.999 -0.629714 3.92582 0
M  V30 4589 N 438.996 -1.55193 0.274407 0
M  V30 4590 C 439.959 -2.212 -0.600279 0
M  V30 4591 C 440.959 -1.18963 -1.08187 0
M  V30 4592 O 442.149 -1.43873 -0.982158 0
M  V30 4593 C 439.281 -2.87739 -1.82809 0
M  V30 4594 H 440.474 -2.9989 -0.0239682 0
M  V30 4595 H 438.027 -1.5628 0.0250192 0
M  V30 4596 H 438.762 -2.13058 -2.44493 0
M  V30 4597 H 438.547 -3.62658 -1.49069 0
M  V30 4598 H 440.037 -3.38171 -2.45011 0
M  V30 4599 N 440.474 -0.00167713 -1.576 0
M  V30 4600 C 441.751 0.719951 -1.81868 0
M  V30 4601 C 442.131 1.91895 -0.879747 0
M  V30 4602 O 441.479 2.28389 0.0711423 0
M  V30 4603 C 441.689 1.12409 -3.30402 0
M  V30 4604 C 443.037 1.52724 -3.96182 0
M  V30 4605 O 444.061 1.21784 -3.34734 0
M  V30 4606 O 442.92 2.10265 -5.04431 0
M  V30 4607 H 440.014 0.350707 -0.748955 0
M  V30 4608 H 442.56 -0.0272597 -1.69678 0
M  V30 4609 H 441.332 0.269532 -3.90371 0
M  V30 4610 H 440.955 1.93035 -3.47596 0
M  V30 4611 N 441.952 1.55251 0.271103 0
M  V30 4612 C 442.885 1.83191 1.36075 0
M  V30 4613 C 443.863 0.685091 1.47463 0
M  V30 4614 O 445.047 0.928292 1.64058 0
M  V30 4615 C 442.174 1.99521 2.73696 0
M  V30 4616 C 441.22 3.22081 2.79582 0
M  V30 4617 S 442.053 4.79388 2.38636 0
M  V30 4618 C 443.209 4.98693 3.78228 0
M  V30 4619 H 443.442 2.75327 1.12171 0
M  V30 4620 H 440.975 1.47046 0.470833 0
M  V30 4621 H 442.933 2.09613 3.52948 0
M  V30 4622 H 441.594 1.0827 2.9485 0
M  V30 4623 H 440.787 3.304 3.80594 0
M  V30 4624 H 440.389 3.10589 2.08352 0
M  V30 4625 H 442.681 4.84551 4.73515 0
M  V30 4626 H 443.624 6.00738 3.7486 0
M  V30 4627 H 444.032 4.26665 3.69618 0
M  V30 4628 N 443.43 -0.535701 1.48216 0
M  V30 4629 C 444.34 -1.66785 1.64985 0
M  V30 4630 C 445.356 -1.65654 0.532414 0
M  V30 4631 O 446.532 -1.8471 0.80275 0
M  V30 4632 C 443.597 -3.0326 1.68031 0
M  V30 4633 C 442.658 -3.1529 2.9136 0
M  V30 4634 C 441.891 -4.45255 2.94252 0
M  V30 4635 O 442.114 -5.32011 2.05719 0
M  V30 4636 O 441.048 -4.6153 3.86359 0
M  V30 4637 H 444.874 -1.55576 2.60825 0
M  V30 4638 H 442.459 -0.70815 1.31551 0
M  V30 4639 H 444.341 -3.84436 1.72589 0
M  V30 4640 H 443.016 -3.14805 0.753628 0
M  V30 4641 H 441.923 -2.3343 2.92337 0
M  V30 4642 H 443.256 -3.08658 3.83394 0
M  V30 4643 N 444.908 -1.36708 -0.784132 0
M  V30 4644 C 445.858 -1.2799 -1.88686 0
M  V30 4645 C 446.842 -0.170282 -1.59996 0
M  V30 4646 O 448.034 -0.403571 -1.72338 0
M  V30 4647 C 445.163 -1.07674 -3.25977 0
M  V30 4648 C 444.249 -2.23127 -3.60659 0
M  V30 4649 N 444.64 -3.48467 -3.66612 0
M  V30 4650 C 442.938 -2.15009 -3.90752 0
M  V30 4651 C 443.639 -4.24525 -3.97685 0
M  V30 4652 N 442.615 -3.53524 -4.12943 0
M  V30 4653 H 446.417 -2.22927 -1.91522 0
M  V30 4654 H 443.931 -1.29503 -0.979933 0
M  V30 4655 H 445.928 -0.995151 -4.04849 0
M  V30 4656 H 444.588 -0.13643 -3.24413 0
M  V30 4657 H 445.599 -3.82534 -3.49125 0
M  V30 4658 H 442.276 -1.28963 -3.97083 0
M  V30 4659 H 443.666 -5.32944 -4.0917 0
M  V30 4660 N 446.386 1.0089 -1.21074 0
M  V30 4661 C 447.349 2.0775 -0.968129 0
M  V30 4662 C 448.349 1.6069 0.0593445 0
M  V30 4663 O 449.539 1.73293 -0.177525 0
M  V30 4664 C 446.671 3.37794 -0.459108 0
M  V30 4665 H 447.864 2.30707 -1.9161 0
M  V30 4666 H 445.417 1.17807 -1.02719 0
M  V30 4667 H 446.152 3.20516 0.49397 0
M  V30 4668 H 445.937 3.7328 -1.20019 0
M  V30 4669 H 447.427 4.16454 -0.309099 0
M  V30 4670 N 447.864 1.01787 1.20321 0
M  V30 4671 C 449.11 0.708985 1.90003 0
M  V30 4672 C 449.443 -0.759572 1.78729 0
M  V30 4673 O 448.718 -1.55198 1.17234 0
M  V30 4674 C 449.001 1.1469 3.41348 0
M  V30 4675 C 448.854 2.67586 3.61549 0
M  V30 4676 C 450.173 0.71915 4.34185 0
M  V30 4677 H 447.292 0.259034 0.689978 0
M  V30 4678 H 449.934 1.26584 1.41692 0
M  V30 4679 H 448.084 0.673128 3.82624 0
M  V30 4680 H 449.756 3.22826 3.29517 0
M  V30 4681 H 447.999 3.085 3.04976 0
M  V30 4682 H 448.67 2.93281 4.67643 0
M  V30 4683 H 451.146 1.12647 4.00562 0
M  V30 4684 H 450.022 1.05358 5.38694 0
M  V30 4685 H 450.283 -0.379111 4.40472 0
M  V30 4686 N 449.342 -1.36122 0.79427 0
M  V30 4687 C 450.252 -2.33769 0.197296 0
M  V30 4688 C 451.268 -1.61276 -0.653153 0
M  V30 4689 O 452.444 -1.9323 -0.5678 0
M  V30 4690 C 449.509 -3.40474 -0.654098 0
M  V30 4691 C 448.57 -4.28759 0.215411 0
M  V30 4692 C 447.803 -5.30368 -0.595443 0
M  V30 4693 O 448.026 -5.40211 -1.83107 0
M  V30 4694 O 446.96 -6.019 0.00721351 0
M  V30 4695 H 450.786 -2.86597 1.00478 0
M  V30 4696 H 448.371 -1.38676 0.555818 0
M  V30 4697 H 450.253 -4.05703 -1.13944 0
M  V30 4698 H 448.928 -2.89937 -1.43938 0
M  V30 4699 H 447.835 -3.66554 0.747615 0
M  V30 4700 H 449.168 -4.82661 0.964332 0
M  V30 4701 N 450.82 -0.546701 -1.47814 0
M  V30 4702 C 451.752 0.244196 -2.27895 0
M  V30 4703 C 452.765 0.88911 -1.36377 0
M  V30 4704 O 453.954 0.764733 -1.61289 0
M  V30 4705 C 451.054 1.36252 -3.10304 0
M  V30 4706 C 450.227 0.816382 -4.29714 0
M  V30 4707 C 449.286 1.81789 -4.93801 0
M  V30 4708 O 448.312 1.36818 -5.52512 0
M  V30 4709 N 449.514 3.15085 -4.87547 0
M  V30 4710 H 452.279 -0.442694 -2.96412 0
M  V30 4711 H 449.84 -0.382095 -1.57327 0
M  V30 4712 H 451.832 2.03102 -3.50045 0
M  V30 4713 H 450.402 1.95281 -2.44099 0
M  V30 4714 H 449.622 -0.0285981 -3.9419 0
M  V30 4715 H 450.91 0.430668 -5.06974 0
M  V30 4716 H 450.308 3.54275 -4.41028 0
M  V30 4717 H 448.865 3.77522 -5.31339 0
M  V30 4718 N 452.299 1.55045 -0.282633 0
M  V30 4719 C 453.539 2.01668 0.333088 0
M  V30 4720 C 453.903 1.1667 1.52486 0
M  V30 4721 O 455.104 1.52907 2.21072 0
M  V30 4722 C 453.375 3.50509 0.698442 0
M  V30 4723 S 454.934 4.19112 1.29963 0
M  V30 4724 H 451.752 0.703468 0.103219 0
M  V30 4725 H 454.354 1.91233 -0.406222 0
M  V30 4726 H 453.058 4.10015 -0.177693 0
M  V30 4727 H 452.589 3.64943 1.46902 0
M  V30 4728 H 454.604 4.23362 2.58803 0
M  V30 4729 N 453.777 0.010035 1.57597 0
M  V30 4730 C 454.727 -0.986858 2.05536 0
M  V30 4731 C 455.711 -1.29711 0.952042 0
M  V30 4732 O 456.903 -1.28641 1.21575 0
M  V30 4733 C 454.032 -2.2756 2.57043 0
M  V30 4734 C 453.118 -1.99455 3.74271 0
M  V30 4735 N 453.509 -1.41546 4.85591 0
M  V30 4736 C 451.807 -2.29547 3.82393 0
M  V30 4737 C 452.508 -1.3014 5.66956 0
M  V30 4738 N 451.484 -1.79044 5.13268 0
M  V30 4739 H 455.286 -0.533778 2.89012 0
M  V30 4740 H 452.8 -0.195432 1.6122 0
M  V30 4741 H 454.797 -2.99829 2.89669 0
M  V30 4742 H 453.457 -2.73512 1.7499 0
M  V30 4743 H 454.468 -1.09294 5.06236 0
M  V30 4744 H 451.145 -2.78304 3.11213 0
M  V30 4745 H 452.535 -0.855237 6.66435 0
M  V30 4746 N 455.255 -1.55392 -0.262866 0
M  V30 4747 C 456.165 -1.92077 -1.34698 0
M  V30 4748 C 457.181 -0.819227 -1.53508 0
M  V30 4749 O 458.357 -1.11921 -1.67439 0
M  V30 4750 C 455.422 -2.19407 -2.68443 0
M  V30 4751 C 454.483 -3.42905 -2.58292 0
M  V30 4752 C 453.716 -3.68921 -3.85659 0
M  V30 4753 O 453.939 -2.97275 -4.8681 0
M  V30 4754 O 452.873 -4.62455 -3.85252 0
M  V30 4755 H 456.699 -2.84384 -1.06581 0
M  V30 4756 H 454.284 -1.42069 -0.462264 0
M  V30 4757 H 456.166 -2.38365 -3.47506 0
M  V30 4758 H 454.841 -1.30282 -2.96325 0
M  V30 4759 H 453.748 -3.29272 -1.7757 0
M  V30 4760 H 455.081 -4.32282 -2.35358 0
M  V30 4761 N 456.733 0.527833 -1.48498 0
M  V30 4762 C 457.696 1.61439 -1.62696 0
M  V30 4763 C 458.696 1.52824 -0.500136 0
M  V30 4764 O 459.886 1.56456 -0.765976 0
M  V30 4765 C 457.018 3.01063 -1.59918 0
M  V30 4766 H 458.211 1.50189 -2.59583 0
M  V30 4767 H 455.764 0.750055 -1.37127 0
M  V30 4768 H 456.499 3.17818 -0.645163 0
M  V30 4769 H 456.284 3.08725 -2.41726 0
M  V30 4770 H 457.774 3.80057 -1.73051 0
M  V30 4771 N 458.211 1.37122 0.776871 0
M  V30 4772 C 459.141 1.35164 1.90402 0
M  V30 4773 C 460.122 0.221069 1.68657 0
M  V30 4774 O 461.307 0.420642 1.8959 0
M  V30 4775 C 458.437 1.15274 3.27611 0
M  V30 4776 C 457.391 2.25289 3.63908 0
M  V30 4777 C 456.717 1.90527 4.99603 0
M  V30 4778 C 458.017 3.67446 3.71188 0
M  V30 4779 H 459.711 2.29482 1.92297 0
M  V30 4780 H 457.257 1.10465 0.923773 0
M  V30 4781 H 459.21 1.12536 4.06096 0
M  V30 4782 H 457.934 0.174102 3.26136 0
M  V30 4783 H 456.593 2.27174 2.87728 0
M  V30 4784 H 456.241 0.91206 4.94662 0
M  V30 4785 H 455.941 2.64193 5.24858 0
M  V30 4786 H 457.465 1.89367 5.80493 0
M  V30 4787 H 458.879 3.67719 4.39836 0
M  V30 4788 H 457.276 4.40123 4.07936 0
M  V30 4789 H 458.346 4.01443 2.71977 0
M  V30 4790 N 459.689 -1.00246 1.21608 0
M  V30 4791 C 460.936 -1.74061 1.03485 0
M  V30 4792 C 461.264 -1.89658 -0.431308 0
M  V30 4793 O 460.519 -1.42976 -1.33627 0
M  V30 4794 C 460.818 -3.15448 1.68009 0
M  V30 4795 C 460.484 -3.19792 3.17874 0
M  V30 4796 C 459.146 -3.20685 3.58768 0
M  V30 4797 C 461.498 -3.16835 4.13842 0
M  V30 4798 C 458.826 -3.16309 4.94131 0
M  V30 4799 C 461.178 -3.14001 5.49169 0
M  V30 4800 C 459.842 -3.13204 5.89457 0
M  V30 4801 H 459.112 -0.636934 0.378677 0
M  V30 4802 H 461.759 -1.17473 1.51236 0
M  V30 4803 H 460.064 -3.75284 1.12557 0
M  V30 4804 H 461.761 -3.71285 1.51487 0
M  V30 4805 H 458.351 -3.19842 2.85305 0
M  V30 4806 H 462.535 -3.15303 3.83272 0
M  V30 4807 H 457.791 -3.14032 5.24589 0
M  V30 4808 H 461.965 -3.10667 6.23265 0
M  V30 4809 H 459.592 -3.09568 6.94314 0
M  V30 4810 N 461.167 -1.02423 -1.1978 0
M  V30 4811 C 462.414 -0.717988 -1.89344 0
M  V30 4812 C 462.742 0.753036 -1.79331 0
M  V30 4813 O 461.997 1.56355 -1.17692 0
M  V30 4814 C 462.296 -1.1088 -3.39765 0
M  V30 4815 C 461.962 -2.57731 -3.6998 0
M  V30 4816 C 460.624 -2.97854 -3.77937 0
M  V30 4817 C 462.976 -3.52763 -3.83677 0
M  V30 4818 C 460.304 -4.31931 -3.97054 0
M  V30 4819 C 462.656 -4.86538 -4.04306 0
M  V30 4820 C 461.32 -5.26356 -4.10494 0
M  V30 4821 H 460.59 -0.26273 -0.692859 0
M  V30 4822 H 463.237 -1.28623 -1.41875 0
M  V30 4823 H 461.542 -0.459094 -3.89101 0
M  V30 4824 H 463.239 -0.849432 -3.919 0
M  V30 4825 H 459.829 -2.25646 -3.64393 0
M  V30 4826 H 464.013 -3.2292 -3.76877 0
M  V30 4827 H 459.269 -4.62324 -4.00083 0
M  V30 4828 H 463.443 -5.60093 -4.13846 0
M  V30 4829 H 461.07 -6.3026 -4.2506 0
M  V30 4830 N 462.645 1.35699 -0.801477 0
M  V30 4831 C 463.593 2.3177 -0.196317 0
M  V30 4832 C 464.587 1.56388 0.651081 0
M  V30 4833 O 465.793 1.71557 0.544815 0
M  V30 4834 H 462.168 0.750669 -0.0447189 0
M  V30 4835 H 464.139 2.8036 -1.02181 0
M  V30 4836 C 462.888 3.41671 0.644702 0
M  V30 4837 H 462.211 3.998 0.0019921 0
M  V30 4838 H 463.651 4.11184 1.0346 0
M  V30 4839 C 462.11 2.84271 1.80808 0
M  V30 4840 O 462.64 2.77408 2.9053 0
M  V30 4841 N 460.846 2.41391 1.61799 0
M  V30 4842 H 460.393 2.47173 0.725493 0
M  V30 4843 H 460.351 2.03334 2.39797 0
M  V30 4844 N 464.123 0.554532 1.47522 0
M  V30 4845 C 465.056 -0.242442 2.26908 0
M  V30 4846 C 466.034 -0.922722 1.33883 0
M  V30 4847 O 467.218 -0.942244 1.63261 0
M  V30 4848 C 464.345 -1.34525 3.10839 0
M  V30 4849 C 463.391 -0.773805 4.19422 0
M  V30 4850 S 464.224 0.377525 5.34168 0
M  V30 4851 C 465.38 -0.727164 6.21662 0
M  V30 4852 H 465.613 0.431218 2.94156 0
M  V30 4853 H 463.146 0.3408 1.50592 0
M  V30 4854 H 465.104 -1.97683 3.59766 0
M  V30 4855 H 463.765 -1.99073 2.42958 0
M  V30 4856 H 462.958 -1.60187 4.77866 0
M  V30 4857 H 462.56 -0.218448 3.73361 0
M  V30 4858 H 464.852 -1.61992 6.57849 0
M  V30 4859 H 465.795 -0.180135 7.07871 0
M  V30 4860 H 466.203 -1.01863 5.55233 0
M  V30 4861 N 465.601 -1.54893 0.290851 0
M  V30 4862 C 466.849 -1.99538 -0.320756 0
M  V30 4863 C 467.17 -1.18075 -1.55188 0
M  V30 4864 O 466.44 -0.274162 -1.93972 0
M  V30 4865 H 465.02 -0.737052 -0.121507 0
M  V30 4866 H 467.682 -1.90755 0.399832 0
M  V30 4867 H 466.778 -3.06282 -0.599802 0
M  V30 4868 N 467.08 -0.0183926 -1.57589 0
M  V30 4869 C 468.012 0.995557 -2.06449 0
M  V30 4870 C 469.025 1.29556 -0.985849 0
M  V30 4871 O 470.214 1.2621 -1.26227 0
M  V30 4872 C 467.314 2.32572 -2.46502 0
M  V30 4873 C 466.487 2.21245 -3.77319 0
M  V30 4874 C 465.546 3.37104 -4.04039 0
M  V30 4875 O 464.572 3.14468 -4.74445 0
M  V30 4876 N 465.774 4.60553 -3.53372 0
M  V30 4877 H 468.539 0.578746 -2.94059 0
M  V30 4878 H 466.1 0.168603 -1.6102 0
M  V30 4879 H 468.092 3.08887 -2.61478 0
M  V30 4880 H 466.662 2.65931 -1.64315 0
M  V30 4881 H 465.882 1.29723 -3.72244 0
M  V30 4882 H 467.17 2.10868 -4.63047 0
M  V30 4883 H 466.568 4.81839 -2.96391 0
M  V30 4884 H 465.125 5.34072 -3.73644 0
M  V30 4885 N 468.558 1.5553 0.254621 0
M  V30 4886 C 469.798 1.7876 0.991179 0
M  V30 4887 C 470.162 0.586669 1.82817 0
M  V30 4888 O 471.363 0.697585 2.5959 0
M  V30 4889 C 469.634 3.06679 1.83529 0
M  V30 4890 S 471.193 3.511 2.632 0
M  V30 4891 H 468.011 0.627916 0.333531 0
M  V30 4892 H 470.613 1.93766 0.259778 0
M  V30 4893 H 469.317 3.92158 1.20996 0
M  V30 4894 H 468.848 2.94388 2.60958 0
M  V30 4895 H 470.863 3.11823 3.8598 0
M  V30 4896 N 470.036 -0.519951 1.48776 0
M  V30 4897 C 471.276 -1.2856 1.58908 0
M  V30 4898 C 471.64 -1.90212 0.261418 0
M  V30 4899 O 472.841 -2.67746 0.237791 0
M  V30 4900 C 471.112 -2.33836 2.70288 0
M  V30 4901 S 472.671 -3.19992 3.0025 0
M  V30 4902 H 469.489 -0.43717 0.560717 0
M  V30 4903 H 472.091 -0.591205 1.86346 0
M  V30 4904 H 470.795 -1.87041 3.653 0
M  V30 4905 H 470.326 -3.07969 2.44783 0
M  V30 4906 H 472.341 -4.34122 2.40317 0
M  V30 4907 N 471.514 -1.37532 -0.769588 0
M  V30 4908 C 472.754 -1.34261 -1.54122 0
M  V30 4909 C 473.118 0.0717222 -1.91866 0
M  V30 4910 O 474.319 0.22918 -2.67821 0
M  V30 4911 C 472.59 -2.2574 -2.77086 0
M  V30 4912 S 474.149 -2.40339 -3.67127 0
M  V30 4913 H 470.967 -0.476595 -0.527615 0
M  V30 4914 H 473.569 -1.73303 -0.90479 0
M  V30 4915 H 472.273 -3.27417 -2.4744 0
M  V30 4916 H 471.804 -1.87789 -3.45686 0
M  V30 4917 H 473.819 -1.61558 -4.69163 0
M  V30 4918 N 472.992 0.995999 -1.22138 0
M  V30 4919 C 473.955 2.06711 -0.990109 0
M  V30 4920 C 474.955 1.60744 0.0422978 0
M  V30 4921 O 476.145 1.73095 -0.195895 0
M  V30 4922 C 473.277 3.37288 -0.49491 0
M  V30 4923 H 474.47 2.28661 -1.94047 0
M  V30 4924 H 472.023 1.16711 -1.03963 0
M  V30 4925 H 472.758 3.21022 0.459948 0
M  V30 4926 H 472.543 3.71986 -1.23971 0
M  V30 4927 H 474.033 4.16103 -0.353253 0
M  V30 4928 N 474.47 1.03057 1.19235 0
M  V30 4929 C 475.718 0.726581 1.88587 0
M  V30 4930 C 476.039 -0.747227 1.80115 0
M  V30 4931 O 475.309 -1.53849 1.21274 0
M  V30 4932 H 473.889 0.265768 0.698124 0
M  V30 4933 H 476.551 1.30516 1.44746 0
M  V30 4934 H 475.647 1.0224 2.94879 0
M  V30 4935 N 475.948 -1.35272 0.808662 0
M  V30 4936 C 477.173 -2.03477 0.401475 0
M  V30 4937 C 477.598 -1.60537 -0.980279 0
M  V30 4938 O 476.956 -0.78304 -1.63518 0
M  V30 4939 C 477.004 -3.57181 0.495354 0
M  V30 4940 O 476.108 -4.09474 -0.490397 0
M  V30 4941 H 475.449 -0.642561 0.167366 0
M  V30 4942 H 477.979 -1.72824 1.09512 0
M  V30 4943 H 477.989 -4.06356 0.365912 0
M  V30 4944 H 476.664 -3.87784 1.5032 0
M  V30 4945 H 475.241 -3.71516 -0.321023 0
M  V30 4946 N 477.426 -0.562348 -1.47226 0
M  V30 4947 C 478.842 -0.222492 -1.58042 0
M  V30 4948 C 479.042 1.27505 -1.56028 0
M  V30 4949 O 478.098 2.05555 -1.46641 0
M  V30 4950 C 479.411 -0.853694 -2.88327 0
M  V30 4951 C 480.959 -0.825397 -3.01921 0
M  V30 4952 C 481.434 -1.43576 -4.34914 0
M  V30 4953 N 482.925 -1.39918 -4.41562 0
M  V30 4954 C 483.66 -1.84103 -5.43041 0
M  V30 4955 N 483.156 -2.36167 -6.51304 0
M  V30 4956 N 484.949 -1.75142 -5.34118 0
M  V30 4957 H 477.1 -1.53525 -1.46778 0
M  V30 4958 H 479.363 -0.640527 -0.698877 0
M  V30 4959 H 479.069 -1.90635 -2.95552 0
M  V30 4960 H 478.943 -0.34977 -3.75575 0
M  V30 4961 H 481.33 0.218583 -2.94289 0
M  V30 4962 H 481.411 -1.36713 -2.16202 0
M  V30 4963 H 481.055 -2.47884 -4.43301 0
M  V30 4964 H 480.985 -0.869427 -5.19373 0
M  V30 4965 H 483.476 -1.0184 -3.63919 0
M  V30 4966 H 483.789 -2.67793 -7.24919 0
M  V30 4967 H 482.134 -2.40181 -6.52179 0
M  V30 4968 H 485.325 -1.34241 -4.48439 0
M  V30 4969 H 485.498 -2.09895 -6.13065 0
M  V30 4970 N 478.904 1.54736 -0.299062 0
M  V30 4971 C 480.132 2.04512 0.313447 0
M  V30 4972 C 480.547 1.17643 1.47667 0
M  V30 4973 O 479.904 0.20164 1.81383 0
M  V30 4974 C 479.955 3.53171 0.771542 0
M  V30 4975 O 479.676 4.36736 -0.345379 0
M  V30 4976 C 481.177 4.18936 1.4494 0
M  V30 4977 H 478.397 0.667507 0.0683784 0
M  V30 4978 H 480.941 1.99752 -0.438129 0
M  V30 4979 H 479.096 3.58298 1.47314 0
M  V30 4980 H 479.51 5.24499 0.0109219 0
M  V30 4981 H 480.984 5.24482 1.72111 0
M  V30 4982 H 481.461 3.68554 2.38883 0
M  V30 4983 H 482.067 4.17879 0.791028 0
M  V30 4984 N 480.382 0.0267497 1.57577 0
M  V30 4985 C 481.629 -0.652404 1.91703 0
M  V30 4986 C 481.957 -1.72271 0.902936 0
M  V30 4987 O 481.212 -1.955 -0.0884843 0
M  V30 4988 C 481.511 -1.30914 3.3256 0
M  V30 4989 C 481.177 -0.369441 4.49384 0
M  V30 4990 C 479.839 -0.110791 4.81072 0
M  V30 4991 C 482.191 0.275971 5.20469 0
M  V30 4992 C 479.519 0.801116 5.81205 0
M  V30 4993 C 481.871 1.17592 6.21575 0
M  V30 4994 C 480.535 1.44348 6.51705 0
M  V30 4995 H 479.805 -0.238732 0.70149 0
M  V30 4996 H 482.452 0.0880091 1.91298 0
M  V30 4997 H 480.757 -2.12425 3.29216 0
M  V30 4998 H 482.454 -1.84115 3.56234 0
M  V30 4999 H 479.044 -0.581211 4.24641 0
M  V30 5000 H 483.228 0.0892 4.9622 0
M  V30 5001 H 478.484 1.01614 6.02897 0
M  V30 5002 H 482.658 1.68223 6.75777 0
M  V30 5003 H 480.285 2.15176 7.29111 0
M  V30 5004 N 481.861 -1.55662 -0.24637 0
M  V30 5005 C 483.107 -1.77782 -0.975779 0
M  V30 5006 C 483.44 -0.592103 -1.84953 0
M  V30 5007 O 482.715 0.409588 -1.90138 0
M  V30 5008 C 482.998 -3.09788 -1.83584 0
M  V30 5009 C 482.851 -4.38764 -0.990241 0
M  V30 5010 C 484.17 -3.38029 -2.81823 0
M  V30 5011 H 481.289 -0.646789 -0.353317 0
M  V30 5012 H 483.931 -1.88398 -0.246248 0
M  V30 5013 H 482.081 -3.00869 -2.45784 0
M  V30 5014 H 483.753 -4.59675 -0.386897 0
M  V30 5015 H 481.996 -4.32798 -0.294626 0
M  V30 5016 H 482.667 -5.27514 -1.62584 0
M  V30 5017 H 485.143 -3.46915 -2.2976 0
M  V30 5018 H 484.019 -4.3161 -3.39122 0
M  V30 5019 H 484.28 -2.58968 -3.58313 0
M  V30 5020 N 483.339 0.512053 -1.4905 0
M  V30 5021 C 484.249 1.64139 -1.67617 0
M  V30 5022 C 485.265 1.64786 -0.558701 0
M  V30 5023 O 486.441 1.8341 -0.832034 0
M  V30 5024 C 483.506 3.00548 -1.72835 0
M  V30 5025 C 482.567 3.10615 -2.96339 0
M  V30 5026 C 481.8 4.40517 -3.01298 0
M  V30 5027 O 482.023 5.28671 -2.14157 0
M  V30 5028 O 480.957 4.55325 -3.93653 0
M  V30 5029 H 484.783 1.51407 -2.63267 0
M  V30 5030 H 482.368 0.687131 -1.32661 0
M  V30 5031 H 484.25 3.81641 -1.78683 0
M  V30 5032 H 482.925 3.13566 -0.803616 0
M  V30 5033 H 481.832 2.2875 -2.96014 0
M  V30 5034 H 483.165 3.0252 -3.88256 0
M  V30 5035 N 484.817 1.37938 0.762283 0
M  V30 5036 C 485.727 1.36681 1.90671 0
M  V30 5037 C 486.743 0.265078 1.71969 0
M  V30 5038 O 487.919 0.502055 1.95042 0
M  V30 5039 C 484.984 1.18211 3.25925 0
M  V30 5040 C 484.045 2.3811 3.57214 0
M  V30 5041 C 483.278 2.20512 4.86014 0
M  V30 5042 O 483.501 1.19429 5.57757 0
M  V30 5043 O 482.435 3.08911 5.16583 0
M  V30 5044 H 486.261 2.33091 1.94685 0
M  V30 5045 H 483.846 1.18767 0.906356 0
M  V30 5046 H 485.728 1.09937 4.06807 0
M  V30 5047 H 484.403 0.248807 3.22742 0
M  V30 5048 H 483.31 2.51958 2.76529 0
M  V30 5049 H 484.643 3.30041 3.65149 0
M  V30 5050 N 486.295 -0.989507 1.22664 0
M  V30 5051 C 487.52 -1.77031 1.08051 0
M  V30 5052 C 487.945 -1.84535 -0.364483 0
M  V30 5053 O 487.303 -1.3003 -1.2634 0
M  V30 5054 C 487.351 -3.18 1.70024 0
M  V30 5055 O 486.455 -4.01161 0.956216 0
M  V30 5056 H 485.796 -0.545008 0.379292 0
M  V30 5057 H 488.326 -1.24277 1.62531 0
M  V30 5058 H 488.336 -3.68616 1.74888 0
M  V30 5059 H 487.011 -3.11853 2.75174 0
M  V30 5060 H 485.588 -3.59687 0.98384 0
M  V30 5061 N 487.773 -1.03688 -1.18687 0
M  V30 5062 C 489.022 -0.733235 -1.879 0
M  V30 5063 C 489.335 0.741745 -1.8099 0
M  V30 5064 O 490.541 1.15875 -2.4553 0
M  V30 5065 C 488.997 -1.26127 -3.37076 0
M  V30 5066 C 488.605 -2.76461 -3.52524 0
M  V30 5067 C 490.349 -1.03398 -4.11715 0
M  V30 5068 C 488.256 -3.22642 -4.95637 0
M  V30 5069 H 487.186 -0.270584 -0.703776 0
M  V30 5070 H 489.837 -1.25222 -1.34133 0
M  V30 5071 H 488.219 -0.670165 -3.90288 0
M  V30 5072 H 489.393 -3.41296 -3.09602 0
M  V30 5073 H 487.708 -2.97559 -2.91286 0
M  V30 5074 H 490.305 -1.3542 -5.17267 0
M  V30 5075 H 490.648 0.0289246 -4.1629 0
M  V30 5076 H 491.181 -1.5895 -3.64664 0
M  V30 5077 H 487.92 -4.28296 -4.96228 0
M  V30 5078 H 487.44 -2.62539 -5.39289 0
M  V30 5079 H 489.119 -3.16444 -5.64333 0
M  V30 5080 N 489.251 1.34841 -0.815825 0
M  V30 5081 C 490.481 2.02436 -0.412695 0
M  V30 5082 C 490.889 1.61604 0.983906 0
M  V30 5083 O 490.232 0.813729 1.64694 0
M  V30 5084 C 490.294 3.56953 -0.427182 0
M  V30 5085 C 489.958 4.21083 -1.77589 0
M  V30 5086 C 490.955 4.42107 -2.73564 0
M  V30 5087 C 488.64 4.58006 -2.06243 0
M  V30 5088 C 490.634 4.99169 -3.9637 0
M  V30 5089 C 488.321 5.1478 -3.2931 0
M  V30 5090 C 489.319 5.35304 -4.24191 0
M  V30 5091 O 489.007 5.90878 -5.45086 0
M  V30 5092 H 488.739 0.655631 -0.164695 0
M  V30 5093 H 491.293 1.73246 -1.1034 0
M  V30 5094 H 489.523 3.85372 0.320175 0
M  V30 5095 H 491.212 4.05875 -0.0450875 0
M  V30 5096 H 491.978 4.13953 -2.52721 0
M  V30 5097 H 487.857 4.41339 -1.33196 0
M  V30 5098 H 491.401 5.15105 -4.70439 0
M  V30 5099 H 487.298 5.42362 -3.5002 0
M  V30 5100 H 488.066 6.0932 -5.46508 0
M  V30 5101 N 490.729 0.570148 1.46925 0
M  V30 5102 C 491.677 -0.183181 2.31878 0
M  V30 5103 C 492.671 -0.896721 1.43719 0
M  V30 5104 O 493.877 -0.816536 1.60414 0
M  V30 5105 H 490.252 -0.077944 0.74795 0
M  V30 5106 H 492.223 0.552312 2.93244 0
M  V30 5107 C 490.972 -1.19172 3.2664 0
M  V30 5108 H 490.295 -0.652088 3.94446 0
M  V30 5109 H 491.735 -1.68946 3.88887 0
M  V30 5110 C 490.194 -2.24627 2.51086 0
M  V30 5111 O 490.724 -3.31773 2.26472 0
M  V30 5112 N 488.93 -1.98898 2.11867 0
M  V30 5113 H 488.477 -1.11777 2.32086 0
M  V30 5114 H 488.435 -2.6967 1.61634 0
M  V30 5115 N 492.207 -1.54576 0.307264 0
M  V30 5116 C 493.117 -2.27435 -0.57536 0
M  V30 5117 C 494.133 -1.31183 -1.14311 0
M  V30 5118 O 495.309 -1.64175 -1.16656 0
M  V30 5119 C 492.374 -3.00566 -1.72803 0
M  V30 5120 C 491.435 -4.12369 -1.19373 0
M  V30 5121 C 490.668 -4.82003 -2.29147 0
M  V30 5122 O 490.891 -4.51038 -3.49171 0
M  V30 5123 O 489.825 -5.69271 -1.95485 0
M  V30 5124 H 493.651 -3.03696 0.0158558 0
M  V30 5125 H 491.236 -1.49219 0.0735064 0
M  V30 5126 H 493.118 -3.46416 -2.39946 0
M  V30 5127 H 491.793 -2.27195 -2.30574 0
M  V30 5128 H 490.7 -3.70905 -0.487851 0
M  V30 5129 H 492.033 -4.87736 -0.661376 0
M  V30 5130 N 493.685 -0.035106 -1.57561 0
M  V30 5131 C 494.932 0.642229 -1.92046 0
M  V30 5132 C 495.26 1.7179 -0.91206 0
M  V30 5133 O 494.515 1.95544 0.0781153 0
M  V30 5134 C 494.814 1.29149 -3.3325 0
M  V30 5135 C 494.48 0.345604 -4.49574 0
M  V30 5136 C 493.142 0.0852775 -4.81124 0
M  V30 5137 C 495.494 -0.303569 -5.20315 0
M  V30 5138 C 492.822 -0.831927 -5.80772 0
M  V30 5139 C 495.174 -1.20886 -6.20942 0
M  V30 5140 C 493.838 -1.47802 -6.50931 0
M  V30 5141 H 493.108 0.235008 -0.702746 0
M  V30 5142 H 495.755 -0.0981529 -1.91248 0
M  V30 5143 H 494.06 2.10676 -3.30337 0
M  V30 5144 H 495.757 1.82223 -3.57205 0
M  V30 5145 H 492.347 0.558683 -4.24943 0
M  V30 5146 H 496.531 -0.115515 -4.96166 0
M  V30 5147 H 491.787 -1.0481 -6.02349 0
M  V30 5148 H 495.961 -1.71804 -6.74875 0
M  V30 5149 H 493.588 -2.19039 -7.2796 0
M  V30 5150 N 495.163 1.55791 0.238111 0
M  V30 5151 C 496.093 1.94068 1.29846 0
M  V30 5152 C 497.074 0.806726 1.49753 0
M  V30 5153 O 498.259 1.06772 1.62214 0
M  V30 5154 C 495.389 2.24302 2.65153 0
M  V30 5155 C 494.343 3.40032 2.59927 0
M  V30 5156 C 493.669 3.55829 3.99111 0
M  V30 5157 C 494.969 4.75476 2.16148 0
M  V30 5158 H 496.663 2.82887 0.980563 0
M  V30 5159 H 494.209 1.36105 0.470253 0
M  V30 5160 H 496.162 2.4967 3.39475 0
M  V30 5161 H 494.886 1.32318 2.98596 0
M  V30 5162 H 493.545 3.14687 1.88063 0
M  V30 5163 H 493.193 2.6125 4.29834 0
M  V30 5164 H 492.893 4.3366 3.96501 0
M  V30 5165 H 494.417 3.83528 4.7512 0
M  V30 5166 H 495.831 5.00158 2.80205 0
M  V30 5167 H 494.228 5.56472 2.24631 0
M  V30 5168 H 495.298 4.71946 1.11333 0
M  V30 5169 N 496.642 -0.504142 1.49319 0
M  V30 5170 C 497.552 -1.63248 1.68486 0
M  V30 5171 C 498.568 -1.64488 0.567432 0
M  V30 5172 O 499.744 -1.82966 0.841749 0
M  V30 5173 C 496.809 -2.99627 1.74426 0
M  V30 5174 C 495.87 -3.09039 2.97982 0
M  V30 5175 C 495.103 -4.38913 3.0363 0
M  V30 5176 O 495.326 -5.27528 2.16958 0
M  V30 5177 O 494.26 -4.53231 3.96062 0
M  V30 5178 H 498.086 -1.50008 2.64067 0
M  V30 5179 H 495.671 -0.680086 1.33023 0
M  V30 5180 H 497.553 -3.80689 1.80705 0
M  V30 5181 H 496.228 -3.13136 0.820233 0
M  V30 5182 H 495.135 -2.27177 2.97223 0
M  V30 5183 H 496.468 -3.00456 3.89855 0
M  V30 5184 N 498.12 -1.38341 -0.754957 0
M  V30 5185 C 499.536 -1.19508 -1.05783 0
M  V30 5186 C 499.736 -0.0428005 -2.01455 0
M  V30 5187 O 498.792 0.611861 -2.44975 0
M  V30 5188 C 500.105 -2.52091 -1.63923 0
M  V30 5189 C 501.653 -2.58762 -1.76101 0
M  V30 5190 C 502.128 -3.91517 -2.37652 0
M  V30 5191 N 503.619 -3.93049 -2.45085 0
M  V30 5192 C 504.354 -4.9253 -2.93602 0
M  V30 5193 N 503.85 -6.02408 -3.42165 0
M  V30 5194 N 505.643 -4.79921 -2.92629 0
M  V30 5195 H 497.794 -2.1206 -0.120056 0
M  V30 5196 H 500.057 -0.94089 -0.11589 0
M  V30 5197 H 499.763 -3.36858 -1.01093 0
M  V30 5198 H 499.637 -2.70388 -2.63003 0
M  V30 5199 H 502.024 -1.74391 -2.38058 0
M  V30 5200 H 502.105 -2.44333 -0.757294 0
M  V30 5201 H 501.749 -4.76309 -1.76329 0
M  V30 5202 H 501.679 -4.03256 -3.38662 0
M  V30 5203 H 504.17 -3.13685 -2.10736 0
M  V30 5204 H 504.483 -6.74248 -3.77637 0
M  V30 5205 H 502.828 -6.0603 -3.40225 0
M  V30 5206 H 506.019 -3.93194 -2.54001 0
M  V30 5207 H 506.192 -5.57601 -3.30128 0
M  V30 5208 N 499.598 0.982988 -1.23187 0
M  V30 5209 C 500.826 1.75921 -1.08901 0
M  V30 5210 C 501.241 1.85341 0.359719 0
M  V30 5211 O 500.598 1.33072 1.24892 0
M  V30 5212 C 500.649 3.18742 -1.70545 0
M  V30 5213 O 500.37 3.09814 -3.09753 0
M  V30 5214 C 501.871 4.1277 -1.61667 0
M  V30 5215 H 499.091 0.552166 -0.381252 0
M  V30 5216 H 501.635 1.23516 -1.62985 0
M  V30 5217 H 499.79 3.68182 -1.20501 0
M  V30 5218 H 500.204 3.99703 -3.39614 0
M  V30 5219 H 501.678 5.10697 -2.09506 0
M  V30 5220 H 502.155 4.3542 -0.575009 0
M  V30 5221 H 502.761 3.69232 -2.11064 0
M  V30 5222 N 501.076 1.04316 1.18135 0
M  V30 5223 C 502.322 0.749128 1.88457 0
M  V30 5224 C 502.655 -0.72149 1.803 0
M  V30 5225 O 501.93 -1.52676 1.205 0
M  V30 5226 C 502.213 1.21905 3.38838 0
M  V30 5227 C 502.066 2.75195 3.55792 0
M  V30 5228 C 503.385 0.811085 4.32561 0
M  V30 5229 H 500.504 0.273611 0.684329 0
M  V30 5230 H 503.146 1.29561 1.38975 0
M  V30 5231 H 501.296 0.754137 3.8111 0
M  V30 5232 H 502.968 3.29743 3.22595 0
M  V30 5233 H 501.211 3.14899 2.98364 0
M  V30 5234 H 501.882 3.03135 4.61317 0
M  V30 5235 H 504.358 1.21118 3.98082 0
M  V30 5236 H 503.234 1.16761 5.36338 0
M  V30 5237 H 503.495 -0.285596 4.41177 0
M  V30 5238 N 502.554 -1.34406 0.822964 0
M  V30 5239 C 503.464 -2.33298 0.246838 0
M  V30 5240 C 504.48 -1.62625 -0.618797 0
M  V30 5241 O 505.656 -1.94391 -0.526685 0
M  V30 5242 C 502.721 -3.41785 -0.581731 0
M  V30 5243 C 501.782 -4.28206 0.306309 0
M  V30 5244 C 501.015 -5.31512 -0.48281 0
M  V30 5245 O 501.238 -5.43973 -1.71607 0
M  V30 5246 O 500.172 -6.01749 0.134884 0
M  V30 5247 H 503.998 -2.84401 1.06534 0
M  V30 5248 H 501.583 -1.37466 0.585108 0
M  V30 5249 H 503.465 -4.08028 -1.05313 0
M  V30 5250 H 502.14 -2.92925 -1.37756 0
M  V30 5251 H 501.047 -3.64885 0.825199 0
M  V30 5252 H 502.38 -4.80507 1.06649 0
M  V30 5253 N 504.032 -0.577932 -1.46621 0
M  V30 5254 C 504.979 0.158048 -2.30258 0
M  V30 5255 C 505.949 0.888669 -1.40328 0
M  V30 5256 O 507.134 0.880283 -1.6928 0
M  V30 5257 C 504.274 1.16884 -3.24703 0
M  V30 5258 C 503.387 0.442163 -4.29731 0
M  V30 5259 C 502.522 1.44007 -5.11308 0
M  V30 5260 C 501.561 0.69952 -6.0809 0
M  V30 5261 N 500.698 1.64525 -6.82551 0
M  V30 5262 H 505.538 -0.561242 -2.92667 0
M  V30 5263 H 503.075 -0.288591 -1.44241 0
M  V30 5264 H 505.033 1.7677 -3.779 0
M  V30 5265 H 503.663 1.85591 -2.64113 0
M  V30 5266 H 502.715 -0.271632 -3.79429 0
M  V30 5267 H 504.027 -0.136992 -4.98612 0
M  V30 5268 H 503.181 2.11186 -5.68758 0
M  V30 5269 H 501.92 2.05315 -4.42377 0
M  V30 5270 H 500.925 0.0139217 -5.49798 0
M  V30 5271 H 502.15 0.091894 -6.79038 0
M  V30 5272 H 500.096 2.24653 -6.16334 0
M  V30 5273 H 500.013 1.11878 -7.47676 0
M  V30 5274 H 501.281 2.30754 -7.44562 0
M  V30 5275 N 505.51 1.54411 -0.315457 0
M  V30 5276 C 506.473 2.22713 0.54142 0
M  V30 5277 C 507.473 1.2179 1.04995 0
M  V30 5278 O 508.663 1.46426 0.943667 0
M  V30 5279 C 505.795 2.92485 1.75116 0
M  V30 5280 H 506.988 2.99849 -0.0555508 0
M  V30 5281 H 504.541 1.56159 -0.0664453 0
M  V30 5282 H 505.276 2.19466 2.38758 0
M  V30 5283 H 505.061 3.66483 1.39401 0
M  V30 5284 H 506.551 3.44548 2.35959 0
M  V30 5285 N 506.988 0.0434614 1.5754 0
M  V30 5286 C 507.935 -0.93356 2.11077 0
M  V30 5287 C 508.905 -1.31383 1.01626 0
M  V30 5288 O 510.09 -1.40465 1.29129 0
M  V30 5289 C 507.23 -2.20578 2.65404 0
M  V30 5290 C 506.343 -1.88068 3.88914 0
M  V30 5291 C 505.478 -3.09691 4.31584 0
M  V30 5292 C 504.517 -2.73067 5.47815 0
M  V30 5293 N 503.654 -3.87359 5.85574 0
M  V30 5294 H 508.494 -0.470118 2.94268 0
M  V30 5295 H 506.031 -0.220434 1.45439 0
M  V30 5296 H 507.989 -2.95011 2.94999 0
M  V30 5297 H 506.619 -2.64513 1.85021 0
M  V30 5298 H 505.671 -1.03816 3.6596 0
M  V30 5299 H 506.983 -1.57104 4.73413 0
M  V30 5300 H 506.137 -3.92431 4.62691 0
M  V30 5301 H 504.876 -3.43827 3.45882 0
M  V30 5302 H 503.881 -1.88742 5.16388 0
M  V30 5303 H 505.106 -2.40131 6.35227 0
M  V30 5304 H 503.052 -4.21311 5.02825 0
M  V30 5305 H 502.969 -3.60068 6.64746 0
M  V30 5306 H 504.237 -4.70761 6.21292 0
M  V30 5307 N 508.466 -1.55915 -0.229846 0
M  V30 5308 C 509.398 -1.88209 -1.30805 0
M  V30 5309 C 510.411 -0.769672 -1.43457 0
M  V30 5310 O 511.6 -1.04792 -1.44502 0
M  V30 5311 C 508.7 -2.06829 -2.68468 0
M  V30 5312 C 507.873 -3.37798 -2.77869 0
M  V30 5313 C 506.932 -3.45952 -3.96489 0
M  V30 5314 O 505.958 -4.19043 -3.85216 0
M  V30 5315 N 507.16 -2.76488 -5.10426 0
M  V30 5316 H 509.925 -2.81286 -1.03431 0
M  V30 5317 H 507.486 -1.5636 -0.41991 0
M  V30 5318 H 509.478 -2.09608 -3.46189 0
M  V30 5319 H 508.048 -1.20416 -2.88477 0
M  V30 5320 H 507.268 -3.4719 -1.86689 0
M  V30 5321 H 508.556 -4.24091 -2.81113 0
M  V30 5322 H 507.954 -2.16868 -5.2248 0
M  V30 5323 H 506.511 -2.84938 -5.8622 0
M  V30 5324 N 509.944 0.496216 -1.49584 0
M  V30 5325 C 511.36 0.827814 -1.36453 0
M  V30 5326 C 511.56 1.97464 -0.401285 0
M  V30 5327 O 510.616 2.51958 0.165296 0
M  V30 5328 C 511.929 1.16352 -2.77277 0
M  V30 5329 C 513.477 1.27145 -2.86013 0
M  V30 5330 C 513.952 1.64042 -4.27615 0
M  V30 5331 N 515.443 1.71082 -4.30448 0
M  V30 5332 C 516.178 2.01085 -5.36984 0
M  V30 5333 N 515.674 2.2928 -6.5376 0
M  V30 5334 N 517.467 2.02376 -5.24405 0
M  V30 5335 H 509.618 -0.259947 -2.10803 0
M  V30 5336 H 511.881 -0.0537163 -0.946477 0
M  V30 5337 H 511.587 0.394153 -3.49484 0
M  V30 5338 H 511.461 2.10582 -3.12946 0
M  V30 5339 H 513.848 2.03152 -2.1404 0
M  V30 5340 H 513.929 0.309542 -2.5392 0
M  V30 5341 H 513.573 0.88583 -5.00115 0
M  V30 5342 H 513.503 2.6134 -4.57175 0
M  V30 5343 H 515.994 1.51434 -3.46232 0
M  V30 5344 H 516.307 2.51376 -7.30774 0
M  V30 5345 H 514.652 2.26726 -6.56978 0
M  V30 5346 H 517.843 1.79829 -4.32179 0
M  V30 5347 H 518.016 2.25425 -6.07526 0
M  V30 5348 N 511.423 1.38739 0.74761 0
M  V30 5349 C 512.37 1.36449 1.86146 0
M  V30 5350 C 513.34 0.226098 1.64554 0
M  V30 5351 O 514.525 0.41926 1.86137 0
M  V30 5352 C 511.665 1.2013 3.23516 0
M  V30 5353 C 510.778 2.43407 3.56899 0
M  V30 5354 C 509.913 2.19773 4.83605 0
M  V30 5355 C 508.952 3.3879 5.09792 0
M  V30 5356 N 508.089 3.14553 6.27695 0
M  V30 5357 H 512.929 2.3167 1.87438 0
M  V30 5358 H 510.466 1.15094 0.916063 0
M  V30 5359 H 512.424 1.08683 4.02795 0
M  V30 5360 H 511.054 0.285453 3.21535 0
M  V30 5361 H 510.106 2.65504 2.72418 0
M  V30 5362 H 511.418 3.32094 3.72176 0
M  V30 5363 H 510.572 2.05496 5.70838 0
M  V30 5364 H 509.311 1.28461 4.70478 0
M  V30 5365 H 508.316 3.53579 4.21025 0
M  V30 5366 H 509.541 4.30986 5.24812 0
M  V30 5367 H 507.487 2.25893 6.1588 0
M  V30 5368 H 507.404 3.96791 6.435 0
M  V30 5369 H 508.672 3.03943 7.17801 0
M  V30 5370 N 512.901 -0.976442 1.23707 0
M  V30 5371 C 514.147 -1.72081 1.07312 0
M  V30 5372 C 514.48 -1.90275 -0.388476 0
M  V30 5373 O 513.755 -1.4579 -1.28746 0
M  V30 5374 C 514.038 -3.11675 1.80363 0
M  V30 5375 C 513.891 -3.01027 3.3422 0
M  V30 5376 C 515.21 -4.1117 1.5693 0
M  V30 5377 H 512.329 -0.624583 0.391236 0
M  V30 5378 H 514.971 -1.13649 1.52263 0
M  V30 5379 H 513.121 -3.61559 1.42153 0
M  V30 5380 H 514.793 -2.58637 3.81975 0
M  V30 5381 H 513.036 -2.3744 3.63049 0
M  V30 5382 H 513.707 -3.9988 3.80525 0
M  V30 5383 H 516.183 -3.7011 1.90151 0
M  V30 5384 H 515.059 -5.06928 2.10513 0
M  V30 5385 H 515.32 -4.392 0.505548 0
M  V30 5386 N 514.379 -1.04941 -1.1758 0
M  V30 5387 C 515.627 -0.756492 -1.87408 0
M  V30 5388 C 515.948 0.718478 -1.81281 0
M  V30 5389 O 515.218 1.519 -1.23706 0
M  V30 5390 H 513.798 -0.276841 -0.693807 0
M  V30 5391 H 516.46 -1.32803 -1.42652 0
M  V30 5392 H 515.556 -1.06918 -2.93215 0
M  V30 5393 N 515.857 1.33968 -0.830081 0
M  V30 5394 C 516.805 2.31301 -0.245435 0
M  V30 5395 C 517.799 1.57734 0.617762 0
M  V30 5396 O 519.005 1.72674 0.508303 0
M  V30 5397 H 515.38 0.749552 -0.0606316 0
M  V30 5398 H 517.351 2.78129 -1.08105 0
M  V30 5399 C 516.1 3.42961 0.572084 0
M  V30 5400 H 515.423 3.99714 -0.0828118 0
M  V30 5401 H 516.863 4.13286 0.94715 0
M  V30 5402 C 515.322 2.88043 1.74737 0
M  V30 5403 O 515.852 2.83508 2.8458 0
M  V30 5404 N 514.058 2.44768 1.56642 0
M  V30 5405 H 513.605 2.48656 0.672901 0
M  V30 5406 H 513.563 2.08375 2.3543 0
M  V30 5407 N 517.335 0.585699 1.46312 0
M  V30 5408 C 518.746 0.159938 1.86014 0
M  V30 5409 C 519.097 -1.27775 1.48889 0
M  V30 5410 O 518.222 -1.96559 0.90519 0
M  V30 5411 C 518.817 0.283485 3.37612 0
M  V30 5412 C 517.376 -0.0874256 3.76298 0
M  V30 5413 C 516.523 0.618055 2.70325 0
M  V30 5414 H 519.474 0.793737 1.37425 0
M  V30 5415 H 519.495 -0.490348 3.77327 0
M  V30 5416 H 519.007 1.32995 3.64601 0
M  V30 5417 H 517.108 -1.13391 3.54927 0
M  V30 5418 H 517.221 0.290975 4.78216 0
M  V30 5419 H 515.585 0.057993 2.54634 0
M  V30 5420 H 516.368 1.66623 3.00153 0
M  V30 5421 N 518.813 -1.54241 0.323641 0
M  V30 5422 C 520.06 -2.0057 -0.27891 0
M  V30 5423 C 520.388 -1.21181 -1.52136 0
M  V30 5424 O 519.643 -0.282043 -1.93657 0
M  V30 5425 C 519.942 -3.5129 -0.658031 0
M  V30 5426 C 519.608 -4.48281 0.485252 0
M  V30 5427 C 518.27 -4.74519 0.799055 0
M  V30 5428 C 520.622 -5.05909 1.25322 0
M  V30 5429 C 517.95 -5.55643 1.88354 0
M  V30 5430 C 520.302 -5.88215 2.32779 0
M  V30 5431 C 518.966 -6.12755 2.64741 0
M  V30 5432 H 518.236 -0.733938 -0.10206 0
M  V30 5433 H 520.883 -1.862 0.447435 0
M  V30 5434 H 519.188 -3.63388 -1.4648 0
M  V30 5435 H 520.885 -3.84578 -1.1358 0
M  V30 5436 H 517.475 -4.27979 0.230593 0
M  V30 5437 H 521.659 -4.8562 1.02404 0
M  V30 5438 H 516.915 -5.72888 2.13564 0
M  V30 5439 H 521.089 -6.31888 2.92729 0
M  V30 5440 H 518.716 -6.75404 3.48904 0
M  V30 5441 N 520.291 -0.0518155 -1.57515 0
M  V30 5442 C 521.201 0.937539 -2.15052 0
M  V30 5443 C 522.217 1.34121 -1.10849 0
M  V30 5444 O 523.393 1.418 -1.4302 0
M  V30 5445 C 520.458 2.19379 -2.68466 0
M  V30 5446 C 519.519 1.84841 -3.87469 0
M  V30 5447 C 518.752 3.04477 -4.38326 0
M  V30 5448 O 518.975 4.17868 -3.88256 0
M  V30 5449 O 517.909 2.85453 -5.29906 0
M  V30 5450 H 521.735 0.478201 -2.99912 0
M  V30 5451 H 519.32 0.17012 -1.48428 0
M  V30 5452 H 521.202 2.93084 -3.02787 0
M  V30 5453 H 519.877 2.64449 -1.86677 0
M  V30 5454 H 518.784 1.08449 -3.58036 0
M  V30 5455 H 520.117 1.44569 -4.7049 0
M  V30 5456 N 521.769 1.56035 0.221574 0
M  V30 5457 C 522.699 1.95434 1.2778 0
M  V30 5458 C 523.68 0.822564 1.48889 0
M  V30 5459 O 524.865 1.08486 1.61072 0
M  V30 5460 C 521.995 2.27102 2.62759 0
M  V30 5461 C 520.949 3.4277 2.56306 0
M  V30 5462 C 520.275 3.60043 3.95314 0
M  V30 5463 C 521.575 4.77742 2.11093 0
M  V30 5464 H 523.269 2.83912 0.950504 0
M  V30 5465 H 520.815 1.36596 0.455791 0
M  V30 5466 H 522.768 2.53256 3.36807 0
M  V30 5467 H 521.492 1.35478 2.97176 0
M  V30 5468 H 520.151 3.16664 1.84715 0
M  V30 5469 H 519.799 2.65794 4.27039 0
M  V30 5470 H 519.499 4.37841 3.91879 0
M  V30 5471 H 521.023 3.88545 4.71025 0
M  V30 5472 H 522.437 5.03102 2.74885 0
M  V30 5473 H 520.834 5.58823 2.18716 0
M  V30 5474 H 521.904 4.731 1.06321 0
M  V30 5475 N 523.247 -0.488276 1.49845 0
M  V30 5476 C 524.524 -1.24959 1.50481 0
M  V30 5477 C 524.904 -2.09735 0.239698 0
M  V30 5478 O 524.252 -2.14865 -0.777524 0
M  V30 5479 C 524.462 -2.0954 2.79095 0
M  V30 5480 C 525.81 -2.68305 3.29086 0
M  V30 5481 O 526.834 -2.19797 2.80299 0
M  V30 5482 O 525.693 -3.56643 4.14087 0
M  V30 5483 H 522.787 -0.566133 0.602845 0
M  V30 5484 H 525.333 -0.501504 1.6212 0
M  V30 5485 H 524.105 -1.46958 3.62656 0
M  V30 5486 H 523.728 -2.91517 2.70377 0
M  V30 5487 N 524.725 -1.39134 -0.740242 0
M  V30 5488 C 525.953 -1.39334 -1.5295 0
M  V30 5489 C 526.368 0.0135008 -1.88795 0
M  V30 5490 O 525.725 0.983524 -1.5373 0
M  V30 5491 C 525.776 -2.2614 -2.82034 0
M  V30 5492 O 525.497 -3.61345 -2.47712 0
M  V30 5493 C 526.998 -2.34666 -3.76094 0
M  V30 5494 H 524.218 -0.476103 -0.472828 0
M  V30 5495 H 526.762 -1.82883 -0.9151 0
M  V30 5496 H 524.917 -1.86018 -3.39818 0
M  V30 5497 H 525.331 -4.07194 -3.30595 0
M  V30 5498 H 526.805 -2.99663 -4.63579 0
M  V30 5499 H 527.282 -1.36426 -4.17474 0
M  V30 5500 H 527.888 -2.75236 -3.2423 0
M  V30 5501 N 526.204 0.969867 -1.24223 0
M  V30 5502 C 527.136 2.0669 -0.99055 0
M  V30 5503 C 528.149 1.62753 0.0392222 0
M  V30 5504 O 529.338 1.77403 -0.197561 0
M  V30 5505 C 526.438 3.35589 -0.472594 0
M  V30 5506 C 525.611 4.08444 -1.56499 0
M  V30 5507 C 524.67 5.15616 -1.05007 0
M  V30 5508 O 523.696 5.41911 -1.7413 0
M  V30 5509 N 524.898 5.80383 0.116641 0
M  V30 5510 H 527.663 2.28855 -1.93508 0
M  V30 5511 H 525.224 1.13733 -1.15223 0
M  V30 5512 H 527.216 4.04542 -0.112919 0
M  V30 5513 H 525.786 3.10311 0.377617 0
M  V30 5514 H 525.006 3.33798 -2.09696 0
M  V30 5515 H 526.294 4.53882 -2.29932 0
M  V30 5516 H 525.692 5.6142 0.694589 0
M  V30 5517 H 524.249 6.50462 0.417483 0
M  V30 5518 N 527.682 1.05563 1.17022 0
M  V30 5519 C 528.614 0.617888 2.20714 0
M  V30 5520 C 529.627 -0.320303 1.59618 0
M  V30 5521 O 530.816 -0.112449 1.78145 0
M  V30 5522 C 527.916 -0.115333 3.38704 0
M  V30 5523 C 527.089 0.834493 4.29366 0
M  V30 5524 C 526.148 0.141855 5.26009 0
M  V30 5525 O 525.174 0.777151 5.6387 0
M  V30 5526 N 526.376 -1.11934 5.69606 0
M  V30 5527 H 529.141 1.50981 2.58892 0
M  V30 5528 H 526.702 0.938008 1.31958 0
M  V30 5529 H 528.694 -0.588918 4.00392 0
M  V30 5530 H 527.264 -0.908967 2.99093 0
M  V30 5531 H 526.484 1.48762 3.65053 0
M  V30 5532 H 527.772 1.4791 4.86827 0
M  V30 5533 H 527.17 -1.65574 5.40927 0
M  V30 5534 H 525.727 -1.53692 6.33421 0
M  V30 5535 N 529.16 -1.33526 0.837174 0
M  V30 5536 C 530.408 -1.97446 0.431211 0
M  V30 5537 C 530.729 -1.6665 -1.01255 0
M  V30 5538 O 529.999 -0.964559 -1.70508 0
M  V30 5539 H 528.579 -0.73043 0.156463 0
M  V30 5540 H 531.241 -1.62918 1.06976 0
M  V30 5541 H 530.337 -3.07001 0.561877 0
M  V30 5542 N 530.638 -0.59345 -1.46 0
M  V30 5543 C 532.049 -0.169801 -1.85926 0
M  V30 5544 C 532.4 1.26984 -1.49565 0
M  V30 5545 O 531.525 1.96076 -0.915602 0
M  V30 5546 C 532.12 -0.301385 -3.37457 0
M  V30 5547 C 530.679 0.0674684 -3.7634 0
M  V30 5548 C 529.826 -0.632383 -2.69993 0
M  V30 5549 H 532.777 -0.801014 -1.37002 0
M  V30 5550 H 532.798 0.470331 -3.77582 0
M  V30 5551 H 532.31 -1.34927 -3.63891 0
M  V30 5552 H 530.411 1.11507 -3.55523 0
M  V30 5553 H 530.524 -0.316332 -4.78055 0
M  V30 5554 H 528.888 -0.0714961 -2.546 0
M  V30 5555 H 529.671 -1.68212 -2.99265 0
M  V30 5556 N 532.116 1.54067 -0.331816 0
M  V30 5557 C 533.048 2.22139 0.564538 0
M  V30 5558 C 534.061 1.22408 1.07332 0
M  V30 5559 O 535.25 1.4883 0.985481 0
M  V30 5560 C 532.35 2.87876 1.78831 0
M  V30 5561 C 531.523 4.13817 1.41682 0
M  V30 5562 C 530.582 4.63072 2.49901 0
M  V30 5563 O 529.608 5.27562 2.13699 0
M  V30 5564 N 530.81 4.38001 3.80967 0
M  V30 5565 H 533.575 2.99694 -0.0183736 0
M  V30 5566 H 531.136 1.61153 -0.155396 0
M  V30 5567 H 533.128 3.17747 2.50637 0
M  V30 5568 H 531.698 2.13977 2.27887 0
M  V30 5569 H 530.918 3.9062 0.530044 0
M  V30 5570 H 532.206 4.95762 1.14443 0
M  V30 5571 H 531.604 3.864 4.13173 0
M  V30 5572 H 530.161 4.72507 4.48977 0
M  V30 5573 N 533.594 0.0601682 1.57485 0
M  V30 5574 C 534.84 -0.612501 1.93329 0
M  V30 5575 C 535.173 -1.6996 0.939526 0
M  V30 5576 O 534.448 -1.94472 -0.0330957 0
M  V30 5577 C 534.731 -1.20025 3.39508 0
M  V30 5578 C 534.584 -0.12059 4.49638 0
M  V30 5579 C 535.903 -2.10923 3.86264 0
M  V30 5580 H 533.022 -0.221185 0.703027 0
M  V30 5581 H 535.664 0.123768 1.89596 0
M  V30 5582 H 533.814 -1.82774 3.42821 0
M  V30 5583 H 535.486 0.51185 4.58452 0
M  V30 5584 H 533.729 0.550251 4.30296 0
M  V30 5585 H 534.4 -0.572019 5.49028 0
M  V30 5586 H 536.876 -1.58124 3.84884 0
M  V30 5587 H 535.752 -2.48987 4.8918 0
M  V30 5588 H 536.013 -3.01292 3.23536 0
M  V30 5589 N 535.072 -1.5615 -0.213296 0
M  V30 5590 C 536.349 -1.70349 -0.961281 0
M  V30 5591 C 536.729 -0.609791 -2.02101 0
M  V30 5592 O 536.077 0.381987 -2.25285 0
M  V30 5593 C 536.287 -3.11982 -1.56424 0
M  V30 5594 C 537.635 -3.71649 -2.05334 0
M  V30 5595 O 538.659 -3.14995 -1.66302 0
M  V30 5596 O 537.518 -4.71038 -2.77102 0
M  V30 5597 H 534.612 -0.694121 -0.449582 0
M  V30 5598 H 537.158 -1.68464 -0.204426 0
M  V30 5599 H 535.93 -3.83046 -0.799457 0
M  V30 5600 H 535.553 -3.18019 -2.38641 0
M  V30 5601 N 536.55 0.480323 -1.50102 0
M  V30 5602 C 537.497 1.57946 -1.6829 0
M  V30 5603 C 538.467 1.57611 -0.524223 0
M  V30 5604 O 539.652 1.75282 -0.753709 0
M  V30 5605 C 536.792 2.95978 -1.77457 0
M  V30 5606 C 535.905 3.06173 -3.04766 0
M  V30 5607 C 535.04 4.35063 -3.04784 0
M  V30 5608 C 534.079 4.38966 -4.26586 0
M  V30 5609 N 533.216 5.59314 -4.24396 0
M  V30 5610 H 538.056 1.41743 -2.62131 0
M  V30 5611 H 535.593 0.689304 -1.2995 0
M  V30 5612 H 537.551 3.76011 -1.80752 0
M  V30 5613 H 536.181 3.10837 -0.870637 0
M  V30 5614 H 535.233 2.19071 -3.10986 0
M  V30 5615 H 536.545 3.04916 -3.9475 0
M  V30 5616 H 535.699 5.23436 -3.06757 0
M  V30 5617 H 534.438 4.38915 -2.12614 0
M  V30 5618 H 533.443 3.48992 -4.24835 0
M  V30 5619 H 534.668 4.36813 -5.19972 0
M  V30 5620 H 532.614 5.63969 -3.35074 0
M  V30 5621 H 532.531 5.5976 -5.08138 0
M  V30 5622 H 533.799 6.49837 -4.30502 0
M  V30 5623 N 538.028 1.39524 0.732853 0
M  V30 5624 C 538.938 1.40695 1.87729 0
M  V30 5625 C 539.954 0.301496 1.71368 0
M  V30 5626 O 541.13 0.543313 1.93933 0
M  V30 5627 C 538.195 1.25098 3.23344 0
M  V30 5628 C 537.256 2.45634 3.52083 0
M  V30 5629 C 536.489 2.30772 4.81228 0
M  V30 5630 O 536.712 1.31233 5.55098 0
M  V30 5631 O 535.646 3.19799 5.09914 0
M  V30 5632 H 539.472 2.37168 1.89697 0
M  V30 5633 H 537.057 1.20663 0.880959 0
M  V30 5634 H 538.939 1.18541 4.04383 0
M  V30 5635 H 537.614 0.317209 3.22142 0
M  V30 5636 H 536.521 2.57767 2.71122 0
M  V30 5637 H 537.854 3.37712 3.58066 0
M  V30 5638 N 539.506 -0.963266 1.24736 0
M  V30 5639 C 540.438 -2.06162 1.0015 0
M  V30 5640 C 541.451 -1.62771 -0.0305905 0
M  V30 5641 O 542.64 -1.77296 0.206966 0
M  V30 5642 C 539.74 -3.35333 0.490385 0
M  V30 5643 C 538.913 -4.07609 1.58663 0
M  V30 5644 C 537.972 -5.15052 1.0774 0
M  V30 5645 O 536.998 -5.4098 1.77002 0
M  V30 5646 N 538.2 -5.80436 -0.0858605 0
M  V30 5647 H 540.965 -2.27825 1.94719 0
M  V30 5648 H 538.526 -1.13121 1.15825 0
M  V30 5649 H 540.518 -4.04477 0.134371 0
M  V30 5650 H 539.088 -3.10507 -0.361155 0
M  V30 5651 H 538.308 -3.32681 2.11463 0
M  V30 5652 H 539.596 -4.52656 2.32336 0
M  V30 5653 H 538.994 -5.6178 -0.664806 0
M  V30 5654 H 537.551 -6.50674 -0.382981 0
M  V30 5655 N 540.985 -1.06182 -1.16461 0
M  V30 5656 C 542.232 -0.777863 -1.86964 0
M  V30 5657 C 542.56 0.695602 -1.81636 0
M  V30 5658 O 541.815 1.52532 -1.22607 0
M  V30 5659 C 542.114 -1.21633 -3.36066 0
M  V30 5660 C 541.78 -2.69371 -3.61594 0
M  V30 5661 C 540.442 -3.09727 -3.6827 0
M  V30 5662 C 542.794 -3.64791 -3.7226 0
M  V30 5663 C 540.122 -4.44345 -3.83112 0
M  V30 5664 C 542.474 -4.99155 -3.88623 0
M  V30 5665 C 541.138 -5.39149 -3.93541 0
M  V30 5666 H 540.408 -0.28464 -0.68415 0
M  V30 5667 H 543.055 -1.33071 -1.37711 0
M  V30 5668 H 541.36 -0.582651 -3.87443 0
M  V30 5669 H 543.057 -0.973682 -3.88999 0
M  V30 5670 H 539.647 -2.37124 -3.57029 0
M  V30 5671 H 543.831 -3.34746 -3.66413 0
M  V30 5672 H 539.087 -4.74819 -3.85172 0
M  V30 5673 H 543.261 -5.72976 -3.95817 0
M  V30 5674 H 540.888 -6.43464 -4.04794 0
M  V30 5675 N 542.463 1.3308 -0.844243 0
M  V30 5676 C 543.373 2.32876 -0.283922 0
M  V30 5677 C 544.389 1.63589 0.592846 0
M  V30 5678 O 545.565 1.95205 0.495693 0
M  V30 5679 C 542.63 3.42667 0.527283 0
M  V30 5680 C 541.691 4.27664 -0.374394 0
M  V30 5681 C 540.924 5.32212 0.39819 0
M  V30 5682 O 541.147 5.46635 1.62932 0
M  V30 5683 O 540.081 6.01458 -0.2306 0
M  V30 5684 H 543.907 2.82671 -1.11045 0
M  V30 5685 H 541.492 1.36518 -0.606903 0
M  V30 5686 H 543.374 4.09652 0.988078 0
M  V30 5687 H 542.049 2.95079 1.33078 0
M  V30 5688 H 540.956 3.63526 -0.883144 0
M  V30 5689 H 542.289 4.78749 -1.1428 0
M  V30 5690 N 543.941 0.601185 1.45683 0
M  V30 5691 C 545.357 0.264315 1.57396 0
M  V30 5692 C 545.557 -1.23324 1.59353 0
M  V30 5693 O 544.613 -2.01594 1.52039 0
M  V30 5694 C 545.926 0.929839 2.85962 0
M  V30 5695 C 547.474 0.905156 2.99626 0
M  V30 5696 C 547.949 1.55057 4.30954 0
M  V30 5697 N 549.44 1.51576 4.37697 0
M  V30 5698 C 550.175 1.98436 5.37969 0
M  V30 5699 N 549.671 2.53352 6.44813 0
M  V30 5700 N 551.464 1.89242 5.29286 0
M  V30 5701 H 543.615 1.57363 1.42656 0
M  V30 5702 H 545.878 0.658831 0.681649 0
M  V30 5703 H 545.584 1.98404 2.90394 0
M  V30 5704 H 545.458 0.449224 3.74515 0
M  V30 5705 H 547.845 -0.14048 2.94765 0
M  V30 5706 H 547.926 1.42397 2.12501 0
M  V30 5707 H 547.57 2.5955 4.36573 0
M  V30 5708 H 547.5 1.00682 5.16886 0
M  V30 5709 H 549.991 1.11452 3.61091 0
M  V30 5710 H 550.304 2.86918 7.17564 0
M  V30 5711 H 548.649 2.57388 6.45582 0
M  V30 5712 H 551.84 1.46083 4.44722 0
M  V30 5713 H 552.013 2.26075 6.07284 0
M  V30 5714 N 545.419 -1.53889 0.339982 0
M  V30 5715 C 546.665 -2.01152 -0.258003 0
M  V30 5716 C 546.998 -1.22749 -1.50487 0
M  V30 5717 O 546.273 -0.314156 -1.91946 0
M  V30 5718 C 546.556 -3.55468 -0.575717 0
M  V30 5719 C 546.409 -4.44584 0.682996 0
M  V30 5720 C 547.728 -4.1768 -1.38677 0
M  V30 5721 H 544.847 -0.731198 -0.0922992 0
M  V30 5722 H 547.489 -1.84352 0.459814 0
M  V30 5723 H 545.639 -3.69914 -1.18725 0
M  V30 5724 H 547.311 -4.41981 1.32102 0
M  V30 5725 H 545.554 -4.13592 1.3086 0
M  V30 5726 H 546.225 -5.5043 0.416001 0
M  V30 5727 H 548.701 -4.0691 -0.869705 0
M  V30 5728 H 547.577 -5.25734 -1.57783 0
M  V30 5729 H 547.838 -3.72069 -2.38782 0
M  V30 5730 N 546.897 -0.0685191 -1.57451 0
M  V30 5731 C 547.827 0.89747 -2.15564 0
M  V30 5732 C 548.808 1.31266 -1.08181 0
M  V30 5733 O 549.993 1.38429 -1.36202 0
M  V30 5734 C 547.123 2.16623 -2.71463 0
M  V30 5735 C 546.077 1.89054 -3.83982 0
M  V30 5736 C 545.403 3.22532 -4.26471 0
M  V30 5737 C 546.703 1.1984 -5.08366 0
M  V30 5738 H 548.397 0.413373 -2.96533 0
M  V30 5739 H 545.943 0.197391 -1.42641 0
M  V30 5740 H 547.896 2.84614 -3.10761 0
M  V30 5741 H 546.62 2.67269 -1.8771 0
M  V30 5742 H 545.279 1.23469 -3.45183 0
M  V30 5743 H 544.927 3.71013 -3.39644 0
M  V30 5744 H 544.627 3.04879 -5.02317 0
M  V30 5745 H 546.151 3.91727 -4.68383 0
M  V30 5746 H 547.565 1.77896 -5.45001 0
M  V30 5747 H 545.962 1.12456 -5.89469 0
M  V30 5748 H 547.032 0.176996 -4.84577 0
M  V30 5749 N 548.375 1.56261 0.205012 0
M  V30 5750 C 549.623 1.79684 0.925096 0
M  V30 5751 C 549.944 0.63989 1.84202 0
M  V30 5752 O 549.214 -0.342345 1.92885 0
M  V30 5753 H 547.794 0.662774 0.344587 0
M  V30 5754 H 550.456 1.93734 0.212899 0
M  V30 5755 H 549.552 2.72467 1.52211 0
M  V30 5756 N 549.853 -0.472356 1.50355 0
M  V30 5757 C 551.083 -1.24603 1.64796 0
M  V30 5758 C 551.491 -1.86297 0.330156 0
M  V30 5759 O 550.834 -1.69934 -0.697728 0
M  V30 5760 C 550.896 -2.39578 2.68035 0
M  V30 5761 C 550.56 -1.98531 4.11624 0
M  V30 5762 C 551.557 -1.50856 4.97532 0
M  V30 5763 C 549.242 -2.0729 4.57532 0
M  V30 5764 C 551.236 -1.12481 6.27397 0
M  V30 5765 C 548.923 -1.68527 5.87403 0
M  V30 5766 C 549.921 -1.212 6.7216 0
M  V30 5767 O 549.609 -0.829728 7.99607 0
M  V30 5768 H 549.341 -0.383035 0.55701 0
M  V30 5769 H 551.895 -0.570392 1.97321 0
M  V30 5770 H 550.125 -3.10309 2.30749 0
M  V30 5771 H 551.814 -3.01544 2.71709 0
M  V30 5772 H 552.58 -1.43511 4.63281 0
M  V30 5773 H 548.459 -2.43076 3.91708 0
M  V30 5774 H 552.003 -0.754698 6.93506 0
M  V30 5775 H 547.9 -1.7553 6.21176 0
M  V30 5776 H 548.668 -0.958689 8.12866 0
M  V30 5777 N 551.331 -1.39911 -0.725443 0
M  V30 5778 C 552.58 -1.36963 -1.48068 0
M  V30 5779 C 552.893 0.0284478 -1.95579 0
M  V30 5780 O 554.099 0.180535 -2.70899 0
M  V30 5781 C 552.555 -2.40664 -2.67598 0
M  V30 5782 C 552.163 -3.86234 -2.26997 0
M  V30 5783 C 553.907 -2.46807 -3.45379 0
M  V30 5784 C 551.814 -4.81554 -3.43307 0
M  V30 5785 H 550.744 -0.509223 -0.556065 0
M  V30 5786 H 553.395 -1.65602 -0.790454 0
M  V30 5787 H 551.777 -2.05109 -3.38742 0
M  V30 5788 H 552.951 -4.3088 -1.63337 0
M  V30 5789 H 551.266 -3.83475 -1.62284 0
M  V30 5790 H 553.863 -3.15213 -4.31909 0
M  V30 5791 H 554.206 -1.49552 -3.8851 0
M  V30 5792 H 554.739 -2.81303 -2.81271 0
M  V30 5793 H 551.478 -5.80106 -3.05217 0
M  V30 5794 H 550.998 -4.4158 -4.05915 0
M  V30 5795 H 552.677 -5.0091 -4.0951 0
M  V30 5796 N 552.809 0.956637 -1.25245 0
M  V30 5797 C 553.741 2.05628 -1.01242 0
M  V30 5798 C 554.754 1.62785 0.0219579 0
M  V30 5799 O 555.943 1.77184 -0.216365 0
M  V30 5800 C 553.043 3.35069 -0.508161 0
M  V30 5801 C 552.216 4.06761 -1.60823 0
M  V30 5802 C 551.275 5.14473 -1.1047 0
M  V30 5803 O 550.301 5.40033 -1.79868 0
M  V30 5804 N 551.503 5.80474 0.0550773 0
M  V30 5805 H 554.268 2.2679 -1.95925 0
M  V30 5806 H 551.829 1.12505 -1.16423 0
M  V30 5807 H 553.821 4.044 -0.155819 0
M  V30 5808 H 552.391 3.10694 0.344683 0
M  V30 5809 H 551.611 3.31555 -2.13224 0
M  V30 5810 H 552.899 4.51418 -2.34733 0
M  V30 5811 H 552.297 5.62125 0.635004 0
M  V30 5812 H 550.854 6.50868 0.348469 0
M  V30 5813 N 554.287 1.06798 1.15896 0
M  V30 5814 C 555.217 0.704677 2.22613 0
M  V30 5815 C 556.198 -0.305252 1.67339 0
M  V30 5816 O 557.383 -0.179247 1.93371 0
M  V30 5817 C 554.513 0.0957325 3.47168 0
M  V30 5818 C 553.467 1.0322 4.15367 0
M  V30 5819 C 552.793 0.286293 5.33933 0
M  V30 5820 C 554.093 2.36341 4.65768 0
M  V30 5821 H 555.787 1.59688 2.53259 0
M  V30 5822 H 553.333 0.769257 1.21731 0
M  V30 5823 H 555.286 -0.170333 4.21056 0
M  V30 5824 H 554.01 -0.831516 3.15838 0
M  V30 5825 H 552.669 1.28309 3.43413 0
M  V30 5826 H 552.317 -0.644237 4.98857 0
M  V30 5827 H 552.017 0.910436 5.80504 0
M  V30 5828 H 553.541 0.0278938 6.10594 0
M  V30 5829 H 554.955 2.1561 5.31211 0
M  V30 5830 H 553.352 2.94299 5.2298 0
M  V30 5831 H 554.422 2.99047 3.81705 0
M  V30 5832 N 555.766 -1.3263 0.851289 0
M  V30 5833 C 557.014 -1.96978 0.452128 0
M  V30 5834 C 557.335 -1.67715 -0.99482 0
M  V30 5835 O 556.605 -0.98259 -1.69476 0
M  V30 5836 H 555.185 -0.72873 0.164202 0
M  V30 5837 H 557.847 -1.61774 1.08698 0
M  V30 5838 H 556.943 -3.06387 0.594407 0
M  V30 5839 N 557.244 -0.608902 -1.45362 0
M  V30 5840 C 558.176 0.147318 -2.28726 0
M  V30 5841 C 559.189 0.830468 -1.40025 0
M  V30 5842 O 560.378 0.695636 -1.64387 0
M  V30 5843 C 557.478 1.22968 -3.15804 0
M  V30 5844 C 556.651 0.633391 -4.3279 0
M  V30 5845 C 555.71 1.60682 -5.01067 0
M  V30 5846 O 554.736 1.13261 -5.57818 0
M  V30 5847 N 555.938 2.94123 -5.00472 0
M  V30 5848 H 558.703 -0.568014 -2.94268 0
M  V30 5849 H 556.264 -0.448479 -1.55564 0
M  V30 5850 H 558.256 1.88072 -3.58345 0
M  V30 5851 H 556.826 1.84752 -2.52162 0
M  V30 5852 H 556.046 -0.195762 -3.93714 0
M  V30 5853 H 557.334 0.215255 -5.08344 0
M  V30 5854 H 556.732 3.3525 -4.55657 0
M  V30 5855 H 555.289 3.54646 -5.46872 0
M  V30 5856 N 558.722 1.53707 -0.348139 0
M  V30 5857 C 559.669 2.25173 0.506518 0
M  V30 5858 C 560.639 1.25174 1.09182 0
M  V30 5859 O 561.824 1.53917 1.12757 0
M  V30 5860 C 558.964 3.03141 1.64923 0
M  V30 5861 C 558.077 4.18002 1.0908 0
M  V30 5862 C 557.212 4.83447 2.20119 0
M  V30 5863 C 556.251 5.90369 1.61651 0
M  V30 5864 N 555.388 6.49575 2.66451 0
M  V30 5865 H 560.228 2.97799 -0.109452 0
M  V30 5866 H 557.765 1.46953 -0.0657866 0
M  V30 5867 H 559.723 3.46607 2.32205 0
M  V30 5868 H 558.353 2.32803 2.23612 0
M  V30 5869 H 557.405 3.79145 0.308783 0
M  V30 5870 H 558.717 4.94892 0.623178 0
M  V30 5871 H 557.871 5.30008 2.95257 0
M  V30 5872 H 556.61 4.05991 2.70227 0
M  V30 5873 H 555.615 5.43186 0.850209 0
M  V30 5874 H 556.84 6.69735 1.1239 0
M  V30 5875 H 554.786 5.74981 3.15805 0
M  V30 5876 H 554.703 7.21952 2.24325 0
M  V30 5877 H 555.971 7.00789 3.41344 0
M  V30 5878 N 560.2 0.0768682 1.57412 0
M  V30 5879 C 561.11 -0.903207 2.16516 0
M  V30 5880 C 562.126 -1.32341 1.12968 0
M  V30 5881 O 563.302 -1.39507 1.45258 0
M  V30 5882 C 560.367 -2.1508 2.71922 0
M  V30 5883 C 559.428 -1.78653 3.90361 0
M  V30 5884 C 558.661 -2.97465 4.43114 0
M  V30 5885 O 558.884 -4.11638 3.94854 0
M  V30 5886 O 557.818 -2.76987 5.3438 0
M  V30 5887 H 561.644 -0.430427 3.00634 0
M  V30 5888 H 559.229 -0.146485 1.4868 0
M  V30 5889 H 561.111 -2.8823 3.07411 0
M  V30 5890 H 559.786 -2.61446 1.9086 0
M  V30 5891 H 558.693 -1.0274 3.59716 0
M  V30 5892 H 560.026 -1.37066 4.7273 0
M  V30 5893 N 561.678 -1.56367 -0.196722 0
M  V30 5894 C 562.926 -1.80172 -0.915554 0
M  V30 5895 C 563.247 -0.649649 -1.8386 0
M  V30 5896 O 562.517 0.332111 -1.93064 0
M  V30 5897 H 561.097 -0.664592 -0.341067 0
M  V30 5898 H 563.759 -1.93844 -0.202622 0
M  V30 5899 H 562.855 -2.7327 -1.50764 0
M  V30 5900 N 563.156 0.464375 -1.50603 0
M  V30 5901 C 564.119 1.54393 -1.69397 0
M  V30 5902 C 565.119 1.50566 -0.564504 0
M  V30 5903 O 566.309 1.53066 -0.831645 0
M  V30 5904 C 563.441 2.9401 -1.72543 0
M  V30 5905 H 564.634 1.39044 -2.65719 0
M  V30 5906 H 562.187 0.69122 -1.40185 0
M  V30 5907 H 562.922 3.14795 -0.77938 0
M  V30 5908 H 562.707 2.98195 -2.54602 0
M  V30 5909 H 564.197 3.72375 -1.89015 0
M  V30 5910 N 564.634 1.40294 0.718013 0
M  V30 5911 C 565.581 1.40367 1.8321 0
M  V30 5912 C 566.551 0.260952 1.64037 0
M  V30 5913 O 567.736 0.458648 1.85205 0
M  V30 5914 C 564.876 1.26965 3.20895 0
M  V30 5915 C 563.989 2.50922 3.51656 0
M  V30 5916 C 563.124 2.29981 4.78834 0
M  V30 5917 C 562.163 3.49527 5.02491 0
M  V30 5918 N 561.3 3.27796 6.20882 0
M  V30 5919 H 566.14 2.35593 1.82482 0
M  V30 5920 H 563.677 1.17012 0.891444 0
M  V30 5921 H 565.635 1.17202 4.00399 0
M  V30 5922 H 564.265 0.353591 3.20858 0
M  V30 5923 H 563.317 2.71223 2.66725 0
M  V30 5924 H 564.629 3.39913 3.65048 0
M  V30 5925 H 563.783 2.17558 5.66351 0
M  V30 5926 H 562.522 1.38411 4.67647 0
M  V30 5927 H 561.527 3.6243 4.1343 0
M  V30 5928 H 562.752 4.42021 5.15553 0
M  V30 5929 H 560.698 2.38906 6.1095 0
M  V30 5930 H 560.615 4.10351 6.34939 0
M  V30 5931 H 561.883 3.19101 7.11193 0
M  V30 5932 N 566.112 -0.949982 1.2575 0
M  V30 5933 C 567.042 -2.06483 1.09028 0
M  V30 5934 C 568.023 -1.701 -0.00201532 0
M  V30 5935 O 569.208 -1.93469 0.168383 0
M  V30 5936 C 566.338 -3.39899 0.71316 0
M  V30 5937 C 565.292 -3.90309 1.75621 0
M  V30 5938 C 564.618 -5.20274 1.23365 0
M  V30 5939 C 565.918 -4.16169 3.15596 0
M  V30 5940 H 567.612 -2.20731 2.02283 0
M  V30 5941 H 565.158 -1.06066 0.973964 0
M  V30 5942 H 567.111 -4.17346 0.58309 0
M  V30 5943 H 565.835 -3.25602 -0.255091 0
M  V30 5944 H 564.494 -3.15035 1.8748 0
M  V30 5945 H 564.142 -5.02351 0.255491 0
M  V30 5946 H 563.842 -5.54971 1.93082 0
M  V30 5947 H 565.366 -6.00314 1.11607 0
M  V30 5948 H 566.78 -4.84259 3.06864 0
M  V30 5949 H 565.177 -4.62131 3.82825 0
M  V30 5950 H 566.247 -3.22273 3.6231 0
M  V30 5951 N 567.59 -1.07411 -1.15328 0
M  V30 5952 C 568.52 -0.716472 -2.22236 0
M  V30 5953 C 569.501 0.296373 -1.67498 0
M  V30 5954 O 570.686 0.168989 -1.93463 0
M  V30 5955 C 567.816 -0.114142 -3.47112 0
M  V30 5956 C 566.77 -1.05421 -4.14814 0
M  V30 5957 C 566.096 -0.314604 -5.33774 0
M  V30 5958 C 567.396 -2.38808 -4.64508 0
M  V30 5959 H 569.09 -1.61029 -2.52408 0
M  V30 5960 H 566.636 -0.775702 -1.21321 0
M  V30 5961 H 568.589 0.148001 -4.2114 0
M  V30 5962 H 567.313 0.814755 -3.16274 0
M  V30 5963 H 565.972 -1.30128 -3.42728 0
M  V30 5964 H 565.62 0.617772 -4.99192 0
M  V30 5965 H 565.32 -0.941209 -5.80013 0
M  V30 5966 H 566.844 -0.0602747 -6.1057 0
M  V30 5967 H 568.258 -2.18424 -5.3006 0
M  V30 5968 H 566.655 -2.97069 -5.21412 0
M  V30 5969 H 567.725 -3.01067 -3.80114 0
M  V30 5970 N 569.068 1.32177 -0.85831 0
M  V30 5971 C 570.308 1.98927 -0.469822 0
M  V30 5972 C 570.672 1.66423 0.95746 0
M  V30 5973 O 571.873 2.26293 1.45069 0
M  V30 5974 C 570.144 3.50352 -0.706288 0
M  V30 5975 S 571.703 4.36824 -0.415918 0
M  V30 5976 H 568.521 0.688909 -0.175855 0
M  V30 5977 H 571.123 1.60807 -1.11181 0
M  V30 5978 H 569.827 3.71497 -1.74407 0
M  V30 5979 H 569.358 3.93367 -0.0508568 0
M  V30 5980 H 571.373 4.90398 0.756581 0
M  V30 5981 N 570.547 0.616602 1.45037 0
M  V30 5982 C 571.795 0.115103 2.01772 0
M  V30 5983 C 572.116 -1.2622 1.48639 0
M  V30 5984 O 571.386 -1.83563 0.684199 0
M  V30 5985 H 569.966 0.0395607 0.745952 0
M  V30 5986 H 572.628 0.800032 1.77723 0
M  V30 5987 H 571.724 0.0717274 3.12018 0
M  V30 5988 N 572.025 -1.5352 0.356285 0
M  V30 5989 C 573.273 -2.00719 -0.235837 0
M  V30 5990 C 573.594 -1.24551 -1.5004 0
M  V30 5991 O 572.864 -0.356185 -1.92635 0
M  V30 5992 H 571.444 -0.741542 -0.0901366 0
M  V30 5993 H 574.106 -1.88887 0.480378 0
M  V30 5994 H 573.202 -3.08551 -0.469357 0
M  V30 5995 N 573.503 -0.0852151 -1.57369 0
M  V30 5996 C 574.413 0.891712 -2.16992 0
M  V30 5997 C 575.429 1.3174 -1.13669 0
M  V30 5998 O 576.605 1.38735 -1.45995 0
M  V30 5999 C 573.67 2.13635 -2.73059 0
M  V30 6000 C 572.731 1.7658 -3.91303 0
M  V30 6001 C 571.964 2.95111 -4.44686 0
M  V30 6002 O 572.187 4.09539 -3.97032 0
M  V30 6003 O 571.121 2.74149 -5.35841 0
M  V30 6004 H 574.947 0.414477 -3.00858 0
M  V30 6005 H 572.532 0.138598 -1.48756 0
M  V30 6006 H 574.414 2.86595 -3.08935 0
M  V30 6007 H 573.089 2.6043 -1.92244 0
M  V30 6008 H 571.996 1.00831 -3.60255 0
M  V30 6009 H 573.329 1.34557 -4.7345 0
M  V30 6010 N 574.981 1.5647 0.188427 0
M  V30 6011 C 576.397 1.50204 0.539532 0
M  V30 6012 C 576.597 0.78644 1.85519 0
M  V30 6013 O 575.653 0.339714 2.50204 0
M  V30 6014 C 576.966 2.94893 0.588103 0
M  V30 6015 C 578.514 3.05602 0.67648 0
M  V30 6016 C 578.989 4.51716 0.756101 0
M  V30 6017 N 580.48 4.55894 0.819451 0
M  V30 6018 C 581.215 5.66272 0.90134 0
M  V30 6019 N 580.711 6.86323 0.945118 0
M  V30 6020 N 582.504 5.54201 0.939043 0
M  V30 6021 H 574.655 2.01406 -0.674493 0
M  V30 6022 H 576.918 0.916828 -0.241103 0
M  V30 6023 H 576.624 3.50334 -0.309633 0
M  V30 6024 H 576.498 3.4861 1.44051 0
M  V30 6025 H 578.885 2.50206 1.56465 0
M  V30 6026 H 578.966 2.54999 -0.202262 0
M  V30 6027 H 578.61 5.07739 -0.12774 0
M  V30 6028 H 578.54 5.00058 1.65074 0
M  V30 6029 H 581.031 3.69452 0.794594 0
M  V30 6030 H 581.344 7.66194 1.0083 0
M  V30 6031 H 579.689 6.88968 0.913683 0
M  V30 6032 H 582.88 4.59333 0.901725 0
M  V30 6033 H 583.053 6.40247 0.999402 0
M  V30 6034 N 576.459 -0.456382 1.50847 0
M  V30 6035 C 577.706 -1.20736 1.62571 0
M  V30 6036 C 578.034 -1.9163 0.332904 0
M  V30 6037 O 577.289 -1.8343 -0.682058 0
M  V30 6038 C 577.588 -2.26336 2.76599 0
M  V30 6039 C 577.254 -1.7259 4.16562 0
M  V30 6040 C 575.916 -1.57654 4.54641 0
M  V30 6041 C 578.268 -1.32877 5.03977 0
M  V30 6042 C 575.596 -1.0145 5.77862 0
M  V30 6043 C 577.948 -0.7811 6.27759 0
M  V30 6044 C 576.612 -0.618488 6.64628 0
M  V30 6045 H 575.882 -0.441803 0.594888 0
M  V30 6046 H 578.529 -0.501169 1.84826 0
M  V30 6047 H 576.834 -3.0292 2.48489 0
M  V30 6048 H 578.531 -2.84227 2.82871 0
M  V30 6049 H 575.121 -1.85187 3.86528 0
M  V30 6050 H 579.305 -1.43245 4.75179 0
M  V30 6051 H 574.561 -0.876109 6.0509 0
M  V30 6052 H 578.735 -0.464783 6.94847 0
M  V30 6053 H 576.362 -0.180838 7.59985 0
M  V30 6054 N 577.937 -1.40673 -0.710563 0
M  V30 6055 C 579.185 -1.38947 -1.46759 0
M  V30 6056 C 579.506 0.00572879 -1.94999 0
M  V30 6057 O 578.776 0.961358 -1.70689 0
M  V30 6058 H 577.356 -0.5114 -0.544499 0
M  V30 6059 H 580.018 -1.75773 -0.842012 0
M  V30 6060 H 579.114 -2.06745 -2.33801 0
M  V30 6061 N 579.415 0.9433 -1.26252 0
M  V30 6062 C 580.325 2.07532 -1.09397 0
M  V30 6063 C 581.341 1.73977 -0.0280449 0
M  V30 6064 O 582.517 2.00067 -0.231337 0
M  V30 6065 C 579.582 3.39002 -0.726523 0
M  V30 6066 C 578.643 3.86353 -1.87163 0
M  V30 6067 C 577.876 5.11549 -1.52162 0
M  V30 6068 O 578.099 5.68834 -0.422385 0
M  V30 6069 O 577.033 5.53889 -2.35565 0
M  V30 6070 H 580.859 2.24658 -2.04359 0
M  V30 6071 H 578.444 1.05988 -1.05295 0
M  V30 6072 H 580.326 4.18 -0.534236 0
M  V30 6073 H 579.001 3.2312 0.193721 0
M  V30 6074 H 577.908 3.0831 -2.11886 0
M  V30 6075 H 579.241 4.06752 -2.77152 0
M  V30 6076 N 580.893 1.08022 1.14757 0
M  V30 6077 C 582.309 0.807072 1.3769 0
M  V30 6078 C 582.509 -0.585504 1.92806 0
M  V30 6079 O 581.565 -1.34301 2.13821 0
M  V30 6080 C 582.878 1.88651 2.34161 0
M  V30 6081 C 584.426 1.91206 2.47809 0
M  V30 6082 C 584.901 2.98253 3.47576 0
M  V30 6083 N 586.392 2.974 3.55117 0
M  V30 6084 C 587.127 3.76872 4.32152 0
M  V30 6085 N 586.623 4.66212 5.12463 0
M  V30 6086 N 588.416 3.6519 4.27309 0
M  V30 6087 H 580.567 1.97824 0.77326 0
M  V30 6088 H 582.83 0.85826 0.402608 0
M  V30 6089 H 582.536 2.88749 2.00791 0
M  V30 6090 H 582.41 1.75244 3.3402 0
M  V30 6091 H 584.797 0.917564 2.80472 0
M  V30 6092 H 584.878 2.08691 1.47925 0
M  V30 6093 H 584.522 3.97907 3.15646 0
M  V30 6094 H 584.452 2.78014 4.47231 0
M  V30 6095 H 586.943 2.32643 2.97801 0
M  V30 6096 H 587.256 5.23468 5.68508 0
M  V30 6097 H 585.601 4.70257 5.11745 0
M  V30 6098 H 588.792 2.94765 3.63636 0
M  V30 6099 H 588.965 4.27366 4.87095 0
M  V30 6100 N 582.371 -1.3172 0.865308 0
M  V30 6101 C 583.619 -1.96487 0.472995 0
M  V30 6102 C 583.94 -1.68761 -0.976975 0
M  V30 6103 O 583.21 -1.00051 -1.68424 0
M  V30 6104 H 581.79 -0.726947 0.171922 0
M  V30 6105 H 584.452 -1.60612 1.10407 0
M  V30 6106 H 583.548 -3.0574 0.62687 0
M  V30 6107 N 583.85 -0.624285 -1.44708 0
M  V30 6108 C 585.096 -0.126051 -2.02107 0
M  V30 6109 C 585.425 1.2496 -1.49048 0
M  V30 6110 O 584.68 1.84163 -0.662005 0
M  V30 6111 C 584.979 -0.0546353 -3.57358 0
M  V30 6112 C 584.644 -1.36815 -4.29642 0
M  V30 6113 C 583.307 -1.72792 -4.49106 0
M  V30 6114 C 585.659 -2.23549 -4.70824 0
M  V30 6115 C 582.986 -2.95222 -5.07012 0
M  V30 6116 C 585.339 -3.45243 -5.30085 0
M  V30 6117 C 584.003 -3.81452 -5.47769 0
M  V30 6118 H 583.273 -0.0461252 -0.739563 0
M  V30 6119 H 585.92 -0.809236 -1.73562 0
M  V30 6120 H 584.225 0.711891 -3.85278 0
M  V30 6121 H 585.922 0.347282 -3.99493 0
M  V30 6122 H 582.512 -1.07817 -4.14817 0
M  V30 6123 H 586.696 -1.9705 -4.55505 0
M  V30 6124 H 581.952 -3.23361 -5.18891 0
M  V30 6125 H 586.125 -4.12689 -5.60946 0
M  V30 6126 H 583.753 -4.76403 -5.92405 0
M  V30 6127 N 585.328 1.53329 -0.364422 0
M  V30 6128 C 586.575 2.01239 0.225634 0
M  V30 6129 C 586.903 1.25172 1.48869 0
M  V30 6130 O 586.158 0.333289 1.92841 0
M  V30 6131 C 586.457 3.52911 0.564661 0
M  V30 6132 C 586.123 4.46837 -0.603936 0
M  V30 6133 C 584.785 4.72234 -0.924585 0
M  V30 6134 C 587.137 5.02409 -1.38691 0
M  V30 6135 C 584.465 5.50454 -2.0302 0
M  V30 6136 C 586.817 5.81836 -2.48293 0
M  V30 6137 C 585.481 6.0552 -2.80894 0
M  V30 6138 H 584.751 0.736386 0.0825654 0
M  V30 6139 H 587.398 1.84948 -0.496645 0
M  V30 6140 H 585.703 3.67144 1.36794 0
M  V30 6141 H 587.4 3.87455 1.03344 0
M  V30 6142 H 583.99 4.27217 -0.343983 0
M  V30 6143 H 588.174 4.82735 -1.15243 0
M  V30 6144 H 583.43 5.67024 -2.28678 0
M  V30 6145 H 587.604 6.23905 -3.0938 0
M  V30 6146 H 585.231 6.65916 -3.66688 0
M  V30 6147 N 586.806 0.0935595 1.57322 0
M  V30 6148 C 588.055 -0.570191 1.93473 0
M  V30 6149 C 588.368 -1.69434 0.977318 0
M  V30 6150 O 589.574 -2.41914 1.23248 0
M  V30 6151 C 588.03 -1.06564 3.43762 0
M  V30 6152 C 587.638 0.0286723 4.47991 0
M  V30 6153 C 589.382 -1.70221 3.88877 0
M  V30 6154 C 587.289 -0.482046 5.89432 0
M  V30 6155 H 586.219 -0.216764 0.72217 0
M  V30 6156 H 588.87 0.169313 1.82717 0
M  V30 6157 H 587.252 -1.85878 3.49664 0
M  V30 6158 H 588.426 0.804106 4.5373 0
M  V30 6159 H 586.741 0.570336 4.12476 0
M  V30 6160 H 589.338 -2.09502 4.91948 0
M  V30 6161 H 589.681 -2.57078 3.27439 0
M  V30 6162 H 590.214 -0.974919 3.85668 0
M  V30 6163 H 586.953 0.349871 6.54566 0
M  V30 6164 H 586.473 -1.22452 5.87167 0
M  V30 6165 H 588.152 -0.951508 6.39965 0
M  V30 6166 N 588.284 -1.56567 -0.180126 0
M  V30 6167 C 589.231 -1.95725 -1.22313 0
M  V30 6168 C 590.201 -0.819911 -1.44453 0
M  V30 6169 O 591.386 -1.07931 -1.57339 0
M  V30 6170 C 588.526 -2.31484 -2.55947 0
M  V30 6171 C 587.639 -3.58354 -2.4126 0
M  V30 6172 C 586.774 -3.83366 -3.67701 0
M  V30 6173 C 585.813 -5.03612 -3.47909 0
M  V30 6174 N 584.95 -5.24802 -4.66398 0
M  V30 6175 H 589.79 -2.84642 -0.882198 0
M  V30 6176 H 587.327 -1.4085 -0.42422 0
M  V30 6177 H 589.285 -2.50237 -3.33822 0
M  V30 6178 H 587.915 -1.45689 -2.88053 0
M  V30 6179 H 586.967 -3.47565 -1.54606 0
M  V30 6180 H 588.279 -4.46386 -2.22577 0
M  V30 6181 H 587.433 -4.02439 -4.54013 0
M  V30 6182 H 586.172 -2.93692 -3.89353 0
M  V30 6183 H 585.177 -4.84447 -2.59983 0
M  V30 6184 H 586.402 -5.94809 -3.27688 0
M  V30 6185 H 584.348 -4.38079 -4.88286 0
M  V30 6186 H 584.265 -6.07041 -4.50596 0
M  V30 6187 H 585.533 -5.48346 -5.54019 0
M  V30 6188 N 589.762 0.448376 -1.51087 0
M  V30 6189 C 591.173 1.0286 -1.5581 0
M  V30 6190 C 591.524 1.92583 -0.374989 0
M  V30 6191 O 590.649 2.10316 0.509533 0
M  V30 6192 C 591.244 1.87223 -2.8237 0
M  V30 6193 C 589.803 2.40314 -2.897 0
M  V30 6194 C 588.95 1.19238 -2.50355 0
M  V30 6195 H 591.901 0.230075 -1.57023 0
M  V30 6196 H 591.922 2.72553 -2.6551 0
M  V30 6197 H 591.434 1.21894 -3.68461 0
M  V30 6198 H 589.535 3.09129 -2.08014 0
M  V30 6199 H 589.648 2.73866 -3.93108 0
M  V30 6200 H 588.012 1.53428 -2.03303 0
M  V30 6201 H 588.795 0.555367 -3.38778 0
M  V30 6202 N 591.24 1.41047 0.703093 0
M  V30 6203 C 592.468 1.4334 1.49202 0
M  V30 6204 C 592.883 0.0365596 1.88765 0
M  V30 6205 O 592.24 -0.942419 1.56284 0
M  V30 6206 C 592.291 2.33538 2.75939 0
M  V30 6207 O 592.012 3.67786 2.38045 0
M  V30 6208 C 593.513 2.44555 3.6974 0
M  V30 6209 H 590.733 0.488472 0.460039 0
M  V30 6210 H 593.277 1.85245 0.86629 0
M  V30 6211 H 591.432 1.94962 3.34766 0
M  V30 6212 H 591.846 4.15816 3.19683 0
M  V30 6213 H 593.32 3.11849 4.55471 0
M  V30 6214 H 593.797 1.47447 4.1371 0
M  V30 6215 H 594.403 2.83735 3.16819 0
M  V30 6216 N 592.718 -0.936591 1.26751 0
M  V30 6217 C 593.964 -1.6858 1.12733 0
M  V30 6218 C 594.297 -1.91414 -0.327745 0
M  V30 6219 O 593.572 -1.49812 -1.24043 0
M  V30 6220 C 593.855 -3.05779 1.90187 0
M  V30 6221 C 593.708 -2.90242 3.43627 0
M  V30 6222 C 595.027 -4.0597 1.69931 0
M  V30 6223 H 592.146 -0.61182 0.410908 0
M  V30 6224 H 594.788 -1.08747 1.55801 0
M  V30 6225 H 592.938 -3.56853 1.53584 0
M  V30 6226 H 594.61 -2.46354 3.9001 0
M  V30 6227 H 592.853 -2.2577 3.70419 0
M  V30 6228 H 593.524 -3.87572 3.93055 0
M  V30 6229 H 596 -3.63874 2.0183 0
M  V30 6230 H 594.876 -4.99974 2.26534 0
M  V30 6231 H 595.137 -4.37369 0.64502 0
M  V30 6232 N 594.196 -1.08629 -1.14182 0
M  V30 6233 C 595.443 -0.817345 -1.85272 0
M  V30 6234 C 595.771 0.656917 -1.83071 0
M  V30 6235 O 595.026 1.49897 -1.25815 0
M  V30 6236 C 595.325 -1.28734 -3.3341 0
M  V30 6237 C 594.991 -2.76981 -3.55798 0
M  V30 6238 C 593.653 -3.17469 -3.61617 0
M  V30 6239 C 596.005 -3.72605 -3.64438 0
M  V30 6240 C 593.333 -4.52371 -3.736 0
M  V30 6241 C 595.685 -5.07286 -3.77947 0
M  V30 6242 C 594.349 -5.47376 -3.82016 0
M  V30 6243 H 593.619 -0.299088 -0.677958 0
M  V30 6244 H 596.266 -1.35962 -1.34857 0
M  V30 6245 H 594.571 -0.664702 -3.8612 0
M  V30 6246 H 596.268 -1.05598 -3.86846 0
M  V30 6247 H 592.858 -2.44644 -3.51919 0
M  V30 6248 H 597.042 -3.42443 -3.5923 0
M  V30 6249 H 592.298 -4.82882 -3.75013 0
M  V30 6250 H 596.472 -5.81243 -3.83575 0
M  V30 6251 H 594.099 -6.51906 -3.91054 0
M  V30 6252 N 595.674 1.31259 -0.872281 0
M  V30 6253 C 596.922 1.96233 -0.483409 0
M  V30 6254 C 597.243 1.69276 0.968012 0
M  V30 6255 O 596.513 1.00943 1.67891 0
M  V30 6256 H 595.093 0.726025 -0.175774 0
M  V30 6257 H 597.755 1.60024 -1.11258 0
M  V30 6258 H 596.851 3.05403 -0.643075 0
M  V30 6259 N 597.152 0.631951 1.44375 0
M  V30 6260 C 598.4 0.136497 2.01639 0
M  V30 6261 C 598.721 -1.24637 1.49969 0
M  V30 6262 O 597.991 -1.82827 0.70363 0
M  V30 6263 H 596.571 0.0474703 0.74549 0
M  V30 6264 H 599.233 0.818837 1.76865 0
M  V30 6265 H 598.329 0.104817 3.11924 0
M  V30 6266 N 598.631 -1.53133 0.372548 0
M  V30 6267 C 599.877 -2.01654 -0.215277 0
M  V30 6268 C 600.21 -1.25914 -1.47849 0
M  V30 6269 O 599.485 -0.3548 -1.91237 0
M  V30 6270 C 599.768 -3.56609 -0.500187 0
M  V30 6271 C 599.621 -4.43036 0.777145 0
M  V30 6272 C 600.94 -4.20528 -1.29786 0
M  V30 6273 H 598.059 -0.732991 -0.0767686 0
M  V30 6274 H 600.701 -1.83335 0.498814 0
M  V30 6275 H 598.851 -3.7235 -1.10852 0
M  V30 6276 H 600.523 -4.39079 1.41447 0
M  V30 6277 H 598.766 -4.10723 1.39604 0
M  V30 6278 H 599.437 -5.49424 0.532662 0
M  V30 6279 H 601.913 -4.08663 -0.783198 0
M  V30 6280 H 600.789 -5.28962 -1.46596 0
M  V30 6281 H 601.05 -3.77051 -2.30836 0
M  V30 6282 N 600.109 -0.101901 -1.5727 0
M  V30 6283 C 601.041 0.884723 -2.11436 0
M  V30 6284 C 602.054 1.24149 -1.05314 0
M  V30 6285 O 603.243 1.19341 -1.3274 0
M  V30 6286 C 600.343 2.19179 -2.58484 0
M  V30 6287 C 599.516 2.00933 -3.88516 0
M  V30 6288 C 598.575 3.15213 -4.2134 0
M  V30 6289 O 597.601 2.88877 -4.90448 0
M  V30 6290 N 598.803 4.41174 -3.77288 0
M  V30 6291 H 601.568 0.422058 -2.96713 0
M  V30 6292 H 599.129 0.0830128 -1.61687 0
M  V30 6293 H 601.121 2.94593 -2.77484 0
M  V30 6294 H 599.691 2.56847 -1.7818 0
M  V30 6295 H 598.911 1.09809 -3.78597 0
M  V30 6296 H 600.199 1.86026 -4.73573 0
M  V30 6297 H 599.597 4.6545 -3.21516 0
M  V30 6298 H 598.154 5.13515 -4.01429 0
M  V30 6299 N 601.587 1.56661 0.17182 0
M  V30 6300 C 602.864 1.72838 0.915778 0
M  V30 6301 C 603.244 0.66316 2.00413 0
M  V30 6302 O 602.592 -0.322123 2.26218 0
M  V30 6303 C 602.802 3.16019 1.48097 0
M  V30 6304 C 604.15 3.76962 1.95408 0
M  V30 6305 O 605.174 3.19294 1.57892 0
M  V30 6306 O 604.033 4.78219 2.64516 0
M  V30 6307 H 601.127 0.705797 0.431021 0
M  V30 6308 H 603.673 1.68947 0.159689 0
M  V30 6309 H 602.445 3.85031 0.697618 0
M  V30 6310 H 602.068 3.24234 2.30126 0
M  V30 6311 N 603.065 -0.440357 1.51323 0
M  V30 6312 C 604.342 -1.20109 1.5438 0
M  V30 6313 C 604.722 -2.08866 0.306303 0
M  V30 6314 O 604.07 -2.1723 -0.708773 0
M  V30 6315 C 604.28 -2.00555 2.8562 0
M  V30 6316 C 605.628 -2.577 3.37455 0
M  V30 6317 O 606.652 -2.10769 2.8715 0
M  V30 6318 O 605.511 -3.43289 4.25224 0
M  V30 6319 H 602.605 -0.546668 0.620551 0
M  V30 6320 H 605.151 -0.449672 1.63634 0
M  V30 6321 H 603.923 -1.35346 3.67147 0
M  V30 6322 H 603.546 -2.82768 2.79514 0
M  V30 6323 N 604.543 -1.41418 -0.695603 0
M  V30 6324 C 605.476 -1.3768 -1.81988 0
M  V30 6325 C 606.454 -0.244061 -1.60758 0
M  V30 6326 O 607.638 -0.430965 -1.83507 0
M  V30 6327 C 604.765 -1.1476 -3.18666 0
M  V30 6328 C 603.811 -2.30752 -3.58686 0
M  V30 6329 S 604.644 -3.9323 -3.63498 0
M  V30 6330 C 605.8 -3.72613 -5.02902 0
M  V30 6331 H 606.033 -2.32822 -1.84882 0
M  V30 6332 H 603.566 -1.27942 -0.86431 0
M  V30 6333 H 605.524 -1.02223 -3.97569 0
M  V30 6334 H 604.185 -0.212385 -3.13381 0
M  V30 6335 H 603.378 -2.10409 -4.57978 0
M  V30 6336 H 602.98 -2.39696 -2.87092 0
M  V30 6337 H 605.272 -3.32317 -5.904 0
M  V30 6338 H 606.215 -4.71507 -5.28286 0
M  V30 6339 H 606.623 -3.0589 -4.74438 0
M  V30 6340 N 606.021 0.929856 -1.27246 0
M  V30 6341 C 607.437 1.20542 -1.04603 0
M  V30 6342 C 607.637 2.00276 0.221754 0
M  V30 6343 O 606.693 2.34835 0.927833 0
M  V30 6344 C 608.006 1.95566 -2.28417 0
M  V30 6345 C 609.554 2.08513 -2.33433 0
M  V30 6346 C 610.029 2.86943 -3.5697 0
M  V30 6347 N 611.52 2.94512 -3.57515 0
M  V30 6348 C 612.255 3.55656 -4.49774 0
M  V30 6349 N 611.751 4.18209 -5.52334 0
M  V30 6350 N 613.544 3.53038 -4.37402 0
M  V30 6351 H 605.695 0.397113 -2.08655 0
M  V30 6352 H 607.958 0.238277 -0.917566 0
M  V30 6353 H 607.664 1.44395 -3.20691 0
M  V30 6354 H 607.538 2.9619 -2.33563 0
M  V30 6355 H 609.925 2.58872 -1.41666 0
M  V30 6356 H 610.006 1.07117 -2.32292 0
M  V30 6357 H 609.65 2.37268 -4.49072 0
M  V30 6358 H 609.58 3.8862 -3.55362 0
M  V30 6359 H 612.071 2.50053 -2.83341 0
M  V30 6360 H 612.384 4.62796 -6.18902 0
M  V30 6361 H 610.729 4.16761 -5.56179 0
M  V30 6362 H 613.92 3.0337 -3.56489 0
M  V30 6363 H 614.093 4.004 -5.09493 0
M  V30 6364 N 607.499 1.09233 1.13605 0
M  V30 6365 C 608.748 0.82205 1.84188 0
M  V30 6366 C 609.061 -0.654548 1.84323 0
M  V30 6367 O 610.267 -1.04029 2.50779 0
M  V30 6368 C 608.723 1.42066 3.30674 0
M  V30 6369 C 608.331 2.92965 3.38933 0
M  V30 6370 C 610.075 1.22924 4.06313 0
M  V30 6371 C 607.982 3.45922 4.79679 0
M  V30 6372 H 606.912 0.303854 0.690064 0
M  V30 6373 H 609.563 1.31479 1.28006 0
M  V30 6374 H 607.945 0.855613 3.86646 0
M  V30 6375 H 609.119 3.55679 2.92966 0
M  V30 6376 H 607.434 3.11118 2.76757 0
M  V30 6377 H 610.031 1.59945 5.10217 0
M  V30 6378 H 610.374 0.169726 4.15954 0
M  V30 6379 H 610.907 1.76168 3.56665 0
M  V30 6380 H 607.646 4.51484 4.75229 0
M  V30 6381 H 607.166 2.87971 5.26149 0
M  V30 6382 H 608.845 3.43009 5.48592 0
M  V30 6383 N 608.977 -1.30795 0.87923 0
M  V30 6384 C 609.94 -2.26563 0.346676 0
M  V30 6385 C 610.94 -1.52578 -0.507597 0
M  V30 6386 O 612.13 -1.71318 -0.315575 0
M  V30 6387 C 609.262 -3.37115 -0.506611 0
M  V30 6388 H 610.455 -2.75183 1.19223 0
M  V30 6389 H 608.008 -1.41886 0.655598 0
M  V30 6390 H 608.743 -2.93802 -1.37299 0
M  V30 6391 H 608.528 -3.91959 0.105218 0
M  V30 6392 H 610.018 -4.08412 -0.871192 0
M  V30 6393 N 610.455 -0.639598 -1.44038 0
M  V30 6394 C 611.402 0.0602458 -2.30721 0
M  V30 6395 C 612.372 0.828352 -1.43971 0
M  V30 6396 O 613.557 0.807693 -1.72861 0
M  V30 6397 C 610.697 1.03008 -3.29368 0
M  V30 6398 C 609.81 0.259502 -4.3122 0
M  V30 6399 C 608.945 1.22191 -5.16955 0
M  V30 6400 C 607.984 0.440978 -6.10509 0
M  V30 6401 N 607.121 1.35428 -6.88915 0
M  V30 6402 H 611.961 -0.684867 -2.90023 0
M  V30 6403 H 609.498 -0.349509 -1.42888 0
M  V30 6404 H 611.456 1.60583 -3.85057 0
M  V30 6405 H 610.086 1.74222 -2.71747 0
M  V30 6406 H 609.138 -0.432317 -3.77935 0
M  V30 6407 H 610.45 -0.348347 -4.97582 0
M  V30 6408 H 609.604 1.86873 -5.77203 0
M  V30 6409 H 608.343 1.86367 -4.50687 0
M  V30 6410 H 607.348 -0.219279 -5.49363 0
M  V30 6411 H 608.573 -0.196192 -6.78817 0
M  V30 6412 H 606.519 1.9831 -6.25307 0
M  V30 6413 H 606.436 0.800657 -7.51748 0
M  V30 6414 H 607.704 1.98967 -7.53679 0
M  V30 6415 N 611.933 1.52934 -0.380664 0
M  V30 6416 C 612.843 2.29921 0.466192 0
M  V30 6417 C 613.859 1.36488 1.07922 0
M  V30 6418 O 615.035 1.69553 1.0869 0
M  V30 6419 C 612.1 3.08468 1.58266 0
M  V30 6420 C 611.161 4.17595 0.995627 0
M  V30 6421 C 610.394 4.92387 2.05889 0
M  V30 6422 O 610.617 4.67184 3.27254 0
M  V30 6423 O 609.551 5.77949 1.68102 0
M  V30 6424 H 613.377 3.03274 -0.160735 0
M  V30 6425 H 610.962 1.48698 -0.144617 0
M  V30 6426 H 612.844 3.57469 2.23145 0
M  V30 6427 H 611.519 2.37937 2.19471 0
M  V30 6428 H 610.426 3.72811 0.310332 0
M  V30 6429 H 611.759 4.90336 0.427918 0
M  V30 6430 N 613.412 0.11024 1.57214 0
M  V30 6431 C 614.322 -0.857077 2.18383 0
M  V30 6432 C 615.338 -1.29915 1.1575 0
M  V30 6433 O 616.514 -1.36394 1.48184 0
M  V30 6434 C 613.579 -2.09264 2.76423 0
M  V30 6435 C 612.64 -1.70333 3.94063 0
M  V30 6436 C 611.873 -2.87999 4.49324 0
M  V30 6437 O 612.096 -4.0317 4.03497 0
M  V30 6438 O 611.03 -2.6559 5.40135 0
M  V30 6439 H 614.856 -0.366561 3.0148 0
M  V30 6440 H 612.441 -0.114914 1.48957 0
M  V30 6441 H 614.323 -2.81644 3.13456 0
M  V30 6442 H 612.998 -2.57339 1.96363 0
M  V30 6443 H 611.905 -0.950864 3.61814 0
M  V30 6444 H 613.238 -1.27007 4.75531 0
M  V30 6445 N 614.89 -1.56749 -0.16351 0
M  V30 6446 C 616.139 -1.81626 -0.877211 0
M  V30 6447 C 616.452 -0.688791 -1.83071 0
M  V30 6448 O 617.658 -0.822697 -2.58735 0
M  V30 6449 C 616.114 -3.21858 -1.61045 0
M  V30 6450 C 615.722 -4.42494 -0.700195 0
M  V30 6451 C 617.466 -3.56021 -2.31192 0
M  V30 6452 C 615.373 -5.73748 -1.43412 0
M  V30 6453 H 614.303 -0.67731 -0.331312 0
M  V30 6454 H 616.954 -1.83039 -0.13006 0
M  V30 6455 H 615.336 -3.14784 -2.40264 0
M  V30 6456 H 616.51 -4.60766 0.0555849 0
M  V30 6457 H 614.825 -4.1626 -0.10799 0
M  V30 6458 H 617.422 -4.51333 -2.8671 0
M  V30 6459 H 617.765 -2.81277 -3.06902 0
M  V30 6460 H 618.298 -3.64682 -1.58909 0
M  V30 6461 H 615.037 -6.51543 -0.719186 0
M  V30 6462 H 614.557 -5.5944 -2.16302 0
M  V30 6463 H 616.236 -6.15975 -1.9795 0
M  V30 6464 N 616.368 0.432326 -1.51554 0
M  V30 6465 C 617.615 1.18134 -1.64471 0
M  V30 6466 C 617.943 1.91076 -0.363349 0
M  V30 6467 O 617.198 1.84492 0.65279 0
M  V30 6468 C 617.497 2.21907 -2.80164 0
M  V30 6469 C 617.163 1.65941 -4.19255 0
M  V30 6470 C 615.825 1.50401 -4.57092 0
M  V30 6471 C 618.177 1.24843 -5.06027 0
M  V30 6472 C 615.505 0.922443 -5.79403 0
M  V30 6473 C 617.857 0.68113 -6.28922 0
M  V30 6474 C 616.521 0.512673 -6.65528 0
M  V30 6475 H 615.791 0.432283 -0.601841 0
M  V30 6476 H 618.438 0.471701 -1.856 0
M  V30 6477 H 616.743 2.98928 -2.53277 0
M  V30 6478 H 618.44 2.79691 -2.87357 0
M  V30 6479 H 615.03 1.79014 -3.89425 0
M  V30 6480 H 619.214 1.35667 -4.77397 0
M  V30 6481 H 614.47 0.779733 -6.06408 0
M  V30 6482 H 618.644 0.35418 -6.95499 0
M  V30 6483 H 616.271 0.0599084 -7.60176 0
M  V30 6484 N 617.846 1.41785 0.688094 0
M  V30 6485 C 619.094 1.41264 1.4453 0
M  V30 6486 C 619.415 0.0252946 1.94984 0
M  V30 6487 O 618.685 -0.934081 1.72197 0
M  V30 6488 H 617.265 0.519998 0.536294 0
M  V30 6489 H 619.927 1.7709 0.813941 0
M  V30 6490 H 619.023 2.10439 2.30482 0
M  V30 6491 N 619.324 -0.923095 1.27737 0
M  V30 6492 C 620.735 -1.48626 1.12993 0
M  V30 6493 C 621.086 -1.94142 -0.283439 0
M  V30 6494 O 620.211 -1.81605 -1.17681 0
M  V30 6495 C 620.806 -2.70117 2.04505 0
M  V30 6496 C 619.365 -3.22642 1.93853 0
M  V30 6497 C 618.512 -1.95368 1.96791 0
M  V30 6498 H 621.463 -0.736737 1.40563 0
M  V30 6499 H 621.484 -3.4506 1.60356 0
M  V30 6500 H 620.996 -2.36959 3.07363 0
M  V30 6501 H 619.097 -3.60549 0.939968 0
M  V30 6502 H 619.21 -3.88525 2.80331 0
M  V30 6503 H 617.574 -2.12061 1.41076 0
M  V30 6504 H 618.357 -1.64517 3.01312 0
M  V30 6505 N 620.802 -1.09834 -1.13024 0
M  V30 6506 C 622.048 -0.83819 -1.84668 0
M  V30 6507 C 622.381 0.634645 -1.83537 0
M  V30 6508 O 621.656 1.46753 -1.27647 0
M  V30 6509 C 621.939 -1.37933 -3.32636 0
M  V30 6510 C 621.792 -2.91857 -3.42257 0
M  V30 6511 C 623.111 -1.01654 -4.28199 0
M  V30 6512 H 620.23 -0.30595 -0.670495 0
M  V30 6513 H 622.872 -1.36044 -1.32635 0
M  V30 6514 H 621.022 -0.935111 -3.77078 0
M  V30 6515 H 622.694 -3.44759 -3.06495 0
M  V30 6516 H 620.937 -3.28776 -2.83 0
M  V30 6517 H 621.608 -3.24799 -4.46329 0
M  V30 6518 H 624.084 -1.39973 -3.9185 0
M  V30 6519 H 622.96 -1.42217 -5.30156 0
M  V30 6520 H 623.221 0.0747794 -4.42037 0
M  V30 6521 N 622.28 1.30327 -0.886154 0
M  V30 6522 C 623.212 2.27079 -0.311072 0
M  V30 6523 C 624.225 1.53758 0.53502 0
M  V30 6524 O 625.414 1.74947 0.354378 0
M  V30 6525 C 622.514 3.33965 0.576228 0
M  V30 6526 C 621.687 4.36735 -0.241064 0
M  V30 6527 C 620.746 5.23028 0.576916 0
M  V30 6528 O 619.772 5.692 -0.000802231 0
M  V30 6529 N 620.974 5.49016 1.88579 0
M  V30 6530 H 623.739 2.77065 -1.14259 0
M  V30 6531 H 621.3 1.43519 -0.749258 0
M  V30 6532 H 623.292 3.88618 1.12953 0
M  V30 6533 H 621.862 2.839 1.30842 0
M  V30 6534 H 621.082 3.81932 -0.975805 0
M  V30 6535 H 622.37 5.02451 -0.801272 0
M  V30 6536 H 621.768 5.13288 2.37806 0
M  V30 6537 H 620.325 6.06539 2.38651 0
M  V30 6538 N 623.758 0.647228 1.43697 0
M  V30 6539 C 625.169 0.238689 1.85168 0
M  V30 6540 C 625.52 -1.21345 1.54175 0
M  V30 6541 O 624.645 -1.92542 0.987743 0
M  V30 6542 C 625.24 0.426422 3.36106 0
M  V30 6543 C 623.799 0.0722541 3.76331 0
M  V30 6544 C 622.946 0.732153 2.6746 0
M  V30 6545 H 625.897 0.851309 1.33934 0
M  V30 6546 H 625.918 -0.32987 3.79067 0
M  V30 6547 H 625.43 1.48339 3.58632 0
M  V30 6548 H 623.531 -0.982355 3.59417 0
M  V30 6549 H 623.644 0.493541 4.76551 0
M  V30 6550 H 622.008 0.16594 2.54159 0
M  V30 6551 H 622.791 1.79204 2.92816 0
M  V30 6552 N 625.236 -1.5273 0.388769 0
M  V30 6553 C 626.166 -2.29353 -0.438111 0
M  V30 6554 C 627.147 -1.32719 -1.06394 0
M  V30 6555 O 628.332 -1.61612 -1.07681 0
M  V30 6556 C 625.462 -3.09995 -1.56589 0
M  V30 6557 C 624.416 -4.14509 -1.06613 0
M  V30 6558 C 623.742 -4.83372 -2.28594 0
M  V30 6559 C 625.042 -5.22127 -0.134459 0
M  V30 6560 H 626.736 -2.98723 0.201206 0
M  V30 6561 H 624.282 -1.43665 0.0982089 0
M  V30 6562 H 626.235 -3.62357 -2.15118 0
M  V30 6563 H 624.959 -2.38357 -2.23279 0
M  V30 6564 H 623.618 -3.63128 -0.503383 0
M  V30 6565 H 623.266 -4.08283 -2.93792 0
M  V30 6566 H 622.966 -5.54012 -1.95817 0
M  V30 6567 H 624.49 -5.38538 -2.87766 0
M  V30 6568 H 625.904 -5.69851 -0.627914 0
M  V30 6569 H 624.301 -6.00011 0.103534 0
M  V30 6570 H 625.371 -4.77971 0.816798 0
M  V30 6571 N 626.714 -0.118576 -1.57153 0
M  V30 6572 C 627.961 0.539526 -1.9518 0
M  V30 6573 C 628.289 1.66714 -1.00184 0
M  V30 6574 O 627.544 1.95683 -0.0256482 0
M  V30 6575 C 627.843 1.11303 -3.39627 0
M  V30 6576 C 627.509 0.106809 -4.50773 0
M  V30 6577 C 626.171 -0.169876 -4.809 0
M  V30 6578 C 628.523 -0.57895 -5.17975 0
M  V30 6579 C 625.851 -1.13861 -5.75545 0
M  V30 6580 C 628.203 -1.53631 -6.13661 0
M  V30 6581 C 626.867 -1.82099 -6.42181 0
M  V30 6582 H 626.137 0.197427 -0.714215 0
M  V30 6583 H 628.784 -0.199391 -1.90459 0
M  V30 6584 H 627.089 1.92869 -3.4104 0
M  V30 6585 H 628.786 1.63032 -3.66363 0
M  V30 6586 H 625.376 0.332645 -4.27307 0
M  V30 6587 H 629.56 -0.378359 -4.94856 0
M  V30 6588 H 624.816 -1.36592 -5.95947 0
M  V30 6589 H 628.99 -2.07337 -6.64819 0
M  V30 6590 H 626.617 -2.57319 -7.15326 0
M  V30 6591 N 628.193 1.56834 0.155195 0
M  V30 6592 C 629.14 1.97646 1.19184 0
M  V30 6593 C 630.11 0.842788 1.4313 0
M  V30 6594 O 631.295 1.1042 1.55602 0
M  V30 6595 C 628.435 2.35527 2.52232 0
M  V30 6596 C 627.548 3.62147 2.35529 0
M  V30 6597 C 626.683 3.89167 3.61555 0
M  V30 6598 C 625.722 5.09084 3.39853 0
M  V30 6599 N 624.859 5.32156 4.5799 0
M  V30 6600 H 629.699 2.8601 0.836802 0
M  V30 6601 H 627.236 1.41507 0.401758 0
M  V30 6602 H 629.194 2.55516 3.29799 0
M  V30 6603 H 627.824 1.50253 2.85699 0
M  V30 6604 H 626.876 3.4998 1.49057 0
M  V30 6605 H 628.188 4.49871 2.15448 0
M  V30 6606 H 627.342 4.09611 4.47553 0
M  V30 6607 H 626.081 2.9985 3.84632 0
M  V30 6608 H 625.086 4.88522 2.52243 0
M  V30 6609 H 626.311 5.99947 3.18183 0
M  V30 6610 H 624.257 4.45791 4.81255 0
M  V30 6611 H 624.174 6.14133 4.40882 0
M  V30 6612 H 625.442 5.57091 5.45225 0
M  V30 6613 N 629.671 -0.424282 1.51781 0
M  V30 6614 C 630.918 -1.1726 1.65095 0
M  V30 6615 C 631.246 -1.90881 0.373477 0
M  V30 6616 O 630.501 -1.84835 -0.642997 0
M  V30 6617 C 630.8 -2.20418 2.81337 0
M  V30 6618 C 630.466 -1.63715 4.20129 0
M  V30 6619 C 629.128 -1.47975 4.57883 0
M  V30 6620 C 631.48 -1.22157 5.06682 0
M  V30 6621 C 628.808 -0.891703 5.79884 0
M  V30 6622 C 631.16 -0.647767 6.29275 0
M  V30 6623 C 629.824 -0.477371 6.65791 0
M  V30 6624 H 629.094 -0.429085 0.604125 0
M  V30 6625 H 631.741 -0.461852 1.85847 0
M  V30 6626 H 630.046 -2.97581 2.54859 0
M  V30 6627 H 631.743 -2.78163 2.88836 0
M  V30 6628 H 628.333 -1.76946 3.90369 0
M  V30 6629 H 632.517 -1.33133 4.7811 0
M  V30 6630 H 627.773 -0.747563 6.06813 0
M  V30 6631 H 631.947 -0.317291 6.95677 0
M  V30 6632 H 629.574 -0.0195936 7.60197 0
M  V30 6633 N 631.149 -1.42148 -0.680565 0
M  V30 6634 C 632.096 -1.45175 -1.79424 0
M  V30 6635 C 633.066 -0.304352 -1.63288 0
M  V30 6636 O 634.251 -0.507591 -1.83924 0
M  V30 6637 C 631.391 -1.35429 -3.17416 0
M  V30 6638 C 630.504 -2.60158 -3.4488 0
M  V30 6639 C 629.639 -2.42596 -4.72568 0
M  V30 6640 C 628.678 -3.62727 -4.93047 0
M  V30 6641 N 627.815 -3.44143 -6.11973 0
M  V30 6642 H 632.655 -2.40349 -1.76172 0
M  V30 6643 H 630.192 -1.19334 -0.860107 0
M  V30 6644 H 632.15 -1.27777 -3.97151 0
M  V30 6645 H 630.78 -0.438536 -3.19807 0
M  V30 6646 H 629.832 -2.78199 -2.5944 0
M  V30 6647 H 631.144 -3.49473 -3.55908 0
M  V30 6648 H 630.298 -2.32497 -5.60384 0
M  V30 6649 H 629.037 -1.50761 -4.63813 0
M  V30 6650 H 628.042 -3.73264 -4.03676 0
M  V30 6651 H 629.267 -4.55534 -5.03652 0
M  V30 6652 H 627.213 -2.5502 -6.04401 0
M  V30 6653 H 627.13 -4.27041 -6.23836 0
M  V30 6654 H 628.398 -3.37845 -7.02482 0
M  V30 6655 N 632.627 0.916307 -1.28225 0
M  V30 6656 C 633.574 2.01841 -1.11932 0
M  V30 6657 C 634.544 1.66091 -0.0171604 0
M  V30 6658 O 635.729 1.89934 -0.181617 0
M  V30 6659 C 632.869 3.36065 -0.784504 0
M  V30 6660 C 631.982 3.847 -1.96544 0
M  V30 6661 C 631.117 5.07423 -1.57149 0
M  V30 6662 C 630.156 5.48384 -2.71922 0
M  V30 6663 N 629.293 6.62298 -2.33037 0
M  V30 6664 H 634.133 2.1511 -2.06232 0
M  V30 6665 H 631.67 1.05366 -1.02647 0
M  V30 6666 H 633.628 4.13272 -0.571148 0
M  V30 6667 H 632.258 3.22571 0.121565 0
M  V30 6668 H 631.31 3.03673 -2.291 0
M  V30 6669 H 632.622 4.1102 -2.82603 0
M  V30 6670 H 631.776 5.92165 -1.32004 0
M  V30 6671 H 630.515 4.82906 -0.682153 0
M  V30 6672 H 629.52 4.62184 -2.97768 0
M  V30 6673 H 630.745 5.7489 -3.61494 0
M  V30 6674 H 628.691 6.39416 -1.4657 0
M  V30 6675 H 628.608 6.8833 -3.12631 0
M  V30 6676 H 629.876 7.50352 -2.11169 0
M  V30 6677 N 634.105 1.10431 1.1244 0
M  V30 6678 C 635.354 0.841539 1.83306 0
M  V30 6679 C 635.667 -0.634961 1.85007 0
M  V30 6680 O 636.873 -1.01363 2.51869 0
M  V30 6681 C 635.329 1.45565 3.29149 0
M  V30 6682 C 634.937 2.96544 3.35806 0
M  V30 6683 C 636.681 1.27227 4.04986 0
M  V30 6684 C 634.588 3.5099 4.75983 0
M  V30 6685 H 633.518 0.311156 0.686803 0
M  V30 6686 H 636.169 1.32829 1.26604 0
M  V30 6687 H 634.551 0.896574 3.85717 0
M  V30 6688 H 635.725 3.58766 2.89177 0
M  V30 6689 H 634.04 3.14036 2.73442 0
M  V30 6690 H 636.637 1.65348 5.08492 0
M  V30 6691 H 636.98 0.213834 4.1575 0
M  V30 6692 H 637.513 1.79941 3.54776 0
M  V30 6693 H 634.252 4.56499 4.70413 0
M  V30 6694 H 633.772 2.93535 5.23065 0
M  V30 6695 H 635.451 3.48808 5.44924 0
M  V30 6696 N 635.583 -1.29855 0.893053 0
M  V30 6697 C 636.493 -2.31661 0.370157 0
M  V30 6698 C 637.509 -1.65677 -0.531723 0
M  V30 6699 O 638.685 -1.9691 -0.422902 0
M  V30 6700 C 635.75 -3.44388 -0.399741 0
M  V30 6701 C 634.811 -4.2598 0.532861 0
M  V30 6702 C 634.044 -5.33324 -0.200388 0
M  V30 6703 O 634.267 -5.52305 -1.42531 0
M  V30 6704 O 633.201 -6.00188 0.453668 0
M  V30 6705 H 637.027 -2.78354 1.2146 0
M  V30 6706 H 634.612 -1.34171 0.657153 0
M  V30 6707 H 636.494 -4.13037 -0.835358 0
M  V30 6708 H 635.169 -2.99815 -1.22035 0
M  V30 6709 H 634.076 -3.59998 1.01746 0
M  V30 6710 H 635.409 -4.74178 1.3197 0
M  V30 6711 N 637.061 -0.65484 -1.43351 0
M  V30 6712 C 637.971 0.0363603 -2.34572 0
M  V30 6713 C 638.987 0.810432 -1.53974 0
M  V30 6714 O 640.163 0.757308 -1.86619 0
M  V30 6715 C 637.228 0.989733 -3.32273 0
M  V30 6716 C 636.289 0.212414 -4.28774 0
M  V30 6717 C 635.522 1.12038 -5.21808 0
M  V30 6718 O 635.745 2.35967 -5.19303 0
M  V30 6719 O 634.679 0.59191 -5.98982 0
M  V30 6720 H 638.505 -0.714527 -2.95175 0
M  V30 6721 H 636.09 -0.415029 -1.4352 0
M  V30 6722 H 637.972 1.53759 -3.92347 0
M  V30 6723 H 636.647 1.72082 -2.74171 0
M  V30 6724 H 635.554 -0.379062 -3.72175 0
M  V30 6725 H 636.887 -0.479138 -4.89862 0
M  V30 6726 N 638.539 1.52521 -0.396863 0
M  V30 6727 C 639.785 2.01971 0.183169 0
M  V30 6728 C 640.118 1.2825 1.45827 0
M  V30 6729 O 639.393 0.385179 1.90648 0
M  V30 6730 C 639.676 3.5736 0.443391 0
M  V30 6731 C 639.529 4.41743 -0.84753 0
M  V30 6732 C 640.848 4.22539 1.2308 0
M  V30 6733 H 637.967 0.734119 0.0650976 0
M  V30 6734 H 640.609 1.82519 -0.527918 0
M  V30 6735 H 638.759 3.74066 1.04914 0
M  V30 6736 H 640.431 4.36773 -1.48414 0
M  V30 6737 H 638.674 4.0845 -1.4612 0
M  V30 6738 H 639.345 5.48507 -0.620003 0
M  V30 6739 H 641.821 4.09857 0.718084 0
M  V30 6740 H 640.697 5.31227 1.38162 0
M  V30 6741 H 640.958 3.80675 2.24808 0
M  V30 6742 N 640.017 0.126909 1.57088 0
M  V30 6743 C 641.263 -0.529952 1.95753 0
M  V30 6744 C 641.596 -1.65823 1.01077 0
M  V30 6745 O 640.871 -1.94437 0.0494162 0
M  V30 6746 C 641.154 -1.05517 3.44294 0
M  V30 6747 C 641.007 0.0702253 4.49745 0
M  V30 6748 C 642.326 -1.9435 3.94862 0
M  V30 6749 H 639.445 -0.191168 0.711775 0
M  V30 6750 H 642.087 0.204071 1.88901 0
M  V30 6751 H 640.237 -1.68069 3.50264 0
M  V30 6752 H 641.909 0.705834 4.55868 0
M  V30 6753 H 640.152 0.732259 4.27575 0
M  V30 6754 H 640.823 -0.338642 5.5096 0
M  V30 6755 H 643.299 -1.41658 3.91244 0
M  V30 6756 H 642.175 -2.28015 4.993 0
M  V30 6757 H 642.436 -2.87299 3.36024 0
M  V30 6758 N 641.495 -1.56914 -0.146875 0
M  V30 6759 C 642.405 -2.0154 -1.20079 0
M  V30 6760 C 643.421 -0.930838 -1.47008 0
M  V30 6761 O 644.597 -1.24032 -1.58676 0
M  V30 6762 C 641.662 -2.38715 -2.51428 0
M  V30 6763 C 640.723 -3.6112 -2.32145 0
M  V30 6764 C 639.956 -3.96512 -3.57231 0
M  V30 6765 O 640.179 -3.32566 -4.63418 0
M  V30 6766 O 639.113 -4.89758 -3.49887 0
M  V30 6767 H 642.939 -2.91506 -0.851924 0
M  V30 6768 H 640.524 -1.45106 -0.355607 0
M  V30 6769 H 642.406 -2.63485 -3.28867 0
M  V30 6770 H 641.081 -1.51903 -2.85845 0
M  V30 6771 H 639.988 -3.41536 -1.52656 0
M  V30 6772 H 641.321 -4.48549 -2.02644 0
M  V30 6773 N 642.974 0.416227 -1.52004 0
M  V30 6774 C 644.39 0.754319 -1.40649 0
M  V30 6775 C 644.59 1.95059 -0.505392 0
M  V30 6776 O 643.646 2.5248 0.0315057 0
M  V30 6777 C 644.959 1.0149 -2.83055 0
M  V30 6778 C 646.507 1.11805 -2.9235 0
M  V30 6779 C 646.982 1.41144 -4.35709 0
M  V30 6780 N 648.473 1.48024 -4.38911 0
M  V30 6781 C 649.208 1.72338 -5.46889 0
M  V30 6782 N 648.704 1.94303 -6.64995 0
M  V30 6783 N 650.497 1.74294 -5.34395 0
M  V30 6784 H 642.648 -0.371324 -2.09129 0
M  V30 6785 H 644.911 -0.103811 -0.942299 0
M  V30 6786 H 644.617 0.208345 -3.51082 0
M  V30 6787 H 644.491 1.93697 -3.23668 0
M  V30 6788 H 646.878 1.91521 -2.24508 0
M  V30 6789 H 646.959 0.17451 -2.55204 0
M  V30 6790 H 646.603 0.619484 -5.04108 0
M  V30 6791 H 646.533 2.36739 -4.70385 0
M  V30 6792 H 649.024 1.32868 -3.53772 0
M  V30 6793 H 649.337 2.12286 -7.43071 0
M  V30 6794 H 647.682 1.91582 -6.68073 0
M  V30 6795 H 650.873 1.56667 -4.41104 0
M  V30 6796 H 651.046 1.92904 -6.18621 0
M  V30 6797 N 644.452 1.42507 0.673017 0
M  V30 6798 C 645.415 1.4582 1.76831 0
M  V30 6799 C 646.415 0.345542 1.57043 0
M  V30 6800 O 647.605 0.606447 1.63303 0
M  V30 6801 C 644.737 1.29158 3.15485 0
M  V30 6802 H 645.93 2.43345 1.7528 0
M  V30 6803 H 643.483 1.28981 0.882817 0
M  V30 6804 H 644.218 0.325626 3.22661 0
M  V30 6805 H 644.003 2.09797 3.31252 0
M  V30 6806 H 645.493 1.34363 3.95394 0
M  V30 6807 N 645.93 -0.909495 1.28709 0
M  V30 6808 C 646.878 -2.03381 1.12866 0
M  V30 6809 C 647.872 -1.69335 0.0468074 0
M  V30 6810 O 649.078 -1.78819 0.205891 0
M  V30 6811 H 645.453 -0.666452 0.348348 0
M  V30 6812 H 647.424 -2.13885 2.08077 0
M  V30 6813 C 646.173 -3.38092 0.811742 0
M  V30 6814 H 645.496 -3.64786 1.63619 0
M  V30 6815 H 646.936 -4.17477 0.740869 0
M  V30 6816 C 645.395 -3.33395 -0.484679 0
M  V30 6817 O 645.925 -3.72089 -1.5137 0
M  V30 6818 N 644.131 -2.86491 -0.486961 0
M  V30 6819 H 643.678 -2.55199 0.350877 0
M  V30 6820 H 643.636 -2.83731 -1.3544 0
M  V30 6821 N 647.408 -1.11026 -1.11852 0
M  V30 6822 C 648.356 -0.759643 -2.19846 0
M  V30 6823 C 649.35 0.246964 -1.6759 0
M  V30 6824 O 650.556 0.106693 -1.79684 0
M  V30 6825 H 646.931 -0.22775 -0.716683 0
M  V30 6826 H 648.902 -1.6792 -2.46669 0
M  V30 6827 C 647.651 -0.214364 -3.47039 0
M  V30 6828 H 646.974 -0.980175 -3.87599 0
M  V30 6829 H 648.414 -0.00717047 -4.23999 0
M  V30 6830 C 646.873 1.05436 -3.19976 0
M  V30 6831 O 647.403 2.13483 -3.40276 0
M  V30 6832 N 645.609 0.975436 -2.7374 0
M  V30 6833 H 645.156 0.0960853 -2.57421 0
M  V30 6834 H 645.114 1.82501 -2.5601 0
M  V30 6835 N 648.886 1.2938 -0.899927 0
M  V30 6836 C 650.114 1.99691 -0.541386 0
M  V30 6837 C 650.529 1.67355 0.873936 0
M  V30 6838 O 649.886 0.918728 1.57688 0
M  V30 6839 C 649.937 3.54168 -0.72438 0
M  V30 6840 O 649.658 3.85359 -2.08399 0
M  V30 6841 C 651.159 4.41746 -0.370819 0
M  V30 6842 H 648.379 0.638037 -0.207726 0
M  V30 6843 H 650.923 1.6491 -1.20934 0
M  V30 6844 H 649.078 3.87261 -0.103607 0
M  V30 6845 H 649.492 4.80032 -2.11352 0
M  V30 6846 H 650.966 5.49256 -0.549693 0
M  V30 6847 H 651.443 4.33712 0.692148 0
M  V30 6848 H 652.049 4.14125 -0.968543 0
M  V30 6849 N 650.364 0.662433 1.43002 0
M  V30 6850 C 651.78 0.330835 1.56133 0
M  V30 6851 C 651.98 -1.16454 1.64441 0
M  V30 6852 O 651.036 -1.94964 1.60453 0
M  V30 6853 C 652.349 1.05029 2.81761 0
M  V30 6854 C 653.897 1.03142 2.95518 0
M  V30 6855 C 654.372 1.73196 4.2399 0
M  V30 6856 N 655.863 1.70004 4.30875 0
M  V30 6857 C 656.598 2.21074 5.29069 0
M  V30 6858 N 656.094 2.80473 6.33488 0
M  V30 6859 N 657.887 2.1152 5.20784 0
M  V30 6860 H 650.038 1.63272 1.35853 0
M  V30 6861 H 652.301 0.687149 0.653092 0
M  V30 6862 H 652.007 2.10542 2.81718 0
M  V30 6863 H 651.881 0.607664 3.72273 0
M  V30 6864 H 654.268 -0.0153339 2.95096 0
M  V30 6865 H 654.349 1.51282 2.0627 0
M  V30 6866 H 653.993 2.77833 4.25172 0
M  V30 6867 H 653.923 1.22515 5.1215 0
M  V30 6868 H 656.414 1.26667 3.56039 0
M  V30 6869 H 656.727 3.17094 7.04749 0
M  V30 6870 H 655.072 2.84538 6.34085 0
M  V30 6871 H 658.263 1.64814 4.38126 0
M  V30 6872 H 658.436 2.51629 5.97149 0
M  V30 6873 N 651.842 -1.52309 0.404946 0
M  V30 6874 C 653.072 -2.05886 -0.171569 0
M  V30 6875 C 653.48 -1.27527 -1.39762 0
M  V30 6876 O 652.823 -0.319215 -1.80905 0
M  V30 6877 C 652.885 -3.54609 -0.590983 0
M  V30 6878 C 652.549 -4.53989 0.523757 0
M  V30 6879 C 653.546 -5.01084 1.38604 0
M  V30 6880 C 651.231 -4.97465 0.695255 0
M  V30 6881 C 653.225 -5.90295 2.4048 0
M  V30 6882 C 650.912 -5.86473 1.71733 0
M  V30 6883 C 651.91 -6.32782 2.57051 0
M  V30 6884 O 651.598 -7.20029 3.57509 0
M  V30 6885 H 651.33 -0.675508 -0.0257763 0
M  V30 6886 H 653.884 -1.97238 0.573278 0
M  V30 6887 H 652.114 -3.60929 -1.38805 0
M  V30 6888 H 653.803 -3.90853 -1.09494 0
M  V30 6889 H 654.569 -4.68214 1.26492 0
M  V30 6890 H 650.448 -4.60982 0.0408447 0
M  V30 6891 H 653.992 -6.26363 3.07108 0
M  V30 6892 H 649.889 -6.18756 1.83877 0
M  V30 6893 H 650.657 -7.3813 3.53703 0
M  V30 6894 N 653.32 -0.135238 -1.57019 0
M  V30 6895 C 654.568 0.51777 -1.95355 0
M  V30 6896 C 654.889 1.6617 -1.02042 0
M  V30 6897 O 654.159 1.95738 -0.0797343 0
M  V30 6898 H 652.739 0.194264 -0.721298 0
M  V30 6899 H 655.401 -0.207983 -1.93787 0
M  V30 6900 H 654.497 0.901675 -2.98791 0
M  V30 6901 N 654.798 1.5699 0.138552 0
M  V30 6902 C 655.728 2.01933 1.17241 0
M  V30 6903 C 656.709 0.90033 1.44319 0
M  V30 6904 O 657.894 1.16872 1.55095 0
M  V30 6905 C 655.024 2.40711 2.50351 0
M  V30 6906 C 653.978 3.55874 2.37776 0
M  V30 6907 C 653.304 3.80491 3.75674 0
M  V30 6908 C 654.604 4.8826 1.85472 0
M  V30 6909 H 656.298 2.88551 0.798672 0
M  V30 6910 H 653.844 1.3882 0.382743 0
M  V30 6911 H 655.797 2.70754 3.22909 0
M  V30 6912 H 654.521 1.5104 2.89576 0
M  V30 6913 H 653.18 3.2601 1.67669 0
M  V30 6914 H 652.828 2.88057 4.12349 0
M  V30 6915 H 652.528 4.57998 3.68119 0
M  V30 6916 H 654.052 4.12967 4.49767 0
M  V30 6917 H 655.466 5.16965 2.4783 0
M  V30 6918 H 653.863 5.69631 1.88787 0
M  V30 6919 H 654.933 4.78071 0.810935 0
M  V30 6920 N 656.276 -0.40816 1.52223 0
M  V30 6921 C 657.239 -1.48 1.7501 0
M  V30 6922 C 658.239 -1.48367 0.619996 0
M  V30 6923 O 659.429 -1.49874 0.887881 0
M  V30 6924 C 656.561 -2.87403 1.83336 0
M  V30 6925 H 657.754 -1.29086 2.70697 0
M  V30 6926 H 655.307 -0.638715 1.42654 0
M  V30 6927 H 656.042 -3.11686 0.895677 0
M  V30 6928 H 655.827 -2.8854 2.65494 0
M  V30 6929 H 657.317 -3.65103 2.02705 0
M  V30 6930 N 657.755 -1.42862 -0.66545 0
M  V30 6931 C 658.718 -1.46756 -1.76055 0
M  V30 6932 C 659.718 -0.353866 -1.56858 0
M  V30 6933 O 660.908 -0.615099 -1.62979 0
M  V30 6934 C 658.04 -1.30829 -3.14796 0
M  V30 6935 H 659.233 -2.44271 -1.73987 0
M  V30 6936 H 656.786 -1.29447 -0.875965 0
M  V30 6937 H 657.521 -0.342733 -3.22484 0
M  V30 6938 H 657.306 -2.11551 -3.30134 0
M  V30 6939 H 658.796 -1.36458 -3.94676 0
M  V30 6940 N 659.233 0.902656 -1.29189 0
M  V30 6941 C 660.196 1.98797 -1.14071 0
M  V30 6942 C 661.196 1.60615 -0.0770549 0
M  V30 6943 O 662.386 1.71165 -0.323753 0
M  V30 6944 C 659.518 3.32688 -0.743739 0
M  V30 6945 H 660.711 2.13637 -2.10473 0
M  V30 6946 H 658.264 1.08678 -1.12334 0
M  V30 6947 H 658.999 3.23549 0.220554 0
M  V30 6948 H 658.784 3.61765 -1.51223 0
M  V30 6949 H 660.274 4.12337 -0.660935 0
M  V30 6950 N 660.711 1.11618 1.11262 0
M  V30 6951 C 661.957 0.867463 1.83311 0
M  V30 6952 C 662.29 -0.605366 1.84524 0
M  V30 6953 O 661.565 -1.44704 1.29965 0
M  V30 6954 C 661.848 1.43207 3.30399 0
M  V30 6955 C 661.701 2.97265 3.3757 0
M  V30 6956 C 663.02 1.08454 4.26528 0
M  V30 6957 H 660.139 0.316578 0.665543 0
M  V30 6958 H 662.781 1.38137 1.30454 0
M  V30 6959 H 660.931 0.994982 3.75543 0
M  V30 6960 H 662.603 3.49591 3.00971 0
M  V30 6961 H 660.846 3.33237 2.77733 0
M  V30 6962 H 661.517 3.31859 4.41105 0
M  V30 6963 H 663.993 1.4619 3.89574 0
M  V30 6964 H 662.869 1.50633 5.27826 0
M  V30 6965 H 663.13 -0.00444568 4.421 0
M  V30 6966 N 662.189 -1.289 0.906776 0
M  V30 6967 C 663.436 -1.95269 0.536326 0
M  V30 6968 C 663.764 -1.71435 -0.918711 0
M  V30 6969 O 663.019 -1.02431 -1.66752 0
M  V30 6970 C 663.318 -3.48704 0.783617 0
M  V30 6971 C 662.984 -3.92626 2.21711 0
M  V30 6972 C 661.646 -4.04329 2.60906 0
M  V30 6973 C 663.998 -4.15218 3.15029 0
M  V30 6974 C 661.326 -4.35998 3.92584 0
M  V30 6975 C 663.678 -4.48365 4.46264 0
M  V30 6976 C 662.342 -4.58278 4.85322 0
M  V30 6977 H 661.612 -0.714538 0.196256 0
M  V30 6978 H 664.259 -1.53366 1.14678 0
M  V30 6979 H 662.564 -3.91696 0.0903048 0
M  V30 6980 H 664.261 -3.98162 0.476267 0
M  V30 6981 H 660.851 -3.84038 1.90296 0
M  V30 6982 H 665.035 -4.05636 2.8596 0
M  V30 6983 H 660.291 -4.41878 4.22557 0
M  V30 6984 H 664.465 -4.64795 5.18593 0
M  V30 6985 H 662.092 -4.82573 5.87391 0
M  V30 6986 N 663.667 -0.670007 -1.42649 0
M  V30 6987 C 664.895 -0.19854 -2.05945 0
M  V30 6988 C 665.31 1.14243 -1.50313 0
M  V30 6989 O 664.667 1.70872 -0.641027 0
M  V30 6990 C 664.718 -0.11966 -3.61302 0
M  V30 6991 O 664.439 -1.40764 -4.1487 0
M  V30 6992 C 665.94 0.375878 -4.41704 0
M  V30 6993 H 663.16 -0.0976894 -0.663851 0
M  V30 6994 H 665.704 -0.915392 -1.82868 0
M  V30 6995 H 663.859 0.547851 -3.83507 0
M  V30 6996 H 664.273 -1.27784 -5.08696 0
M  V30 6997 H 665.747 0.379988 -5.50691 0
M  V30 6998 H 666.224 1.41028 -4.15942 0
M  V30 6999 H 666.83 -0.259727 -4.24506 0
M  V30 7000 N 665.145 1.52092 -0.413018 0
M  V30 7001 C 666.561 1.59471 -0.0640836 0
M  V30 7002 C 666.761 1.42562 1.42402 0
M  V30 7003 O 665.817 1.25453 2.19129 0
M  V30 7004 C 667.13 2.95392 -0.562474 0
M  V30 7005 C 668.678 3.08637 -0.520788 0
M  V30 7006 C 669.153 4.47044 -0.995752 0
M  V30 7007 N 670.644 4.53296 -0.952732 0
M  V30 7008 C 671.379 5.58669 -1.29138 0
M  V30 7009 N 670.875 6.71576 -1.70168 0
M  V30 7010 N 672.668 5.48898 -1.2111 0
M  V30 7011 H 664.819 1.6133 -1.38153 0
M  V30 7012 H 667.082 0.75916 -0.567785 0
M  V30 7013 H 666.788 3.13059 -1.60271 0
M  V30 7014 H 666.662 3.77191 0.0257875 0
M  V30 7015 H 669.049 2.90652 0.510412 0
M  V30 7016 H 669.13 2.28735 -1.14515 0
M  V30 7017 H 668.774 4.65773 -2.0253 0
M  V30 7018 H 668.704 5.25448 -0.348162 0
M  V30 7019 H 671.195 3.72248 -0.651119 0
M  V30 7020 H 671.508 7.47973 -1.9431 0
M  V30 7021 H 669.853 6.72847 -1.74075 0
M  V30 7022 H 673.044 4.59573 -0.889396 0
M  V30 7023 H 673.217 6.30912 -1.47833 0
M  V30 7024 N 666.623 0.143563 1.56945 0
M  V30 7025 C 667.9 -0.553285 1.87612 0
M  V30 7026 C 668.28 -1.83195 1.04894 0
M  V30 7027 O 667.628 -2.28102 0.134773 0
M  V30 7028 C 667.838 -0.822055 3.3918 0
M  V30 7029 C 669.186 -1.16435 4.08324 0
M  V30 7030 O 670.21 -0.911522 3.4434 0
M  V30 7031 O 669.069 -1.63996 5.21313 0
M  V30 7032 H 666.163 -0.281851 0.777489 0
M  V30 7033 H 668.709 0.179916 1.68744 0
M  V30 7034 H 667.481 0.0830265 3.91212 0
M  V30 7035 H 667.104 -1.60956 3.63564 0
M  V30 7036 N 668.101 -1.57061 -0.130224 0
M  V30 7037 C 669.031 -2.02552 -1.16168 0
M  V30 7038 C 670.012 -0.907971 -1.4384 0
M  V30 7039 O 671.197 -1.17693 -1.54473 0
M  V30 7040 C 668.327 -2.42035 -2.49071 0
M  V30 7041 C 667.281 -3.5713 -2.35886 0
M  V30 7042 C 666.607 -3.82478 -3.7365 0
M  V30 7043 C 667.907 -4.89236 -1.8288 0
M  V30 7044 H 669.601 -2.8897 -0.783359 0
M  V30 7045 H 667.147 -1.39021 -0.375376 0
M  V30 7046 H 669.1 -2.72462 -3.21469 0
M  V30 7047 H 667.824 -1.52573 -2.88771 0
M  V30 7048 H 666.483 -3.26895 -1.65938 0
M  V30 7049 H 666.131 -2.9024 -4.10816 0
M  V30 7050 H 665.831 -4.59944 -3.65685 0
M  V30 7051 H 667.355 -4.15347 -4.47571 0
M  V30 7052 H 668.769 -5.18272 -2.45085 0
M  V30 7053 H 667.166 -5.70624 -1.85763 0
M  V30 7054 H 668.236 -4.78494 -0.785571 0
M  V30 7055 N 669.579 0.400081 -1.52437 0
M  V30 7056 C 670.856 1.15973 -1.57511 0
M  V30 7057 C 671.236 2.0798 -0.361572 0
M  V30 7058 O 670.584 2.19032 0.650929 0
M  V30 7059 C 670.794 1.92912 -2.90837 0
M  V30 7060 C 672.142 2.48662 -3.44169 0
M  V30 7061 O 673.166 2.03081 -2.92637 0
M  V30 7062 O 672.025 3.31894 -4.34176 0
M  V30 7063 H 669.119 0.530023 -0.634827 0
M  V30 7064 H 671.665 0.40613 -1.64769 0
M  V30 7065 H 670.437 1.25564 -3.70607 0
M  V30 7066 H 670.06 2.75257 -2.86913 0
M  V30 7067 N 671.057 1.43213 0.657864 0
M  V30 7068 C 672.004 1.48011 1.77092 0
M  V30 7069 C 672.974 0.330291 1.62783 0
M  V30 7070 O 674.159 0.536787 1.83094 0
M  V30 7071 C 671.299 1.40461 3.15222 0
M  V30 7072 C 670.412 2.65612 3.40697 0
M  V30 7073 C 669.547 2.50083 4.68649 0
M  V30 7074 C 668.586 3.70525 4.87214 0
M  V30 7075 N 667.723 3.53835 6.0642 0
M  V30 7076 H 672.563 2.43121 1.72326 0
M  V30 7077 H 670.1 1.20687 0.841013 0
M  V30 7078 H 672.058 1.34079 3.95068 0
M  V30 7079 H 670.688 0.489359 3.19069 0
M  V30 7080 H 669.74 2.82292 2.54982 0
M  V30 7081 H 671.052 3.5509 3.50303 0
M  V30 7082 H 670.206 2.41383 5.56614 0
M  V30 7083 H 668.945 1.58121 4.61356 0
M  V30 7084 H 667.95 3.79639 3.97686 0
M  V30 7085 H 669.175 4.63489 4.96341 0
M  V30 7086 H 667.121 2.64604 6.00267 0
M  V30 7087 H 667.038 4.36912 6.16963 0
M  V30 7088 H 668.306 3.48978 6.97019 0
M  V30 7089 N 672.536 -0.895792 1.29666 0
M  V30 7090 C 673.499 -1.98189 1.15124 0
M  V30 7091 C 674.499 -1.60572 0.0855717 0
M  V30 7092 O 675.689 -1.70991 0.332826 0
M  V30 7093 C 672.821 -3.32289 0.761372 0
M  V30 7094 H 674.014 -2.12518 2.11603 0
M  V30 7095 H 671.567 -1.0808 1.12908 0
M  V30 7096 H 672.302 -3.23662 -0.203393 0
M  V30 7097 H 672.087 -3.60958 1.53139 0
M  V30 7098 H 673.577 -4.1198 0.682792 0
M  V30 7099 N 674.014 -1.12206 -1.10668 0
M  V30 7100 C 674.947 -0.731468 -2.16159 0
M  V30 7101 C 675.925 0.276216 -1.60237 0
M  V30 7102 O 677.109 0.17074 -1.87725 0
M  V30 7103 C 674.236 -0.0822882 -3.386 0
M  V30 7104 C 673.282 -1.05641 -4.1321 0
M  V30 7105 S 674.115 -2.58281 -4.69096 0
M  V30 7106 C 675.271 -1.94686 -5.94851 0
M  V30 7107 H 675.504 -1.62504 -2.48957 0
M  V30 7108 H 673.037 -0.940906 -1.22419 0
M  V30 7109 H 674.995 0.285896 -4.09503 0
M  V30 7110 H 673.656 0.788358 -3.04046 0
M  V30 7111 H 672.849 -0.549764 -5.00993 0
M  V30 7112 H 672.451 -1.36741 -3.48106 0
M  V30 7113 H 674.743 -1.28815 -6.65141 0
M  V30 7114 H 675.686 -2.80499 -6.50174 0
M  V30 7115 H 676.094 -1.40369 -5.46769 0
M  V30 7116 N 675.492 1.28418 -0.913599 0
M  V30 7117 C 676.722 1.98817 -0.56172 0
M  V30 7118 C 677.13 1.68457 0.861321 0
M  V30 7119 O 676.473 0.933653 1.58204 0
M  V30 7120 C 676.535 3.52801 -0.690785 0
M  V30 7121 C 676.199 4.0675 -2.08334 0
M  V30 7122 C 677.196 4.20597 -3.05604 0
M  V30 7123 C 674.881 4.41445 -2.39648 0
M  V30 7124 C 676.875 4.68392 -4.32305 0
M  V30 7125 C 674.562 4.88934 -3.66588 0
M  V30 7126 C 675.56 5.02364 -4.6273 0
M  V30 7127 O 675.248 5.48817 -5.87414 0
M  V30 7128 H 674.98 0.641608 -0.212874 0
M  V30 7129 H 677.534 1.64584 -1.22887 0
M  V30 7130 H 675.764 3.86686 0.0334336 0
M  V30 7131 H 677.453 4.04422 -0.346031 0
M  V30 7132 H 678.219 3.94067 -2.8273 0
M  V30 7133 H 674.098 4.30242 -1.65567 0
M  V30 7134 H 677.642 4.7879 -5.07352 0
M  V30 7135 H 673.539 5.14904 -3.89287 0
M  V30 7136 H 674.307 5.67103 -5.90201 0
M  V30 7137 N 676.97 0.677563 1.42291 0
M  V30 7138 C 678.217 0.200975 2.015 0
M  V30 7139 C 678.545 -1.19342 1.53583 0
M  V30 7140 O 677.8 -1.81579 0.7299 0
M  V30 7141 C 678.099 0.187229 3.56909 0
M  V30 7142 C 677.765 1.52667 4.24268 0
M  V30 7143 C 676.427 1.89341 4.42384 0
M  V30 7144 C 678.779 2.40869 4.62203 0
M  V30 7145 C 676.107 3.13836 4.95705 0
M  V30 7146 C 678.459 3.64679 5.16906 0
M  V30 7147 C 677.123 4.01519 5.33234 0
M  V30 7148 H 676.393 0.0735418 0.737342 0
M  V30 7149 H 679.04 0.873095 1.70439 0
M  V30 7150 H 677.345 -0.568407 3.87655 0
M  V30 7151 H 679.042 -0.198773 4.00507 0
M  V30 7152 H 675.632 1.23138 4.1053 0
M  V30 7153 H 679.816 2.1382 4.47878 0
M  V30 7154 H 675.072 3.42396 5.06532 0
M  V30 7155 H 679.246 4.33224 5.45243 0
M  V30 7156 H 676.873 4.98062 5.74316 0
M  V30 7157 N 678.448 -1.51871 0.421078 0
M  V30 7158 C 679.676 -2.06356 -0.14994 0
M  V30 7159 C 680.091 -1.29006 -1.37851 0
M  V30 7160 O 679.448 -0.345139 -1.79207 0
M  V30 7161 C 679.499 -3.58185 -0.488454 0
M  V30 7162 O 679.22 -4.32611 0.691341 0
M  V30 7163 C 680.721 -4.29129 -1.11191 0
M  V30 7164 H 677.941 -0.67083 -0.0151186 0
M  V30 7165 H 680.485 -1.95638 0.595476 0
M  V30 7166 H 678.64 -3.68871 -1.18376 0
M  V30 7167 H 679.054 -5.22927 0.405906 0
M  V30 7168 H 680.528 -5.36501 -1.29889 0
M  V30 7169 H 681.005 -3.86371 -2.0884 0
M  V30 7170 H 681.611 -4.22843 -0.456458 0
M  V30 7171 N 679.926 -0.151884 -1.56866 0
M  V30 7172 C 680.858 0.817008 -2.14144 0
M  V30 7173 C 681.871 1.20735 -1.0921 0
M  V30 7174 O 683.06 1.15058 -1.36469 0
M  V30 7175 C 680.16 2.10844 -2.65326 0
M  V30 7176 C 679.333 1.88471 -3.94712 0
M  V30 7177 C 678.392 3.01649 -4.31155 0
M  V30 7178 O 677.418 2.73127 -4.9939 0
M  V30 7179 N 678.62 4.28947 -3.91132 0
M  V30 7180 H 681.385 0.327448 -2.97906 0
M  V30 7181 H 678.946 0.0315313 -1.61869 0
M  V30 7182 H 680.938 2.85616 -2.86715 0
M  V30 7183 H 679.508 2.51049 -1.86262 0
M  V30 7184 H 678.728 0.977088 -3.81899 0
M  V30 7185 H 680.016 1.70866 -4.79252 0
M  V30 7186 H 679.414 4.54986 -3.36161 0
M  V30 7187 H 677.971 5.00484 -4.17563 0
M  V30 7188 N 681.404 1.57128 0.121893 0
M  V30 7189 C 682.367 1.99197 1.13372 0
M  V30 7190 C 683.367 0.881728 1.3447 0
M  V30 7191 O 684.557 1.14783 1.31036 0
M  V30 7192 C 681.689 2.32963 2.4888 0
M  V30 7193 H 682.882 2.89788 0.772204 0
M  V30 7194 H 680.435 1.51952 0.366093 0
M  V30 7195 H 681.17 1.45243 2.89957 0
M  V30 7196 H 680.955 3.13934 2.34921 0
M  V30 7197 H 682.445 2.66261 3.21706 0
M  V30 7198 N 682.882 -0.391992 1.52647 0
M  V30 7199 C 683.812 -1.48517 1.8018 0
M  V30 7200 C 684.793 -1.57039 0.653667 0
M  V30 7201 O 685.978 -1.72036 0.900962 0
M  V30 7202 C 683.108 -2.86161 1.96797 0
M  V30 7203 C 682.062 -2.92481 3.12472 0
M  V30 7204 C 681.388 -4.32546 3.14338 0
M  V30 7205 C 682.688 -2.624 4.51601 0
M  V30 7206 H 684.382 -1.25726 2.71723 0
M  V30 7207 H 681.928 -0.603387 1.30749 0
M  V30 7208 H 683.881 -3.62639 2.14641 0
M  V30 7209 H 682.605 -3.10283 1.01941 0
M  V30 7210 H 681.264 -2.18451 2.94406 0
M  V30 7211 H 680.912 -4.53703 2.1717 0
M  V30 7212 H 680.612 -4.37695 3.92042 0
M  V30 7213 H 682.136 -5.10934 3.34333 0
M  V30 7214 H 683.55 -3.28596 4.69785 0
M  V30 7215 H 681.947 -2.78903 5.3135 0
M  V30 7216 H 683.017 -1.57754 4.58521 0
M  V30 7217 N 684.36 -1.4356 -0.65026 0
M  V30 7218 C 685.292 -1.44918 -1.77571 0
M  V30 7219 C 686.305 -0.344925 -1.59104 0
M  V30 7220 O 687.494 -0.609537 -1.6777 0
M  V30 7221 C 684.594 -1.24914 -3.15039 0
M  V30 7222 C 683.767 -2.48232 -3.60138 0
M  V30 7223 C 682.826 -2.23409 -4.76419 0
M  V30 7224 O 681.852 -2.9678 -4.85706 0
M  V30 7225 N 683.054 -1.25259 -5.66825 0
M  V30 7226 H 685.819 -2.41935 -1.76883 0
M  V30 7227 H 683.38 -1.38754 -0.834202 0
M  V30 7228 H 685.372 -1.06185 -3.90521 0
M  V30 7229 H 683.942 -0.363319 -3.10481 0
M  V30 7230 H 683.162 -2.82366 -2.75069 0
M  V30 7231 H 684.45 -3.30296 -3.87017 0
M  V30 7232 H 683.848 -0.646246 -5.61997 0
M  V30 7233 H 682.405 -1.12513 -6.42016 0
M  V30 7234 N 685.838 0.888903 -1.30139 0
M  V30 7235 C 686.801 1.97576 -1.16174 0
M  V30 7236 C 687.801 1.60525 -0.094086 0
M  V30 7237 O 688.991 1.70812 -0.341889 0
M  V30 7238 C 686.123 3.3188 -0.778983 0
M  V30 7239 H 687.316 2.11393 -2.12728 0
M  V30 7240 H 684.869 1.0748 -1.1348 0
M  V30 7241 H 685.604 3.23765 0.186225 0
M  V30 7242 H 685.389 3.60141 -1.55051 0
M  V30 7243 H 686.879 4.11612 -0.704631 0
M  V30 7244 N 687.317 1.12792 1.10072 0
M  V30 7245 C 688.565 0.883796 1.81751 0
M  V30 7246 C 688.886 -0.591891 1.858 0
M  V30 7247 O 688.156 -1.43017 1.33876 0
M  V30 7248 H 686.736 0.323978 0.673088 0
M  V30 7249 H 689.398 1.42314 1.33164 0
M  V30 7250 H 688.494 1.26863 2.85153 0
M  V30 7251 N 688.795 -1.27931 0.920396 0
M  V30 7252 C 690.023 -1.98805 0.573087 0
M  V30 7253 C 690.438 -1.68724 -0.847201 0
M  V30 7254 O 689.795 -0.943699 -1.56207 0
M  V30 7255 C 689.846 -3.52971 0.780633 0
M  V30 7256 O 689.567 -3.81994 2.14504 0
M  V30 7257 C 691.068 -4.411 0.44105 0
M  V30 7258 H 688.288 -0.634651 0.21785 0
M  V30 7259 H 690.832 -1.62965 1.23542 0
M  V30 7260 H 688.987 -3.87048 0.165204 0
M  V30 7261 H 689.401 -4.76609 2.18962 0
M  V30 7262 H 690.875 -5.48312 0.637006 0
M  V30 7263 H 691.352 -4.34758 -0.62306 0
M  V30 7264 H 691.958 -4.12532 1.0343 0
M  V30 7265 N 690.273 -0.685099 -1.4193 0
M  V30 7266 C 691.519 -0.211971 -2.01689 0
M  V30 7267 C 691.852 1.18189 -1.54094 0
M  V30 7268 O 691.127 1.79559 -0.747572 0
M  V30 7269 C 691.41 -0.258019 -3.59174 0
M  V30 7270 C 691.263 -1.68807 -4.16922 0
M  V30 7271 C 692.582 0.388044 -4.38386 0
M  V30 7272 H 689.701 -0.0784987 -0.732808 0
M  V30 7273 H 692.343 -0.871837 -1.68816 0
M  V30 7274 H 690.493 0.303832 -3.8731 0
M  V30 7275 H 692.165 -2.30296 -3.99702 0
M  V30 7276 H 690.408 -2.22553 -3.72361 0
M  V30 7277 H 691.079 -1.6719 -5.26072 0
M  V30 7278 H 693.555 -0.0903432 -4.16002 0
M  V30 7279 H 692.431 0.325232 -5.47936 0
M  V30 7280 H 692.692 1.4672 -4.17044 0
M  V30 7281 N 691.751 1.51645 -0.429126 0
M  V30 7282 C 692.997 2.02967 0.132584 0
M  V30 7283 C 693.352 1.30804 1.41096 0
M  V30 7284 O 692.645 0.411705 1.87124 0
M  V30 7285 C 692.839 3.54989 0.414472 0
M  V30 7286 C 692.668 4.41879 -0.83503 0
M  V30 7287 C 691.438 4.86482 -1.36614 0
M  V30 7288 C 693.636 4.84727 -1.71886 0
M  V30 7289 N 691.618 5.5756 -2.56904 0
M  V30 7290 C 692.989 5.54788 -2.76786 0
M  V30 7291 C 695.044 4.66721 -1.73425 0
M  V30 7292 C 693.747 6.08753 -3.8316 0
M  V30 7293 C 695.773 5.21597 -2.7873 0
M  V30 7294 C 695.135 5.91598 -3.8235 0
M  V30 7295 H 691.234 0.781942 0.00956367 0
M  V30 7296 H 693.818 1.8561 -0.587957 0
M  V30 7297 H 691.989 3.72378 1.10405 0
M  V30 7298 H 693.721 3.92982 0.966817 0
M  V30 7299 H 690.476 4.64553 -0.921255 0
M  V30 7300 H 690.9 5.97731 -3.17879 0
M  V30 7301 H 695.542 4.1207 -0.946467 0
M  V30 7302 H 693.26 6.62464 -4.62782 0
M  V30 7303 H 696.846 5.09522 -2.80853 0
M  V30 7304 H 695.726 6.33299 -4.62495 0
M  V30 7305 N 693.229 0.160201 1.56784 0
M  V30 7306 C 694.475 -0.48831 1.96833 0
M  V30 7307 C 694.808 -1.63641 1.04571 0
M  V30 7308 O 694.083 -1.94289 0.0906481 0
M  V30 7309 C 694.366 -0.981908 3.46454 0
M  V30 7310 C 694.219 0.165607 4.49495 0
M  V30 7311 C 695.538 -1.85931 3.98896 0
M  V30 7312 H 692.657 -0.176027 0.71567 0
M  V30 7313 H 695.299 0.244093 1.88426 0
M  V30 7314 H 693.449 -1.60602 3.5375 0
M  V30 7315 H 695.121 0.802372 4.54268 0
M  V30 7316 H 693.364 0.822789 4.25926 0
M  V30 7317 H 694.035 -0.221699 5.51555 0
M  V30 7318 H 696.511 -1.33327 3.94161 0
M  V30 7319 H 695.387 -2.17373 5.04024 0
M  V30 7320 H 695.648 -2.80106 3.42042 0
M  V30 7321 N 694.707 -1.5719 -0.113559 0
M  V30 7322 C 695.655 -2.01725 -1.158 0
M  V30 7323 C 696.649 -0.915105 -1.42556 0
M  V30 7324 O 697.855 -1.10031 -1.42454 0
M  V30 7325 H 694.23 -0.64262 -0.390569 0
M  V30 7326 H 696.201 -2.88666 -0.755926 0
M  V30 7327 C 694.95 -2.44203 -2.47507 0
M  V30 7328 H 694.273 -3.28582 -2.27758 0
M  V30 7329 H 695.713 -2.79158 -3.19135 0
M  V30 7330 C 694.172 -1.30785 -3.10478 0
M  V30 7331 O 694.702 -0.626807 -3.9678 0
M  V30 7332 N 692.908 -1.06352 -2.7044 0
M  V30 7333 H 692.455 -1.61913 -2.00355 0
M  V30 7334 H 692.413 -0.306614 -3.12901 0
M  V30 7335 N 696.185 0.383891 -1.52853 0
M  V30 7336 C 697.413 1.1495 -1.7203 0
M  V30 7337 C 697.828 1.83578 -0.440957 0
M  V30 7338 O 697.185 1.72872 0.584925 0
M  V30 7339 C 697.236 2.19368 -2.87333 0
M  V30 7340 O 696.957 1.53536 -4.10315 0
M  V30 7341 C 698.458 3.08616 -3.18231 0
M  V30 7342 H 695.678 0.344445 -0.575846 0
M  V30 7343 H 698.222 0.448397 -1.99524 0
M  V30 7344 H 696.377 2.85105 -2.62286 0
M  V30 7345 H 696.791 2.2296 -4.74752 0
M  V30 7346 H 698.265 3.77902 -4.02361 0
M  V30 7347 H 698.742 3.72409 -2.32826 0
M  V30 7348 H 699.348 2.48518 -3.45136 0
M  V30 7349 N 697.663 1.43903 0.642637 0
M  V30 7350 C 698.893 1.49323 1.4278 0
M  V30 7351 C 699.301 0.113058 1.88862 0
M  V30 7352 O 698.644 -0.889089 1.60751 0
M  V30 7353 C 698.706 2.3861 2.68897 0
M  V30 7354 C 698.37 3.85976 2.44687 0
M  V30 7355 C 699.367 4.7681 2.07239 0
M  V30 7356 C 697.052 4.30567 2.58683 0
M  V30 7357 C 699.046 6.10234 1.841 0
M  V30 7358 C 696.733 5.64042 2.35159 0
M  V30 7359 C 697.731 6.53693 1.97925 0
M  V30 7360 O 697.419 7.84698 1.74654 0
M  V30 7361 H 697.151 0.509109 0.444729 0
M  V30 7362 H 699.705 1.89425 0.794195 0
M  V30 7363 H 697.935 1.93415 3.34855 0
M  V30 7364 H 699.624 2.35112 3.30873 0
M  V30 7365 H 700.39 4.43635 1.95993 0
M  V30 7366 H 696.269 3.61054 2.86637 0
M  V30 7367 H 699.813 6.80171 1.54962 0
M  V30 7368 H 695.71 5.96782 2.46011 0
M  V30 7369 H 696.478 7.96382 1.88993 0
M  V30 7370 N 699.141 -0.881989 1.30609 0
M  V30 7371 C 700.089 -2.00942 1.17155 0
M  V30 7372 C 701.083 -1.69198 0.0827154 0
M  V30 7373 O 702.289 -1.78342 0.243775 0
M  V30 7374 H 698.664 -0.658913 0.362406 0
M  V30 7375 H 700.635 -2.09423 2.12567 0
M  V30 7376 C 699.384 -3.36294 0.883273 0
M  V30 7377 H 698.707 -3.61233 1.7132 0
M  V30 7378 H 700.147 -4.15812 0.829255 0
M  V30 7379 C 698.606 -3.34348 -0.413851 0
M  V30 7380 O 699.136 -3.75216 -1.43444 0
M  V30 7381 N 697.342 -2.87459 -0.426082 0
M  V30 7382 H 696.889 -2.54397 0.40493 0
M  V30 7383 H 696.847 -2.8654 -1.29391 0
M  V30 7384 N 700.619 -1.13374 -1.09472 0
M  V30 7385 C 701.868 -0.889844 -1.8101 0
M  V30 7386 C 702.181 0.585686 -1.86625 0
M  V30 7387 O 703.387 0.946497 -2.54467 0
M  V30 7388 C 701.843 -1.54241 -3.25174 0
M  V30 7389 C 701.451 -3.05343 -3.27826 0
M  V30 7390 C 703.195 -1.37919 -4.0147 0
M  V30 7391 C 701.102 -3.63486 -4.6651 0
M  V30 7392 H 700.032 -0.329256 -0.678311 0
M  V30 7393 H 702.683 -1.36139 -1.23038 0
M  V30 7394 H 701.065 -0.998525 -3.83204 0
M  V30 7395 H 702.239 -3.66307 -2.79563 0
M  V30 7396 H 700.554 -3.21175 -2.65019 0
M  V30 7397 H 703.151 -1.78771 -5.03929 0
M  V30 7398 H 703.494 -0.323987 -4.15037 0
M  V30 7399 H 704.027 -1.89284 -3.49881 0
M  V30 7400 H 700.766 -4.68811 -4.58145 0
M  V30 7401 H 700.286 -3.073 -5.15099 0
M  V30 7402 H 701.965 -3.63134 -5.35484 0
M  V30 7403 N 702.098 1.27442 -0.927168 0
M  V30 7404 C 703.344 1.94679 -0.568164 0
M  V30 7405 C 703.677 1.72697 0.888219 0
M  V30 7406 O 702.952 1.05573 1.63354 0
M  V30 7407 C 703.235 3.4882 -0.894253 0
M  V30 7408 C 703.088 3.80146 -2.40435 0
M  V30 7409 C 704.407 4.38281 -0.399766 0
M  V30 7410 H 701.526 0.707071 -0.207892 0
M  V30 7411 H 704.168 1.50568 -1.15885 0
M  V30 7412 H 702.318 3.86522 -0.391566 0
M  V30 7413 H 703.99 3.52238 -2.97869 0
M  V30 7414 H 702.233 3.26716 -2.85375 0
M  V30 7415 H 702.904 4.87835 -2.58304 0
M  V30 7416 H 705.38 4.07726 -0.83058 0
M  V30 7417 H 704.256 5.44955 -0.656885 0
M  V30 7418 H 704.517 4.36521 0.700153 0
M  V30 7419 N 703.576 0.692616 1.41565 0
M  V30 7420 C 704.804 0.231279 2.05603 0
M  V30 7421 C 705.219 -1.11837 1.52111 0
M  V30 7422 O 704.576 -1.6983 0.66813 0
M  V30 7423 C 704.627 0.177125 3.61066 0
M  V30 7424 O 704.348 1.47346 4.12578 0
M  V30 7425 C 705.849 -0.30556 4.42246 0
M  V30 7426 H 703.069 0.108238 0.662213 0
M  V30 7427 H 705.613 0.944369 1.81389 0
M  V30 7428 H 703.768 -0.486769 3.8433 0
M  V30 7429 H 704.182 1.35861 5.06599 0
M  V30 7430 H 705.656 -0.29233 5.51225 0
M  V30 7431 H 706.133 -1.34393 4.18133 0
M  V30 7432 H 706.739 0.327229 4.24039 0
M  V30 7433 N 705.054 -1.51416 0.437162 0
M  V30 7434 C 706.294 -2.03995 -0.128538 0
M  V30 7435 C 706.658 -1.31417 -1.39977 0
M  V30 7436 O 707.859 -1.74369 -2.0457 0
M  V30 7437 C 706.13 -3.55757 -0.342317 0
M  V30 7438 S 707.689 -4.3006 -0.871446 0
M  V30 7439 H 704.507 -0.710283 -0.0319322 0
M  V30 7440 H 707.109 -1.86177 0.596526 0
M  V30 7441 H 705.813 -4.06148 0.589233 0
M  V30 7442 H 705.344 -3.77869 -1.09447 0
M  V30 7443 H 707.359 -4.47248 -2.14903 0
M  V30 7444 N 706.532 -0.168513 -1.56696 0
M  V30 7445 C 707.482 0.7751 -2.14421 0
M  V30 7446 C 708.466 1.19476 -1.07769 0
M  V30 7447 O 709.658 1.15759 -1.33898 0
M  V30 7448 C 706.787 2.00549 -2.7863 0
M  V30 7449 C 705.873 1.60795 -3.92436 0
M  V30 7450 N 706.264 0.919812 -4.97366 0
M  V30 7451 C 704.562 1.89917 -4.03544 0
M  V30 7452 C 705.263 0.724485 -5.77171 0
M  V30 7453 N 704.239 1.26505 -5.28675 0
M  V30 7454 H 708.041 0.240349 -2.92916 0
M  V30 7455 H 705.555 0.0322675 -1.62368 0
M  V30 7456 H 707.552 2.6917 -3.1836 0
M  V30 7457 H 706.212 2.54522 -2.01615 0
M  V30 7458 H 707.223 0.578169 -5.14663 0
M  V30 7459 H 703.9 2.45587 -3.37629 0
M  V30 7460 H 705.29 0.180521 -6.71657 0
M  V30 7461 N 708.01 1.57248 0.105221 0
M  V30 7462 C 709.238 1.89768 0.82437 0
M  V30 7463 C 709.653 0.761192 1.72775 0
M  V30 7464 O 709.01 -0.267342 1.80531 0
M  V30 7465 C 709.061 3.2184 1.64625 0
M  V30 7466 O 708.782 4.31115 0.779217 0
M  V30 7467 C 710.283 3.68155 2.46935 0
M  V30 7468 H 707.503 0.628031 0.236259 0
M  V30 7469 H 710.047 2.04321 0.085485 0
M  V30 7470 H 708.202 3.08915 2.33775 0
M  V30 7471 H 708.616 5.06897 1.34745 0
M  V30 7472 H 710.09 4.6329 3.00111 0
M  V30 7473 H 710.567 2.95492 3.24932 0
M  V30 7474 H 711.173 3.83914 1.83002 0
M  V30 7475 N 709.488 -0.375779 1.53054 0
M  V30 7476 C 710.899 -0.95309 1.6054 0
M  V30 7477 C 711.25 -1.90575 0.466446 0
M  V30 7478 O 710.375 -2.12507 -0.408609 0
M  V30 7479 C 710.97 -1.73537 2.90982 0
M  V30 7480 C 709.529 -2.26218 3.00836 0
M  V30 7481 C 708.676 -1.07157 2.55759 0
M  V30 7482 H 711.627 -0.154895 1.57942 0
M  V30 7483 H 711.648 -2.59574 2.78211 0
M  V30 7484 H 711.16 -1.04176 3.73857 0
M  V30 7485 H 709.261 -2.98852 2.22527 0
M  V30 7486 H 709.374 -2.54799 4.05727 0
M  V30 7487 H 707.738 -1.43553 2.10391 0
M  V30 7488 H 708.521 -0.393099 3.41042 0
M  V30 7489 N 710.966 -1.44241 -0.634997 0
M  V30 7490 C 712.213 -1.46821 -1.39463 0
M  V30 7491 C 712.541 -0.0993362 -1.94246 0
M  V30 7492 O 711.796 0.898325 -1.73864 0
M  V30 7493 C 712.095 -2.47279 -2.58046 0
M  V30 7494 C 711.761 -3.92703 -2.21574 0
M  V30 7495 C 710.423 -4.32306 -2.1134 0
M  V30 7496 C 712.775 -4.84271 -1.92695 0
M  V30 7497 C 710.103 -5.61407 -1.70409 0
M  V30 7498 C 712.455 -6.13755 -1.53258 0
M  V30 7499 C 711.119 -6.52316 -1.41562 0
M  V30 7500 H 710.389 -0.537256 -0.51033 0
M  V30 7501 H 713.036 -1.77431 -0.720441 0
M  V30 7502 H 711.341 -2.10138 -3.3068 0
M  V30 7503 H 713.038 -2.46523 -3.16271 0
M  V30 7504 H 709.628 -3.61369 -2.30456 0
M  V30 7505 H 713.812 -4.54432 -1.99513 0
M  V30 7506 H 709.068 -5.90105 -1.59955 0
M  V30 7507 H 713.242 -6.84168 -1.29949 0
M  V30 7508 H 710.869 -7.52255 -1.09619 0
M  V30 7509 N 712.444 0.87505 -1.31075 0
M  V30 7510 C 713.692 1.62447 -1.20231 0
M  V30 7511 C 714.013 1.93506 0.240888 0
M  V30 7512 O 713.283 1.57847 1.16022 0
M  V30 7513 H 711.863 0.602207 -0.441991 0
M  V30 7514 H 714.525 1.04788 -1.64334 0
M  V30 7515 H 713.621 2.57031 -1.77036 0
M  V30 7516 N 713.922 1.13953 1.08869 0
M  V30 7517 C 715.17 0.903023 1.80803 0
M  V30 7518 C 715.491 -0.572151 1.86417 0
M  V30 7519 O 714.761 -1.41589 1.35386 0
M  V30 7520 H 713.341 0.331099 0.669614 0
M  V30 7521 H 716.003 1.43719 1.31647 0
M  V30 7522 H 715.099 1.29881 2.83791 0
M  V30 7523 N 715.4 -1.26948 0.933913 0
M  V30 7524 C 716.647 -1.94087 0.577625 0
M  V30 7525 C 716.975 -1.73345 -0.88214 0
M  V30 7526 O 716.23 -1.05945 -1.64542 0
M  V30 7527 C 716.529 -3.46963 0.857406 0
M  V30 7528 C 716.195 -3.87834 2.2999 0
M  V30 7529 C 714.857 -3.98704 2.69423 0
M  V30 7530 C 717.209 -4.08442 3.23766 0
M  V30 7531 C 714.537 -4.27573 4.01744 0
M  V30 7532 C 716.889 -4.38798 4.55675 0
M  V30 7533 C 715.553 -4.47881 4.94934 0
M  V30 7534 H 714.823 -0.710215 0.211368 0
M  V30 7535 H 717.47 -1.50899 1.17905 0
M  V30 7536 H 715.775 -3.91416 0.173369 0
M  V30 7537 H 717.472 -3.97062 0.560615 0
M  V30 7538 H 714.062 -3.79916 1.98399 0
M  V30 7539 H 718.246 -3.99479 2.94499 0
M  V30 7540 H 713.502 -4.32815 4.31834 0
M  V30 7541 H 717.676 -4.5369 5.28335 0
M  V30 7542 H 715.303 -4.70005 5.97495 0
M  V30 7543 N 716.879 -0.700114 -1.41195 0
M  V30 7544 C 717.826 -0.0376652 -2.30769 0
M  V30 7545 C 718.796 0.766544 -1.47354 0
M  V30 7546 O 719.981 0.73365 -1.76131 0
M  V30 7547 C 717.121 0.889452 -3.33441 0
M  V30 7548 C 716.234 0.076373 -4.31932 0
M  V30 7549 C 715.369 1.00155 -5.21673 0
M  V30 7550 C 714.408 0.181644 -6.1183 0
M  V30 7551 N 713.545 1.06087 -6.94039 0
M  V30 7552 H 718.385 -0.80726 -2.86858 0
M  V30 7553 H 715.922 -0.409798 -1.41277 0
M  V30 7554 H 717.88 1.44107 -3.91522 0
M  V30 7555 H 716.51 1.6254 -2.78892 0
M  V30 7556 H 715.562 -0.592223 -3.75762 0
M  V30 7557 H 716.874 -0.559076 -4.95657 0
M  V30 7558 H 716.028 1.62223 -5.8461 0
M  V30 7559 H 714.767 1.67085 -4.58186 0
M  V30 7560 H 713.772 -0.452085 -5.47938 0
M  V30 7561 H 714.997 -0.483925 -6.77374 0
M  V30 7562 H 712.943 1.7161 -6.33156 0
M  V30 7563 H 712.86 0.481094 -7.54468 0
M  V30 7564 H 714.128 1.66822 -7.6144 0
M  V30 7565 N 718.357 1.51182 -0.445186 0
M  V30 7566 C 719.267 2.31692 0.368255 0
M  V30 7567 C 720.283 1.40942 1.02036 0
M  V30 7568 O 721.459 1.74011 1.01401 0
M  V30 7569 C 718.524 3.14903 1.45041 0
M  V30 7570 C 717.585 4.21442 0.817615 0
M  V30 7571 C 716.818 5.00677 1.8482 0
M  V30 7572 O 717.041 4.80644 3.07145 0
M  V30 7573 O 715.975 5.84559 1.43438 0
M  V30 7574 H 719.801 3.0232 -0.289219 0
M  V30 7575 H 717.386 1.47951 -0.207555 0
M  V30 7576 H 719.268 3.66612 2.07783 0
M  V30 7577 H 717.943 2.47031 2.09182 0
M  V30 7578 H 716.85 3.73791 0.151931 0
M  V30 7579 H 718.183 4.9171 0.219564 0
M  V30 7580 N 719.835 0.176821 1.56605 0
M  V30 7581 C 721.06 -0.47599 2.01864 0
M  V30 7582 C 721.485 -1.55645 1.05623 0
M  V30 7583 O 720.843 -1.81263 0.0366729 0
M  V30 7584 C 720.891 -1.02619 3.4569 0
M  V30 7585 O 719.995 -2.13996 3.52533 0
M  V30 7586 H 719.336 -0.113363 0.654251 0
M  V30 7587 H 721.866 0.28233 2.02643 0
M  V30 7588 H 721.876 -1.34742 3.85109 0
M  V30 7589 H 720.551 -0.235138 4.15235 0
M  V30 7590 H 719.128 -1.82876 3.24978 0
M  V30 7591 N 721.313 -1.57302 -0.09688 0
M  V30 7592 C 722.561 -1.8563 -0.799117 0
M  V30 7593 C 722.882 -0.765263 -1.79356 0
M  V30 7594 O 722.152 0.208657 -1.94786 0
M  V30 7595 H 720.732 -0.684937 -0.298111 0
M  V30 7596 H 723.394 -1.9474 -0.0789341 0
M  V30 7597 H 722.49 -2.82305 -1.3308 0
M  V30 7598 N 722.791 0.367657 -1.53252 0
M  V30 7599 C 723.739 1.47061 -1.8021 0
M  V30 7600 C 724.733 1.55539 -0.671112 0
M  V30 7601 O 725.939 1.58451 -0.854014 0
M  V30 7602 H 722.314 0.489868 -0.570555 0
M  V30 7603 H 724.285 1.21527 -2.72532 0
M  V30 7604 C 723.034 2.83924 -2.00706 0
M  V30 7605 H 722.357 2.78158 -2.87172 0
M  V30 7606 H 723.797 3.60281 -2.23547 0
M  V30 7607 C 722.256 3.27613 -0.785568 0
M  V30 7608 O 722.786 4.01691 0.0267459 0
M  V30 7609 N 720.992 2.84134 -0.609597 0
M  V30 7610 H 720.539 2.24017 -1.27178 0
M  V30 7611 H 720.497 3.13723 0.206281 0
M  V30 7612 N 724.269 1.44576 0.627338 0
M  V30 7613 C 725.517 1.47267 1.38408 0
M  V30 7614 C 725.838 0.107971 1.94701 0
M  V30 7615 O 725.108 -0.860206 1.76004 0
M  V30 7616 H 723.688 0.542276 0.513756 0
M  V30 7617 H 726.35 1.80383 0.738099 0
M  V30 7618 H 725.446 2.20025 2.21349 0
M  V30 7619 N 725.747 -0.868086 1.31537 0
M  V30 7620 C 727.163 -1.15414 1.10235 0
M  V30 7621 C 727.363 -2.01106 -0.125947 0
M  V30 7622 O 726.419 -2.38994 -0.814734 0
M  V30 7623 C 727.732 -1.84445 2.37488 0
M  V30 7624 C 729.28 -1.97139 2.43116 0
M  V30 7625 C 729.755 -2.69585 3.70254 0
M  V30 7626 N 731.246 -2.77119 3.71159 0
M  V30 7627 C 731.981 -3.33791 4.6623 0
M  V30 7628 N 731.477 -3.9138 5.71659 0
M  V30 7629 N 733.27 -3.31767 4.53747 0
M  V30 7630 H 725.421 -0.297109 2.10312 0
M  V30 7631 H 727.684 -0.194227 0.92789 0
M  V30 7632 H 727.39 -1.2893 3.27215 0
M  V30 7633 H 727.264 -2.84709 2.47428 0
M  V30 7634 H 729.651 -2.51818 1.53856 0
M  V30 7635 H 729.732 -0.95912 2.37138 0
M  V30 7636 H 729.376 -2.15572 4.59881 0
M  V30 7637 H 729.306 -3.71223 3.73499 0
M  V30 7638 H 731.797 -2.3625 2.94948 0
M  V30 7639 H 732.11 -4.3274 6.40278 0
M  V30 7640 H 730.455 -3.8975 5.7543 0
M  V30 7641 H 733.646 -2.86016 3.70557 0
M  V30 7642 H 733.819 -3.75636 5.28017 0
M  V30 7643 N 727.225 -1.14528 -1.08264 0
M  V30 7644 C 728.135 -0.84728 -2.18765 0
M  V30 7645 C 729.151 0.172826 -1.7314 0
M  V30 7646 O 730.327 0.000985336 -2.014 0
M  V30 7647 C 727.392 -0.330633 -3.4512 0
M  V30 7648 C 726.453 -1.41348 -4.05363 0
M  V30 7649 C 725.686 -0.921387 -5.25686 0
M  V30 7650 O 725.909 0.236587 -5.69909 0
M  V30 7651 O 724.843 -1.70101 -5.77364 0
M  V30 7652 H 728.669 -1.7708 -2.46731 0
M  V30 7653 H 726.254 -0.923661 -1.17426 0
M  V30 7654 H 728.136 -0.0485053 -4.21372 0
M  V30 7655 H 726.811 0.565147 -3.18728 0
M  V30 7656 H 725.718 -1.74908 -3.30693 0
M  V30 7657 H 727.051 -2.28383 -4.36007 0
M  V30 7658 N 728.703 1.26451 -0.940633 0
M  V30 7659 C 729.633 2.28773 -0.467479 0
M  V30 7660 C 730.614 1.63218 0.478955 0
M  V30 7661 O 731.799 1.90427 0.380929 0
M  V30 7662 C 728.929 3.46259 0.268656 0
M  V30 7663 C 727.883 4.23898 -0.591171 0
M  V30 7664 C 727.209 5.33993 0.274891 0
M  V30 7665 C 728.509 4.87974 -1.86223 0
M  V30 7666 H 730.203 2.68601 -1.32265 0
M  V30 7667 H 727.749 1.29123 -0.637436 0
M  V30 7668 H 729.702 4.16951 0.610696 0
M  V30 7669 H 728.426 3.05383 1.15796 0
M  V30 7670 H 727.085 3.54969 -0.916098 0
M  V30 7671 H 726.733 4.89358 1.16353 0
M  V30 7672 H 726.433 5.86849 -0.297006 0
M  V30 7673 H 727.957 6.07523 0.612213 0
M  V30 7674 H 729.371 5.50883 -1.58747 0
M  V30 7675 H 727.768 5.50945 -2.37866 0
M  V30 7676 H 728.838 4.10945 -2.57394 0
M  V30 7677 N 730.181 0.707592 1.40822 0
M  V30 7678 C 731.429 0.243189 2.00632 0
M  V30 7679 C 731.75 -1.16512 1.56365 0
M  V30 7680 O 731.02 -1.78841 0.799553 0
M  V30 7681 H 729.6 0.0869203 0.741926 0
M  V30 7682 H 732.262 0.911438 1.72275 0
M  V30 7683 H 731.358 0.270014 3.1093 0
M  V30 7684 N 731.66 -1.50943 0.453197 0
M  V30 7685 C 732.57 -2.31884 -0.355963 0
M  V30 7686 C 733.586 -1.41481 -1.01287 0
M  V30 7687 O 734.762 -1.74546 -1.00477 0
M  V30 7688 C 731.827 -3.15668 -1.43369 0
M  V30 7689 C 730.888 -4.2187 -0.795253 0
M  V30 7690 C 730.121 -5.0165 -1.82162 0
M  V30 7691 O 730.344 -4.82266 -3.04592 0
M  V30 7692 O 729.278 -5.85311 -1.40336 0
M  V30 7693 H 733.104 -3.02162 0.305248 0
M  V30 7694 H 730.689 -1.47839 0.215398 0
M  V30 7695 H 732.571 -3.67709 -2.05836 0
M  V30 7696 H 731.246 -2.48137 -2.07869 0
M  V30 7697 H 730.153 -3.73867 -0.132106 0
M  V30 7698 H 731.486 -4.9182 -0.193484 0
M  V30 7699 N 733.138 -0.185124 -1.56509 0
M  V30 7700 C 734.415 0.503348 -1.89013 0
M  V30 7701 C 734.795 1.80349 -1.09715 0
M  V30 7702 O 734.143 2.27665 -0.195203 0
M  V30 7703 C 734.353 0.731839 -3.41241 0
M  V30 7704 C 735.701 1.05568 -4.11267 0
M  V30 7705 O 736.725 0.819906 -3.46635 0
M  V30 7706 O 735.584 1.50116 -5.25478 0
M  V30 7707 H 732.678 0.261139 -0.784688 0
M  V30 7708 H 735.224 -0.224592 -1.68207 0
M  V30 7709 H 733.996 -0.18672 -3.90854 0
M  V30 7710 H 733.619 1.5126 -3.67704 0
M  V30 7711 N 734.616 1.57351 0.0885366 0
M  V30 7712 C 735.864 1.86051 0.789262 0
M  V30 7713 C 736.185 0.774763 1.78948 0
M  V30 7714 O 735.455 -0.198324 1.94894 0
M  V30 7715 H 734.035 0.686508 0.294475 0
M  V30 7716 H 736.697 1.94779 0.0686055 0
M  V30 7717 H 735.793 2.83007 1.31581 0
M  V30 7718 N 736.094 -0.359525 1.53444 0
M  V30 7719 C 737.024 -1.44662 1.8329 0
M  V30 7720 C 738.005 -1.55617 0.68683 0
M  V30 7721 O 739.19 -1.70086 0.93725 0
M  V30 7722 C 736.32 -2.81923 2.02822 0
M  V30 7723 C 735.274 -2.85787 3.18606 0
M  V30 7724 C 734.6 -4.25781 3.23442 0
M  V30 7725 C 735.9 -2.52762 4.57065 0
M  V30 7726 H 737.594 -1.19934 2.74329 0
M  V30 7727 H 735.14 -0.575517 1.31999 0
M  V30 7728 H 737.093 -3.58005 2.22285 0
M  V30 7729 H 735.817 -3.08051 1.085 0
M  V30 7730 H 734.476 -2.12157 2.98973 0
M  V30 7731 H 734.124 -4.48994 2.26745 0
M  V30 7732 H 733.824 -4.29281 4.01238 0
M  V30 7733 H 735.348 -5.03727 3.45096 0
M  V30 7734 H 736.762 -3.18557 4.76649 0
M  V30 7735 H 735.159 -2.67569 5.37147 0
M  V30 7736 H 736.229 -1.47993 4.61764 0
M  V30 7737 N 737.572 -1.44907 -0.619662 0
M  V30 7738 C 738.519 -1.52654 -1.73105 0
M  V30 7739 C 739.489 -0.373334 -1.6185 0
M  V30 7740 O 740.674 -0.585143 -1.81606 0
M  V30 7741 C 737.814 -1.48769 -3.11387 0
M  V30 7742 C 736.927 -2.74551 -3.33535 0
M  V30 7743 C 736.062 -2.62421 -4.61854 0
M  V30 7744 C 735.101 -3.83312 -4.77219 0
M  V30 7745 N 734.238 -3.69789 -5.96826 0
M  V30 7746 H 739.078 -2.47605 -1.65819 0
M  V30 7747 H 736.615 -1.22875 -0.808719 0
M  V30 7748 H 738.573 -1.44507 -3.91374 0
M  V30 7749 H 737.203 -0.573783 -3.1766 0
M  V30 7750 H 736.255 -2.88953 -2.47408 0
M  V30 7751 H 737.567 -3.64253 -3.40765 0
M  V30 7752 H 736.721 -2.56056 -5.50019 0
M  V30 7753 H 735.46 -1.70298 -4.57001 0
M  V30 7754 H 734.465 -3.90049 -3.87481 0
M  V30 7755 H 735.69 -4.76486 -4.83878 0
M  V30 7756 H 733.636 -2.80426 -5.93041 0
M  V30 7757 H 733.553 -4.53116 -6.05163 0
M  V30 7758 H 734.821 -3.67335 -6.87521 0
M  V30 7759 N 739.05 0.861098 -1.31996 0
M  V30 7760 C 740.013 1.95068 -1.20338 0
M  V30 7761 C 741.013 1.60289 -0.128114 0
M  V30 7762 O 742.203 1.70048 -0.378044 0
M  V30 7763 C 739.335 3.30153 -0.849205 0
M  V30 7764 H 740.528 2.06833 -2.17164 0
M  V30 7765 H 738.081 1.05049 -1.15734 0
M  V30 7766 H 738.816 3.24087 0.117508 0
M  V30 7767 H 738.601 3.56771 -1.62655 0
M  V30 7768 H 740.091 4.10025 -0.791782 0
M  V30 7769 N 740.528 1.15101 1.07655 0
M  V30 7770 C 741.758 0.946357 1.83651 0
M  V30 7771 C 742.166 -0.508641 1.82235 0
M  V30 7772 O 741.509 -1.36445 1.22997 0
M  V30 7773 C 741.571 1.37945 3.31981 0
M  V30 7774 C 741.235 2.85155 3.57122 0
M  V30 7775 C 742.232 3.83234 3.51323 0
M  V30 7776 C 739.917 3.2275 3.84887 0
M  V30 7777 C 741.911 5.16914 3.72932 0
M  V30 7778 C 739.598 4.56604 4.06148 0
M  V30 7779 C 740.596 5.53495 4.00165 0
M  V30 7780 O 740.284 6.84931 4.20861 0
M  V30 7781 H 740.016 0.336368 0.586372 0
M  V30 7782 H 742.57 1.53198 1.36819 0
M  V30 7783 H 740.8 0.737205 3.79608 0
M  V30 7784 H 742.489 1.14439 3.89434 0
M  V30 7785 H 743.255 3.55535 3.29878 0
M  V30 7786 H 739.134 2.47921 3.88659 0
M  V30 7787 H 742.678 5.92529 3.68178 0
M  V30 7788 H 738.575 4.84019 4.27078 0
M  V30 7789 H 739.343 6.91304 4.38226 0
M  V30 7790 N 742.006 -1.2595 0.947325 0
M  V30 7791 C 743.234 -1.97544 0.615127 0
M  V30 7792 C 743.649 -1.70484 -0.811221 0
M  V30 7793 O 743.006 -0.97662 -1.5417 0
M  V30 7794 C 743.057 -3.51236 0.855328 0
M  V30 7795 O 742.778 -3.77359 2.22558 0
M  V30 7796 C 744.279 -4.40066 0.534515 0
M  V30 7797 H 741.499 -0.629888 0.231263 0
M  V30 7798 H 744.043 -1.60308 1.26971 0
M  V30 7799 H 742.198 -3.8661 0.247266 0
M  V30 7800 H 742.612 -4.71857 2.29022 0
M  V30 7801 H 744.086 -5.46838 0.753168 0
M  V30 7802 H 744.563 -4.35982 -0.530701 0
M  V30 7803 H 745.169 -4.10245 1.12158 0
M  V30 7804 N 743.484 -0.715051 -1.40445 0
M  V30 7805 C 744.394 -0.0631624 -2.34515 0
M  V30 7806 C 745.41 0.744397 -1.57273 0
M  V30 7807 O 746.586 0.677475 -1.89663 0
M  V30 7808 C 743.651 0.847915 -3.36172 0
M  V30 7809 C 742.712 0.0303655 -4.29289 0
M  V30 7810 C 741.945 0.898051 -5.2609 0
M  V30 7811 O 742.168 2.13729 -5.28844 0
M  V30 7812 O 741.102 0.337328 -6.00954 0
M  V30 7813 H 744.928 -0.839078 -2.91879 0
M  V30 7814 H 742.513 -0.475527 -1.4163 0
M  V30 7815 H 744.395 1.3698 -3.98515 0
M  V30 7816 H 743.07 1.60299 -2.81222 0
M  V30 7817 H 741.977 -0.536573 -3.70232 0
M  V30 7818 H 743.31 -0.686474 -4.87389 0
M  V30 7819 N 744.962 1.50701 -0.461195 0
M  V30 7820 C 746.208 2.02566 0.0973411 0
M  V30 7821 C 746.541 1.3432 1.40257 0
M  V30 7822 O 745.816 0.465692 1.88843 0
M  V30 7823 C 746.099 3.58919 0.291423 0
M  V30 7824 C 745.952 4.37751 -1.03413 0
M  V30 7825 C 747.271 4.27379 1.05048 0
M  V30 7826 H 744.39 0.73622 0.0339026 0
M  V30 7827 H 747.032 1.80115 -0.604855 0
M  V30 7828 H 745.182 3.78179 0.889539 0
M  V30 7829 H 746.854 4.30085 -1.66806 0
M  V30 7830 H 745.097 4.01885 -1.63313 0
M  V30 7831 H 745.768 5.45384 -0.852085 0
M  V30 7832 H 748.244 4.12534 0.543603 0
M  V30 7833 H 747.12 5.36609 1.15506 0
M  V30 7834 H 747.381 3.89868 2.0846 0
M  V30 7835 N 746.441 0.193421 1.56409 0
M  V30 7836 C 747.388 -0.728124 2.19014 0
M  V30 7837 C 748.358 -1.21098 1.13686 0
M  V30 7838 O 749.543 -1.27517 1.4193 0
M  V30 7839 C 746.683 -1.94277 2.8522 0
M  V30 7840 C 745.796 -1.50143 4.05069 0
M  V30 7841 C 744.931 -2.67145 4.59137 0
M  V30 7842 C 743.97 -2.19609 5.71348 0
M  V30 7843 N 743.107 -3.29782 6.19829 0
M  V30 7844 H 747.947 -0.187499 2.9741 0
M  V30 7845 H 745.484 -0.0808064 1.46878 0
M  V30 7846 H 747.442 -2.65551 3.21774 0
M  V30 7847 H 746.072 -2.45673 2.09391 0
M  V30 7848 H 745.124 -0.684624 3.74189 0
M  V30 7849 H 746.436 -1.11266 4.86232 0
M  V30 7850 H 745.59 -3.46544 4.97988 0
M  V30 7851 H 744.329 -3.09295 3.77078 0
M  V30 7852 H 743.334 -1.38664 5.32027 0
M  V30 7853 H 744.559 -1.78492 6.55223 0
M  V30 7854 H 742.505 -3.71466 5.40693 0
M  V30 7855 H 742.422 -2.95069 6.96039 0
M  V30 7856 H 743.69 -4.094 6.63334 0
M  V30 7857 N 747.919 -1.57396 -0.0801906 0
M  V30 7858 C 749.147 -1.91055 -0.794075 0
M  V30 7859 C 749.562 -0.788583 -1.71542 0
M  V30 7860 O 748.919 0.238587 -1.80934 0
M  V30 7861 C 748.97 -3.24418 -1.59484 0
M  V30 7862 O 748.691 -4.323 -0.710532 0
M  V30 7863 C 750.192 -3.72037 -2.41046 0
M  V30 7864 H 747.412 -0.63171 -0.226238 0
M  V30 7865 H 749.956 -2.04431 -0.0529685 0
M  V30 7866 H 748.111 -3.12595 -2.2883 0
M  V30 7867 H 748.525 -5.08976 -1.26663 0
M  V30 7868 H 749.999 -4.68006 -2.92702 0
M  V30 7869 H 750.476 -3.00624 -3.2019 0
M  V30 7870 H 751.082 -3.86777 -1.76871 0
M  V30 7871 N 749.397 0.351382 -1.53633 0
M  V30 7872 C 750.643 1.09411 -1.70754 0
M  V30 7873 C 750.976 1.88544 -0.465293 0
M  V30 7874 O 750.251 1.86923 0.537608 0
M  V30 7875 C 750.534 2.04173 -2.96623 0
M  V30 7876 C 750.387 1.28556 -4.31038 0
M  V30 7877 C 751.706 3.04102 -3.18136 0
M  V30 7878 H 748.825 0.396373 -0.621335 0
M  V30 7879 H 751.467 0.373464 -1.86293 0
M  V30 7880 H 749.617 2.65625 -2.83506 0
M  V30 7881 H 751.289 0.697786 -4.55992 0
M  V30 7882 H 749.532 0.587498 -4.29803 0
M  V30 7883 H 750.203 1.97989 -5.15271 0
M  V30 7884 H 752.679 2.5276 -3.30532 0
M  V30 7885 H 751.555 3.67616 -4.07615 0
M  V30 7886 H 751.816 3.75053 -2.34068 0
M  V30 7887 N 750.875 1.45233 0.611969 0
M  V30 7888 C 752.103 1.52539 1.39784 0
M  V30 7889 C 752.518 0.156533 1.8815 0
M  V30 7890 O 751.875 -0.84112 1.61961 0
M  V30 7891 C 751.926 2.50614 2.60528 0
M  V30 7892 O 751.647 3.8218 2.14173 0
M  V30 7893 C 753.148 2.67574 3.53439 0
M  V30 7894 H 750.368 0.51674 0.428043 0
M  V30 7895 H 752.912 1.90379 0.746727 0
M  V30 7896 H 751.067 2.15858 3.2169 0
M  V30 7897 H 751.481 4.35305 2.92592 0
M  V30 7898 H 752.955 3.40184 4.34717 0
M  V30 7899 H 753.432 1.73458 4.03496 0
M  V30 7900 H 754.038 3.0331 2.98133 0
M  V30 7901 N 752.353 -0.854086 1.3245 0
M  V30 7902 C 753.602 -1.60318 1.22397 0
M  V30 7903 C 753.915 -1.9444 -0.212664 0
M  V30 7904 O 755.121 -2.67991 -0.435066 0
M  V30 7905 C 753.577 -2.8909 2.1437 0
M  V30 7906 C 753.185 -2.62391 3.63119 0
M  V30 7907 C 754.929 -3.67104 2.13155 0
M  V30 7908 C 752.836 -3.87167 4.47052 0
M  V30 7909 H 751.766 -0.601586 0.454544 0
M  V30 7910 H 754.417 -0.943023 1.57415 0
M  V30 7911 H 752.799 -3.56567 1.72268 0
M  V30 7912 H 753.973 -2.03222 4.13567 0
M  V30 7913 H 752.288 -1.97706 3.66471 0
M  V30 7914 H 754.885 -4.59696 2.731 0
M  V30 7915 H 755.228 -4.00876 1.12268 0
M  V30 7916 H 755.761 -3.06533 2.5354 0
M  V30 7917 H 752.5 -3.58536 5.48755 0
M  V30 7918 H 752.02 -4.45729 4.01355 0
M  V30 7919 H 753.699 -4.549 4.60081 0
M  V30 7920 N 753.831 -1.1567 -1.07043 0
M  V30 7921 C 754.778 -0.856336 -2.14326 0
M  V30 7922 C 755.748 0.192051 -1.64986 0
M  V30 7923 O 756.933 0.0589148 -1.90709 0
M  V30 7924 C 754.073 -0.355227 -3.43267 0
M  V30 7925 C 753.186 -1.46555 -4.06381 0
M  V30 7926 C 752.321 -0.920245 -5.23168 0
M  V30 7927 C 751.36 -2.00729 -5.78251 0
M  V30 7928 N 750.497 -1.47813 -6.86364 0
M  V30 7929 H 755.337 -1.77514 -2.39359 0
M  V30 7930 H 752.874 -0.885676 -1.17449 0
M  V30 7931 H 754.832 -0.0463804 -4.17174 0
M  V30 7932 H 753.462 0.526649 -3.18475 0
M  V30 7933 H 752.514 -1.89052 -3.30096 0
M  V30 7934 H 753.826 -2.28616 -4.43324 0
M  V30 7935 H 752.98 -0.564127 -6.04072 0
M  V30 7936 H 751.719 -0.0688477 -4.87651 0
M  V30 7937 H 750.724 -2.3722 -4.95991 0
M  V30 7938 H 751.949 -2.86252 -6.15822 0
M  V30 7939 H 749.895 -0.649145 -6.5278 0
M  V30 7940 H 749.812 -2.23498 -7.22208 0
M  V30 7941 H 751.08 -1.15036 -7.70965 0
M  V30 7942 N 755.309 1.25446 -0.953992 0
M  V30 7943 C 756.555 1.9343 -0.60933 0
M  V30 7944 C 756.888 1.74542 0.851388 0
M  V30 7945 O 756.163 1.09014 1.61078 0
M  V30 7946 C 756.446 3.46844 -0.968041 0
M  V30 7947 C 756.299 3.74961 -2.48444 0
M  V30 7948 C 757.618 4.37334 -0.492641 0
M  V30 7949 H 754.737 0.702502 -0.222844 0
M  V30 7950 H 757.379 1.48076 -1.19053 0
M  V30 7951 H 755.529 3.85604 -0.473465 0
M  V30 7952 H 757.201 3.45841 -3.05273 0
M  V30 7953 H 755.444 3.20589 -2.92241 0
M  V30 7954 H 756.115 4.82246 -2.68594 0
M  V30 7955 H 758.591 4.05873 -0.916878 0
M  V30 7956 H 757.467 5.43439 -0.772331 0
M  V30 7957 H 757.728 4.37908 0.607403 0
M  V30 7958 N 756.787 0.722489 1.40064 0
M  V30 7959 C 758.198 0.336507 1.83642 0
M  V30 7960 C 758.549 -1.13002 1.6039 0
M  V30 7961 O 757.674 -1.87036 1.08842 0
M  V30 7962 C 758.269 0.603985 3.33373 0
M  V30 7963 C 756.828 0.271637 3.75419 0
M  V30 7964 C 755.975 0.872898 2.63203 0
M  V30 7965 H 758.926 0.921108 1.29233 0
M  V30 7966 H 758.947 -0.128471 3.80283 0
M  V30 7967 H 758.459 1.67141 3.50265 0
M  V30 7968 H 756.56 -0.790455 3.64119 0
M  V30 7969 H 756.673 0.745457 4.73265 0
M  V30 7970 H 755.037 0.300431 2.52922 0
M  V30 7971 H 755.82 1.94473 2.82905 0
M  V30 7972 N 758.265 -1.50454 0.469181 0
M  V30 7973 C 759.197 -2.26319 -0.362247 0
M  V30 7974 C 760.21 -1.31574 -0.958751 0
M  V30 7975 O 761.399 -1.57099 -0.847482 0
M  V30 7976 C 758.499 -3.02808 -1.52187 0
M  V30 7977 C 757.672 -4.24893 -1.03849 0
M  V30 7978 C 756.731 -4.83691 -2.07194 0
M  V30 7979 O 755.757 -5.44659 -1.65333 0
M  V30 7980 N 756.959 -4.70522 -3.39985 0
M  V30 7981 H 759.724 -2.98312 0.288124 0
M  V30 7982 H 757.285 -1.59099 0.299856 0
M  V30 7983 H 759.277 -3.39023 -2.21011 0
M  V30 7984 H 757.847 -2.33625 -2.07697 0
M  V30 7985 H 757.067 -3.93806 -0.176203 0
M  V30 7986 H 758.355 -5.04053 -0.693435 0
M  V30 7987 H 757.753 -4.2203 -3.76706 0
M  V30 7988 H 756.31 -5.11011 -4.04612 0
M  V30 7989 N 759.743 -0.201713 -1.56304 0
M  V30 7990 C 760.69 0.716499 -2.19397 0
M  V30 7991 C 761.66 1.20494 -1.14326 0
M  V30 7992 O 762.845 1.26763 -1.42604 0
M  V30 7993 C 759.985 1.92762 -2.86246 0
M  V30 7994 C 759.098 1.47993 -4.0586 0
M  V30 7995 C 758.233 2.64706 -4.60547 0
M  V30 7996 C 757.272 2.16576 -5.72504 0
M  V30 7997 N 756.409 3.26491 -6.21569 0
M  V30 7998 H 761.249 0.171724 -2.97505 0
M  V30 7999 H 758.786 0.073016 -1.46919 0
M  V30 8000 H 760.744 2.6384 -3.23178 0
M  V30 8001 H 759.374 2.44559 -2.10691 0
M  V30 8002 H 758.426 0.66477 -3.74546 0
M  V30 8003 H 759.738 1.08686 -4.86815 0
M  V30 8004 H 758.892 3.43898 -4.99819 0
M  V30 8005 H 757.631 3.0729 -3.78713 0
M  V30 8006 H 756.636 1.3584 -5.32755 0
M  V30 8007 H 757.861 1.75015 -6.56161 0
M  V30 8008 H 755.807 3.68594 -5.42655 0
M  V30 8009 H 755.724 2.91374 -6.97594 0
M  V30 8010 H 756.992 4.05877 -6.65495 0
M  V30 8011 N 761.222 1.57436 0.0718424 0
M  V30 8012 C 762.17 2.04725 1.10411 0
M  V30 8013 C 763.164 0.952579 1.4008 0
M  V30 8014 O 764.37 1.13769 1.39487 0
M  V30 8015 H 760.745 0.652749 0.373393 0
M  V30 8016 H 762.716 2.90569 0.679126 0
M  V30 8017 C 761.465 2.5068 2.40946 0
M  V30 8018 H 760.788 3.34505 2.18967 0
M  V30 8019 H 762.228 2.87521 3.11621 0
M  V30 8020 C 760.687 1.38971 3.06902 0
M  V30 8021 O 761.217 0.731786 3.94978 0
M  V30 8022 N 759.423 1.13485 2.67525 0
M  V30 8023 H 758.97 1.67168 1.95991 0
M  V30 8024 H 758.928 0.389467 3.11978 0
M  V30 8025 N 762.7 -0.34323 1.53817 0
M  V30 8026 C 763.925 -1.1079 1.75329 0
M  V30 8027 C 764.35 -1.81571 0.491293 0
M  V30 8028 O 763.708 -1.72561 -0.556089 0
M  V30 8029 C 763.756 -2.09681 2.9337 0
M  V30 8030 O 762.86 -3.17207 2.63541 0
M  V30 8031 H 762.201 -0.320402 0.581583 0
M  V30 8032 H 764.731 -0.393525 2.0078 0
M  V30 8033 H 764.741 -2.52897 3.20168 0
M  V30 8034 H 763.416 -1.5756 3.84899 0
M  V30 8035 H 761.993 -2.78806 2.47632 0
M  V30 8036 O 764.217 -1.53912 -0.489205 0
M  V30 8037 H 764.908 -1.56315 -1.14391 0
M  V30 END ATOM
M  V30 BEGIN BOND
M  V30 END BOND
M  V30 END CTAB
M  END
$$$$
