drugbank_target|P04271 Protein S100-B (DB00768; DB01373; DB04464; DB05343; DB06941; DB07004; DB11093; DB11348; DB14481)
 OpenBabel12092119493D

  0  0  0     0  0            999 V3000
M  V30 BEGIN CTAB
M  V30 COUNTS 1458 1470 0 0 0
M  V30 BEGIN ATOM
M  V30 1 H -0.908 1.98254 -0.117106 0
M  V30 2 N 0 1.576 0 0
M  V30 3 C 0.933 2.03868 1.02534 0
M  V30 4 C 1.911 0.928543 1.3348 0
M  V30 5 O 3.095 1.19667 1.45644 0
M  V30 6 C 0.222 2.43627 2.35294 0
M  V30 7 C -0.732 3.65373 2.2001 0
M  V30 8 S 0.101 5.13292 1.52614 0
M  V30 9 C 1.257 5.56322 2.86805 0
M  V30 10 H 1.49 2.90518 0.631377 0
M  V30 11 H -0.977 1.52953 0.210867 0
M  V30 12 H 0.981 2.67203 3.11629 0
M  V30 13 H -0.358 1.57376 2.7183 0
M  V30 14 H -1.165 3.90944 3.18086 0
M  V30 15 H -1.563 3.418 1.51819 0
M  V30 16 H 0.729 5.58782 3.83104 0
M  V30 17 H 1.672 6.56266 2.65933 0
M  V30 18 H 2.08 4.83886 2.90714 0
M  V30 19 N 1.4781 -0.272755 1.55222 0
M  V30 20 C 2.7031 -1.02683 1.80197 0
M  V30 21 C 3.1281 -1.79142 0.573551 0
M  V30 22 O 2.4861 -1.74917 -0.476849 0
M  V30 23 C 2.5341 -1.9609 3.02624 0
M  V30 24 O 1.6381 -3.04863 2.77727 0
M  V30 25 H 0.9791 -0.293557 0.595584 0
M  V30 26 H 3.5091 -0.30159 2.02365 0
M  V30 27 H 3.5191 -2.38039 3.31363 0
M  V30 28 H 2.1941 -1.39851 3.91682 0
M  V30 29 H 0.7711 -2.67228 2.60084 0
M  V30 30 N 2.9562 -1.48159 -0.537278 0
M  V30 31 C 3.8662 -1.64807 -1.6696 0
M  V30 32 C 4.8822 -0.530651 -1.65711 0
M  V30 33 O 6.0582 -0.800784 -1.84796 0
M  V30 34 C 3.1232 -1.67708 -3.03438 0
M  V30 35 C 2.1842 -2.91025 -3.156 0
M  V30 36 C 1.4172 -2.93778 -4.45567 0
M  V30 37 O 1.6402 -2.05153 -5.3223 0
M  V30 38 O 0.5742 -3.85868 -4.61941 0
M  V30 39 H 4.4002 -2.6066 -1.55853 0
M  V30 40 H 1.9852 -1.31475 -0.709549 0
M  V30 41 H 3.8672 -1.7218 -3.84619 0
M  V30 42 H 2.5422 -0.750278 -3.14885 0
M  V30 43 H 1.4492 -2.92089 -2.33741 0
M  V30 44 H 2.7822 -3.83065 -3.09066 0
M  V30 45 N 4.4343 0.785586 -1.36625 0
M  V30 46 C 5.3643 1.91259 -1.33949 0
M  V30 47 C 6.3453 1.68795 -0.210325 0
M  V30 48 O 7.5303 1.89854 -0.408561 0
M  V30 49 C 4.6603 3.28339 -1.13186 0
M  V30 50 C 3.6143 3.65335 -2.22967 0
M  V30 51 C 2.9403 5.00806 -1.87342 0
M  V30 52 C 4.2403 3.7352 -3.65075 0
M  V30 53 H 5.9343 1.93755 -2.28253 0
M  V30 54 H 3.4803 0.930788 -1.09874 0
M  V30 55 H 5.4333 4.06804 -1.09948 0
M  V30 56 H 4.1573 3.2624 -0.153332 0
M  V30 57 H 2.8163 2.89169 -2.25337 0
M  V30 58 H 2.4643 4.95233 -0.880545 0
M  V30 59 H 2.1643 5.26529 -2.60846 0
M  V30 60 H 3.6883 5.81687 -1.85667 0
M  V30 61 H 5.1023 4.42168 -3.64911 0
M  V30 62 H 3.4993 4.10731 -4.37516 0
M  V30 63 H 4.5693 2.74527 -3.99703 0
M  V30 64 N 5.9124 1.20967 1.01018 0
M  V30 65 C 6.8224 0.980157 2.13143 0
M  V30 66 C 7.8384 -0.0660665 1.73875 0
M  V30 67 O 9.0144 0.122821 2.01025 0
M  V30 68 C 6.0794 0.54216 3.42435 0
M  V30 69 C 5.1404 1.65999 3.95908 0
M  V30 70 C 4.3734 1.2428 5.19028 0
M  V30 71 O 4.5964 0.114196 5.70286 0
M  V30 72 O 3.5304 2.05271 5.65816 0
M  V30 73 H 7.3564 1.91913 2.35379 0
M  V30 74 H 4.9414 0.994099 1.11526 0
M  V30 75 H 6.8234 0.30744 4.20277 0
M  V30 76 H 5.4984 -0.36815 3.216 0
M  V30 77 H 4.4054 1.94906 3.19316 0
M  V30 78 H 5.7384 2.54753 4.21143 0
M  V30 79 N 7.3905 -1.2043 1.01659 0
M  V30 80 C 8.3375 -2.23215 0.586822 0
M  V30 81 C 9.3075 -1.61382 -0.393085 0
M  V30 82 O 10.4925 -1.88544 -0.292525 0
M  V30 83 C 7.6325 -3.45032 -0.0687464 0
M  V30 84 C 6.7455 -4.21296 0.955724 0
M  V30 85 C 5.8805 -5.30507 0.271208 0
M  V30 86 C 4.9195 -5.98515 1.28244 0
M  V30 87 N 4.0565 -6.99316 0.62459 0
M  V30 88 H 8.8965 -2.59336 1.46796 0
M  V30 89 H 6.4335 -1.27431 0.734836 0
M  V30 90 H 8.3915 -4.1459 -0.465965 0
M  V30 91 H 7.0215 -3.09604 -0.913529 0
M  V30 92 H 6.0735 -3.50803 1.4711 0
M  V30 93 H 7.3855 -4.6803 1.72479 0
M  V30 94 H 6.5395 -6.06428 -0.18151 0
M  V30 95 H 5.2785 -4.8481 -0.530163 0
M  V30 96 H 4.2835 -5.21355 1.74554 0
M  V30 97 H 5.5085 -6.46298 2.08509 0
M  V30 98 H 3.4545 -6.55812 -0.156914 0
M  V30 99 H 3.3715 -7.44178 1.33172 0
M  V30 100 H 4.6395 -7.79255 0.195462 0
M  V30 101 N 8.8686 -0.792821 -1.36206 0
M  V30 102 C 9.8316 -0.199459 -2.2833 0
M  V30 103 C 10.8316 0.605189 -1.48977 0
M  V30 104 O 12.0216 0.425685 -1.68919 0
M  V30 105 C 9.1536 0.723523 -3.33134 0
M  V30 106 H 10.3466 -1.01181 -2.82316 0
M  V30 107 H 7.8996 -0.562485 -1.45828 0
M  V30 108 H 8.6346 1.56008 -2.84309 0
M  V30 109 H 8.4196 0.148436 -3.91819 0
M  V30 110 H 9.9096 1.13344 -4.01924 0
M  V30 111 N 10.3467 1.47872 -0.545128 0
M  V30 112 C 11.2797 2.2675 0.256885 0
M  V30 113 C 12.2577 1.33293 0.931228 0
M  V30 114 O 13.4417 1.62657 0.95262 0
M  V30 115 C 10.5687 3.09976 1.36501 0
M  V30 116 C 9.6147 4.1892 0.800496 0
M  V30 117 S 10.4477 5.34397 -0.343505 0
M  V30 118 C 11.6037 6.21186 0.766733 0
M  V30 119 H 11.8367 2.94425 -0.412479 0
M  V30 120 H 9.3697 1.50806 -0.331204 0
M  V30 121 H 11.3277 3.585 1.9997 0
M  V30 122 H 9.9887 2.41686 2.00616 0
M  V30 123 H 9.1817 4.76836 1.63227 0
M  V30 124 H 8.7837 3.73215 0.242217 0
M  V30 125 H 11.0757 6.56804 1.66178 0
M  V30 126 H 12.0187 7.07742 0.225204 0
M  V30 127 H 12.4267 5.54574 1.05396 0
M  V30 128 N 11.8248 0.280983 1.55075 0
M  V30 129 C 13.0708 -0.33461 2.00021 0
M  V30 130 C 13.4038 -1.55063 1.16915 0
M  V30 131 O 12.6788 -1.93006 0.240646 0
M  V30 132 C 12.9618 -0.711007 3.53011 0
M  V30 133 C 12.8148 0.512766 4.46868 0
M  V30 134 C 14.1338 -1.54522 4.12081 0
M  V30 135 H 11.2528 -0.120147 0.727141 0
M  V30 136 H 13.8948 0.389097 1.85973 0
M  V30 137 H 12.0448 -1.32761 3.65112 0
M  V30 138 H 13.7168 1.15131 4.46702 0
M  V30 139 H 11.9598 1.14975 4.18286 0
M  V30 140 H 12.6308 0.205556 5.51617 0
M  V30 141 H 15.1068 -1.02442 4.03293 0
M  V30 142 H 13.9828 -1.77739 5.19327 0
M  V30 143 H 14.2438 -2.52813 3.62682 0
M  V30 144 N 13.3029 -1.57598 0.00835791 0
M  V30 145 C 14.2659 -2.07884 -0.965242 0
M  V30 146 C 15.2659 -0.989825 -1.26725 0
M  V30 147 O 16.4559 -1.25218 -1.21104 0
M  V30 148 C 13.5879 -2.52731 -2.28779 0
M  V30 149 H 14.7809 -2.95178 -0.530112 0
M  V30 150 H 12.3339 -1.54458 -0.239283 0
M  V30 151 H 13.0689 -1.68705 -2.76964 0
M  V30 152 H 12.8539 -3.32272 -2.08177 0
M  V30 153 H 14.3439 -2.91933 -2.98605 0
M  V30 154 N 14.781 0.264519 -1.55364 0
M  V30 155 C 15.711 1.33121 -1.91836 0
M  V30 156 C 16.692 1.51101 -0.781192 0
M  V30 157 O 17.877 1.64003 -1.04003 0
M  V30 158 C 15.007 2.68921 -2.19769 0
M  V30 159 C 13.961 2.65661 -3.35571 0
M  V30 160 C 13.287 4.05093 -3.49004 0
M  V30 161 C 14.587 2.24187 -4.71739 0
M  V30 162 H 16.281 1.02844 -2.81182 0
M  V30 163 H 13.827 0.493286 -1.35287 0
M  V30 164 H 15.78 3.43663 -2.43872 0
M  V30 165 H 14.504 3.00799 -1.27231 0
M  V30 166 H 13.163 1.93377 -3.1145 0
M  V30 167 H 12.811 4.34206 -2.53917 0
M  V30 168 H 12.511 4.03804 -4.26868 0
M  V30 169 H 14.035 4.81561 -3.75408 0
M  V30 170 H 15.449 2.88654 -4.9533 0
M  V30 171 H 13.846 2.34044 -5.52579 0
M  V30 172 H 14.916 1.19327 -4.69988 0
M  V30 173 N 16.2591 1.48442 0.529413 0
M  V30 174 C 17.5081 1.55742 1.28169 0
M  V30 175 C 17.8211 0.236511 1.94165 0
M  V30 176 O 19.0271 0.187761 2.7085 0
M  V30 177 C 17.4831 2.74667 2.32564 0
M  V30 178 C 17.0911 4.13402 1.72636 0
M  V30 179 C 18.8351 2.9128 3.08798 0
M  V30 180 C 16.7421 5.23587 2.74975 0
M  V30 181 H 15.6721 0.579796 0.48203 0
M  V30 182 H 18.3231 1.74776 0.559056 0
M  V30 183 H 16.7051 2.49067 3.07866 0
M  V30 184 H 17.8791 4.49022 1.03519 0
M  V30 185 H 16.1941 4.0191 1.08892 0
M  V30 186 H 18.7911 3.70767 3.85274 0
M  V30 187 H 19.1341 2.00757 3.64695 0
M  V30 188 H 19.6671 3.16782 2.40611 0
M  V30 189 H 16.4061 6.16076 2.23897 0
M  V30 190 H 15.9261 4.92454 3.42417 0
M  V30 191 H 17.6051 5.51724 3.37949 0
M  V30 192 N 17.7372 -0.778329 1.37039 0
M  V30 193 C 19.0142 -1.52551 1.22424 0
M  V30 194 C 19.3942 -2.10288 -0.184964 0
M  V30 195 O 18.7422 -1.94953 -1.19187 0
M  V30 196 C 18.9522 -2.61164 2.31504 0
M  V30 197 C 20.3002 -3.28746 2.68721 0
M  V30 198 O 21.3242 -2.71455 2.30631 0
M  V30 199 O 20.1832 -4.3231 3.3432 0
M  V30 200 H 17.2772 -0.675343 0.477326 0
M  V30 201 H 19.8232 -0.815859 1.48801 0
M  V30 202 H 18.5952 -2.16574 3.25901 0
M  V30 203 H 18.2182 -3.39737 2.06554 0
M  V30 204 N 19.2153 -1.21501 -1.00376 0
M  V30 205 C 20.4613 -1.03452 -1.74429 0
M  V30 206 C 20.7943 0.430764 -1.89362 0
M  V30 207 O 20.0693 1.31962 -1.42886 0
M  V30 208 C 20.3523 -1.73375 -3.15615 0
M  V30 209 C 20.2053 -3.27431 -3.08397 0
M  V30 210 C 21.5243 -1.47732 -4.14564 0
M  V30 211 H 18.6433 -0.377226 -0.633143 0
M  V30 212 H 21.2853 -1.49693 -1.17013 0
M  V30 213 H 19.4353 -1.34064 -3.64636 0
M  V30 214 H 21.1073 -3.76119 -2.67081 0
M  V30 215 H 19.3503 -3.5767 -2.45468 0
M  V30 216 H 20.0213 -3.71524 -4.08258 0
M  V30 217 H 22.4973 -1.8186 -3.74254 0
M  V30 218 H 21.3733 -1.99169 -5.11491 0
M  V30 219 H 21.6343 -0.407589 -4.40217 0
M  V30 220 N 20.6934 1.19889 -1.02296 0
M  V30 221 C 21.9404 1.8942 -0.715972 0
M  V30 222 C 22.2684 1.79251 0.754944 0
M  V30 223 O 21.5234 1.17526 1.56481 0
M  V30 224 C 21.8224 3.39883 -1.10518 0
M  V30 225 C 21.4884 3.70254 -2.57337 0
M  V30 226 C 20.1504 3.78254 -2.97452 0
M  V30 227 C 22.5024 3.84052 -3.52354 0
M  V30 228 C 19.8304 3.97514 -4.31509 0
M  V30 229 C 22.1824 4.04824 -4.86108 0
M  V30 230 C 20.8464 4.11054 -5.25919 0
M  V30 231 H 20.1164 0.693138 -0.261993 0
M  V30 232 H 22.7634 1.42012 -1.28472 0
M  V30 233 H 21.0684 3.8915 -0.454953 0
M  V30 234 H 22.7654 3.9199 -0.845261 0
M  V30 235 H 19.3554 3.64632 -2.25258 0
M  V30 236 H 23.5394 3.77221 -3.22518 0
M  V30 237 H 18.7954 4.00574 -4.61898 0
M  V30 238 H 22.9694 4.14442 -5.59653 0
M  V30 239 H 20.5964 4.2573 -6.29808 0
M  V30 240 N 22.1715 0.800033 1.35784 0
M  V30 241 C 23.1215 0.178654 2.27299 0
M  V30 242 C 24.1055 -0.643667 1.47464 0
M  V30 243 O 25.2975 -0.502 1.69732 0
M  V30 244 C 22.4265 -0.677194 3.36555 0
M  V30 245 C 21.5125 0.154497 4.23818 0
M  V30 246 N 21.9035 1.21427 4.91008 0
M  V30 247 C 20.2015 -0.0649462 4.45953 0
M  V30 248 C 20.9025 1.72147 5.55644 0
M  V30 249 N 19.8785 1.02897 5.33773 0
M  V30 250 H 23.6805 0.989637 2.76737 0
M  V30 251 H 21.1945 0.64054 1.49234 0
M  V30 252 H 23.1915 -1.13835 4.01058 0
M  V30 253 H 21.8515 -1.4866 2.8867 0
M  V30 254 H 22.8625 1.59684 4.92668 0
M  V30 255 H 19.5395 -0.844016 4.0888 0
M  V30 256 H 20.9295 2.60683 6.19269 0
M  V30 257 N 23.6496 -1.47581 0.552962 0
M  V30 258 C 24.5816 -2.27997 -0.234533 0
M  V30 259 C 25.5946 -1.36753 -0.883321 0
M  V30 260 O 26.7836 -1.61612 -0.757889 0
M  V30 261 C 23.8836 -3.10879 -1.34935 0
M  V30 262 C 23.0566 -4.30056 -0.798158 0
M  V30 263 C 22.1156 -4.94567 -1.79694 0
M  V30 264 O 21.1416 -5.53087 -1.34474 0
M  V30 265 N 22.3436 -4.88878 -3.13015 0
M  V30 266 H 25.1086 -2.96222 0.455255 0
M  V30 267 H 22.6696 -1.57163 0.388761 0
M  V30 268 H 24.6616 -3.50903 -2.01616 0
M  V30 269 H 23.2316 -2.44924 -1.94244 0
M  V30 270 H 22.4516 -3.94174 0.0453079 0
M  V30 271 H 23.7396 -5.07152 -0.409173 0
M  V30 272 H 23.1376 -4.42526 -3.52402 0
M  V30 273 H 21.6946 -5.32934 -3.75266 0
M  V30 274 N 25.1277 -0.289203 -1.54924 0
M  V30 275 C 26.3577 0.325989 -2.04012 0
M  V30 276 C 26.7657 1.48961 -1.1665 0
M  V30 277 O 26.1087 1.82794 -0.1822 0
M  V30 278 C 26.1707 0.856112 -3.49158 0
M  V30 279 C 25.8347 -0.180697 -4.56643 0
M  V30 280 C 26.8317 -1.0051 -5.10092 0
M  V30 281 C 24.5167 -0.318998 -5.01286 0
M  V30 282 C 26.5107 -1.95385 -6.06715 0
M  V30 283 C 24.1977 -1.27121 -5.97732 0
M  V30 284 C 25.1957 -2.08713 -6.50329 0
M  V30 285 O 24.8837 -3.02322 -7.44887 0
M  V30 286 H 24.6157 0.0765276 -0.671654 0
M  V30 287 H 27.1697 -0.423254 -2.00992 0
M  V30 288 H 25.3997 1.65567 -3.49463 0
M  V30 289 H 27.0887 1.38591 -3.81507 0
M  V30 290 H 27.8547 -0.90906 -4.76404 0
M  V30 291 H 23.7337 0.306108 -4.59983 0
M  V30 292 H 27.2777 -2.59111 -6.47694 0
M  V30 293 H 23.1747 -1.36801 -6.30837 0
M  V30 294 H 23.9427 -2.97165 -7.6265 0
M  V30 295 N 26.6058 1.57591 -0.0167156 0
M  V30 296 C 27.8308 1.9598 0.67872 0
M  V30 297 C 28.2558 0.892546 1.65575 0
M  V30 298 O 27.6138 -0.147772 1.80697 0
M  V30 299 C 27.6618 3.33468 1.37227 0
M  V30 300 O 26.7658 3.28954 2.48722 0
M  V30 301 H 26.1068 0.639339 0.17928 0
M  V30 302 H 28.6368 2.04463 -0.0748802 0
M  V30 303 H 28.6468 3.69417 1.7319 0
M  V30 304 H 27.3218 4.10694 0.656007 0
M  V30 305 H 25.8988 3.04705 2.14963 0
M  V30 306 N 28.0839 -0.256276 1.55502 0
M  V30 307 C 29.3319 -0.983672 1.76545 0
M  V30 308 C 29.6529 -1.86206 0.578982 0
M  V30 309 O 28.9229 -1.91656 -0.405577 0
M  V30 310 H 27.5029 -0.366191 0.651086 0
M  V30 311 H 30.1649 -0.276479 1.92929 0
M  V30 312 H 29.2609 -1.61087 2.67315 0
M  V30 313 N 29.562 -1.4872 -0.521534 0
M  V30 314 C 30.978 -1.35028 -0.850855 0
M  V30 315 C 31.178 -0.367712 -1.98116 0
M  V30 316 O 30.234 0.208037 -2.51642 0
M  V30 317 C 31.547 -2.75263 -1.21041 0
M  V30 318 C 33.095 -2.83813 -1.31981 0
M  V30 319 C 33.57 -4.24769 -1.71276 0
M  V30 320 N 35.061 -4.27482 -1.78363 0
M  V30 321 C 35.796 -5.33494 -2.1017 0
M  V30 322 N 35.292 -6.49775 -2.40343 0
M  V30 323 N 37.085 -5.20894 -2.11248 0
M  V30 324 H 29.236 -2.11214 0.22413 0
M  V30 325 H 31.499 -0.947252 0.0376439 0
M  V30 326 H 31.205 -3.48765 -0.453415 0
M  V30 327 H 31.079 -3.09327 -2.15863 0
M  V30 328 H 33.466 -2.10561 -2.06756 0
M  V30 329 H 33.547 -2.53358 -0.352596 0
M  V30 330 H 33.191 -4.9854 -0.970588 0
M  V30 331 H 33.121 -4.52673 -2.69062 0
M  V30 332 H 35.612 -3.43611 -1.57288 0
M  V30 333 H 35.925 -7.26402 -2.63743 0
M  V30 334 H 34.27 -6.53035 -2.37844 0
M  V30 335 H 37.461 -4.29065 -1.87139 0
M  V30 336 H 37.634 -6.03612 -2.35704 0
M  V30 337 N 31.0401 0.771051 -1.3745 0
M  V30 338 C 31.9501 1.91538 -1.35464 0
M  V30 339 C 32.9661 1.72134 -0.254123 0
M  V30 340 O 34.1421 1.95358 -0.489626 0
M  V30 341 C 31.2071 3.26671 -1.16134 0
M  V30 342 C 30.2681 3.58723 -2.35831 0
M  V30 343 C 29.5011 4.87409 -2.17413 0
M  V30 344 O 29.7241 5.58506 -1.15876 0
M  V30 345 O 28.6581 5.18539 -3.05615 0
M  V30 346 H 32.4841 1.96165 -2.31847 0
M  V30 347 H 30.0691 0.9139 -1.18187 0
M  V30 348 H 31.9511 4.07499 -1.07345 0
M  V30 349 H 30.6261 3.22894 -0.228251 0
M  V30 350 H 29.5331 2.78127 -2.50192 0
M  V30 351 H 30.8661 3.67243 -3.27709 0
M  V30 352 N 32.5182 1.22032 0.997298 0
M  V30 353 C 33.7662 1.04016 1.73278 0
M  V30 354 C 34.0872 -0.426255 1.90284 0
M  V30 355 O 33.3572 -1.30694 1.45931 0
M  V30 356 H 31.9372 0.381897 0.642 0
M  V30 357 H 34.5992 1.5347 1.20137 0
M  V30 358 H 33.6952 1.51441 2.72896 0
M  V30 359 N 33.9963 -1.19345 1.0293 0
M  V30 360 C 35.2733 -1.84811 0.640642 0
M  V30 361 C 35.6533 -1.91855 -0.88062 0
M  V30 362 O 35.0013 -1.43587 -1.7775 0
M  V30 363 C 35.2113 -3.23755 1.30321 0
M  V30 364 C 36.5593 -3.99912 1.42673 0
M  V30 365 O 37.5833 -3.33155 1.26041 0
M  V30 366 O 36.4423 -5.19494 1.6967 0
M  V30 367 H 33.5363 -0.796443 0.222726 0
M  V30 368 H 36.0823 -1.26831 1.12748 0
M  V30 369 H 34.8543 -3.13466 2.34211 0
M  V30 370 H 34.4773 -3.89381 0.804261 0
M  V30 371 N 35.4744 -0.807222 -1.35358 0
M  V30 372 C 36.4214 -0.216037 -2.29787 0
M  V30 373 C 37.3914 0.650278 -1.52842 0
M  V30 374 O 38.5764 0.595227 -1.81278 0
M  V30 375 C 35.7164 0.628893 -3.39321 0
M  V30 376 C 34.8294 -0.257927 -4.31229 0
M  V30 377 C 33.9644 0.595069 -5.27856 0
M  V30 378 C 33.0034 -0.292111 -6.11403 0
M  V30 379 N 32.1404 0.520895 -7.00165 0
M  V30 380 H 36.9804 -1.02671 -2.79755 0
M  V30 381 H 34.5174 -0.517839 -1.37684 0
M  V30 382 H 36.4754 1.13393 -4.01494 0
M  V30 383 H 35.1054 1.40482 -2.90628 0
M  V30 384 H 34.1574 -0.881076 -3.70056 0
M  V30 385 H 35.4694 -0.940759 -4.89848 0
M  V30 386 H 34.6234 1.16522 -5.95405 0
M  V30 387 H 33.3624 1.31146 -4.69736 0
M  V30 388 H 32.3674 -0.874525 -5.428 0
M  V30 389 H 33.5924 -1.00638 -6.71602 0
M  V30 390 H 31.5384 1.22125 -6.44532 0
M  V30 391 H 31.4554 -0.103877 -7.55929 0
M  V30 392 H 32.7234 1.0743 -7.72062 0
M  V30 393 N 36.9525 1.47285 -0.560781 0
M  V30 394 C 37.9025 2.27073 0.205384 0
M  V30 395 C 38.8865 1.34569 0.882044 0
M  V30 396 O 40.0785 1.58899 0.77976 0
M  V30 397 C 37.2075 3.20414 1.23247 0
M  V30 398 C 36.2935 4.20399 0.559041 0
M  V30 399 N 36.6845 5.04423 -0.372927 0
M  V30 400 C 34.9825 4.38536 0.812522 0
M  V30 401 C 35.6835 5.76655 -0.764446 0
M  V30 402 N 34.6595 5.43471 -0.11848 0
M  V30 403 H 38.4615 2.89422 -0.511117 0
M  V30 404 H 35.9755 1.57868 -0.380975 0
M  V30 405 H 37.9725 3.76262 1.79534 0
M  V30 406 H 36.6325 2.59623 1.95002 0
M  V30 407 H 37.6435 5.1248 -0.747287 0
M  V30 408 H 34.3205 3.88913 1.51832 0
M  V30 409 H 35.7105 6.54238 -1.53045 0
M  V30 410 N 38.4306 0.297415 1.54768 0
M  V30 411 C 39.3776 -0.580276 2.23386 0
M  V30 412 C 40.3476 -1.13238 1.21517 0
M  V30 413 O 41.5326 -1.17757 1.50126 0
M  V30 414 C 38.6726 -1.74801 2.97555 0
M  V30 415 C 37.7856 -1.22764 4.1419 0
M  V30 416 C 36.9206 -2.35895 4.75949 0
M  V30 417 C 35.9596 -1.80974 5.84735 0
M  V30 418 N 35.0966 -2.87664 6.40464 0
M  V30 419 H 39.9366 0.0114833 2.97998 0
M  V30 420 H 37.4736 0.0174361 1.4709 0
M  V30 421 H 39.4316 -2.43475 3.38786 0
M  V30 422 H 38.0616 -2.31145 2.25326 0
M  V30 423 H 37.1136 -0.433271 3.77924 0
M  V30 424 H 38.4256 -0.785551 4.92575 0
M  V30 425 H 37.5796 -3.12523 5.20014 0
M  V30 426 H 36.3186 -2.83429 3.96887 0
M  V30 427 H 35.3236 -1.02834 5.40097 0
M  V30 428 H 36.5486 -1.34348 6.65678 0
M  V30 429 H 34.4946 -3.34538 5.64287 0
M  V30 430 H 34.4116 -2.4794 7.14186 0
M  V30 431 H 35.6796 -3.642 6.89187 0
M  V30 432 N 39.9087 -1.5758 0.0250728 0
M  V30 433 C 40.8387 -2.13007 -0.956575 0
M  V30 434 C 41.8197 -1.0452 -1.342 0
M  V30 435 O 43.0047 -1.32332 -1.42133 0
M  V30 436 C 40.1347 -2.65386 -2.24026 0
M  V30 437 C 39.0887 -3.78623 -1.99571 0
M  V30 438 C 38.4147 -4.17414 -3.3417 0
M  V30 439 C 39.7147 -5.04867 -1.33814 0
M  V30 440 H 41.4087 -2.9528 -0.494991 0
M  V30 441 H 38.9547 -1.42042 -0.236651 0
M  V30 442 H 40.9077 -3.02794 -2.93076 0
M  V30 443 H 39.6317 -1.80268 -2.72343 0
M  V30 444 H 38.2907 -3.41646 -1.32941 0
M  V30 445 H 37.9387 -3.29284 -3.80238 0
M  V30 446 H 37.6387 -4.93719 -3.18615 0
M  V30 447 H 39.1627 -4.57402 -4.04495 0
M  V30 448 H 40.5767 -5.39888 -1.92857 0
M  V30 449 H 38.9737 -5.86144 -1.28669 0
M  V30 450 H 40.0437 -4.83904 -0.310561 0
M  V30 451 N 41.3868 0.248026 -1.55636 0
M  V30 452 C 42.3338 1.30707 -1.90222 0
M  V30 453 C 43.3038 1.47881 -0.756332 0
M  V30 454 O 44.4888 1.61883 -1.00988 0
M  V30 455 C 41.6288 2.65769 -2.20138 0
M  V30 456 C 40.7418 2.56612 -3.47526 0
M  V30 457 C 39.8768 3.8402 -3.67017 0
M  V30 458 C 38.9158 3.69476 -4.8801 0
M  V30 459 N 38.0528 4.88774 -5.04029 0
M  V30 460 H 42.8928 1.00512 -2.80538 0
M  V30 461 H 40.4298 0.485055 -1.38873 0
M  V30 462 H 42.3878 3.44386 -2.35487 0
M  V30 463 H 41.0178 2.94115 -1.33027 0
M  V30 464 H 40.0698 1.69571 -3.40514 0
M  V30 465 H 41.3818 2.41774 -4.36287 0
M  V30 466 H 40.5358 4.7108 -3.8232 0
M  V30 467 H 39.2748 4.01754 -2.76487 0
M  V30 468 H 38.2798 2.80799 -4.72686 0
M  V30 469 H 39.5048 3.53238 -5.8 0
M  V30 470 H 37.4508 5.0687 -4.16435 0
M  V30 471 H 37.3678 4.76562 -5.86877 0
M  V30 472 H 38.6358 5.77335 -5.23741 0
M  V30 473 N 42.8649 1.48995 0.513639 0
M  V30 474 C 43.8119 1.6473 1.61656 0
M  V30 475 C 44.7819 0.488984 1.58739 0
M  V30 476 O 45.9669 0.714478 1.76918 0
M  V30 477 C 43.1069 1.7082 2.99858 0
M  V30 478 C 42.2199 2.9787 3.12885 0
M  V30 479 C 41.3549 2.95017 4.41744 0
M  V30 480 C 40.3939 4.16702 4.48359 0
M  V30 481 N 39.5309 4.11832 5.68629 0
M  V30 482 H 44.3709 2.58909 1.47547 0
M  V30 483 H 41.9079 1.28382 0.71808 0
M  V30 484 H 43.8659 1.72331 3.79944 0
M  V30 485 H 42.4959 0.801181 3.12699 0
M  V30 486 H 41.5479 3.06029 2.25944 0
M  V30 487 H 42.8599 3.8786 3.13633 0
M  V30 488 H 42.0139 2.95021 5.30139 0
M  V30 489 H 40.7529 2.02784 4.43542 0
M  V30 490 H 39.7579 4.16955 3.58369 0
M  V30 491 H 40.9829 5.10113 4.48287 0
M  V30 492 H 38.9289 3.22428 5.71293 0
M  V30 493 H 38.8459 4.95543 5.7094 0
M  V30 494 H 40.1139 4.1592 6.59266 0
M  V30 495 N 44.343 -0.763751 1.37857 0
M  V30 496 C 45.568 -1.55805 1.36893 0
M  V30 497 C 45.993 -1.88054 -0.0416135 0
M  V30 498 O 45.351 -1.49825 -1.02089 0
M  V30 499 C 45.399 -2.84012 2.22192 0
M  V30 500 O 44.503 -3.78732 1.63204 0
M  V30 501 H 43.844 -0.471638 0.46739 0
M  V30 502 H 46.374 -0.944657 1.81487 0
M  V30 503 H 46.384 -3.33037 2.35691 0
M  V30 504 H 45.059 -2.59869 3.24716 0
M  V30 505 H 43.636 -3.37402 1.58791 0
M  V30 506 N 45.8211 -1.22559 -0.990812 0
M  V30 507 C 46.7311 -1.01394 -2.11557 0
M  V30 508 C 47.7471 0.0383962 -1.73958 0
M  V30 509 O 48.9231 -0.154787 -2.00804 0
M  V30 510 C 45.9881 -0.596569 -3.41529 0
M  V30 511 C 45.0491 -1.72276 -3.93217 0
M  V30 512 C 44.2821 -1.32521 -5.16985 0
M  V30 513 O 44.5051 -0.204909 -5.70032 0
M  V30 514 O 43.4391 -2.14247 -5.62478 0
M  V30 515 H 47.2651 -1.95633 -2.32296 0
M  V30 516 H 44.8501 -1.01172 -1.0993 0
M  V30 517 H 46.7321 -0.374263 -4.19735 0
M  V30 518 H 45.4071 0.316939 -3.22145 0
M  V30 519 H 44.3141 -1.99961 -3.16174 0
M  V30 520 H 45.6471 -2.61421 -4.17037 0
M  V30 521 N 47.2992 1.18797 -1.03562 0
M  V30 522 C 48.2292 2.24472 -0.643019 0
M  V30 523 C 49.2102 1.66433 0.351283 0
M  V30 524 O 50.3952 1.92803 0.232505 0
M  V30 525 C 47.5252 3.473 4.24935e-05 0
M  V30 526 C 46.4792 4.18055 -0.917257 0
M  V30 527 C 45.8052 5.34519 -0.138941 0
M  V30 528 C 47.1052 4.72109 -2.23407 0
M  V30 529 H 48.7992 2.57566 -1.52643 0
M  V30 530 H 46.3452 1.23806 -0.735394 0
M  V30 531 H 48.2982 4.20426 0.286383 0
M  V30 532 H 47.0222 3.13424 0.918299 0
M  V30 533 H 45.6812 3.46821 -1.1879 0
M  V30 534 H 45.3292 4.96891 0.781562 0
M  V30 535 H 45.0292 5.82794 -0.750005 0
M  V30 536 H 46.5532 6.10438 0.1405 0
M  V30 537 H 47.9672 5.36955 -2.00879 0
M  V30 538 H 46.3642 5.30897 -2.79765 0
M  V30 539 H 47.4342 3.89807 -2.88407 0
M  V30 540 N 48.7773 0.814389 1.34928 0
M  V30 541 C 49.7243 0.22822 2.29669 0
M  V30 542 C 50.6943 -0.642164 1.53184 0
M  V30 543 O 51.8793 -0.585605 1.81591 0
M  V30 544 C 49.0193 -0.61089 3.3965 0
M  V30 545 C 48.1323 0.280792 4.31086 0
M  V30 546 C 47.2673 -0.567067 5.28165 0
M  V30 547 C 46.3063 0.324531 6.11239 0
M  V30 548 N 45.4433 -0.483756 7.00431 0
M  V30 549 H 50.2833 1.04153 2.79206 0
M  V30 550 H 47.8203 0.525133 1.37407 0
M  V30 551 H 49.7783 -1.11263 4.0209 0
M  V30 552 H 48.4083 -1.38939 2.91369 0
M  V30 553 H 47.4603 0.900688 3.69583 0
M  V30 554 H 48.7723 0.966723 4.89342 0
M  V30 555 H 47.9263 -1.13363 5.96015 0
M  V30 556 H 46.6653 -1.28654 4.70425 0
M  V30 557 H 45.6703 0.903298 5.42329 0
M  V30 558 H 46.8953 1.04198 6.71059 0
M  V30 559 H 44.8413 -1.18706 6.45171 0
M  V30 560 H 44.7583 0.143965 7.55863 0
M  V30 561 H 46.0263 -1.03334 7.7262 0
M  V30 562 N 50.2554 -1.46986 0.568584 0
M  V30 563 C 51.1654 -2.33942 -0.17555 0
M  V30 564 C 52.1814 -1.48891 -0.90041 0
M  V30 565 O 53.3574 -1.81794 -0.86676 0
M  V30 566 C 50.4224 -3.25811 -1.18524 0
M  V30 567 C 49.4834 -4.26757 -0.466582 0
M  V30 568 C 48.7164 -5.14236 -1.42817 0
M  V30 569 O 48.9394 -5.04379 -2.66379 0
M  V30 570 O 47.8734 -5.94412 -0.946453 0
M  V30 571 H 51.6994 -2.98896 0.538036 0
M  V30 572 H 49.2844 -1.4573 0.329097 0
M  V30 573 H 51.1664 -3.82527 -1.76779 0
M  V30 574 H 49.8414 -2.63471 -1.88055 0
M  V30 575 H 48.7484 -3.73769 0.157451 0
M  V30 576 H 50.0814 -4.91843 0.187485 0
M  V30 577 N 51.7335 -0.305618 -1.54608 0
M  V30 578 C 52.6635 0.561482 -2.26649 0
M  V30 579 C 53.6445 1.13415 -1.26772 0
M  V30 580 O 54.8295 1.16262 -1.55553 0
M  V30 581 C 51.9595 1.73122 -3.01075 0
M  V30 582 C 50.9135 1.2887 -4.08138 0
M  V30 583 C 50.2395 2.54396 -4.70305 0
M  V30 584 C 51.5395 0.416578 -5.20636 0
M  V30 585 H 53.2335 -0.0393902 -2.99374 0
M  V30 586 H 50.7795 -0.020385 -1.43986 0
M  V30 587 H 52.7325 2.34396 -3.50195 0
M  V30 588 H 51.4565 2.3584 -2.25936 0
M  V30 589 H 50.1155 0.698991 -3.59875 0
M  V30 590 H 49.7635 3.15439 -3.918 0
M  V30 591 H 49.4635 2.25486 -5.42614 0
M  V30 592 H 50.9875 3.16464 -5.2219 0
M  V30 593 H 52.4015 0.935116 -5.65622 0
M  V30 594 H 50.7985 0.221046 -5.99693 0
M  V30 595 H 51.8685 -0.557162 -4.81688 0
M  V30 596 N 53.2116 1.57565 -0.0334293 0
M  V30 597 C 54.4606 1.91155 0.643639 0
M  V30 598 C 54.7736 0.91192 1.73042 0
M  V30 599 O 55.9796 1.13923 2.46442 0
M  V30 600 C 54.4356 3.39443 1.1961 0
M  V30 601 C 54.0436 4.47774 0.142381 0
M  V30 602 C 55.7876 3.82094 1.84944 0
M  V30 603 C 53.6946 5.87162 0.706727 0
M  V30 604 H 52.6246 0.713368 0.244176 0
M  V30 605 H 55.2756 1.8323 -0.0994323 0
M  V30 606 H 53.6576 3.42313 1.99092 0
M  V30 607 H 54.8316 4.56469 -0.630296 0
M  V30 608 H 53.1466 4.14352 -0.412446 0
M  V30 609 H 55.7436 4.83591 2.2813 0
M  V30 610 H 56.0866 3.17386 2.69392 0
M  V30 611 H 56.6196 3.81665 1.12145 0
M  V30 612 H 53.3586 6.55424 -0.0997178 0
M  V30 613 H 52.8786 5.82064 1.44779 0
M  V30 614 H 54.5576 6.35866 1.19514 0
M  V30 615 N 54.6897 -0.239769 1.55765 0
M  V30 616 C 55.6377 -1.31668 1.91745 0
M  V30 617 C 56.6317 -1.49462 0.797338 0
M  V30 618 O 57.8377 -1.50852 0.982021 0
M  V30 619 H 54.2127 -0.441048 0.609082 0
M  V30 620 H 56.1837 -0.985923 2.81642 0
M  V30 621 C 54.9327 -2.66368 2.2348 0
M  V30 622 H 54.2557 -2.53478 3.09175 0
M  V30 623 H 55.6957 -3.40578 2.52553 0
M  V30 624 C 54.1547 -3.20002 1.05359 0
M  V30 625 O 54.6847 -4.00538 0.305261 0
M  V30 626 N 52.8907 -2.78126 0.842292 0
M  V30 627 H 52.4377 -2.12742 1.45253 0
M  V30 628 H 52.3957 -3.14354 0.053652 0
M  V30 629 N 56.1678 -1.49265 -0.50573 0
M  V30 630 C 57.1158 -1.66065 -1.62866 0
M  V30 631 C 58.1098 -0.526636 -1.61006 0
M  V30 632 O 59.3158 -0.706126 -1.65571 0
M  V30 633 H 55.6908 -0.52356 -0.539805 0
M  V30 634 H 57.6618 -2.60329 -1.45848 0
M  V30 635 C 56.4108 -1.74008 -3.01026 0
M  V30 636 H 55.7338 -2.6064 -3.03161 0
M  V30 637 H 57.1738 -1.89798 -3.79147 0
M  V30 638 C 55.6328 -0.483868 -3.33407 0
M  V30 639 O 56.1628 0.392548 -3.99777 0
M  V30 640 N 54.3688 -0.348236 -2.88506 0
M  V30 641 H 53.9158 -1.06242 -2.34671 0
M  V30 642 H 53.8738 0.491204 -3.10539 0
M  V30 643 N 57.6459 0.756429 -1.3826 0
M  V30 644 C 58.5559 1.9009 -1.37488 0
M  V30 645 C 59.5719 1.71855 -0.272366 0
M  V30 646 O 60.7479 1.94827 -0.510318 0
M  V30 647 C 57.8129 3.25421 -1.19592 0
M  V30 648 C 56.8739 3.56202 -2.39622 0
M  V30 649 C 56.1069 4.85075 -2.2257 0
M  V30 650 O 56.3299 5.57246 -1.21793 0
M  V30 651 O 55.2639 5.15269 -3.11098 0
M  V30 652 H 59.0899 1.93695 -2.33914 0
M  V30 653 H 56.6749 0.901313 -1.1915 0
M  V30 654 H 58.5569 4.06337 -1.11661 0
M  V30 655 H 57.2319 3.22634 -0.262486 0
M  V30 656 H 56.1389 2.75458 -2.53128 0
M  V30 657 H 57.4719 3.63747 -3.31586 0
M  V30 658 N 59.124 1.23083 0.984299 0
M  V30 659 C 60.054 1.03292 2.09411 0
M  V30 660 C 61.035 -0.048923 1.7003 0
M  V30 661 O 62.22 0.114967 1.93859 0
M  V30 662 C 59.35 0.619155 3.41736 0
M  V30 663 C 58.304 1.64791 3.95004 0
M  V30 664 C 57.63 1.0897 5.23478 0
M  V30 665 C 58.93 3.03999 4.24714 0
M  V30 666 H 60.624 1.96119 2.26225 0
M  V30 667 H 58.17 0.944344 1.08711 0
M  V30 668 H 60.123 0.467777 4.18796 0
M  V30 669 H 58.847 -0.344786 3.24775 0
M  V30 670 H 57.506 1.78721 3.20085 0
M  V30 671 H 57.154 0.11686 5.02864 0
M  V30 672 H 56.854 1.77704 5.60085 0
M  V30 673 H 58.378 0.950093 6.03163 0
M  V30 674 H 59.792 2.93393 4.92538 0
M  V30 675 H 58.189 3.69936 4.72512 0
M  V30 676 H 59.259 3.53285 3.32142 0
M  V30 677 N 60.6021 -1.18246 1.0419 0
M  V30 678 C 61.8271 -1.92736 0.765996 0
M  V30 679 C 62.2521 -1.75728 -0.67091 0
M  V30 680 O 61.6101 -1.06825 -1.46486 0
M  V30 681 C 61.6581 -3.42148 1.13875 0
M  V30 682 O 60.7621 -4.11548 0.264954 0
M  V30 683 H 60.1031 -0.601238 0.281797 0
M  V30 684 H 62.6331 -1.49942 1.39207 0
M  V30 685 H 62.6431 -3.92858 1.1012 0
M  V30 686 H 61.3181 -3.53848 2.18551 0
M  V30 687 H 59.8951 -3.71137 0.362226 0
M  V30 688 N 62.0802 -0.821533 -1.34494 0
M  V30 689 C 63.0302 -0.214793 -2.26986 0
M  V30 690 C 64.0142 0.620125 -1.4847 0
M  V30 691 O 65.2062 0.474933 -1.70509 0
M  V30 692 C 62.3352 0.623566 -3.37589 0
M  V30 693 C 61.4212 -0.221904 -4.23519 0
M  V30 694 N 61.8122 -1.29223 -4.89014 0
M  V30 695 C 60.1102 -0.00600922 -4.46 0
M  V30 696 C 60.8112 -1.80965 -5.52835 0
M  V30 697 N 59.7872 -1.11376 -5.32068 0
M  V30 698 H 63.5892 -1.03354 -2.75128 0
M  V30 699 H 61.1032 -0.6642 -1.48196 0
M  V30 700 H 63.1002 1.0744 -4.02818 0
M  V30 701 H 61.7602 1.44049 -2.90998 0
M  V30 702 H 62.7712 -1.67502 -4.90065 0
M  V30 703 H 59.4482 0.77886 -4.10171 0
M  V30 704 H 60.8382 -2.70502 -6.15043 0
M  V30 705 N 63.5583 1.46682 -0.576371 0
M  V30 706 C 64.8053 2.02412 -0.0595339 0
M  V30 707 C 65.1333 1.44859 1.29793 0
M  V30 708 O 64.3883 0.601099 1.8624 0
M  V30 709 C 64.6873 3.57345 0.062886 0
M  V30 710 C 64.3533 4.33908 -1.22616 0
M  V30 711 C 63.0153 4.54544 -1.57933 0
M  V30 712 C 65.3673 4.77919 -2.07948 0
M  V30 713 C 62.6953 5.16444 -2.78393 0
M  V30 714 C 65.0473 5.41149 -3.27629 0
M  V30 715 C 63.7113 5.60014 -3.63236 0
M  V30 716 H 62.9813 0.74068 -0.021785 0
M  V30 717 H 65.6283 1.76128 -0.751735 0
M  V30 718 H 63.9333 3.82729 0.838178 0
M  V30 719 H 65.6303 3.98136 0.478439 0
M  V30 720 H 62.2203 4.18138 -0.941202 0
M  V30 721 H 66.4043 4.61738 -1.81967 0
M  V30 722 H 61.6603 5.29242 -3.06126 0
M  V30 723 H 65.8343 5.74211 -3.94023 0
M  V30 724 H 63.4613 6.07748 -4.56669 0
M  V30 725 N 65.0364 0.313813 1.54444 0
M  V30 726 C 65.9664 -0.549454 2.26943 0
M  V30 727 C 66.9474 -1.12741 1.27372 0
M  V30 728 O 68.1324 -1.15436 1.56167 0
M  V30 729 C 65.2624 -1.71523 3.01989 0
M  V30 730 C 64.2164 -1.26703 4.08816 0
M  V30 731 C 63.5424 -2.51898 4.71647 0
M  V30 732 C 64.8424 -0.388962 5.2085 0
M  V30 733 H 66.5364 0.0552661 2.99349 0
M  V30 734 H 64.0824 0.0280207 1.43973 0
M  V30 735 H 66.0354 -2.32535 3.51433 0
M  V30 736 H 64.7594 -2.34639 2.27183 0
M  V30 737 H 63.4184 -0.679896 3.6024 0
M  V30 738 H 63.0664 -3.13356 3.93468 0
M  V30 739 H 62.7664 -2.22605 5.43802 0
M  V30 740 H 64.2904 -3.1369 5.23861 0
M  V30 741 H 65.7044 -0.905107 5.6611 0
M  V30 742 H 64.1014 -0.18924 5.99802 0
M  V30 743 H 65.1714 0.582699 4.81386 0
M  V30 744 N 66.5145 -1.57545 0.0417849 0
M  V30 745 C 67.4245 -2.14451 -0.951213 0
M  V30 746 C 68.4405 -1.09992 -1.34825 0
M  V30 747 O 69.6165 -1.42114 -1.42708 0
M  V30 748 C 66.6815 -2.67063 -2.21084 0
M  V30 749 C 65.7425 -3.86284 -1.87304 0
M  V30 750 C 64.9755 -4.36378 -3.07261 0
M  V30 751 O 65.1985 -3.85587 -4.20332 0
M  V30 752 O 64.1325 -5.28077 -2.88822 0
M  V30 753 H 67.9585 -2.99601 -0.497287 0
M  V30 754 H 65.5435 -1.48317 -0.179567 0
M  V30 755 H 67.4255 -3.00914 -2.95006 0
M  V30 756 H 66.1005 -1.84989 -2.65633 0
M  V30 757 H 65.0075 -3.57338 -1.10727 0
M  V30 758 H 66.3405 -4.6956 -1.47562 0
M  V30 759 N 67.9926 0.231505 -1.5589 0
M  V30 760 C 68.9026 1.308 -1.94752 0
M  V30 761 C 69.9186 1.51826 -0.849989 0
M  V30 762 O 71.0946 1.6515 -1.15271 0
M  V30 763 C 68.1596 2.63968 -2.24771 0
M  V30 764 C 67.2206 2.51331 -3.48039 0
M  V30 765 C 66.4536 3.78148 -3.76616 0
M  V30 766 O 66.6766 4.80722 -3.07022 0
M  V30 767 O 65.6106 3.75857 -4.70123 0
M  V30 768 H 69.4366 1.0083 -2.86474 0
M  V30 769 H 67.0216 0.433547 -1.42971 0
M  V30 770 H 68.9036 3.42633 -2.45318 0
M  V30 771 H 67.5786 2.9364 -1.36225 0
M  V30 772 H 66.4856 1.709 -3.32782 0
M  V30 773 H 67.8186 2.26601 -4.36936 0
M  V30 774 N 69.4707 1.49531 0.497807 0
M  V30 775 C 70.7197 1.58426 1.24837 0
M  V30 776 C 71.0327 0.277643 1.93619 0
M  V30 777 O 72.2387 0.24517 2.70391 0
M  V30 778 C 70.6947 2.79538 2.26686 0
M  V30 779 C 70.3027 4.16971 1.63828 0
M  V30 780 C 72.0467 2.97764 3.0255 0
M  V30 781 C 69.9537 5.29301 2.63807 0
M  V30 782 H 68.8837 0.58989 0.469623 0
M  V30 783 H 71.5347 1.75923 0.521857 0
M  V30 784 H 69.9167 2.55542 3.02514 0
M  V30 785 H 71.0907 4.51116 0.939711 0
M  V30 786 H 69.4057 4.04129 1.00342 0
M  V30 787 H 72.0027 3.78856 3.77323 0
M  V30 788 H 72.3457 2.08448 3.60354 0
M  V30 789 H 72.8787 3.21815 2.33838 0
M  V30 790 H 69.6177 6.20687 2.10779 0
M  V30 791 H 69.1377 4.99606 3.31894 0
M  V30 792 H 70.8167 5.58768 3.2617 0
M  V30 793 N 70.9488 -0.749086 1.3866 0
M  V30 794 C 71.8958 -1.86291 1.36251 0
M  V30 795 C 72.8658 -1.64578 0.224347 0
M  V30 796 O 74.0508 -1.86181 0.417279 0
M  V30 797 C 71.1908 -3.23644 1.19786 0
M  V30 798 C 70.3038 -3.57158 2.43027 0
M  V30 799 C 69.4388 -4.83838 2.19258 0
M  V30 800 C 68.4778 -5.10152 3.38247 0
M  V30 801 N 67.6148 -6.28029 3.13884 0
M  V30 802 H 72.4548 -1.87685 2.3147 0
M  V30 803 H 69.9918 -0.917287 1.14997 0
M  V30 804 H 71.9498 -4.0291 1.08254 0
M  V30 805 H 70.5798 -3.21566 0.282031 0
M  V30 806 H 69.6318 -2.72701 2.65214 0
M  V30 807 H 70.9438 -3.7253 3.31697 0
M  V30 808 H 70.0978 -5.71057 2.04888 0
M  V30 809 H 68.8368 -4.70614 1.2796 0
M  V30 810 H 67.8418 -4.21401 3.53131 0
M  V30 811 H 69.0668 -5.25271 4.30427 0
M  V30 812 H 67.0128 -6.1612 2.25238 0
M  V30 813 H 66.9298 -6.43922 3.96106 0
M  V30 814 H 68.1978 -7.18124 3.03179 0
M  V30 815 N 72.4269 -1.23603 -0.977757 0
M  V30 816 C 73.3369 -1.03632 -2.1047 0
M  V30 817 C 74.3529 0.0199435 -1.73989 0
M  V30 818 O 75.5289 -0.176076 -2.00629 0
M  V30 819 C 72.5939 -0.63276 -3.40877 0
M  V30 820 C 71.6549 -1.76437 -3.91367 0
M  V30 821 C 70.8879 -1.37997 -5.15551 0
M  V30 822 O 71.1109 -0.265357 -5.69782 0
M  V30 823 O 70.0449 -2.20201 -5.60174 0
M  V30 824 H 73.8709 -1.98086 -2.30208 0
M  V30 825 H 71.4559 -1.02332 -1.08851 0
M  V30 826 H 73.3379 -0.418761 -4.19314 0
M  V30 827 H 72.0129 0.282754 -3.22463 0
M  V30 828 H 70.9199 -2.03304 -3.14036 0
M  V30 829 H 72.2529 -2.6583 -4.14241 0
M  V30 830 N 73.905 1.17692 -1.04816 0
M  V30 831 C 74.837 2.21103 -0.603822 0
M  V30 832 C 75.85 1.59411 0.33046 0
M  V30 833 O 77.039 1.7807 0.12379 0
M  V30 834 C 74.139 3.38623 0.136898 0
M  V30 835 C 73.312 4.29888 -0.807137 0
M  V30 836 C 72.371 5.26088 -0.10836 0
M  V30 837 O 71.397 5.64353 -0.741232 0
M  V30 838 N 72.599 5.68882 1.15558 0
M  V30 839 H 75.364 2.59848 -1.49329 0
M  V30 840 H 72.925 1.32553 -0.929587 0
M  V30 841 H 74.917 4.00009 0.614401 0
M  V30 842 H 73.487 2.98508 0.927993 0
M  V30 843 H 72.707 3.65993 -1.46434 0
M  V30 844 H 73.995 4.87759 -1.44807 0
M  V30 845 H 73.393 5.39861 1.69015 0
M  V30 846 H 71.95 6.32429 1.57722 0
M  V30 847 N 75.3831 0.828654 1.34056 0
M  V30 848 C 76.2931 0.256725 2.33191 0
M  V30 849 C 77.3091 -0.611898 1.62886 0
M  V30 850 O 78.4851 -0.51844 1.94613 0
M  V30 851 C 75.5501 -0.567238 3.42028 0
M  V30 852 C 74.6111 0.324458 4.28072 0
M  V30 853 C 73.8441 -0.460274 5.31712 0
M  V30 854 O 74.0671 -1.693 5.44696 0
M  V30 855 O 73.0011 0.160391 6.01686 0
M  V30 856 H 76.8271 1.07739 2.83947 0
M  V30 857 H 74.4121 0.59093 1.37217 0
M  V30 858 H 76.2941 -1.03582 4.08471 0
M  V30 859 H 74.9691 -1.36513 2.93506 0
M  V30 860 H 73.8761 0.840659 3.64532 0
M  V30 861 H 75.2091 1.08685 4.8005 0
M  V30 862 N 76.8612 -1.46375 0.584142 0
M  V30 863 C 78.1072 -2.02678 0.0703716 0
M  V30 864 C 78.4402 -1.4545 -1.28678 0
M  V30 865 O 77.7152 -0.62014 -1.84349 0
M  V30 866 C 77.9982 -3.60099 0.00614674 0
M  V30 867 C 77.8512 -4.27709 1.3923 0
M  V30 868 C 79.1702 -4.34598 -0.693742 0
M  V30 869 H 76.2892 -0.736504 0.027047 0
M  V30 870 H 78.9312 -1.74501 0.751615 0
M  V30 871 H 77.0812 -3.84236 -0.574009 0
M  V30 872 H 78.7532 -4.14832 2.01773 0
M  V30 873 H 76.9962 -3.87016 1.95962 0
M  V30 874 H 77.6672 -5.36478 1.29982 0
M  V30 875 H 80.1432 -4.15615 -0.200869 0
M  V30 876 H 79.0192 -5.44318 -0.707714 0
M  V30 877 H 79.2802 -4.05759 -1.75533 0
M  V30 878 N 78.3393 -0.321999 -1.54275 0
M  V30 879 C 79.5853 0.281461 -2.00837 0
M  V30 880 C 79.9183 1.51909 -1.20985 0
M  V30 881 O 79.1933 1.923 -0.291733 0
M  V30 882 C 79.4763 0.617162 -3.54772 0
M  V30 883 C 79.3293 -0.631064 -4.45351 0
M  V30 884 C 80.6483 1.43542 -4.16033 0
M  V30 885 H 77.7673 0.100826 -0.730071 0
M  V30 886 H 80.4093 -0.438268 -1.84876 0
M  V30 887 H 78.5593 1.23034 -3.68504 0
M  V30 888 H 80.2313 -1.26934 -4.43492 0
M  V30 889 H 78.4743 -1.26025 -4.15091 0
M  V30 890 H 79.1453 -0.351735 -5.50878 0
M  V30 891 H 81.6213 0.917134 -4.05867 0
M  V30 892 H 80.4973 1.63907 -5.23856 0
M  V30 893 H 80.7583 2.43108 -3.69257 0
M  V30 894 N 79.8174 1.5752 -0.0501392 0
M  V30 895 C 81.0944 1.83996 0.663685 0
M  V30 896 C 81.4744 0.938339 1.89099 0
M  V30 897 O 80.8224 -0.00087759 2.285 0
M  V30 898 C 81.0324 3.33702 1.02196 0
M  V30 899 C 82.3804 4.00691 1.40469 0
M  V30 900 O 83.4044 3.38321 1.11433 0
M  V30 901 O 82.2634 5.10658 1.94654 0
M  V30 902 H 79.3574 0.759385 0.32751 0
M  V30 903 H 81.9034 1.69514 -0.0794238 0
M  V30 904 H 80.6754 3.91015 0.149364 0
M  V30 905 H 80.2984 3.53368 1.82255 0
M  V30 906 N 81.2955 -0.223234 1.56011 0
M  V30 907 C 82.2425 -1.27664 1.92277 0
M  V30 908 C 83.2125 -1.46659 0.779763 0
M  V30 909 O 84.3975 -1.60256 1.03551 0
M  V30 910 C 81.5375 -2.62234 2.24338 0
M  V30 911 C 80.6505 -2.51051 3.51564 0
M  V30 912 C 79.7855 -3.78133 3.7308 0
M  V30 913 C 78.8245 -3.61665 4.93827 0
M  V30 914 N 77.9615 -4.80693 5.11741 0
M  V30 915 H 82.8015 -0.960358 2.82101 0
M  V30 916 H 80.3385 -0.462901 1.39627 0
M  V30 917 H 82.2965 -3.40596 2.40936 0
M  V30 918 H 80.9265 -2.91961 1.3769 0
M  V30 919 H 79.9785 -1.64132 3.43169 0
M  V30 920 H 81.2905 -2.34803 4.40079 0
M  V30 921 H 80.4445 -4.64938 3.89766 0
M  V30 922 H 79.1835 -3.97304 2.82844 0
M  V30 923 H 78.1885 -2.73244 4.77093 0
M  V30 924 H 79.4135 -3.43966 5.85546 0
M  V30 925 H 77.3595 -5.00181 4.24446 0
M  V30 926 H 77.2765 -4.67165 5.94384 0
M  V30 927 H 78.5445 -5.6893 5.3286 0
M  V30 928 N 82.7736 -1.49793 -0.48987 0
M  V30 929 C 84.0196 -1.60078 -1.24511 0
M  V30 930 C 84.3526 -0.291608 -1.91998 0
M  V30 931 O 83.6276 0.705647 -1.81248 0
M  V30 932 C 83.9106 -2.76791 -2.30345 0
M  V30 933 C 83.7636 -4.17535 -1.67286 0
M  V30 934 C 85.0826 -2.89111 -3.31817 0
M  V30 935 H 82.2016 -0.582645 -0.451324 0
M  V30 936 H 84.8436 -1.82117 -0.541612 0
M  V30 937 H 82.9936 -2.5813 -2.90346 0
M  V30 938 H 84.6656 -4.4774 -1.11026 0
M  V30 939 H 82.9086 -4.22665 -0.976577 0
M  V30 940 H 83.5796 -4.95094 -2.44103 0
M  V30 941 H 86.0556 -3.06133 -2.81819 0
M  V30 942 H 84.9316 -3.72433 -4.03219 0
M  V30 943 H 85.1926 -1.9893 -3.94815 0
M  V30 944 N 84.2517 0.741722 -1.39055 0
M  V30 945 C 85.1847 1.86416 -1.31622 0
M  V30 946 C 86.1627 1.61473 -0.191076 0
M  V30 947 O 87.3467 1.84825 -0.370399 0
M  V30 948 C 84.4737 3.22266 -1.04221 0
M  V30 949 C 83.5197 3.66079 -2.18834 0
M  V30 950 S 84.3527 3.7623 -3.81066 0
M  V30 951 C 85.5087 5.14881 -3.55877 0
M  V30 952 H 85.7417 1.92437 -2.26617 0
M  V30 953 H 83.2747 0.905907 -1.25031 0
M  V30 954 H 85.2327 4.00714 -0.890964 0
M  V30 955 H 83.8937 3.1391 -0.109237 0
M  V30 956 H 83.0867 4.64648 -1.95238 0
M  V30 957 H 82.6887 2.94817 -2.30128 0
M  V30 958 H 84.9807 6.01006 -3.12726 0
M  V30 959 H 85.9237 5.43503 -4.53884 0
M  V30 960 H 86.3317 4.84239 -2.90126 0
M  V30 961 N 85.7298 1.2412 0.971189 0
M  V30 962 C 86.6398 1.04747 2.09917 0
M  V30 963 C 87.6558 -0.0107162 1.73997 0
M  V30 964 O 88.8318 0.186714 2.00533 0
M  V30 965 C 85.8968 0.650828 3.40537 0
M  V30 966 C 84.9578 1.7851 3.90426 0
M  V30 967 C 84.1908 1.40729 5.14812 0
M  V30 968 O 84.4138 0.29557 5.69634 0
M  V30 969 O 83.3478 2.23168 5.58999 0
M  V30 970 H 87.1738 1.99304 2.29154 0
M  V30 971 H 84.7588 1.02908 1.08307 0
M  V30 972 H 86.6408 0.440992 4.19086 0
M  V30 973 H 85.3158 -0.265649 3.22608 0
M  V30 974 H 84.2228 2.04966 3.12953 0
M  V30 975 H 85.5558 2.68023 4.12825 0
M  V30 976 N 87.2079 -1.17134 1.05439 0
M  V30 977 C 88.4359 -1.91372 0.786414 0
M  V30 978 C 88.8509 -1.76955 -0.658202 0
M  V30 979 O 88.2079 -1.10838 -1.44987 0
M  V30 980 C 88.2589 -3.42356 1.1608 0
M  V30 981 O 87.9799 -3.56332 2.54871 0
M  V30 982 C 89.4809 -4.33663 0.919322 0
M  V30 983 H 86.7009 -0.607118 0.285743 0
M  V30 984 H 89.2449 -1.48525 1.40572 0
M  V30 985 H 87.3999 -3.82939 0.586191 0
M  V30 986 H 87.8139 -4.49896 2.69618 0
M  V30 987 H 89.2879 -5.38099 1.231 0
M  V30 988 H 89.7649 -4.38959 -0.145359 0
M  V30 989 H 90.3709 -3.98796 1.47789 0
M  V30 990 N 88.686 -0.835752 -1.33615 0
M  V30 991 C 89.616 -0.281739 -2.31794 0
M  V30 992 C 90.597 0.608833 -1.58831 0
M  V30 993 O 91.782 0.533035 -1.86741 0
M  V30 994 C 88.912 0.546612 -3.42971 0
M  V30 995 C 87.866 -0.247904 -4.27281 0
M  V30 996 C 87.192 0.704001 -5.30045 0
M  V30 997 C 88.492 -1.46324 -5.01385 0
M  V30 998 H 90.186 -1.10206 -2.78379 0
M  V30 999 H 87.732 -0.531388 -1.33837 0
M  V30 1000 H 89.685 0.944467 -4.1068 0
M  V30 1001 H 88.409 1.40011 -2.95067 0
M  V30 1002 H 87.068 -0.627281 -3.61194 0
M  V30 1003 H 86.716 1.55381 -4.78399 0
M  V30 1004 H 86.416 0.176524 -5.87335 0
M  V30 1005 H 87.94 1.09944 -6.0062 0
M  V30 1006 H 89.354 -1.13871 -5.61877 0
M  V30 1007 H 87.751 -1.92728 -5.6831 0
M  V30 1008 H 88.821 -2.23467 -4.30338 0
M  V30 1009 N 90.1641 1.46063 -0.591896 0
M  V30 1010 C 91.4411 1.95595 -0.0137119 0
M  V30 1011 C 91.8211 1.5345 1.4497 0
M  V30 1012 O 91.1691 0.789543 2.14426 0
M  V30 1013 C 91.3791 3.48453 -0.195373 0
M  V30 1014 C 92.7271 4.24546 -0.0679765 0
M  V30 1015 O 93.7511 3.55982 -0.124681 0
M  V30 1016 O 92.6101 5.46467 0.0600579 0
M  V30 1017 H 89.7041 0.825795 0.0446279 0
M  V30 1018 H 92.2501 1.56303 -0.660859 0
M  V30 1019 H 91.0221 3.72045 -1.21235 0
M  V30 1020 H 90.6451 3.94597 0.487775 0
M  V30 1021 N 91.6422 0.330177 1.54103 0
M  V30 1022 C 92.5902 -0.548226 2.26047 0
M  V30 1023 C 93.5842 -1.11309 1.27698 0
M  V30 1024 O 94.7902 -1.06036 1.45452 0
M  V30 1025 H 91.1652 -0.195456 0.726155 0
M  V30 1026 H 93.1362 0.0807567 2.98291 0
M  V30 1027 C 91.8852 -1.69415 3.03634 0
M  V30 1028 H 91.2082 -1.26876 3.79134 0
M  V30 1029 H 92.6482 -2.28423 3.5721 0
M  V30 1030 C 91.1072 -2.61569 2.12328 0
M  V30 1031 O 91.6372 -3.63462 1.7105 0
M  V30 1032 N 89.8432 -2.29952 1.77681 0
M  V30 1033 H 89.3902 -1.47134 2.11446 0
M  V30 1034 H 89.3482 -2.91871 1.16869 0
M  V30 1035 N 93.1203 -1.57491 0.0584922 0
M  V30 1036 C 94.3973 -1.84346 -0.653918 0
M  V30 1037 C 94.7773 -0.948355 -1.88599 0
M  V30 1038 O 94.1253 -0.0112403 -2.28497 0
M  V30 1039 C 94.3353 -3.34239 -1.00425 0
M  V30 1040 C 95.6833 -4.01431 -1.38342 0
M  V30 1041 O 96.7073 -3.38907 -1.09637 0
M  V30 1042 O 95.5663 -5.11683 -1.91943 0
M  V30 1043 H 92.6603 -0.761112 -0.323478 0
M  V30 1044 H 95.2063 -1.6947 0.0884125 0
M  V30 1045 H 93.9783 -3.91089 -0.128625 0
M  V30 1046 H 93.6013 -3.54329 -1.80378 0
M  V30 1047 N 94.5984 0.214957 -1.56127 0
M  V30 1048 C 95.8464 0.936518 -1.79091 0
M  V30 1049 C 96.1674 1.84606 -0.628148 0
M  V30 1050 O 95.4374 1.92664 0.35462 0
M  V30 1051 H 94.0174 0.3488 -0.660566 0
M  V30 1052 H 96.6794 0.22523 -1.93594 0
M  V30 1053 H 95.7754 1.53943 -2.71492 0
M  V30 1054 N 96.0765 1.50051 0.48192 0
M  V30 1055 C 97.3535 1.51009 1.2432 0
M  V30 1056 C 97.7335 0.248587 2.09631 0
M  V30 1057 O 97.0815 -0.768409 2.15192 0
M  V30 1058 C 97.2915 2.79981 2.08355 0
M  V30 1059 C 98.6395 3.3022 2.66908 0
M  V30 1060 O 99.6635 2.81228 2.18607 0
M  V30 1061 O 98.5225 4.15595 3.54884 0
M  V30 1062 H 95.6165 0.605239 0.563573 0
M  V30 1063 H 98.1625 1.62332 0.494627 0
M  V30 1064 H 96.9345 3.63275 1.45419 0
M  V30 1065 H 96.5575 2.7161 2.90368 0
M  V30 1066 N 97.5546 -0.734337 1.39446 0
M  V30 1067 C 98.8026 -1.49096 1.36436 0
M  V30 1068 C 99.1236 -1.94961 -0.0388255 0
M  V30 1069 O 98.3936 -1.69033 -0.990191 0
M  V30 1070 H 96.9736 -0.5531 0.502085 0
M  V30 1071 H 99.6356 -0.871725 1.74319 0
M  V30 1072 H 98.7316 -2.37276 2.02747 0
M  V30 1073 N 99.0327 -1.24633 -0.964593 0
M  V30 1074 C 99.9427 -1.05859 -2.09359 0
M  V30 1075 C 100.959 0.00148855 -1.74 0
M  V30 1076 O 102.135 -0.197346 -2.00431 0
M  V30 1077 C 99.1997 -0.668879 -3.40187 0
M  V30 1078 C 98.2607 -1.80578 -3.89474 0
M  V30 1079 C 97.4937 -1.43457 -5.14058 0
M  V30 1080 O 97.7167 -0.325775 -5.69469 0
M  V30 1081 O 96.6507 -2.2613 -5.57807 0
M  V30 1082 H 100.477 -2.00516 -2.28094 0
M  V30 1083 H 98.0617 -1.03481 -1.0776 0
M  V30 1084 H 99.9437 -0.463211 -4.18846 0
M  V30 1085 H 98.6187 0.248536 -3.22744 0
M  V30 1086 H 97.5257 -2.06623 -3.11862 0
M  V30 1087 H 98.8587 -2.70208 -4.11398 0
M  V30 1088 N 100.511 1.16574 -1.06058 0
M  V30 1089 C 101.751 1.88723 -0.78504 0
M  V30 1090 C 102.115 1.79706 0.676006 0
M  V30 1091 O 103.316 2.46757 1.06603 0
M  V30 1092 C 101.587 3.34338 -1.26304 0
M  V30 1093 S 103.146 4.24366 -1.1162 0
M  V30 1094 H 99.9638 0.651448 -0.284846 0
M  V30 1095 H 102.566 1.40732 -1.35701 0
M  V30 1096 H 101.27 3.38439 -2.32136 0
M  V30 1097 H 100.801 3.87378 -0.685719 0
M  V30 1098 H 102.816 4.96179 -0.0456539 0
M  V30 1099 N 101.989 0.842826 1.3317 0
M  V30 1100 C 103.266 0.362216 1.92217 0
M  V30 1101 C 103.646 -1.15289 1.76838 0
M  V30 1102 O 102.994 -1.96914 1.15919 0
M  V30 1103 C 103.204 0.813495 3.39387 0
M  V30 1104 C 104.552 0.823804 4.16532 0
M  V30 1105 O 105.576 0.757358 3.48055 0
M  V30 1106 O 104.435 0.915193 5.38782 0
M  V30 1107 H 101.529 0.103317 0.820521 0
M  V30 1108 H 104.075 0.928942 1.42017 0
M  V30 1109 H 102.847 1.85624 3.4447 0
M  V30 1110 H 102.47 0.223561 3.96971 0
M  V30 1111 N 103.467 -1.45747 0.599634 0
M  V30 1112 C 104.714 -2.02292 0.0917284 0
M  V30 1113 C 105.042 -1.46906 -1.27472 0
M  V30 1114 O 104.297 -0.630652 -1.8526 0
M  V30 1115 C 104.596 -3.57399 -0.00602758 0
M  V30 1116 C 104.262 -4.31902 1.29503 0
M  V30 1117 C 102.924 -4.51974 1.65144 0
M  V30 1118 C 105.276 -4.74551 2.15525 0
M  V30 1119 C 102.604 -5.11949 2.86574 0
M  V30 1120 C 104.956 -5.35868 3.36196 0
M  V30 1121 C 103.62 -5.54165 3.72099 0
M  V30 1122 H 102.89 -0.740239 0.0335658 0
M  V30 1123 H 105.537 -1.7491 0.779661 0
M  V30 1124 H 103.842 -3.84014 -0.777183 0
M  V30 1125 H 105.539 -3.98846 -0.415038 0
M  V30 1126 H 102.129 -4.16588 1.00761 0
M  V30 1127 H 106.313 -4.58784 1.8929 0
M  V30 1128 H 101.569 -5.24305 3.14507 0
M  V30 1129 H 105.743 -5.6787 4.03109 0
M  V30 1130 H 103.37 -6.00406 4.6628 0
M  V30 1131 N 104.945 -0.338344 -1.53925 0
M  V30 1132 C 105.877 0.555117 -2.22376 0
M  V30 1133 C 106.89 1.06812 -1.22862 0
M  V30 1134 O 108.079 0.979163 -1.49247 0
M  V30 1135 C 105.179 1.77609 -2.88631 0
M  V30 1136 C 104.352 1.39927 -4.14414 0
M  V30 1137 C 103.411 2.47936 -4.64127 0
M  V30 1138 O 102.437 2.11461 -5.28463 0
M  V30 1139 N 103.639 3.79107 -4.39612 0
M  V30 1140 H 106.404 -0.0310778 -2.99684 0
M  V30 1141 H 103.965 -0.162226 -1.61085 0
M  V30 1142 H 105.957 2.49287 -3.18807 0
M  V30 1143 H 104.527 2.26978 -2.14941 0
M  V30 1144 H 103.747 0.513481 -3.90841 0
M  V30 1145 H 105.035 1.12341 -4.96243 0
M  V30 1146 H 104.433 4.11531 -3.88148 0
M  V30 1147 H 102.99 4.4697 -4.74406 0
M  V30 1148 N 106.423 1.57458 -0.0668435 0
M  V30 1149 C 107.333 2.15937 0.916975 0
M  V30 1150 C 108.349 1.12123 1.33058 0
M  V30 1151 O 109.525 1.44366 1.40429 0
M  V30 1152 C 106.59 2.70547 2.16807 0
M  V30 1153 C 105.651 3.89215 1.81135 0
M  V30 1154 C 104.884 4.41211 3.0028 0
M  V30 1155 O 105.107 3.92225 4.14144 0
M  V30 1156 O 104.041 5.32605 2.80384 0
M  V30 1157 H 107.867 3.00354 0.449561 0
M  V30 1158 H 105.452 1.48584 0.155949 0
M  V30 1159 H 107.334 3.0557 2.90181 0
M  V30 1160 H 106.009 1.89192 2.62656 0
M  V30 1161 H 104.916 3.59054 1.05028 0
M  V30 1162 H 106.249 4.71848 1.40073 0
M  V30 1163 N 107.901 -0.206675 1.56239 0
M  V30 1164 C 109.148 -0.928842 1.79941 0
M  V30 1165 C 109.476 -1.83734 0.638131 0
M  V30 1166 O 108.731 -1.92039 -0.376746 0
M  V30 1167 C 109.03 -1.78675 3.09532 0
M  V30 1168 C 108.696 -1.03022 4.38973 0
M  V30 1169 C 107.358 -0.821302 4.74139 0
M  V30 1170 C 109.71 -0.497081 5.18824 0
M  V30 1171 C 107.038 -0.0675719 5.86661 0
M  V30 1172 C 109.39 0.24338 6.32132 0
M  V30 1173 C 108.054 0.463422 6.65889 0
M  V30 1174 H 107.324 -0.339887 0.658451 0
M  V30 1175 H 109.971 -0.195977 1.90495 0
M  V30 1176 H 108.276 -2.58794 2.94165 0
M  V30 1177 H 109.973 -2.34792 3.25075 0
M  V30 1178 H 106.563 -1.20306 4.11369 0
M  V30 1179 H 110.747 -0.645921 4.92079 0
M  V30 1180 H 106.003 0.112995 6.11296 0
M  V30 1181 H 110.177 0.66393 6.93228 0
M  V30 1182 H 107.804 1.04938 7.52922 0
M  V30 1183 N 109.379 -1.50304 -0.473955 0
M  V30 1184 C 110.312 -1.63595 -1.59097 0
M  V30 1185 C 111.29 -0.484142 -1.55225 0
M  V30 1186 O 112.474 -0.703271 -1.7489 0
M  V30 1187 C 109.601 -1.61589 -2.97669 0
M  V30 1188 C 108.647 -2.82295 -3.19705 0
M  V30 1189 S 109.48 -4.43635 -2.99913 0
M  V30 1190 C 110.636 -4.44317 -4.40832 0
M  V30 1191 H 110.869 -2.58082 -1.47583 0
M  V30 1192 H 108.402 -1.39531 -0.661087 0
M  V30 1193 H 110.36 -1.61116 -3.7756 0
M  V30 1194 H 109.021 -0.683421 -3.06575 0
M  V30 1195 H 108.214 -2.77188 -4.20931 0
M  V30 1196 H 107.816 -2.8032 -2.47582 0
M  V30 1197 H 110.108 -4.17703 -5.33414 0
M  V30 1198 H 111.051 -5.45911 -4.50984 0
M  V30 1199 H 111.459 -3.74059 -4.22777 0
M  V30 1200 N 110.857 0.726932 -1.39834 0
M  V30 1201 C 111.82 1.82269 -1.38962 0
M  V30 1202 C 112.82 1.58248 -0.285334 0
M  V30 1203 O 114.01 1.65499 -0.54366 0
M  V30 1204 C 111.142 3.20186 -1.17019 0
M  V30 1205 H 112.335 1.84443 -2.36476 0
M  V30 1206 H 109.888 0.931416 -1.25516 0
M  V30 1207 H 110.623 3.23669 -0.202204 0
M  V30 1208 H 110.408 3.3902 -1.96998 0
M  V30 1209 H 111.898 4.00235 -1.1917 0
M  V30 1210 N 112.336 1.25143 0.95797 0
M  V30 1211 C 113.583 1.09692 1.70217 0
M  V30 1212 C 113.911 -0.362654 1.91089 0
M  V30 1213 O 113.166 -1.28386 1.47701 0
M  V30 1214 C 113.465 1.79272 3.09187 0
M  V30 1215 C 113.131 3.29196 3.08125 0
M  V30 1216 C 111.793 3.70096 3.07543 0
M  V30 1217 C 114.145 4.24995 3.0171 0
M  V30 1218 C 111.473 5.05213 2.9829 0
M  V30 1219 C 113.825 5.60132 2.93999 0
M  V30 1220 C 112.489 6.00365 2.9175 0
M  V30 1221 H 111.759 0.401393 0.622868 0
M  V30 1222 H 114.406 1.55372 1.11945 0
M  V30 1223 H 112.711 1.26014 3.70982 0
M  V30 1224 H 114.408 1.64773 3.65583 0
M  V30 1225 H 110.998 2.96651 3.09348 0
M  V30 1226 H 115.182 3.9439 3.01281 0
M  V30 1227 H 110.438 5.35569 2.94916 0
M  V30 1228 H 114.612 6.3406 2.87996 0
M  V30 1229 H 112.239 7.05023 2.84336 0
M  V30 1230 N 113.814 -1.1601 1.06675 0
M  V30 1231 C 115.06 -1.86909 0.786945 0
M  V30 1232 C 115.393 -1.81717 -0.685018 0
M  V30 1233 O 114.668 -1.23551 -1.50218 0
M  V30 1234 C 114.951 -3.36313 1.28707 0
M  V30 1235 C 114.804 -3.50175 2.82308 0
M  V30 1236 C 116.123 -4.3084 0.898071 0
M  V30 1237 H 113.242 -0.678677 0.287343 0
M  V30 1238 H 115.884 -1.36336 1.32334 0
M  V30 1239 H 114.034 -3.79513 0.830768 0
M  V30 1240 H 115.706 -3.15886 3.36175 0
M  V30 1241 H 113.949 -2.91959 3.20847 0
M  V30 1242 H 114.62 -4.55116 3.12368 0
M  V30 1243 H 117.096 -3.95561 1.29114 0
M  V30 1244 H 115.972 -5.33876 1.27543 0
M  V30 1245 H 116.233 -4.41662 -0.196651 0
M  V30 1246 N 115.292 -0.849877 -1.32721 0
M  V30 1247 C 116.255 -0.296122 -2.27279 0
M  V30 1248 C 117.255 0.541458 -1.5141 0
M  V30 1249 O 118.445 0.353658 -1.70572 0
M  V30 1250 C 115.577 0.581579 -3.35902 0
M  V30 1251 H 116.77 -1.13064 -2.77771 0
M  V30 1252 H 114.323 -0.62383 -1.43311 0
M  V30 1253 H 115.058 1.43809 -2.9067 0
M  V30 1254 H 114.843 -0.0178814 -3.92096 0
M  V30 1255 H 116.333 0.961951 -4.0637 0
M  V30 1256 N 116.77 1.45427 -0.607355 0
M  V30 1257 C 117.703 2.27635 0.160482 0
M  V30 1258 C 118.681 1.37122 0.873857 0
M  V30 1259 O 119.865 1.66551 0.882775 0
M  V30 1260 C 116.992 3.15486 1.23231 0
M  V30 1261 C 116.038 4.21939 0.622097 0
M  V30 1262 S 116.871 5.32459 -0.569852 0
M  V30 1263 C 118.027 6.23879 0.502577 0
M  V30 1264 H 118.26 2.9241 -0.536983 0
M  V30 1265 H 115.793 1.49265 -0.394868 0
M  V30 1266 H 117.751 3.66659 1.84585 0
M  V30 1267 H 116.412 2.49977 1.90185 0
M  V30 1268 H 115.605 4.8333 1.42856 0
M  V30 1269 H 115.207 3.73906 0.0837063 0
M  V30 1270 H 117.499 6.63261 1.38171 0
M  V30 1271 H 118.442 7.0806 -0.0751759 0
M  V30 1272 H 118.85 5.58545 0.8178 0
M  V30 1273 N 118.248 0.346503 1.53744 0
M  V30 1274 C 119.494 -0.249473 2.0126 0
M  V30 1275 C 119.827 -1.49965 1.23386 0
M  V30 1276 O 119.102 -1.91811 0.32229 0
M  V30 1277 C 119.385 -0.560643 3.55709 0
M  V30 1278 C 119.238 0.701836 4.44291 0
M  V30 1279 C 120.557 -1.36905 4.18264 0
M  V30 1280 H 117.676 -0.0891987 0.731582 0
M  V30 1281 H 120.318 0.467624 1.84156 0
M  V30 1282 H 118.468 -1.17156 3.70414 0
M  V30 1283 H 120.14 1.33974 4.41417 0
M  V30 1284 H 118.383 1.32612 4.13033 0
M  V30 1285 H 119.054 0.43933 5.50249 0
M  V30 1286 H 121.53 -0.852448 4.07275 0
M  V30 1287 H 120.406 -1.55553 5.26398 0
M  V30 1288 H 120.667 -2.37203 3.73078 0
M  V30 1289 N 119.726 -1.57421 0.075193 0
M  V30 1290 C 120.954 -1.97946 -0.602076 0
M  V30 1291 C 121.369 -0.953674 -1.62943 0
M  V30 1292 O 120.726 0.0592551 -1.82404 0
M  V30 1293 C 120.777 -3.38546 -1.26762 0
M  V30 1294 O 120.498 -4.37195 -0.281376 0
M  V30 1295 C 121.999 -3.93966 -2.03239 0
M  V30 1296 H 119.219 -0.650918 -0.162931 0
M  V30 1297 H 121.763 -2.03959 0.148601 0
M  V30 1298 H 119.918 -3.33609 -1.96936 0
M  V30 1299 H 120.332 -5.18975 -0.759267 0
M  V30 1300 H 121.806 -4.94555 -2.45193 0
M  V30 1301 H 122.283 -3.30693 -2.8903 0
M  V30 1302 H 122.889 -4.02315 -1.37924 0
M  V30 1303 N 121.204 0.198386 -1.56346 0
M  V30 1304 C 122.432 0.935572 -1.84539 0
M  V30 1305 C 122.847 1.76989 -0.657281 0
M  V30 1306 O 122.204 1.78626 0.374043 0
M  V30 1307 C 122.255 1.8344 -3.11499 0
M  V30 1308 O 121.976 1.03377 -4.25728 0
M  V30 1309 C 123.477 2.68355 -3.52846 0
M  V30 1310 H 120.697 0.273126 -0.612897 0
M  V30 1311 H 123.241 0.20663 -2.03453 0
M  V30 1312 H 121.396 2.51701 -2.94492 0
M  V30 1313 H 121.81 1.64599 -4.98003 0
M  V30 1314 H 123.284 3.27085 -4.44657 0
M  V30 1315 H 123.761 3.41901 -2.75681 0
M  V30 1316 H 124.367 2.05471 -3.72373 0
M  V30 1317 N 122.682 1.50554 0.465978 0
M  V30 1318 C 123.645 1.69233 1.54574 0
M  V30 1319 C 124.645 0.562901 1.50626 0
M  V30 1320 O 125.835 0.830016 1.53155 0
M  V30 1321 C 122.967 1.7223 2.94193 0
M  V30 1322 H 124.16 2.65571 1.39327 0
M  V30 1323 H 121.713 1.40111 0.692711 0
M  V30 1324 H 122.448 0.77603 3.14878 0
M  V30 1325 H 122.233 2.54285 2.98466 0
M  V30 1326 H 123.723 1.88618 3.72576 0
M  V30 1327 N 124.16 -0.719506 1.40217 0
M  V30 1328 C 125.4 -1.49181 1.39729 0
M  V30 1329 C 125.764 -1.92 -0.00250614 0
M  V30 1330 O 126.965 -2.68473 -0.132479 0
M  V30 1331 C 125.236 -2.68767 2.35582 0
M  V30 1332 S 126.795 -3.58224 2.53418 0
M  V30 1333 H 123.613 -0.510091 0.495307 0
M  V30 1334 H 126.215 -0.841724 1.76452 0
M  V30 1335 H 124.919 -2.35475 3.36124 0
M  V30 1336 H 124.45 -3.38691 2.0013 0
M  V30 1337 H 126.465 -4.63033 1.78367 0
M  V30 1338 N 125.638 -1.25649 -0.95132 0
M  V30 1339 C 126.588 -1.03004 -2.03406 0
M  V30 1340 C 127.572 0.034187 -1.60864 0
M  V30 1341 O 128.764 -0.181549 -1.76066 0
M  V30 1342 C 125.893 -0.654255 -3.37008 0
M  V30 1343 C 124.979 -1.75542 -3.86065 0
M  V30 1344 N 125.37 -2.99113 -4.07879 0
M  V30 1345 C 123.668 -1.63669 -4.14884 0
M  V30 1346 C 124.369 -3.70611 -4.48356 0
M  V30 1347 N 123.345 -2.98247 -4.54477 0
M  V30 1348 H 127.147 -1.96813 -2.1827 0
M  V30 1349 H 124.661 -1.16017 -1.13639 0
M  V30 1350 H 126.658 -0.473206 -4.14206 0
M  V30 1351 H 125.318 0.276468 -3.23521 0
M  V30 1352 H 126.329 -3.35124 -3.94857 0
M  V30 1353 H 123.006 -0.775161 -4.10241 0
M  V30 1354 H 124.396 -4.76695 -4.73509 0
M  V30 1355 N 127.117 1.15442 -1.07289 0
M  V30 1356 C 128.027 2.23786 -0.704057 0
M  V30 1357 C 129.043 1.7166 0.284413 0
M  V30 1358 O 130.219 2.00972 0.131205 0
M  V30 1359 C 127.284 3.46535 -0.106792 0
M  V30 1360 C 126.345 4.13654 -1.14842 0
M  V30 1361 C 125.578 5.30544 -0.57956 0
M  V30 1362 O 125.801 5.67187 0.604585 0
M  V30 1363 O 124.735 5.87154 -1.32414 0
M  V30 1364 H 128.561 2.57664 -1.60757 0
M  V30 1365 H 126.146 1.23152 -0.845803 0
M  V30 1366 H 128.028 4.20804 0.224048 0
M  V30 1367 H 126.703 3.14407 0.770049 0
M  V30 1368 H 125.61 3.4131 -1.5316 0
M  V30 1369 H 126.943 4.49861 -1.99714 0
M  V30 1370 N 128.595 0.856903 1.32268 0
M  V30 1371 C 129.842 0.461386 1.97174 0
M  V30 1372 C 130.17 -0.983491 1.67803 0
M  V30 1373 O 129.425 -1.70541 0.959903 0
M  V30 1374 C 129.724 0.649919 3.51441 0
M  V30 1375 C 129.39 2.0656 4.00804 0
M  V30 1376 C 128.052 2.45279 4.13995 0
M  V30 1377 C 130.404 2.98947 4.26943 0
M  V30 1378 C 127.732 3.75653 4.50668 0
M  V30 1379 C 130.084 4.28822 4.65075 0
M  V30 1380 C 128.748 4.67472 4.76472 0
M  V30 1381 H 128.018 0.168833 0.72151 0
M  V30 1382 H 130.665 1.08739 1.57633 0
M  V30 1383 H 128.97 -0.0593018 3.91755 0
M  V30 1384 H 130.667 0.32391 3.9969 0
M  V30 1385 H 127.257 1.75495 3.91024 0
M  V30 1386 H 131.441 2.70265 4.16258 0
M  V30 1387 H 126.697 4.05379 4.57688 0
M  V30 1388 H 130.871 5.0047 4.84255 0
M  V30 1389 H 128.498 5.68539 5.04646 0
M  V30 1390 N 130.073 -1.45103 0.615059 0
M  V30 1391 C 131.32 -2.02183 0.113179 0
M  V30 1392 C 131.648 -1.48249 -1.25906 0
M  V30 1393 O 130.903 -0.650265 -1.84581 0
M  V30 1394 C 131.202 -3.57386 0.0318797 0
M  V30 1395 C 130.868 -4.30505 1.34077 0
M  V30 1396 C 129.53 -4.50197 1.69929 0
M  V30 1397 C 131.882 -4.72238 2.20546 0
M  V30 1398 C 129.21 -5.08881 2.91988 0
M  V30 1399 C 131.562 -5.32272 3.41861 0
M  V30 1400 C 130.226 -5.50187 3.77956 0
M  V30 1401 H 129.496 -0.739842 0.0414151 0
M  V30 1402 H 132.143 -1.74073 0.798168 0
M  V30 1403 H 130.448 -3.84817 -0.736409 0
M  V30 1404 H 132.145 -3.99264 -0.372712 0
M  V30 1405 H 128.735 -4.15496 1.05173 0
M  V30 1406 H 132.919 -4.56751 1.94146 0
M  V30 1407 H 128.175 -5.20939 3.2005 0
M  V30 1408 H 132.349 -5.63563 4.09109 0
M  V30 1409 H 129.976 -5.95427 4.72622 0
M  V30 1410 N 131.551 -0.354651 -1.53558 0
M  V30 1411 C 132.461 0.50515 -2.29097 0
M  V30 1412 C 133.477 1.10223 -1.34636 0
M  V30 1413 O 134.653 1.11553 -1.67684 0
M  V30 1414 C 131.718 1.63479 -3.05738 0
M  V30 1415 C 130.779 1.06636 -4.15845 0
M  V30 1416 C 130.012 2.14217 -4.88822 0
M  V30 1417 O 130.235 3.35137 -4.61562 0
M  V30 1418 O 129.169 1.77887 -5.75013 0
M  V30 1419 H 132.995 -0.109237 -3.03503 0
M  V30 1420 H 130.58 -0.119357 -1.48922 0
M  V30 1421 H 132.462 2.2918 -3.5363 0
M  V30 1422 H 131.137 2.23478 -2.34178 0
M  V30 1423 H 130.044 0.373565 -3.7223 0
M  V30 1424 H 131.377 0.511081 -4.89539 0
M  V30 1425 N 133.029 1.57378 -0.0835403 0
M  V30 1426 C 133.979 2.09916 0.889905 0
M  V30 1427 C 134.963 1.01151 1.25129 0
M  V30 1428 O 136.155 1.27443 1.2283 0
M  V30 1429 C 133.284 2.67379 2.15322 0
M  V30 1430 C 132.37 3.83167 1.81779 0
M  V30 1431 N 132.761 4.91665 1.18739 0
M  V30 1432 C 131.059 3.92685 2.11459 0
M  V30 1433 C 131.76 5.72409 1.0355 0
M  V30 1434 N 130.736 5.21062 1.54906 0
M  V30 1435 H 134.538 2.91188 0.398378 0
M  V30 1436 H 132.052 1.61956 0.120013 0
M  V30 1437 H 134.049 3.0334 2.8599 0
M  V30 1438 H 132.709 1.87558 2.65051 0
M  V30 1439 H 133.72 5.10784 0.855604 0
M  V30 1440 H 130.397 3.23856 2.63483 0
M  V30 1441 H 131.787 6.69699 0.543425 0
M  V30 1442 N 134.507 -0.190092 1.56449 0
M  V30 1443 C 135.417 -1.25591 1.98152 0
M  V30 1444 C 136.433 -1.49519 0.889944 0
M  V30 1445 O 137.609 -1.62036 1.19609 0
M  V30 1446 C 134.674 -2.57916 2.3169 0
M  V30 1447 C 133.735 -2.42015 3.5458 0
M  V30 1448 C 132.968 -3.6803 3.8651 0
M  V30 1449 O 133.191 -4.72413 3.1966 0
M  V30 1450 O 132.125 -3.6326 4.79923 0
M  V30 1451 H 135.951 -0.931988 2.89046 0
M  V30 1452 H 133.536 -0.395488 1.4407 0
M  V30 1453 H 135.418 -3.36008 2.54316 0
M  V30 1454 H 134.093 -2.89925 1.43963 0
M  V30 1455 H 133 -1.62017 3.37196 0
M  V30 1456 H 134.333 -2.14937 4.4279 0
M  V30 1457 O 136.024 -1.57982 -0.335264 0
M  V30 1458 H 136.715 -1.6682 -0.984419 0
M  V30 END ATOM
M  V30 BEGIN BOND
M  V30 END BOND
M  V30 END CTAB
M  END
$$$$
