drugbank_target|Q72LA4 Thiosulfate reductase (DB08689)
 OpenBabel12092120523D

  0  0  0     0  0            999 V3000
M  V30 BEGIN CTAB
M  V30 COUNTS 12208 12393 0 0 0
M  V30 BEGIN ATOM
M  V30 1 H -0.908 1.98254 -0.117106 0
M  V30 2 N 0 1.576 0 0
M  V30 3 C 0.933 2.03868 1.02534 0
M  V30 4 C 1.911 0.928543 1.3348 0
M  V30 5 O 3.095 1.19667 1.45644 0
M  V30 6 C 0.222 2.43627 2.35294 0
M  V30 7 C -0.732 3.65373 2.2001 0
M  V30 8 S 0.101 5.13292 1.52614 0
M  V30 9 C 1.257 5.56322 2.86805 0
M  V30 10 H 1.49 2.90518 0.631377 0
M  V30 11 H -0.977 1.52953 0.210867 0
M  V30 12 H 0.981 2.67203 3.11629 0
M  V30 13 H -0.358 1.57376 2.7183 0
M  V30 14 H -1.165 3.90944 3.18086 0
M  V30 15 H -1.563 3.418 1.51819 0
M  V30 16 H 0.729 5.58782 3.83104 0
M  V30 17 H 1.672 6.56266 2.65933 0
M  V30 18 H 2.08 4.83886 2.90714 0
M  V30 19 N 1.4781 -0.272755 1.55222 0
M  V30 20 C 2.4101 -1.35946 1.8453 0
M  V30 21 C 3.4231 -1.45525 0.729818 0
M  V30 22 O 4.6121 -1.47337 1.00767 0
M  V30 23 C 1.7121 -2.74069 1.99347 0
M  V30 24 C 0.8851 -2.87079 3.30007 0
M  V30 25 C -0.0559 -4.05879 3.34886 0
M  V30 26 O -1.0299 -3.96626 4.08261 0
M  V30 27 N 0.1721 -5.17857 2.62307 0
M  V30 28 H 2.9371 -1.11149 2.78327 0
M  V30 29 H 0.4981 -0.462869 1.55142 0
M  V30 30 H 2.4901 -3.51838 1.99981 0
M  V30 31 H 1.0601 -2.91688 1.12415 0
M  V30 32 H 0.2801 -1.96193 3.41909 0
M  V30 33 H 1.5681 -2.92701 4.16177 0
M  V30 34 H 0.9661 -5.28261 2.02377 0
M  V30 35 H -0.4769 -5.93855 2.68663 0
M  V30 36 N 2.9562 -1.48159 -0.537278 0
M  V30 37 C 4.3722 -1.34118 -0.865129 0
M  V30 38 C 4.5722 -0.346678 -1.98495 0
M  V30 39 O 3.6282 0.234715 -2.51407 0
M  V30 40 C 4.9412 -2.73963 -1.23954 0
M  V30 41 C 6.4892 -2.82397 -1.34984 0
M  V30 42 C 6.9642 -4.22928 -1.75772 0
M  V30 43 N 8.4552 -4.25566 -1.82887 0
M  V30 44 C 9.1902 -5.31235 -2.15817 0
M  V30 45 N 8.6862 -6.47189 -2.47222 0
M  V30 46 N 10.4792 -5.18624 -2.16761 0
M  V30 47 H 2.6302 -2.1144 0.201715 0
M  V30 48 H 4.8932 -0.947598 0.0275949 0
M  V30 49 H 4.5992 -3.48264 -0.490381 0
M  V30 50 H 4.4732 -3.0702 -2.19132 0
M  V30 51 H 6.8602 -2.08356 -2.08978 0
M  V30 52 H 6.9412 -2.5297 -0.379448 0
M  V30 53 H 6.5852 -4.97482 -1.02341 0
M  V30 54 H 6.5152 -4.49794 -2.73848 0
M  V30 55 H 9.0062 -3.41924 -1.60924 0
M  V30 56 H 9.3192 -7.23564 -2.71433 0
M  V30 57 H 7.6642 -6.50476 -2.44757 0
M  V30 58 H 10.8552 -4.27056 -1.91679 0
M  V30 59 H 11.0282 -6.01078 -2.42093 0
M  V30 60 N 4.4343 0.785586 -1.36625 0
M  V30 61 C 5.8503 1.08419 -1.17122 0
M  V30 62 C 6.0503 2.015 0.00208491 0
M  V30 63 O 5.1063 2.43551 0.666278 0
M  V30 64 C 6.4193 1.69498 -2.48377 0
M  V30 65 C 7.9673 1.81821 -2.54775 0
M  V30 66 C 8.4423 2.46315 -3.86126 0
M  V30 67 N 9.9333 2.53779 -3.87492 0
M  V30 68 C 10.6683 3.045 -4.85868 0
M  V30 69 N 10.1643 3.55499 -5.94637 0
M  V30 70 N 11.9573 3.03247 -4.73284 0
M  V30 71 H 4.1083 0.167264 -2.1174 0
M  V30 72 H 6.3713 0.13682 -0.938075 0
M  V30 73 H 6.0773 1.08571 -3.34522 0
M  V30 74 H 5.9513 2.6896 -2.64462 0
M  V30 75 H 8.3383 2.41884 -1.69045 0
M  V30 76 H 8.4193 0.811532 -2.42586 0
M  V30 77 H 8.0633 1.86895 -4.72263 0
M  V30 78 H 7.9933 3.47561 -3.95612 0
M  V30 79 H 10.4843 2.17672 -3.08913 0
M  V30 80 H 10.7973 3.92562 -6.65669 0
M  V30 81 H 9.1423 3.5364 -5.98301 0
M  V30 82 H 12.3333 2.62696 -3.87438 0
M  V30 83 H 12.5063 3.42467 -5.50109 0
M  V30 84 N 5.9124 1.20967 1.01018 0
M  V30 85 C 6.8224 0.980157 2.13143 0
M  V30 86 C 7.8384 -0.0660665 1.73875 0
M  V30 87 O 9.0144 0.122821 2.01025 0
M  V30 88 C 6.0794 0.54216 3.42435 0
M  V30 89 C 5.1404 1.65999 3.95908 0
M  V30 90 C 4.3734 1.2428 5.19028 0
M  V30 91 O 4.5964 0.114196 5.70286 0
M  V30 92 O 3.5304 2.05271 5.65816 0
M  V30 93 H 7.3564 1.91913 2.35379 0
M  V30 94 H 4.9414 0.994099 1.11526 0
M  V30 95 H 6.8234 0.30744 4.20277 0
M  V30 96 H 5.4984 -0.36815 3.216 0
M  V30 97 H 4.4054 1.94906 3.19316 0
M  V30 98 H 5.7384 2.54753 4.21143 0
M  V30 99 N 7.3905 -1.2043 1.01659 0
M  V30 100 C 8.6375 -1.89797 0.705917 0
M  V30 101 C 8.9655 -1.78848 -0.764439 0
M  V30 102 O 8.2205 -1.16694 -1.57102 0
M  V30 103 C 8.5195 -3.40464 1.08714 0
M  V30 104 C 8.1855 -3.71614 2.5537 0
M  V30 105 C 6.8475 -3.79826 2.95441 0
M  V30 106 C 9.1995 -3.85915 3.50313 0
M  V30 107 C 6.5275 -3.99797 4.29394 0
M  V30 108 C 8.8795 -4.07396 4.83954 0
M  V30 109 C 7.5435 -4.13837 5.23732 0
M  V30 110 H 6.8135 -0.694518 0.258313 0
M  V30 111 H 9.4605 -1.42691 1.27717 0
M  V30 112 H 7.7655 -3.89385 0.434309 0
M  V30 113 H 9.4625 -3.92433 0.824461 0
M  V30 114 H 6.0525 -3.65822 2.23321 0
M  V30 115 H 10.2365 -3.78926 3.20513 0
M  V30 116 H 5.4925 -4.03018 4.59768 0
M  V30 117 H 9.6665 -4.17404 5.57447 0
M  V30 118 H 7.2935 -4.29064 6.27541 0
M  V30 119 N 8.8686 -0.792821 -1.36206 0
M  V30 120 C 9.7986 -0.207853 -2.32573 0
M  V30 121 C 10.7796 0.659055 -1.56813 0
M  V30 122 O 11.9646 0.592176 -1.84951 0
M  V30 123 C 9.0946 0.655449 -3.41059 0
M  V30 124 C 8.0486 -0.111842 -4.27854 0
M  V30 125 C 7.3746 0.872274 -5.27537 0
M  V30 126 C 8.6746 -1.30299 -5.05786 0
M  V30 127 H 10.3686 -1.01294 -2.81744 0
M  V30 128 H 7.9146 -0.48854 -1.3546 0
M  V30 129 H 9.8676 1.07464 -4.07467 0
M  V30 130 H 8.5916 1.49328 -2.90463 0
M  V30 131 H 7.2506 -0.512053 -3.63006 0
M  V30 132 H 6.8986 1.70523 -4.73214 0
M  V30 133 H 6.5986 0.363291 -5.86476 0
M  V30 134 H 8.1226 1.28996 -5.96818 0
M  V30 135 H 9.5366 -0.959379 -5.65216 0
M  V30 136 H 7.9336 -1.7455 -5.74154 0
M  V30 137 H 9.0036 -2.09663 -4.37229 0
M  V30 138 N 10.3467 1.47872 -0.545128 0
M  V30 139 C 11.2937 2.29849 0.2093 0
M  V30 140 C 12.2637 1.38313 0.919707 0
M  V30 141 O 13.4487 1.67277 0.917772 0
M  V30 142 C 10.5887 3.22019 1.24088 0
M  V30 143 C 9.7017 4.2864 0.537778 0
M  V30 144 C 8.8367 5.07973 1.5536 0
M  V30 145 C 7.8757 6.06381 0.8348 0
M  V30 146 N 7.0127 6.78717 1.79688 0
M  V30 147 H 11.8527 2.93845 -0.49591 0
M  V30 148 H 9.3897 1.44848 -0.256389 0
M  V30 149 H 11.3477 3.73868 1.85144 0
M  V30 150 H 9.9777 2.59914 1.91428 0
M  V30 151 H 9.0297 3.7994 -0.187046 0
M  V30 152 H 10.3417 4.98793 -0.0258907 0
M  V30 153 H 9.4957 5.63912 2.23803 0
M  V30 154 H 8.2347 4.37693 2.15118 0
M  V30 155 H 7.2397 5.49631 0.136388 0
M  V30 156 H 8.4647 6.78665 0.24313 0
M  V30 157 H 6.4107 6.11177 2.38326 0
M  V30 158 H 6.3277 7.44998 1.28505 0
M  V30 159 H 7.5957 7.39237 2.47282 0
M  V30 160 N 11.8248 0.280983 1.55075 0
M  V30 161 C 12.7548 -0.597469 2.25727 0
M  V30 162 C 13.7358 -1.15417 1.24952 0
M  V30 163 O 14.9208 -1.18722 1.53684 0
M  V30 164 C 12.0508 -1.7789 2.98283 0
M  V30 165 C 11.0048 -1.35347 4.06036 0
M  V30 166 C 10.3308 -2.61846 4.66198 0
M  V30 167 C 11.6308 -0.499354 5.19907 0
M  V30 168 H 13.3248 -0.00824265 2.99399 0
M  V30 169 H 10.8708 -0.0025244 1.44 0
M  V30 170 H 12.8238 -2.39937 3.46422 0
M  V30 171 H 11.5478 -2.39405 2.22155 0
M  V30 172 H 10.2068 -0.756156 3.58717 0
M  V30 173 H 9.8548 -3.21632 3.86732 0
M  V30 174 H 9.5548 -2.3409 5.38958 0
M  V30 175 H 11.0788 -3.24732 5.1709 0
M  V30 176 H 12.4928 -1.02498 5.64063 0
M  V30 177 H 10.8898 -0.316424 5.99265 0
M  V30 178 H 11.9598 0.480459 4.82514 0
M  V30 179 N 13.3029 -1.57598 0.00835791 0
M  V30 180 C 14.5279 -1.95617 -0.689103 0
M  V30 181 C 14.9529 -0.883753 -1.66046 0
M  V30 182 O 14.3109 0.157352 -1.80616 0
M  V30 183 C 14.3589 -3.32736 -1.38994 0
M  V30 184 O 13.4629 -3.27631 -2.50463 0
M  V30 185 H 12.8039 -0.638379 -0.182668 0
M  V30 186 H 15.3339 -2.045 0.064036 0
M  V30 187 H 15.3439 -3.68494 -1.75147 0
M  V30 188 H 14.0189 -4.1034 -0.677778 0
M  V30 189 H 12.5959 -3.03561 -2.16576 0
M  V30 190 N 14.781 0.264519 -1.55364 0
M  V30 191 C 15.744 1.31046 -1.88042 0
M  V30 192 C 16.744 1.41943 -0.755569 0
M  V30 193 O 17.934 1.40947 -1.02369 0
M  V30 194 C 15.066 2.69067 -2.09323 0
M  V30 195 H 16.259 1.03297 -2.81549 0
M  V30 196 H 13.812 0.502989 -1.47986 0
M  V30 197 H 14.547 3.01982 -1.18226 0
M  V30 198 H 14.332 2.62542 -2.91229 0
M  V30 199 H 15.822 3.44623 -2.35848 0
M  V30 200 N 16.2591 1.48442 0.529413 0
M  V30 201 C 17.1891 1.65902 1.64313 0
M  V30 202 C 18.1701 0.507897 1.6234 0
M  V30 203 O 19.3551 0.740503 1.79528 0
M  V30 204 C 16.4851 1.69911 3.02898 0
M  V30 205 C 15.4391 2.8453 3.19729 0
M  V30 206 C 14.7651 2.73629 4.59381 0
M  V30 207 C 16.0651 4.25821 3.02447 0
M  V30 208 H 17.7591 2.5914 1.49955 0
M  V30 209 H 15.3051 1.24709 0.719982 0
M  V30 210 H 17.2581 1.80715 3.80684 0
M  V30 211 H 15.9821 0.732524 3.18279 0
M  V30 212 H 14.6411 2.73283 2.44361 0
M  V30 213 H 14.2891 1.74938 4.71599 0
M  V30 214 H 13.9891 3.50541 4.71588 0
M  V30 215 H 15.5131 2.86401 5.39265 0
M  V30 216 H 16.9271 4.37898 3.70024 0
M  V30 217 H 15.3241 5.03735 3.26146 0
M  V30 218 H 16.3941 4.42244 1.98867 0
M  V30 219 N 17.7372 -0.778329 1.37039 0
M  V30 220 C 18.9852 -1.53361 1.31623 0
M  V30 221 C 19.3062 -1.94739 -0.100831 0
M  V30 222 O 18.5762 -1.65797 -1.04347 0
M  V30 223 H 17.1562 -0.568794 0.484234 0
M  V30 224 H 19.8182 -0.926742 1.71457 0
M  V30 225 H 18.9142 -2.43606 1.95096 0
M  V30 226 N 19.2153 -1.21501 -1.00376 0
M  V30 227 C 20.4613 -1.03452 -1.74429 0
M  V30 228 C 20.7943 0.430764 -1.89362 0
M  V30 229 O 20.0693 1.31962 -1.42886 0
M  V30 230 C 20.3523 -1.73375 -3.15615 0
M  V30 231 C 20.2053 -3.27431 -3.08397 0
M  V30 232 C 21.5243 -1.47732 -4.14564 0
M  V30 233 H 18.6433 -0.377226 -0.633143 0
M  V30 234 H 21.2853 -1.49693 -1.17013 0
M  V30 235 H 19.4353 -1.34064 -3.64636 0
M  V30 236 H 21.1073 -3.76119 -2.67081 0
M  V30 237 H 19.3503 -3.5767 -2.45468 0
M  V30 238 H 20.0213 -3.71524 -4.08258 0
M  V30 239 H 22.4973 -1.8186 -3.74254 0
M  V30 240 H 21.3733 -1.99169 -5.11491 0
M  V30 241 H 21.6343 -0.407589 -4.40217 0
M  V30 242 N 20.6934 1.19889 -1.02296 0
M  V30 243 C 21.9414 1.89046 -0.714558 0
M  V30 244 C 22.2624 1.79636 0.758681 0
M  V30 245 O 21.5324 1.20292 1.54618 0
M  V30 246 H 20.1124 0.699802 -0.261317 0
M  V30 247 H 22.7744 1.45574 -1.29592 0
M  V30 248 H 21.8704 2.95524 -1.0036 0
M  V30 249 N 22.1715 0.800033 1.35784 0
M  V30 250 C 23.1345 0.211565 2.28221 0
M  V30 251 C 24.1345 -0.59728 1.49296 0
M  V30 252 O 25.3245 -0.416721 1.69142 0
M  V30 253 C 22.4565 -0.705846 3.33513 0
M  V30 254 H 23.6495 1.02677 2.81776 0
M  V30 255 H 21.2025 0.570211 1.45528 0
M  V30 256 H 21.9375 -1.54498 2.85133 0
M  V30 257 H 21.7225 -0.127655 3.91892 0
M  V30 258 H 23.2125 -1.11211 4.02519 0
M  V30 259 N 23.6496 -1.47581 0.552962 0
M  V30 260 C 24.5826 -2.26883 -0.244857 0
M  V30 261 C 25.5606 -1.33784 -0.924147 0
M  V30 262 O 26.7446 -1.6316 -0.943981 0
M  V30 263 C 23.8716 -3.10695 -1.34856 0
M  V30 264 C 22.9176 -4.19339 -0.778268 0
M  V30 265 S 23.7506 -5.34207 0.37184 0
M  V30 266 C 24.9066 -6.21584 -0.733779 0
M  V30 267 H 25.1396 -2.94202 0.428087 0
M  V30 268 H 22.6726 -1.50628 0.339197 0
M  V30 269 H 24.6306 -3.59555 -1.98066 0
M  V30 270 H 23.2916 -2.42746 -1.99332 0
M  V30 271 H 22.4846 -4.77695 -1.60696 0
M  V30 272 H 22.0866 -3.73338 -0.222422 0
M  V30 273 H 24.3786 -6.57676 -1.62692 0
M  V30 274 H 25.3216 -7.07851 -0.187668 0
M  V30 275 H 25.7296 -5.55125 -1.02454 0
M  V30 276 N 25.1277 -0.289203 -1.54924 0
M  V30 277 C 26.0907 0.579144 -2.21762 0
M  V30 278 C 27.0907 1.07047 -1.1999 0
M  V30 279 O 28.2807 0.968384 -1.44803 0
M  V30 280 C 25.4127 1.80055 -2.8947 0
M  V30 281 H 26.6057 -0.00464908 -2.999 0
M  V30 282 H 24.1587 -0.0399306 -1.56249 0
M  V30 283 H 24.8937 2.42449 -2.15381 0
M  V30 284 H 24.6787 1.45602 -3.64064 0
M  V30 285 H 26.1687 2.41773 -3.40493 0
M  V30 286 N 26.6058 1.57591 -0.0167156 0
M  V30 287 C 27.5358 2.12496 0.967858 0
M  V30 288 C 28.5168 1.03807 1.34752 0
M  V30 289 O 29.7018 1.31577 1.42833 0
M  V30 290 C 26.8318 2.64194 2.25431 0
M  V30 291 C 25.7858 3.77559 2.01576 0
M  V30 292 C 25.1118 4.15636 3.36379 0
M  V30 293 C 26.4118 5.04151 1.36489 0
M  V30 294 H 28.1058 2.95013 0.510643 0
M  V30 295 H 25.6518 1.41915 0.244181 0
M  V30 296 H 27.6048 3.01236 2.94678 0
M  V30 297 H 26.3288 1.78821 2.73296 0
M  V30 298 H 24.9878 3.40937 1.34751 0
M  V30 299 H 24.6358 3.27263 3.81979 0
M  V30 300 H 24.3358 4.92022 3.21229 0
M  V30 301 H 25.8598 4.5525 4.06915 0
M  V30 302 H 27.2738 5.38857 1.95718 0
M  V30 303 H 25.6708 5.85453 1.31776 0
M  V30 304 H 26.7408 4.83733 0.336219 0
M  V30 305 N 28.0839 -0.256276 1.55502 0
M  V30 306 C 29.4999 -0.604325 1.47716 0
M  V30 307 C 29.6999 -1.88763 0.705039 0
M  V30 308 O 28.7559 -2.51445 0.230613 0
M  V30 309 C 30.0689 -0.715756 2.92057 0
M  V30 310 C 31.6169 -0.808706 3.02372 0
M  V30 311 C 32.0919 -0.951777 4.48001 0
M  V30 312 N 33.5829 -1.01688 4.519 0
M  V30 313 C 34.3179 -1.14668 5.61817 0
M  V30 314 N 33.8139 -1.24261 6.81565 0
M  V30 315 N 35.6069 -1.1791 5.49594 0
M  V30 316 H 27.7579 0.586291 2.04148 0
M  V30 317 H 30.0209 0.201015 0.926443 0
M  V30 318 H 29.7269 0.157027 3.51349 0
M  V30 319 H 29.6009 -1.59071 3.42018 0
M  V30 320 H 31.9879 -1.67195 2.43166 0
M  V30 321 H 32.0689 0.0912063 2.55637 0
M  V30 322 H 31.7129 -0.0931291 5.07815 0
M  V30 323 H 31.6429 -1.86659 4.92408 0
M  V30 324 H 34.1339 -0.954468 3.65648 0
M  V30 325 H 34.4469 -1.34046 7.61086 0
M  V30 326 H 32.7919 -1.21236 6.84344 0
M  V30 327 H 35.9829 -1.10057 4.54978 0
M  V30 328 H 36.1559 -1.27681 6.35296 0
M  V30 329 N 29.562 -1.4872 -0.521534 0
M  V30 330 C 30.81 -1.56857 -1.27437 0
M  V30 331 C 31.131 -0.247982 -1.93417 0
M  V30 332 O 30.401 0.731151 -1.81744 0
M  V30 333 H 28.981 -0.577885 -0.473347 0
M  V30 334 H 31.643 -1.85233 -0.606205 0
M  V30 335 H 30.739 -2.35402 -2.0492 0
M  V30 336 N 31.0401 0.771051 -1.3745 0
M  V30 337 C 32.2651 1.56529 -1.36065 0
M  V30 338 C 32.6901 1.88029 0.0515859 0
M  V30 339 O 32.0481 1.49282 1.02882 0
M  V30 340 C 32.0961 2.85187 -2.20683 0
M  V30 341 O 31.2001 3.79593 -1.61193 0
M  V30 342 H 30.5411 0.47411 -0.464883 0
M  V30 343 H 33.0711 0.954269 -1.80983 0
M  V30 344 H 33.0811 3.34283 -2.33921 0
M  V30 345 H 31.7561 2.61588 -3.23334 0
M  V30 346 H 30.3331 3.38239 -1.56999 0
M  V30 347 N 32.5182 1.22032 0.997298 0
M  V30 348 C 33.7662 1.04016 1.73278 0
M  V30 349 C 34.0872 -0.426255 1.90284 0
M  V30 350 O 33.3572 -1.30694 1.45931 0
M  V30 351 H 31.9372 0.381897 0.642 0
M  V30 352 H 34.5992 1.5347 1.20137 0
M  V30 353 H 33.6952 1.51441 2.72896 0
M  V30 354 N 33.9963 -1.19345 1.0293 0
M  V30 355 C 35.4073 -1.70725 0.755633 0
M  V30 356 C 35.7583 -1.82326 -0.724676 0
M  V30 357 O 34.8833 -1.49471 -1.56484 0
M  V30 358 C 35.4783 -3.10084 1.36503 0
M  V30 359 C 34.0373 -3.58723 1.13994 0
M  V30 360 C 33.1843 -2.35577 1.46283 0
M  V30 361 H 36.1353 -1.0418 1.19718 0
M  V30 362 H 36.1563 -3.72787 0.762217 0
M  V30 363 H 35.6683 -3.01609 2.44241 0
M  V30 364 H 33.7693 -3.72512 0.0807901 0
M  V30 365 H 33.8823 -4.42816 1.82894 0
M  V30 366 H 32.2463 -2.38935 0.88217 0
M  V30 367 H 33.0293 -2.29731 2.55105 0
M  V30 368 N 35.4744 -0.807222 -1.35358 0
M  V30 369 C 36.4374 -0.223665 -2.28106 0
M  V30 370 C 37.4374 0.589354 -1.4961 0
M  V30 371 O 38.6274 0.407745 -1.69361 0
M  V30 372 C 35.7594 0.688149 -3.33882 0
M  V30 373 H 36.9524 -1.04169 -2.81227 0
M  V30 374 H 34.5054 -0.577921 -1.45223 0
M  V30 375 H 35.2404 1.52984 -2.85948 0
M  V30 376 H 35.0254 0.10687 -3.91954 0
M  V30 377 H 36.5154 1.09075 -4.03104 0
M  V30 378 N 36.9525 1.47285 -0.560781 0
M  V30 379 C 37.8995 2.30058 0.18491 0
M  V30 380 C 38.8695 1.39281 0.904986 0
M  V30 381 O 40.0545 1.68241 0.899979 0
M  V30 382 C 37.1945 3.23317 1.20666 0
M  V30 383 C 36.3075 4.29186 0.492285 0
M  V30 384 C 35.4425 5.09592 1.49964 0
M  V30 385 C 34.4815 6.07232 0.770439 0
M  V30 386 N 33.6185 6.80584 1.72479 0
M  V30 387 H 38.4585 2.93302 -0.527048 0
M  V30 388 H 35.9955 1.44568 -0.271738 0
M  V30 389 H 37.9535 3.75811 1.81168 0
M  V30 390 H 36.5835 2.61929 1.88661 0
M  V30 391 H 35.6355 3.7972 -0.227333 0
M  V30 392 H 36.9475 4.98738 -0.0787929 0
M  V30 393 H 36.1015 5.66254 2.17809 0
M  V30 394 H 34.8405 4.3995 2.10464 0
M  V30 395 H 33.8455 5.49745 0.0780846 0
M  V30 396 H 35.0705 6.78884 0.171134 0
M  V30 397 H 33.0165 6.1367 2.3183 0
M  V30 398 H 32.9335 7.46319 1.20596 0
M  V30 399 H 34.2015 7.41818 2.39428 0
M  V30 400 N 38.4306 0.297415 1.54768 0
M  V30 401 C 39.3936 -0.567375 2.22066 0
M  V30 402 C 40.3936 -1.06409 1.20556 0
M  V30 403 O 41.5836 -0.960691 1.45315 0
M  V30 404 C 38.7156 -1.78517 2.90421 0
M  V30 405 H 39.9086 0.0205534 2.99893 0
M  V30 406 H 37.4616 0.0482163 1.56226 0
M  V30 407 H 38.1966 -2.41303 2.16664 0
M  V30 408 H 37.9816 -1.43669 3.64831 0
M  V30 409 H 39.4716 -2.39964 3.41771 0
M  V30 410 N 39.9087 -1.5758 0.0250728 0
M  V30 411 C 40.8387 -2.13007 -0.956575 0
M  V30 412 C 41.8197 -1.0452 -1.342 0
M  V30 413 O 43.0047 -1.32332 -1.42133 0
M  V30 414 C 40.1347 -2.65386 -2.24026 0
M  V30 415 C 39.0887 -3.78623 -1.99571 0
M  V30 416 C 38.4147 -4.17414 -3.3417 0
M  V30 417 C 39.7147 -5.04867 -1.33814 0
M  V30 418 H 41.4087 -2.9528 -0.494991 0
M  V30 419 H 38.9547 -1.42042 -0.236651 0
M  V30 420 H 40.9077 -3.02794 -2.93076 0
M  V30 421 H 39.6317 -1.80268 -2.72343 0
M  V30 422 H 38.2907 -3.41646 -1.32941 0
M  V30 423 H 37.9387 -3.29284 -3.80238 0
M  V30 424 H 37.6387 -4.93719 -3.18615 0
M  V30 425 H 39.1627 -4.57402 -4.04495 0
M  V30 426 H 40.5767 -5.39888 -1.92857 0
M  V30 427 H 38.9737 -5.86144 -1.28669 0
M  V30 428 H 40.0437 -4.83904 -0.310561 0
M  V30 429 N 41.3868 0.248026 -1.55636 0
M  V30 430 C 42.3338 1.30707 -1.90222 0
M  V30 431 C 43.3038 1.47881 -0.756332 0
M  V30 432 O 44.4888 1.61883 -1.00988 0
M  V30 433 C 41.6288 2.65769 -2.20138 0
M  V30 434 C 40.7418 2.56612 -3.47526 0
M  V30 435 C 39.8768 3.8402 -3.67017 0
M  V30 436 C 38.9158 3.69476 -4.8801 0
M  V30 437 N 38.0528 4.88774 -5.04029 0
M  V30 438 H 42.8928 1.00512 -2.80538 0
M  V30 439 H 40.4298 0.485055 -1.38873 0
M  V30 440 H 42.3878 3.44386 -2.35487 0
M  V30 441 H 41.0178 2.94115 -1.33027 0
M  V30 442 H 40.0698 1.69571 -3.40514 0
M  V30 443 H 41.3818 2.41774 -4.36287 0
M  V30 444 H 40.5358 4.7108 -3.8232 0
M  V30 445 H 39.2748 4.01754 -2.76487 0
M  V30 446 H 38.2798 2.80799 -4.72686 0
M  V30 447 H 39.5048 3.53238 -5.8 0
M  V30 448 H 37.4508 5.0687 -4.16435 0
M  V30 449 H 37.3678 4.76562 -5.86877 0
M  V30 450 H 38.6358 5.77335 -5.23741 0
M  V30 451 N 42.8649 1.48995 0.513639 0
M  V30 452 C 43.8279 1.64229 1.59879 0
M  V30 453 C 44.8279 0.514696 1.5234 0
M  V30 454 O 46.0179 0.78087 1.55718 0
M  V30 455 C 43.1499 1.62783 2.99524 0
M  V30 456 H 44.3429 2.61004 1.47705 0
M  V30 457 H 41.8959 1.37837 0.736936 0
M  V30 458 H 42.6309 0.675461 3.17188 0
M  V30 459 H 42.4159 2.4466 3.06404 0
M  V30 460 H 43.9059 1.76669 3.78388 0
M  V30 461 N 44.343 -0.763751 1.37857 0
M  V30 462 C 45.754 -1.3405 1.29952 0
M  V30 463 C 46.105 -1.96138 -0.0492898 0
M  V30 464 O 45.23 -1.94372 -0.951239 0
M  V30 465 C 45.825 -2.43729 2.35333 0
M  V30 466 C 44.384 -2.97151 2.31037 0
M  V30 467 C 43.531 -1.70438 2.18738 0
M  V30 468 H 46.482 -0.563396 1.48363 0
M  V30 469 H 46.503 -3.23412 2.00462 0
M  V30 470 H 46.015 -1.9851 3.33489 0
M  V30 471 H 44.116 -3.46724 1.3643 0
M  V30 472 H 44.229 -3.52221 3.24772 0
M  V30 473 H 42.593 -1.93673 1.65418 0
M  V30 474 H 43.376 -1.27312 3.18821 0
M  V30 475 N 45.8211 -1.22559 -0.990812 0
M  V30 476 C 47.0671 -1.06303 -1.73411 0
M  V30 477 C 47.4221 0.397442 -1.8825 0
M  V30 478 O 46.7151 1.29062 -1.41611 0
M  V30 479 C 46.9091 -1.71011 -3.13831 0
M  V30 480 C 46.7381 -3.232 -3.12685 0
M  V30 481 C 45.5081 -3.92314 -3.18461 0
M  V30 482 C 47.7061 -4.20107 -2.96673 0
M  V30 483 N 45.6881 -5.31571 -3.07091 0
M  V30 484 C 47.0591 -5.46208 -2.93354 0
M  V30 485 C 49.1141 -4.10973 -2.8108 0
M  V30 486 C 47.8171 -6.64225 -2.76039 0
M  V30 487 C 49.8431 -5.28642 -2.65126 0
M  V30 488 C 49.2051 -6.53663 -2.62496 0
M  V30 489 H 45.3041 -0.443441 -0.644115 0
M  V30 490 H 47.8881 -1.55131 -1.17654 0
M  V30 491 H 46.0591 -1.2473 -3.67827 0
M  V30 492 H 47.7911 -1.47828 -3.76735 0
M  V30 493 H 44.5461 -3.43326 -3.26227 0
M  V30 494 H 44.9701 -6.0455 -3.0471 0
M  V30 495 H 49.6121 -3.15098 -2.8191 0
M  V30 496 H 47.3301 -7.60246 -2.73954 0
M  V30 497 H 50.9161 -5.23407 -2.54039 0
M  V30 498 H 49.7961 -7.43182 -2.50302 0
M  V30 499 N 47.2992 1.18797 -1.03562 0
M  V30 500 C 48.5292 1.92319 -0.754773 0
M  V30 501 C 48.9372 1.7612 0.691248 0
M  V30 502 O 48.2802 1.08491 1.48241 0
M  V30 503 C 48.3422 3.44284 -1.03484 0
M  V30 504 C 48.0062 3.84258 -2.47376 0
M  V30 505 C 49.0032 3.88459 -3.45537 0
M  V30 506 C 46.6882 4.15701 -2.81954 0
M  V30 507 C 48.6822 4.23545 -4.76328 0
M  V30 508 C 46.3692 4.50458 -4.12954 0
M  V30 509 C 47.3672 4.54356 -5.09951 0
M  V30 510 O 47.0552 4.88305 -6.38603 0
M  V30 511 H 46.7872 0.617527 -0.275021 0
M  V30 512 H 49.3412 1.51683 -1.38497 0
M  V30 513 H 47.5712 3.85135 -0.347513 0
M  V30 514 H 49.2602 3.99049 -0.7426 0
M  V30 515 H 50.0262 3.6431 -3.20162 0
M  V30 516 H 45.9052 4.11847 -2.0713 0
M  V30 517 H 49.4492 4.26502 -5.52035 0
M  V30 518 H 45.3462 4.74067 -4.38099 0
M  V30 519 H 46.1142 5.06227 -6.43177 0
M  V30 520 N 48.7773 0.814389 1.34928 0
M  V30 521 C 49.7403 0.235759 2.27984 0
M  V30 522 C 50.7403 -0.581412 1.49921 0
M  V30 523 O 51.9303 -0.398758 1.69575 0
M  V30 524 C 49.0623 -0.670433 3.34242 0
M  V30 525 H 50.2553 1.05659 2.80671 0
M  V30 526 H 47.8083 0.585614 1.44915 0
M  V30 527 H 48.5433 -1.51466 2.86755 0
M  V30 528 H 48.3283 -0.0860822 3.92005 0
M  V30 529 H 49.8183 -1.06935 4.03676 0
M  V30 530 N 50.2554 -1.46986 0.568584 0
M  V30 531 C 51.1874 -2.28233 -0.210337 0
M  V30 532 C 52.2004 -1.37682 -0.868767 0
M  V30 533 O 53.3894 -1.62406 -0.740705 0
M  V30 534 C 50.4894 -3.12293 -1.3163 0
M  V30 535 C 49.6624 -4.30878 -0.7525 0
M  V30 536 C 48.7214 -4.96445 -1.74439 0
M  V30 537 O 47.7474 -5.54482 -1.286 0
M  V30 538 N 48.9494 -4.92171 -3.07812 0
M  V30 539 H 51.7144 -2.95723 0.486648 0
M  V30 540 H 49.2754 -1.56742 0.405409 0
M  V30 541 H 51.2674 -3.53022 -1.97883 0
M  V30 542 H 49.8374 -2.46971 -1.91636 0
M  V30 543 H 49.0574 -3.94104 0.0871128 0
M  V30 544 H 50.3454 -5.07558 -0.35536 0
M  V30 545 H 49.7434 -4.46239 -3.47688 0
M  V30 546 H 48.3004 -5.36884 -3.69592 0
M  V30 547 N 51.7335 -0.305618 -1.54608 0
M  V30 548 C 52.6435 0.57778 -2.27374 0
M  V30 549 C 53.6595 1.14451 -1.31061 0
M  V30 550 O 54.8355 1.16831 -1.6405 0
M  V30 551 C 51.9005 1.73123 -3.00382 0
M  V30 552 C 50.9615 1.19812 -4.12242 0
M  V30 553 C 50.1945 2.2966 -4.81759 0
M  V30 554 O 50.4175 3.49651 -4.50666 0
M  V30 555 O 49.3515 1.96091 -5.69062 0
M  V30 556 H 53.1775 -0.012624 -3.03697 0
M  V30 557 H 50.7625 -0.0719184 -1.49227 0
M  V30 558 H 52.6445 2.40315 -3.4616 0
M  V30 559 H 51.3195 2.30815 -2.26949 0
M  V30 560 H 50.2265 0.491798 -3.70853 0
M  V30 561 H 51.5595 0.666566 -4.87666 0
M  V30 562 N 53.2116 1.57565 -0.0334293 0
M  V30 563 C 54.4576 1.92262 0.645226 0
M  V30 564 C 54.7906 0.910543 1.71531 0
M  V30 565 O 54.0656 -0.066099 1.94388 0
M  V30 566 C 54.3486 3.37422 1.2577 0
M  V30 567 C 54.2016 4.49369 0.196891 0
M  V30 568 C 55.5206 3.82628 2.17449 0
M  V30 569 H 52.6396 0.699171 0.233085 0
M  V30 570 H 55.2816 1.89779 -0.0915694 0
M  V30 571 H 53.4316 3.39669 1.88566 0
M  V30 572 H 55.1036 4.59254 -0.433962 0
M  V30 573 H 53.3466 4.31168 -0.477137 0
M  V30 574 H 54.0176 5.47978 0.665124 0
M  V30 575 H 56.4936 3.82145 1.64634 0
M  V30 576 H 55.3696 4.84883 2.57254 0
M  V30 577 H 55.6306 3.18376 3.0674 0
M  V30 578 N 54.6897 -0.239769 1.55765 0
M  V30 579 C 55.6367 -1.29696 1.90913 0
M  V30 580 C 56.6067 -1.47478 0.764164 0
M  V30 581 O 57.7917 -1.61345 1.01845 0
M  V30 582 C 54.9317 -2.64598 2.21544 0
M  V30 583 C 54.0447 -2.54765 3.48882 0
M  V30 584 C 53.1797 -3.82069 3.69049 0
M  V30 585 C 52.2187 -3.66883 4.89963 0
M  V30 586 N 51.3557 -4.86094 5.06614 0
M  V30 587 H 56.1957 -0.990224 2.81067 0
M  V30 588 H 53.7327 -0.477684 1.39128 0
M  V30 589 H 55.6907 -3.43132 2.3731 0
M  V30 590 H 54.3207 -2.93405 1.34585 0
M  V30 591 H 53.3727 -1.67763 3.41409 0
M  V30 592 H 54.6847 -2.39457 4.37563 0
M  V30 593 H 53.8387 -4.69046 3.84812 0
M  V30 594 H 52.5777 -4.00282 2.78614 0
M  V30 595 H 51.5827 -2.78289 4.74168 0
M  V30 596 H 52.8077 -3.50157 5.81865 0
M  V30 597 H 50.7537 -5.04655 4.19117 0
M  V30 598 H 50.6707 -4.73443 5.89396 0
M  V30 599 H 51.9387 -5.74549 5.26795 0
M  V30 600 N 56.1678 -1.49265 -0.50573 0
M  V30 601 C 57.3928 -1.62478 -1.28902 0
M  V30 602 C 57.8178 -0.294332 -1.85783 0
M  V30 603 O 57.1758 0.737412 -1.65626 0
M  V30 604 C 57.2238 -2.69268 -2.39848 0
M  V30 605 O 56.3278 -2.28113 -3.43567 0
M  V30 606 H 55.6688 -0.54399 -0.380751 0
M  V30 607 H 58.1988 -1.95421 -0.605952 0
M  V30 608 H 58.2088 -2.91291 -2.85681 0
M  V30 609 H 56.8838 -3.65846 -1.97812 0
M  V30 610 H 55.4608 -2.16401 -3.03685 0
M  V30 611 N 57.6459 0.756429 -1.3826 0
M  V30 612 C 58.8919 1.51772 -1.34511 0
M  V30 613 C 59.2249 1.94089 0.0656691 0
M  V30 614 O 58.4999 1.65221 1.02626 0
M  V30 615 C 58.7829 2.77226 -2.29821 0
M  V30 616 C 58.6359 2.41065 -3.79747 0
M  V30 617 C 59.9549 3.79236 -2.23312 0
M  V30 618 H 57.0739 0.550578 -0.489931 0
M  V30 619 H 59.7159 0.866607 -1.69086 0
M  V30 620 H 57.8659 3.32784 -2.00467 0
M  V30 621 H 59.5379 1.91303 -4.19763 0
M  V30 622 H 57.7809 1.7356 -3.97567 0
M  V30 623 H 58.4519 3.3081 -4.41892 0
M  V30 624 H 60.9279 3.3321 -2.49219 0
M  V30 625 H 59.8039 4.64714 -2.92116 0
M  V30 626 H 60.0649 4.24615 -1.23102 0
M  V30 627 N 59.124 1.23083 0.984299 0
M  V30 628 C 60.354 1.08556 1.75781 0
M  V30 629 C 60.762 -0.366171 1.85623 0
M  V30 630 O 60.105 -1.26524 1.33182 0
M  V30 631 C 60.167 1.63208 3.20318 0
M  V30 632 C 59.831 3.11922 3.33997 0
M  V30 633 C 60.828 4.09259 3.2063 0
M  V30 634 C 58.513 3.51552 3.58771 0
M  V30 635 C 60.507 5.4421 3.31835 0
M  V30 636 C 58.194 4.86649 3.69616 0
M  V30 637 C 59.192 5.82787 3.56157 0
M  V30 638 O 58.88 7.15431 3.66626 0
M  V30 639 H 58.612 0.380713 0.5586 0
M  V30 640 H 61.166 1.63321 1.2456 0
M  V30 641 H 59.396 1.0286 3.72769 0
M  V30 642 H 61.085 1.44216 3.79416 0
M  V30 643 H 61.851 3.79984 3.01392 0
M  V30 644 H 57.73 2.77239 3.6832 0
M  V30 645 H 61.274 6.1923 3.21247 0
M  V30 646 H 57.171 5.15601 3.88363 0
M  V30 647 H 57.939 7.23127 3.83445 0
M  V30 648 N 60.6021 -1.18246 1.0419 0
M  V30 649 C 61.5341 -2.2142 0.592088 0
M  V30 650 C 62.5471 -1.59233 -0.338909 0
M  V30 651 O 63.7361 -1.78002 -0.133231 0
M  V30 652 C 60.8361 -3.38546 -0.154854 0
M  V30 653 C 60.0091 -4.3031 0.784328 0
M  V30 654 C 59.0681 -5.26138 0.0804583 0
M  V30 655 O 58.0941 -5.64738 0.711292 0
M  V30 656 N 59.2961 -5.68261 -1.18574 0
M  V30 657 H 62.0611 -2.60636 1.47949 0
M  V30 658 H 59.6221 -1.33044 0.922544 0
M  V30 659 H 61.6141 -3.99678 -0.635606 0
M  V30 660 H 60.1841 -2.98012 -0.943811 0
M  V30 661 H 59.4041 -3.66764 1.44491 0
M  V30 662 H 60.6921 -4.8852 1.42218 0
M  V30 663 H 60.0901 -5.38957 -1.71876 0
M  V30 664 H 58.6471 -6.31584 -1.61074 0
M  V30 665 N 62.0802 -0.821533 -1.34494 0
M  V30 666 C 63.3292 -0.405355 -1.97585 0
M  V30 667 C 63.6422 1.03677 -1.65863 0
M  V30 668 O 64.8482 1.55679 -2.22433 0
M  V30 669 C 63.3042 -0.673861 -3.53535 0
M  V30 670 C 62.9122 -2.12951 -3.94152 0
M  V30 671 C 64.6562 -0.32378 -4.23263 0
M  V30 672 C 62.5632 -2.34298 -5.43009 0
M  V30 673 H 61.4932 -0.147836 -0.739365 0
M  V30 674 H 64.1442 -1.00769 -1.53355 0
M  V30 675 H 62.5262 -0.00137554 -3.96 0
M  V30 676 H 63.7002 -2.84104 -3.62797 0
M  V30 677 H 62.0152 -2.44089 -3.37356 0
M  V30 678 H 64.6122 -0.461126 -5.32708 0
M  V30 679 H 64.9552 0.731586 -4.09821 0
M  V30 680 H 65.4882 -0.950786 -3.8627 0
M  V30 681 H 62.2272 -3.38335 -5.61435 0
M  V30 682 H 61.7472 -1.67687 -5.75883 0
M  V30 683 H 63.4262 -2.16588 -6.09671 0
M  V30 684 N 63.5583 1.46682 -0.576371 0
M  V30 685 C 64.7983 2.04306 -0.0621356 0
M  V30 686 C 65.1623 1.4389 1.2712 0
M  V30 687 O 66.3633 1.92675 1.87429 0
M  V30 688 C 64.6343 3.57399 0.00927922 0
M  V30 689 S 66.1933 4.36309 0.466859 0
M  V30 690 H 63.0113 0.710167 -0.0344016 0
M  V30 691 H 65.6133 1.79807 -0.767437 0
M  V30 692 H 64.3173 3.98889 -0.965178 0
M  V30 693 H 63.8483 3.86424 0.737547 0
M  V30 694 H 65.8633 4.6533 1.72287 0
M  V30 695 N 65.0364 0.313813 1.54444 0
M  V30 696 C 65.9464 -0.565714 2.27677 0
M  V30 697 C 66.9624 -1.13754 1.31666 0
M  V30 698 O 68.1384 -1.15959 1.64668 0
M  V30 699 C 65.2034 -1.71528 3.01296 0
M  V30 700 C 64.2644 -1.17624 4.12872 0
M  V30 701 C 63.4974 -2.27102 4.8297 0
M  V30 702 O 63.7204 -3.47256 4.52514 0
M  V30 703 O 62.6544 -1.9307 5.70094 0
M  V30 704 H 66.4804 0.0287296 3.03686 0
M  V30 705 H 64.0654 0.0798312 1.49187 0
M  V30 706 H 65.9474 -2.38476 3.4743 0
M  V30 707 H 64.6224 -2.29608 2.2817 0
M  V30 708 H 63.5294 -0.472124 3.71109 0
M  V30 709 H 64.8624 -0.640695 4.88012 0
M  V30 710 N 66.5145 -1.57545 0.0417849 0
M  V30 711 C 67.7625 -1.91937 -0.632829 0
M  V30 712 C 68.0835 -0.919978 -1.71934 0
M  V30 713 O 67.3535 0.0366064 -1.95866 0
M  V30 714 H 65.9335 -0.708493 -0.236742 0
M  V30 715 H 68.5955 -1.9468 0.0925745 0
M  V30 716 H 67.6915 -2.92912 -1.07746 0
M  V30 717 N 67.9926 0.231505 -1.5589 0
M  V30 718 C 69.2326 0.964533 -1.80211 0
M  V30 719 C 69.5966 1.81926 -0.613744 0
M  V30 720 O 70.7976 2.58526 -0.736045 0
M  V30 721 C 69.0686 1.78956 -3.09369 0
M  V30 722 S 70.6276 2.57959 -3.54969 0
M  V30 723 H 67.4456 0.324173 -0.632798 0
M  V30 724 H 70.0476 0.230985 -1.94131 0
M  V30 725 H 68.7516 1.15161 -3.93911 0
M  V30 726 H 68.2826 2.56559 -2.9823 0
M  V30 727 H 70.2976 3.81309 -3.17519 0
M  V30 728 N 69.4707 1.49531 0.497807 0
M  V30 729 C 70.7177 1.59179 1.25173 0
M  V30 730 C 71.0457 0.279932 1.92475 0
M  V30 731 O 70.3007 -0.732383 1.81479 0
M  V30 732 C 70.5997 2.70252 2.33878 0
M  V30 733 C 70.2657 4.11644 1.84012 0
M  V30 734 C 68.9277 4.50121 1.70132 0
M  V30 735 C 71.2797 5.00121 1.46725 0
M  V30 736 C 68.6077 5.74845 1.17348 0
M  V30 737 C 70.9597 6.25366 0.95392 0
M  V30 738 C 69.6237 6.6267 0.801538 0
M  V30 739 H 68.8937 0.582478 0.45804 0
M  V30 740 H 71.5407 1.83373 0.551948 0
M  V30 741 H 69.8457 2.40041 3.09657 0
M  V30 742 H 71.5427 2.74925 2.9192 0
M  V30 743 H 68.1327 3.81274 1.95775 0
M  V30 744 H 72.3167 4.71048 1.56294 0
M  V30 745 H 67.5727 6.02444 1.04264 0
M  V30 746 H 71.7467 6.93301 0.656225 0
M  V30 747 H 69.3737 7.59197 0.390351 0
M  V30 748 N 70.9488 -0.749086 1.3866 0
M  V30 749 C 72.1948 -1.50959 1.36319 0
M  V30 750 C 72.5498 -1.92347 -0.0452451 0
M  V30 751 O 71.8428 -1.6289 -1.00884 0
M  V30 752 C 72.0368 -2.7712 2.25697 0
M  V30 753 C 71.8658 -2.48067 3.7509 0
M  V30 754 C 70.6358 -2.41062 4.44091 0
M  V30 755 C 72.8338 -2.14544 4.67414 0
M  V30 756 N 70.8158 -2.04331 5.78897 0
M  V30 757 C 72.1868 -1.88141 5.90765 0
M  V30 758 C 74.2418 -2.00892 4.55573 0
M  V30 759 C 72.9448 -1.49463 7.036 0
M  V30 760 C 74.9708 -1.63616 5.68317 0
M  V30 761 C 74.3328 -1.38088 6.90732 0
M  V30 762 H 70.4318 -0.551804 0.554108 0
M  V30 763 H 73.0158 -0.871886 1.74087 0
M  V30 764 H 71.1868 -3.38693 1.9011 0
M  V30 765 H 72.9188 -3.4321 2.1445 0
M  V30 766 H 69.6738 -2.57685 3.9736 0
M  V30 767 H 70.0978 -1.88598 6.502 0
M  V30 768 H 74.7398 -2.19301 3.61479 0
M  V30 769 H 72.4578 -1.29794 7.97608 0
M  V30 770 H 76.0438 -1.53678 5.61137 0
M  V30 771 H 74.9238 -1.09674 7.76493 0
M  V30 772 N 72.4269 -1.23603 -0.977757 0
M  V30 773 C 73.8429 -0.999251 -1.24447 0
M  V30 774 C 74.0429 0.298053 -1.99283 0
M  V30 775 O 73.0989 1.01681 -2.31122 0
M  V30 776 C 74.4119 -2.20784 -2.04144 0
M  V30 777 C 75.9599 -2.25303 -2.17273 0
M  V30 778 C 76.4349 -3.45755 -3.00362 0
M  V30 779 N 77.9259 -3.4601 -3.07947 0
M  V30 780 C 78.6609 -4.35868 -3.72568 0
M  V30 781 N 78.1569 -5.35966 -4.38991 0
M  V30 782 N 79.9499 -4.23605 -3.6948 0
M  V30 783 H 72.1009 -2.06986 -0.476483 0
M  V30 784 H 74.3639 -0.907801 -0.273134 0
M  V30 785 H 74.0699 -3.14945 -1.56533 0
M  V30 786 H 73.9439 -2.22085 -3.04891 0
M  V30 787 H 76.3309 -1.3168 -2.64092 0
M  V30 788 H 76.4119 -2.28033 -1.15907 0
M  V30 789 H 76.0559 -4.39687 -2.5424 0
M  V30 790 H 75.9859 -3.40266 -4.01904 0
M  V30 791 H 78.4769 -2.73588 -2.60688 0
M  V30 792 H 78.7899 -6.00783 -4.86086 0
M  V30 793 H 77.1349 -5.39863 -4.37691 0
M  V30 794 H 80.3259 -3.44647 -3.16759 0
M  V30 795 H 80.4989 -4.93836 -4.1956 0
M  V30 796 N 73.905 1.17692 -1.04816 0
M  V30 797 C 75.145 1.89545 -0.764979 0
M  V30 798 C 75.509 1.78979 0.695028 0
M  V30 799 O 76.71 2.45613 1.09215 0
M  V30 800 C 74.981 3.35659 -1.22751 0
M  V30 801 S 76.54 4.25526 -1.07112 0
M  V30 802 H 73.358 0.654432 -0.27792 0
M  V30 803 H 75.96 1.42163 -1.34201 0
M  V30 804 H 74.664 3.40882 -2.28533 0
M  V30 805 H 74.195 3.88083 -0.644594 0
M  V30 806 H 76.21 4.962 0.00697508 0
M  V30 807 N 75.3831 0.828654 1.34056 0
M  V30 808 C 76.6311 0.41863 1.97717 0
M  V30 809 C 76.9521 -1.02314 1.66002 0
M  V30 810 O 76.2221 -1.71119 0.953683 0
M  V30 811 H 74.8021 0.151809 0.731412 0
M  V30 812 H 77.4641 1.05936 1.63596 0
M  V30 813 H 76.5601 0.542318 3.07352 0
M  V30 814 N 76.8612 -1.46375 0.584142 0
M  V30 815 C 78.1102 -2.01585 0.0679741 0
M  V30 816 C 78.4232 -1.46109 -1.30045 0
M  V30 817 O 79.6292 -1.93148 -1.90804 0
M  V30 818 C 78.0852 -3.5983 0.0709207 0
M  V30 819 C 77.6932 -4.24303 1.43775 0
M  V30 820 C 79.4372 -4.22693 -0.391228 0
M  V30 821 C 77.3442 -5.74631 1.39834 0
M  V30 822 H 76.2742 -0.753689 0.0216421 0
M  V30 823 H 78.9252 -1.68093 0.736001 0
M  V30 824 H 77.3072 -3.90405 -0.663299 0
M  V30 825 H 78.4812 -4.05335 2.19181 0
M  V30 826 H 76.7962 -3.73539 1.84004 0
M  V30 827 H 79.3932 -5.3289 -0.439524 0
M  V30 828 H 79.7362 -3.91728 -1.40906 0
M  V30 829 H 80.2692 -3.96749 0.288974 0
M  V30 830 H 77.0082 -6.10258 2.39303 0
M  V30 831 H 76.5282 -5.95858 0.686505 0
M  V30 832 H 78.2072 -6.37375 1.11187 0
M  V30 833 N 78.3393 -0.321999 -1.54275 0
M  V30 834 C 79.5853 0.281461 -2.00837 0
M  V30 835 C 79.9183 1.51909 -1.20985 0
M  V30 836 O 79.1933 1.923 -0.291733 0
M  V30 837 C 79.4763 0.617162 -3.54772 0
M  V30 838 C 79.3293 -0.631064 -4.45351 0
M  V30 839 C 80.6483 1.43542 -4.16033 0
M  V30 840 H 77.7673 0.100826 -0.730071 0
M  V30 841 H 80.4093 -0.438268 -1.84876 0
M  V30 842 H 78.5593 1.23034 -3.68504 0
M  V30 843 H 80.2313 -1.26934 -4.43492 0
M  V30 844 H 78.4743 -1.26025 -4.15091 0
M  V30 845 H 79.1453 -0.351735 -5.50878 0
M  V30 846 H 81.6213 0.917134 -4.05867 0
M  V30 847 H 80.4973 1.63907 -5.23856 0
M  V30 848 H 80.7583 2.43108 -3.69257 0
M  V30 849 N 79.8174 1.5752 -0.0501392 0
M  V30 850 C 80.7804 2.1037 0.909786 0
M  V30 851 C 81.7804 1.02308 1.24056 0
M  V30 852 O 82.9704 1.28385 1.17741 0
M  V30 853 C 80.1024 2.58708 2.21998 0
M  V30 854 H 81.2954 2.96479 0.451665 0
M  V30 855 H 78.8484 1.55038 0.198248 0
M  V30 856 H 79.5834 1.75989 2.72394 0
M  V30 857 H 79.3684 3.37675 1.99295 0
M  V30 858 H 80.8584 2.99747 2.9076 0
M  V30 859 N 81.2955 -0.223234 1.56011 0
M  V30 860 C 82.2455 -1.28008 1.88674 0
M  V30 861 C 83.2295 -1.42369 0.749663 0
M  V30 862 O 84.4215 -1.45212 1.01205 0
M  V30 863 C 81.5505 -2.63084 2.20548 0
M  V30 864 C 80.6365 -2.52632 3.40643 0
M  V30 865 N 81.0275 -2.11829 4.59306 0
M  V30 866 C 79.3255 -2.83594 3.44224 0
M  V30 867 C 80.0265 -2.12587 5.41463 0
M  V30 868 N 79.0025 -2.5301 4.81131 0
M  V30 869 H 82.8045 -0.955487 2.77935 0
M  V30 870 H 80.3185 -0.431801 1.56554 0
M  V30 871 H 82.3155 -3.39385 2.42122 0
M  V30 872 H 80.9755 -2.96391 1.32599 0
M  V30 873 H 81.9865 -1.82988 4.84496 0
M  V30 874 H 78.6635 -3.21284 2.66614 0
M  V30 875 H 80.0535 -1.83179 6.46448 0
M  V30 876 N 82.7736 -1.49793 -0.48987 0
M  V30 877 C 83.7366 -1.66752 -1.57246 0
M  V30 878 C 84.7366 -0.538867 -1.51502 0
M  V30 879 O 85.9266 -0.805545 -1.54456 0
M  V30 880 C 83.0586 -1.67528 -2.96896 0
M  V30 881 H 84.2516 -2.63321 -1.43534 0
M  V30 882 H 81.8046 -1.38992 -0.714914 0
M  V30 883 H 82.5396 -0.725837 -3.16073 0
M  V30 884 H 82.3246 -2.49504 -3.02473 0
M  V30 885 H 83.8146 -1.82667 -3.7553 0
M  V30 886 N 84.2517 0.741722 -1.39055 0
M  V30 887 C 85.4977 1.50336 -1.36113 0
M  V30 888 C 85.8307 1.94148 0.0450796 0
M  V30 889 O 85.1057 1.66301 1.00868 0
M  V30 890 C 85.3887 2.74773 -2.32749 0
M  V30 891 C 85.2417 2.37023 -3.82283 0
M  V30 892 C 86.5607 3.76846 -2.27322 0
M  V30 893 H 83.6797 0.545351 -0.495743 0
M  V30 894 H 86.3217 0.848624 -1.69995 0
M  V30 895 H 84.4717 3.30639 -2.03986 0
M  V30 896 H 86.1437 1.8684 -4.21768 0
M  V30 897 H 84.3867 1.69334 -3.99385 0
M  V30 898 H 85.0577 3.26104 -4.45376 0
M  V30 899 H 87.5337 3.30548 -2.5274 0
M  V30 900 H 86.4097 4.6159 -2.97028 0
M  V30 901 H 86.6707 4.23286 -1.27599 0
M  V30 902 N 85.7298 1.2412 0.971189 0
M  V30 903 C 86.9778 1.07668 1.71032 0
M  V30 904 C 87.2988 -0.385797 1.91146 0
M  V30 905 O 86.5688 -1.27569 1.4867 0
M  V30 906 H 85.1488 0.395429 0.633755 0
M  V30 907 H 87.8108 1.55984 1.16855 0
M  V30 908 H 86.9068 1.57195 2.69622 0
M  V30 909 N 87.2079 -1.17134 1.05439 0
M  V30 910 C 88.1559 -2.23289 0.651511 0
M  V30 911 C 89.1499 -1.66186 -0.328411 0
M  V30 912 O 90.3559 -1.78949 -0.194206 0
M  V30 913 H 86.7309 -0.726938 0.192523 0
M  V30 914 H 88.7019 -2.54565 1.55689 0
M  V30 915 C 87.4509 -3.47671 0.0448436 0
M  V30 916 H 86.7739 -3.91918 0.78996 0
M  V30 917 H 88.2139 -4.2353 -0.19964 0
M  V30 918 C 86.6729 -3.14453 -1.20918 0
M  V30 919 O 87.2029 -3.29459 -2.29825 0
M  V30 920 N 85.4089 -2.68657 -1.10779 0
M  V30 921 H 84.9559 -2.56646 -0.221526 0
M  V30 922 H 84.9139 -2.46804 -1.9477 0
M  V30 923 N 88.686 -0.835752 -1.33615 0
M  V30 924 C 90.102 -0.523139 -1.50783 0
M  V30 925 C 90.302 0.950171 -1.77691 0
M  V30 926 O 89.358 1.73411 -1.83534 0
M  V30 927 C 90.671 -1.39378 -2.66448 0
M  V30 928 C 92.219 -1.39223 -2.80332 0
M  V30 929 C 92.694 -2.24765 -3.99055 0
M  V30 930 N 94.185 -2.22458 -4.06284 0
M  V30 931 C 94.92 -2.85386 -4.97336 0
M  V30 932 N 94.416 -3.57354 -5.93523 0
M  V30 933 N 96.209 -2.74872 -4.90308 0
M  V30 934 H 88.36 -1.78952 -1.14411 0
M  V30 935 H 90.623 -0.763297 -0.562212 0
M  V30 936 H 90.329 -2.44061 -2.53234 0
M  V30 937 H 90.203 -1.0676 -3.61776 0
M  V30 938 H 92.59 -0.353136 -2.92979 0
M  V30 939 H 92.671 -1.75846 -1.85773 0
M  V30 940 H 92.315 -3.28732 -3.87167 0
M  V30 941 H 92.245 -1.85485 -4.92852 0
M  V30 942 H 94.736 -1.70119 -3.37443 0
M  V30 943 H 95.049 -4.02584 -6.59656 0
M  V30 944 H 93.394 -3.61461 -5.93608 0
M  V30 945 H 96.585 -2.18213 -4.14126 0
M  V30 946 H 96.758 -3.24199 -5.61069 0
M  V30 947 N 90.1641 1.46063 -0.591896 0
M  V30 948 C 91.4101 2.02638 -0.0811191 0
M  V30 949 C 91.7431 1.4613 1.27905 0
M  V30 950 O 91.0181 0.629908 1.84017 0
M  V30 951 C 91.3011 3.60091 -0.0252436 0
M  V30 952 C 91.1541 4.26965 -1.41496 0
M  V30 953 C 92.4731 4.3496 0.670685 0
M  V30 954 H 89.5921 0.73635 -0.0309524 0
M  V30 955 H 92.2341 1.741 -0.760859 0
M  V30 956 H 90.3841 3.84535 0.553624 0
M  V30 957 H 92.0561 4.13756 -2.0397 0
M  V30 958 H 90.2991 3.85971 -1.98011 0
M  V30 959 H 90.9701 5.35781 -1.32825 0
M  V30 960 H 93.4461 4.15716 0.178825 0
M  V30 961 H 92.3221 5.44686 0.678837 0
M  V30 962 H 92.5831 4.06685 1.73379 0
M  V30 963 N 91.6422 0.330177 1.54103 0
M  V30 964 C 92.8722 -0.271784 2.04805 0
M  V30 965 C 93.2802 -1.45816 1.20559 0
M  V30 966 O 92.6232 -1.82247 0.2306 0
M  V30 967 C 92.6852 -0.763238 3.51305 0
M  V30 968 C 92.3492 0.301705 4.56003 0
M  V30 969 C 93.3462 1.13999 5.07248 0
M  V30 970 C 91.0312 0.451793 5.00264 0
M  V30 971 C 93.0252 2.11402 6.01322 0
M  V30 972 C 90.7122 1.42924 5.94151 0
M  V30 973 C 91.7102 2.25882 6.44567 0
M  V30 974 O 91.3982 3.21965 7.3661 0
M  V30 975 H 91.1302 -0.058693 0.673447 0
M  V30 976 H 93.6842 0.476395 1.99799 0
M  V30 977 H 91.9142 -1.56244 3.5373 0
M  V30 978 H 93.6032 -1.28427 3.85047 0
M  V30 979 H 94.3692 1.03505 4.73827 0
M  V30 980 H 90.2482 -0.184044 4.60632 0
M  V30 981 H 93.7922 2.76192 6.40596 0
M  V30 982 H 89.6892 1.53479 6.26988 0
M  V30 983 H 90.4572 3.17281 7.54503 0
M  V30 984 N 93.1203 -1.57491 0.0584922 0
M  V30 985 C 94.0673 -2.11958 -0.913376 0
M  V30 986 C 95.0373 -1.02875 -1.30407 0
M  V30 987 O 96.2223 -1.30464 -1.39226 0
M  V30 988 C 93.3623 -2.67497 -2.18035 0
M  V30 989 C 92.4753 -3.90691 -1.84349 0
M  V30 990 C 91.6103 -4.3452 -3.05559 0
M  V30 991 C 90.6493 -5.50395 -2.67827 0
M  V30 992 N 89.7863 -5.89244 -3.81754 0
M  V30 993 H 94.6263 -2.94704 -0.442017 0
M  V30 994 H 92.1633 -1.45643 -0.206545 0
M  V30 995 H 94.1213 -2.978 -2.92183 0
M  V30 996 H 92.7513 -1.87537 -2.62735 0
M  V30 997 H 91.8033 -3.66934 -1.00319 0
M  V30 998 H 93.1153 -4.7489 -1.5258 0
M  V30 999 H 92.2693 -4.66414 -3.87998 0
M  V30 1000 H 91.0083 -3.49147 -3.40511 0
M  V30 1001 H 90.0133 -5.18165 -1.83806 0
M  V30 1002 H 91.2383 -6.3749 -2.34059 0
M  V30 1003 H 89.1843 -5.06823 -4.16493 0
M  V30 1004 H 89.1013 -6.68151 -3.53708 0
M  V30 1005 H 90.3693 -6.25756 -4.64811 0
M  V30 1006 N 94.5984 0.214957 -1.56127 0
M  V30 1007 C 95.8444 0.939762 -1.79712 0
M  V30 1008 C 96.1774 1.83723 -0.629247 0
M  V30 1009 O 95.4524 1.90925 0.371197 0
M  V30 1010 C 95.7354 1.77306 -3.13424 0
M  V30 1011 C 95.5884 0.90164 -4.40671 0
M  V30 1012 C 96.9074 2.74956 -3.43638 0
M  V30 1013 H 94.0264 0.340214 -0.653776 0
M  V30 1014 H 96.6684 0.20824 -1.88855 0
M  V30 1015 H 94.8184 2.39673 -3.0576 0
M  V30 1016 H 96.4904 0.294206 -4.60361 0
M  V30 1017 H 94.7334 0.207368 -4.33304 0
M  V30 1018 H 95.4044 1.51923 -5.30682 0
M  V30 1019 H 97.8804 2.22724 -3.51473 0
M  V30 1020 H 96.7564 3.30358 -4.38355 0
M  V30 1021 H 97.0174 3.53023 -2.66134 0
M  V30 1022 N 96.0765 1.50051 0.48192 0
M  V30 1023 C 96.9865 1.7089 1.60728 0
M  V30 1024 C 98.0025 0.591788 1.63627 0
M  V30 1025 O 99.1785 0.868817 1.81696 0
M  V30 1026 C 96.2435 1.78855 2.97005 0
M  V30 1027 C 95.3045 3.02537 3.04581 0
M  V30 1028 C 94.5375 3.10112 4.34357 0
M  V30 1029 O 94.7605 2.24765 5.24249 0
M  V30 1030 O 93.6945 4.02747 4.47301 0
M  V30 1031 H 97.5205 2.66264 1.46072 0
M  V30 1032 H 95.1055 1.34018 0.660264 0
M  V30 1033 H 96.9875 1.86336 3.77964 0
M  V30 1034 H 95.6625 0.866628 3.11883 0
M  V30 1035 H 94.5695 3.00563 2.22739 0
M  V30 1036 H 95.9025 3.94272 2.94636 0
M  V30 1037 N 97.5546 -0.734337 1.39446 0
M  V30 1038 C 98.8026 -1.49096 1.36436 0
M  V30 1039 C 99.1236 -1.94961 -0.0388255 0
M  V30 1040 O 98.3936 -1.69033 -0.990191 0
M  V30 1041 H 96.9736 -0.5531 0.502085 0
M  V30 1042 H 99.6356 -0.871725 1.74319 0
M  V30 1043 H 98.7316 -2.37276 2.02747 0
M  V30 1044 N 99.0327 -1.24633 -0.964593 0
M  V30 1045 C 100.263 -1.11339 -1.74032 0
M  V30 1046 C 100.671 0.336593 -1.86182 0
M  V30 1047 O 100.014 1.24389 -1.35178 0
M  V30 1048 C 100.076 -1.68284 -3.1768 0
M  V30 1049 C 99.7397 -3.17196 -3.28992 0
M  V30 1050 C 100.737 -4.14308 -3.14078 0
M  V30 1051 C 98.4217 -3.57215 -3.53133 0
M  V30 1052 C 100.416 -5.4942 -3.23135 0
M  V30 1053 C 98.1027 -4.92468 -3.61827 0
M  V30 1054 C 99.1007 -5.8838 -3.46841 0
M  V30 1055 O 98.7887 -7.21173 -3.55197 0
M  V30 1056 H 98.5207 -0.389551 -0.552472 0
M  V30 1057 H 101.075 -1.65282 -1.21946 0
M  V30 1058 H 99.3047 -1.08777 -3.71085 0
M  V30 1059 H 100.994 -1.50234 -3.77074 0
M  V30 1060 H 101.76 -3.84731 -2.95308 0
M  V30 1061 H 97.6387 -2.83063 -3.63863 0
M  V30 1062 H 101.183 -6.24263 -3.11355 0
M  V30 1063 H 97.0797 -5.21714 -3.80111 0
M  V30 1064 H 97.8477 -7.29135 -3.71892 0
M  V30 1065 N 100.511 1.16574 -1.06058 0
M  V30 1066 C 101.421 2.2452 -0.680282 0
M  V30 1067 C 102.437 1.71348 0.302604 0
M  V30 1068 O 103.613 2.00822 0.152513 0
M  V30 1069 C 100.678 3.46629 -0.0700315 0
M  V30 1070 C 99.7388 4.14849 -1.10448 0
M  V30 1071 C 98.9718 5.31129 -0.523256 0
M  V30 1072 O 99.1948 5.66514 0.664709 0
M  V30 1073 O 98.1288 5.88526 -1.26179 0
M  V30 1074 H 101.955 2.59355 -1.58015 0
M  V30 1075 H 99.5398 1.24043 -0.832694 0
M  V30 1076 H 101.422 4.20543 0.268667 0
M  V30 1077 H 100.097 3.13573 0.803353 0
M  V30 1078 H 99.0038 3.42916 -1.49532 0
M  V30 1079 H 100.337 4.51954 -1.94931 0
M  V30 1080 N 101.989 0.842826 1.3317 0
M  V30 1081 C 102.952 0.284065 2.27433 0
M  V30 1082 C 103.952 -0.54948 1.5112 0
M  V30 1083 O 105.142 -0.362699 1.70382 0
M  V30 1084 C 102.274 -0.599384 3.35589 0
M  V30 1085 H 103.467 1.11589 2.78366 0
M  V30 1086 H 101.02 0.616221 1.4364 0
M  V30 1087 H 101.755 -1.45349 2.89904 0
M  V30 1088 H 101.54 -0.00291266 3.921 0
M  V30 1089 H 103.03 -0.983488 4.05854 0
M  V30 1090 N 103.467 -1.45747 0.599634 0
M  V30 1091 C 104.415 -2.322 -0.136426 0
M  V30 1092 C 105.409 -1.45497 -0.867583 0
M  V30 1093 O 106.615 -1.62027 -0.78405 0
M  V30 1094 H 102.99 -0.749368 -0.0628588 0
M  V30 1095 H 104.961 -2.92072 0.611281 0
M  V30 1096 C 103.71 -3.28974 -1.12567 0
M  V30 1097 H 103.033 -3.9568 -0.572484 0
M  V30 1098 H 104.473 -3.92212 -1.61077 0
M  V30 1099 C 102.932 -2.55561 -2.19523 0
M  V30 1100 O 103.462 -2.33111 -3.27143 0
M  V30 1101 N 101.668 -2.15832 -1.94589 0
M  V30 1102 H 101.215 -2.3429 -1.07078 0
M  V30 1103 H 101.173 -1.67034 -2.66359 0
M  V30 1104 N 104.945 -0.338344 -1.53925 0
M  V30 1105 C 106.356 0.146651 -1.86123 0
M  V30 1106 C 106.707 1.5042 -1.2597 0
M  V30 1107 O 105.832 2.08723 -0.571294 0
M  V30 1108 C 106.427 0.272879 -3.37699 0
M  V30 1109 C 104.986 0.702103 -3.69794 0
M  V30 1110 C 104.133 -0.167304 -2.76795 0
M  V30 1111 H 107.084 -0.558123 -1.48562 0
M  V30 1112 H 107.105 1.10128 -3.64214 0
M  V30 1113 H 106.617 -0.715307 -3.81451 0
M  V30 1114 H 104.718 1.6995 -3.31584 0
M  V30 1115 H 104.831 0.495604 -4.7653 0
M  V30 1116 H 103.195 0.359527 -2.5215 0
M  V30 1117 H 103.978 -1.15253 -3.23375 0
M  V30 1118 N 106.423 1.57458 -0.0668435 0
M  V30 1119 C 107.37 2.12439 0.902122 0
M  V30 1120 C 108.34 1.03565 1.2986 0
M  V30 1121 O 109.525 1.312 1.38532 0
M  V30 1122 C 106.665 2.6865 2.16614 0
M  V30 1123 C 105.778 3.91663 1.82274 0
M  V30 1124 C 104.913 4.36134 3.0325 0
M  V30 1125 C 103.952 5.51808 2.64904 0
M  V30 1126 N 103.089 5.9126 3.78624 0
M  V30 1127 H 107.929 2.94934 0.426382 0
M  V30 1128 H 105.466 1.4575 0.198819 0
M  V30 1129 H 107.424 2.99346 2.90599 0
M  V30 1130 H 106.054 1.88928 2.61737 0
M  V30 1131 H 105.106 3.6746 0.983719 0
M  V30 1132 H 106.418 4.75693 1.50059 0
M  V30 1133 H 105.572 4.68465 3.85519 0
M  V30 1134 H 104.311 3.50948 3.38655 0
M  V30 1135 H 103.316 5.19133 1.81055 0
M  V30 1136 H 104.541 6.38722 2.30675 0
M  V30 1137 H 102.487 5.09024 4.138 0
M  V30 1138 H 102.404 6.70018 3.5016 0
M  V30 1139 H 103.672 6.28212 4.61486 0
M  V30 1140 N 107.901 -0.206675 1.56239 0
M  V30 1141 C 109.126 -0.949474 1.8439 0
M  V30 1142 C 109.551 -1.76549 0.649016 0
M  V30 1143 O 108.909 -1.76782 -0.402231 0
M  V30 1144 C 108.957 -1.83078 3.10668 0
M  V30 1145 O 108.061 -2.9281 2.90407 0
M  V30 1146 H 107.402 -0.268033 0.607499 0
M  V30 1147 H 109.932 -0.215488 2.03462 0
M  V30 1148 H 109.942 -2.2377 3.41161 0
M  V30 1149 H 108.617 -1.23112 3.97261 0
M  V30 1150 H 107.194 -2.55956 2.71184 0
M  V30 1151 N 109.379 -1.50304 -0.473955 0
M  V30 1152 C 110.795 -1.37667 -0.807466 0
M  V30 1153 C 110.995 -0.430555 -1.96846 0
M  V30 1154 O 110.051 0.127874 -2.52176 0
M  V30 1155 C 111.364 -2.78974 -1.12223 0
M  V30 1156 C 112.912 -2.87868 -1.22885 0
M  V30 1157 C 113.387 -4.30003 -1.57676 0
M  V30 1158 N 114.878 -4.3294 -1.64673 0
M  V30 1159 C 115.613 -5.3991 -1.93091 0
M  V30 1160 N 115.109 -6.57092 -2.1955 0
M  V30 1161 N 116.902 -5.27351 -1.94569 0
M  V30 1162 H 109.053 -2.10394 0.291212 0
M  V30 1163 H 111.316 -0.945575 0.0677609 0
M  V30 1164 H 111.022 -3.50031 -0.342229 0
M  V30 1165 H 110.896 -3.16038 -2.05913 0
M  V30 1166 H 113.283 -2.17032 -1.99953 0
M  V30 1167 H 113.364 -2.54352 -0.271814 0
M  V30 1168 H 113.008 -5.01375 -0.81149 0
M  V30 1169 H 112.938 -4.61004 -2.54525 0
M  V30 1170 H 115.429 -3.48441 -1.46277 0
M  V30 1171 H 115.742 -7.34425 -2.405 0
M  V30 1172 H 114.087 -6.60272 -2.16948 0
M  V30 1173 H 117.278 -4.34801 -1.73394 0
M  V30 1174 H 117.451 -6.10805 -2.16381 0
M  V30 1175 N 110.857 0.726932 -1.39834 0
M  V30 1176 C 112.105 1.4837 -1.37225 0
M  V30 1177 C 112.426 1.94979 0.0284857 0
M  V30 1178 O 111.696 1.69555 0.981213 0
M  V30 1179 H 110.276 0.55043 -0.505011 0
M  V30 1180 H 112.938 0.862468 -1.74778 0
M  V30 1181 H 112.034 2.36198 -2.04003 0
M  V30 1182 N 112.336 1.25143 0.95797 0
M  V30 1183 C 113.752 1.01892 1.22842 0
M  V30 1184 C 113.952 -0.266311 1.99732 0
M  V30 1185 O 113.008 -0.979913 2.3271 0
M  V30 1186 C 114.321 2.24004 2.00606 0
M  V30 1187 C 115.869 2.28731 2.13662 0
M  V30 1188 C 116.344 3.5049 2.94823 0
M  V30 1189 N 117.835 3.50866 3.02403 0
M  V30 1190 C 118.57 4.4174 3.65586 0
M  V30 1191 N 118.066 5.42882 4.30408 0
M  V30 1192 N 119.859 4.29429 3.62694 0
M  V30 1193 H 112.01 2.07718 0.443493 0
M  V30 1194 H 114.273 0.912031 0.258657 0
M  V30 1195 H 113.979 3.17395 1.51503 0
M  V30 1196 H 113.853 2.26907 3.01319 0
M  V30 1197 H 116.24 1.35865 2.61963 0
M  V30 1198 H 116.321 2.29848 1.12265 0
M  V30 1199 H 115.965 4.43676 2.47213 0
M  V30 1200 H 115.895 3.46617 3.96439 0
M  V30 1201 H 118.386 2.777 2.56302 0
M  V30 1202 H 118.699 6.0844 4.76467 0
M  V30 1203 H 117.044 5.46758 4.29047 0
M  V30 1204 H 120.235 3.49643 3.11236 0
M  V30 1205 H 120.408 5.00448 4.1165 0
M  V30 1206 N 113.814 -1.1601 1.06675 0
M  V30 1207 C 114.744 -2.22688 0.702307 0
M  V30 1208 C 115.725 -1.67306 -0.307032 0
M  V30 1209 O 116.91 -1.93352 -0.181305 0
M  V30 1210 C 114.04 -3.47178 0.092038 0
M  V30 1211 C 112.994 -4.15477 1.02777 0
M  V30 1212 C 112.32 -5.33963 0.28061 0
M  V30 1213 C 113.62 -4.66019 2.35846 0
M  V30 1214 H 115.314 -2.53429 1.59419 0
M  V30 1215 H 112.86 -1.21813 0.767961 0
M  V30 1216 H 114.813 -4.21037 -0.174814 0
M  V30 1217 H 113.537 -3.15749 -0.834877 0
M  V30 1218 H 112.196 -3.43549 1.27944 0
M  V30 1219 H 111.844 -4.98788 -0.649545 0
M  V30 1220 H 111.544 -5.806 0.904258 0
M  V30 1221 H 113.068 -6.10596 0.021396 0
M  V30 1222 H 114.482 -5.3144 2.15045 0
M  V30 1223 H 112.879 -5.23293 2.93743 0
M  V30 1224 H 113.949 -3.82023 2.98641 0
M  V30 1225 N 115.292 -0.849877 -1.32721 0
M  V30 1226 C 116.532 -0.457146 -1.99222 0
M  V30 1227 C 116.896 0.968038 -1.6581 0
M  V30 1228 O 118.097 1.46507 -2.25364 0
M  V30 1229 C 116.368 -0.683966 -3.50794 0
M  V30 1230 S 117.927 -0.388095 -4.3708 0
M  V30 1231 H 114.745 -0.171464 -0.690015 0
M  V30 1232 H 117.347 -1.10155 -1.61512 0
M  V30 1233 H 116.051 -1.72038 -3.726 0
M  V30 1234 H 115.582 -0.0258086 -3.93392 0
M  V30 1235 H 117.597 0.787791 -4.89906 0
M  V30 1236 N 116.77 1.45427 -0.607355 0
M  V30 1237 C 118.181 1.85756 -0.187535 0
M  V30 1238 C 118.532 1.5077 1.25551 0
M  V30 1239 O 117.657 0.93427 1.95193 0
M  V30 1240 C 118.252 3.37154 -0.333572 0
M  V30 1241 C 116.811 3.76387 0.0315542 0
M  V30 1242 C 115.958 2.69377 -0.658117 0
M  V30 1243 H 118.909 1.36231 -0.81405 0
M  V30 1244 H 118.93 3.78014 0.43428 0
M  V30 1245 H 118.442 3.62586 -1.38393 0
M  V30 1246 H 116.543 3.56571 1.0811 0
M  V30 1247 H 116.656 4.77731 -0.361935 0
M  V30 1248 H 115.02 2.5452 -0.0957873 0
M  V30 1249 H 115.803 2.97646 -1.7106 0
M  V30 1250 N 118.248 0.346503 1.53744 0
M  V30 1251 C 119.664 -0.00530975 1.59599 0
M  V30 1252 C 119.864 -1.48465 1.36236 0
M  V30 1253 O 118.92 -2.24376 1.15808 0
M  V30 1254 C 120.233 0.433516 2.97559 0
M  V30 1255 C 121.781 0.386111 3.10609 0
M  V30 1256 C 122.256 0.800451 4.50951 0
M  V30 1257 N 123.747 0.754753 4.5701 0
M  V30 1258 C 124.482 1.04727 5.63755 0
M  V30 1259 N 123.978 1.4081 6.7834 0
M  V30 1260 N 125.771 0.971316 5.53644 0
M  V30 1261 H 117.922 1.31009 1.67184 0
M  V30 1262 H 120.185 0.534242 0.783128 0
M  V30 1263 H 119.891 1.46509 3.19731 0
M  V30 1264 H 119.765 -0.189753 3.76722 0
M  V30 1265 H 122.152 -0.636295 2.88158 0
M  V30 1266 H 122.233 1.04462 2.33498 0
M  V30 1267 H 121.877 1.82088 4.74137 0
M  V30 1268 H 121.807 0.119386 5.26465 0
M  V30 1269 H 124.298 0.488662 3.74727 0
M  V30 1270 H 124.611 1.61607 7.55714 0
M  V30 1271 H 122.956 1.44657 6.79779 0
M  V30 1272 H 126.147 0.688748 4.63005 0
M  V30 1273 H 126.32 1.20263 6.36742 0
M  V30 1274 N 119.726 -1.57421 0.075193 0
M  V30 1275 C 120.974 -1.93236 -0.591974 0
M  V30 1276 C 121.295 -0.956241 -1.69944 0
M  V30 1277 O 120.565 -0.00494792 -1.95899 0
M  V30 1278 H 119.145 -0.713355 -0.22166 0
M  V30 1279 H 121.807 -1.9444 0.133848 0
M  V30 1280 H 120.903 -2.95131 -1.01509 0
M  V30 1281 N 121.204 0.198386 -1.56346 0
M  V30 1282 C 122.136 1.26987 -1.90806 0
M  V30 1283 C 123.149 1.41877 -0.798419 0
M  V30 1284 O 124.338 1.42362 -1.07682 0
M  V30 1285 C 121.438 2.64246 -2.12196 0
M  V30 1286 C 120.611 2.71007 -3.43328 0
M  V30 1287 C 119.67 3.89439 -3.5387 0
M  V30 1288 O 118.696 3.76695 -4.26719 0
M  V30 1289 N 119.898 5.04752 -2.86715 0
M  V30 1290 H 122.663 0.977433 -2.83313 0
M  V30 1291 H 120.224 0.388322 -1.57174 0
M  V30 1292 H 122.216 3.41896 -2.1654 0
M  V30 1293 H 120.786 2.85992 -1.26204 0
M  V30 1294 H 120.006 1.79657 -3.50881 0
M  V30 1295 H 121.294 2.72512 -4.29668 0
M  V30 1296 H 120.692 5.18004 -2.2735 0
M  V30 1297 H 119.249 5.8036 -2.96691 0
M  V30 1298 N 122.682 1.50554 0.465978 0
M  V30 1299 C 123.93 1.61479 1.21528 0
M  V30 1300 C 124.251 0.319596 1.92363 0
M  V30 1301 O 123.521 -0.663194 1.84333 0
M  V30 1302 H 122.101 0.595055 0.451573 0
M  V30 1303 H 124.763 1.87355 0.53704 0
M  V30 1304 H 123.859 2.42846 1.96042 0
M  V30 1305 N 124.16 -0.719506 1.40217 0
M  V30 1306 C 125.123 -1.8153 1.39927 0
M  V30 1307 C 126.123 -1.58095 0.293723 0
M  V30 1308 O 127.313 -1.65209 0.552429 0
M  V30 1309 C 124.445 -3.19561 1.18716 0
M  V30 1310 H 125.638 -1.83186 2.37451 0
M  V30 1311 H 123.191 -0.924746 1.26008 0
M  V30 1312 H 123.926 -3.23557 0.219366 0
M  V30 1313 H 123.711 -3.3797 1.98793 0
M  V30 1314 H 125.201 -3.99598 1.21291 0
M  V30 1315 N 125.638 -1.25649 -0.95132 0
M  V30 1316 C 127.049 -1.09654 -1.51106 0
M  V30 1317 C 127.4 0.326615 -1.93462 0
M  V30 1318 O 126.525 1.21697 -1.78938 0
M  V30 1319 C 127.12 -1.98437 -2.74605 0
M  V30 1320 C 125.679 -1.86618 -3.2688 0
M  V30 1321 C 124.826 -1.9239 -1.99703 0
M  V30 1322 H 127.777 -1.38887 -0.767865 0
M  V30 1323 H 127.798 -1.5263 -3.48546 0
M  V30 1324 H 127.31 -3.02009 -2.43746 0
M  V30 1325 H 125.411 -0.859421 -3.62553 0
M  V30 1326 H 125.524 -2.71607 -3.94673 0
M  V30 1327 H 123.888 -1.36317 -2.15151 0
M  V30 1328 H 124.671 -2.97573 -1.71188 0
M  V30 1329 N 127.117 1.15442 -1.07289 0
M  V30 1330 C 128.049 2.19773 -0.650585 0
M  V30 1331 C 129.062 1.60076 0.296572 0
M  V30 1332 O 130.251 1.78293 0.0859905 0
M  V30 1333 C 127.351 3.38838 0.0650398 0
M  V30 1334 C 126.524 4.2808 -0.898141 0
M  V30 1335 C 125.583 5.2574 -0.219926 0
M  V30 1336 O 124.609 5.62654 -0.860773 0
M  V30 1337 N 125.811 5.71205 1.03466 0
M  V30 1338 H 128.576 2.56622 -1.54808 0
M  V30 1339 H 126.137 1.30551 -0.957494 0
M  V30 1340 H 128.129 4.01222 0.529415 0
M  V30 1341 H 126.699 3.00409 0.864466 0
M  V30 1342 H 125.919 3.62804 -1.54165 0
M  V30 1343 H 127.207 4.84577 -1.5512 0
M  V30 1344 H 126.605 5.43325 1.57526 0
M  V30 1345 H 125.162 6.35633 1.44272 0
M  V30 1346 N 128.595 0.856903 1.32268 0
M  V30 1347 C 129.823 0.475439 2.01363 0
M  V30 1348 C 130.238 -0.928486 1.64392 0
M  V30 1349 O 129.595 -1.60624 0.866387 0
M  V30 1350 C 129.646 0.607545 3.56358 0
M  V30 1351 O 129.367 1.95617 3.92002 0
M  V30 1352 C 130.868 0.225382 4.42727 0
M  V30 1353 H 128.088 0.186636 0.644521 0
M  V30 1354 H 130.632 1.15446 1.68797 0
M  V30 1355 H 128.787 -0.0237719 3.87393 0
M  V30 1356 H 129.201 1.95455 4.86721 0
M  V30 1357 H 130.675 0.368813 5.50767 0
M  V30 1358 H 131.152 -0.834369 4.31202 0
M  V30 1359 H 131.758 0.831864 4.17085 0
M  V30 1360 N 130.073 -1.45103 0.615059 0
M  V30 1361 C 131.301 -2.06553 0.11977 0
M  V30 1362 C 131.716 -1.45842 -1.19898 0
M  V30 1363 O 131.073 -0.575325 -1.73194 0
M  V30 1364 C 131.124 -3.61495 -0.018364 0
M  V30 1365 O 130.845 -4.19942 1.24822 0
M  V30 1366 C 132.346 -4.39947 -0.544237 0
M  V30 1367 H 129.566 -0.667096 0.0722739 0
M  V30 1368 H 132.11 -1.8623 0.84491 0
M  V30 1369 H 130.265 -3.81135 -0.693865 0
M  V30 1370 H 130.679 -5.13204 1.0827 0
M  V30 1371 H 132.153 -5.48838 -0.589953 0
M  V30 1372 H 132.63 -4.10255 -1.56805 0
M  V30 1373 H 133.236 -4.25188 0.0974703 0
M  V30 1374 N 131.551 -0.354651 -1.53558 0
M  V30 1375 C 132.781 0.239167 -2.05211 0
M  V30 1376 C 133.189 1.43879 -1.22863 0
M  V30 1377 O 132.532 1.81857 -0.259565 0
M  V30 1378 C 132.594 0.707251 -3.52474 0
M  V30 1379 C 132.258 -0.374212 -4.55465 0
M  V30 1380 C 133.255 -1.22054 -5.0537 0
M  V30 1381 C 130.94 -0.531323 -4.99482 0
M  V30 1382 C 132.934 -2.20942 -5.97882 0
M  V30 1383 C 130.621 -1.52358 -5.91802 0
M  V30 1384 C 131.619 -2.36108 -6.40892 0
M  V30 1385 O 131.307 -3.33643 -7.31394 0
M  V30 1386 H 131.039 0.0479716 -0.674296 0
M  V30 1387 H 133.593 -0.508121 -1.99016 0
M  V30 1388 H 131.823 1.50596 -3.56171 0
M  V30 1389 H 133.512 1.22285 -3.87042 0
M  V30 1390 H 134.278 -1.1103 -4.7212 0
M  V30 1391 H 130.157 0.110738 -4.60867 0
M  V30 1392 H 133.701 -2.86348 -6.36121 0
M  V30 1393 H 129.598 -1.63434 -6.24467 0
M  V30 1394 H 130.366 -3.29244 -7.4936 0
M  V30 1395 N 133.029 1.57378 -0.0835403 0
M  V30 1396 C 134.306 1.85363 0.624507 0
M  V30 1397 C 134.686 0.978239 1.87066 0
M  V30 1398 O 134.034 0.0475908 2.2845 0
M  V30 1399 C 134.244 3.35795 0.950947 0
M  V30 1400 C 135.592 4.03581 1.31939 0
M  V30 1401 O 136.616 3.40609 1.04232 0
M  V30 1402 O 135.475 5.14672 1.83779 0
M  V30 1403 H 132.569 0.766162 0.311329 0
M  V30 1404 H 135.115 1.69307 -0.115362 0
M  V30 1405 H 133.887 3.91244 0.0663899 0
M  V30 1406 H 133.51 3.57154 1.74719 0
M  V30 1407 N 134.507 -0.190092 1.56449 0
M  V30 1408 C 135.918 -0.754312 1.70784 0
M  V30 1409 C 136.269 -1.83631 0.690951 0
M  V30 1410 O 135.394 -2.15868 -0.151604 0
M  V30 1411 C 135.989 -1.37503 3.09642 0
M  V30 1412 C 134.548 -1.88628 3.25725 0
M  V30 1413 C 133.695 -0.758098 2.66736 0
M  V30 1414 H 136.646 0.0350524 1.58661 0
M  V30 1415 H 136.667 -2.2445 3.0725 0
M  V30 1416 H 136.179 -0.587302 3.83631 0
M  V30 1417 H 134.28 -2.70103 2.56661 0
M  V30 1418 H 134.393 -2.04462 4.3328 0
M  V30 1419 H 132.757 -1.17369 2.26046 0
M  V30 1420 H 133.54 0.0174705 3.43296 0
M  V30 1421 N 135.985 -1.50799 -0.457987 0
M  V30 1422 C 137.262 -1.52968 -1.21902 0
M  V30 1423 C 137.642 -0.281906 -2.09209 0
M  V30 1424 O 136.99 0.734076 -2.16388 0
M  V30 1425 C 137.2 -2.8326 -2.03875 0
M  V30 1426 C 138.548 -3.34425 -2.6162 0
M  V30 1427 O 139.572 -2.8467 -2.14106 0
M  V30 1428 O 138.431 -4.21188 -3.48228 0
M  V30 1429 H 135.525 -0.614129 -0.553873 0
M  V30 1430 H 138.071 -1.63098 -0.468739 0
M  V30 1431 H 136.843 -3.65543 -1.39621 0
M  V30 1432 H 136.466 -2.76195 -2.8601 0
M  V30 1433 N 137.463 0.71206 -1.40597 0
M  V30 1434 C 138.879 1.02058 -1.22704 0
M  V30 1435 C 139.079 2.01228 -0.104729 0
M  V30 1436 O 138.135 2.4674 0.53624 0
M  V30 1437 C 139.448 1.56094 -2.57012 0
M  V30 1438 C 140.996 1.6806 -2.64054 0
M  V30 1439 C 141.471 2.25501 -3.9864 0
M  V30 1440 N 142.962 2.32882 -4.004 0
M  V30 1441 C 143.697 2.78317 -5.01325 0
M  V30 1442 N 143.193 3.23478 -6.12645 0
M  V30 1443 N 144.986 2.77733 -4.88693 0
M  V30 1444 H 137.137 0.0547896 -2.12329 0
M  V30 1445 H 139.4 0.0869027 -0.944008 0
M  V30 1446 H 139.106 0.906865 -3.39807 0
M  V30 1447 H 138.98 2.54564 -2.78347 0
M  V30 1448 H 141.367 2.32583 -1.81629 0
M  V30 1449 H 141.448 0.681802 -2.46546 0
M  V30 1450 H 141.092 1.61598 -4.81506 0
M  V30 1451 H 141.022 3.26102 -4.13479 0
M  V30 1452 H 143.513 2.00991 -3.20017 0
M  V30 1453 H 143.826 3.56725 -6.85542 0
M  V30 1454 H 142.171 3.21429 -6.16205 0
M  V30 1455 H 145.362 2.4179 -4.00818 0
M  V30 1456 H 145.535 3.12826 -5.67489 0
M  V30 1457 N 138.941 1.26152 0.944643 0
M  V30 1458 C 139.871 1.09902 2.06019 0
M  V30 1459 C 140.852 0.00519538 1.70099 0
M  V30 1460 O 142.037 0.176583 1.93396 0
M  V30 1461 C 139.167 0.727562 3.39594 0
M  V30 1462 C 138.121 1.77274 3.89561 0
M  V30 1463 C 137.447 1.25569 5.19747 0
M  V30 1464 C 138.747 3.17357 4.14827 0
M  V30 1465 H 140.441 2.03217 2.19871 0
M  V30 1466 H 137.987 0.978452 1.05652 0
M  V30 1467 H 139.94 0.600777 4.17095 0
M  V30 1468 H 138.664 -0.241287 3.25707 0
M  V30 1469 H 137.323 1.88814 3.14237 0
M  V30 1470 H 136.971 0.276783 5.02238 0
M  V30 1471 H 136.671 1.95433 5.54148 0
M  V30 1472 H 138.195 1.1415 5.99835 0
M  V30 1473 H 139.609 3.08914 4.82954 0
M  V30 1474 H 138.006 3.84781 4.60504 0
M  V30 1475 H 139.076 3.63673 3.20734 0
M  V30 1476 N 140.419 -1.14872 1.07899 0
M  V30 1477 C 141.366 -2.19791 0.704319 0
M  V30 1478 C 142.336 -1.63238 -0.306987 0
M  V30 1479 O 143.521 -1.8983 -0.192171 0
M  V30 1480 C 140.661 -3.44911 0.114244 0
M  V30 1481 C 139.774 -4.15637 1.1777 0
M  V30 1482 C 138.909 -5.28324 0.552037 0
M  V30 1483 C 137.948 -5.90875 1.59789 0
M  V30 1484 N 137.085 -6.95022 0.994404 0
M  V30 1485 H 141.925 -2.5119 1.60336 0
M  V30 1486 H 139.462 -1.23356 0.801352 0
M  V30 1487 H 141.42 -4.16477 -0.245544 0
M  V30 1488 H 140.05 -3.14011 -0.74813 0
M  V30 1489 H 139.102 -3.42512 1.65499 0
M  V30 1490 H 140.414 -4.5823 1.97046 0
M  V30 1491 H 139.568 -6.06538 0.1402 0
M  V30 1492 H 138.307 -4.86939 -0.272431 0
M  V30 1493 H 137.312 -5.11369 2.01945 0
M  V30 1494 H 138.537 -6.34337 2.42474 0
M  V30 1495 H 136.483 -6.55722 0.190939 0
M  V30 1496 H 136.4 -7.36073 1.72432 0
M  V30 1497 H 137.668 -7.77123 0.608253 0
M  V30 1498 N 141.898 -0.863906 -1.31812 0
M  V30 1499 C 143.314 -0.555004 -1.49639 0
M  V30 1500 C 143.514 0.912266 -1.79666 0
M  V30 1501 O 142.57 1.69479 -1.87171 0
M  V30 1502 C 143.883 -1.44998 -2.63431 0
M  V30 1503 C 145.431 -1.45138 -2.77316 0
M  V30 1504 C 145.906 -2.33179 -3.94197 0
M  V30 1505 N 147.397 -2.31025 -4.01474 0
M  V30 1506 C 148.132 -2.95871 -4.9117 0
M  V30 1507 N 147.628 -3.69863 -5.8581 0
M  V30 1508 N 149.421 -2.85211 -4.84367 0
M  V30 1509 H 141.572 -1.81339 -1.10589 0
M  V30 1510 H 143.835 -0.77505 -0.545895 0
M  V30 1511 H 143.541 -2.49377 -2.48 0
M  V30 1512 H 143.415 -1.14409 -3.59431 0
M  V30 1513 H 145.802 -0.415201 -2.92164 0
M  V30 1514 H 145.883 -1.79747 -1.82001 0
M  V30 1515 H 145.527 -3.3687 -3.80107 0
M  V30 1516 H 145.457 -1.95897 -4.88807 0
M  V30 1517 H 147.948 -1.77238 -3.33759 0
M  V30 1518 H 148.261 -4.16486 -6.50968 0
M  V30 1519 H 146.606 -3.73971 -5.85808 0
M  V30 1520 H 149.797 -2.26948 -4.09405 0
M  V30 1521 H 149.97 -3.36027 -5.54066 0
M  V30 1522 N 143.376 1.44774 -0.622745 0
M  V30 1523 C 144.787 1.85546 -0.207226 0
M  V30 1524 C 145.138 1.52093 1.23944 0
M  V30 1525 O 144.263 0.95492 1.94191 0
M  V30 1526 C 144.858 3.36781 -0.369313 0
M  V30 1527 C 143.417 3.76399 -0.00836847 0
M  V30 1528 C 142.564 2.68664 -0.686651 0
M  V30 1529 H 145.515 1.3536 -0.828454 0
M  V30 1530 H 145.536 3.78453 0.394162 0
M  V30 1531 H 145.048 3.61098 -1.42231 0
M  V30 1532 H 143.149 3.57698 1.04322 0
M  V30 1533 H 143.262 4.7732 -0.412584 0
M  V30 1534 H 141.626 2.54404 -0.122777 0
M  V30 1535 H 142.409 2.95815 -1.74208 0
M  V30 1536 N 144.854 0.36279 1.53368 0
M  V30 1537 C 145.784 -0.476976 2.28576 0
M  V30 1538 C 146.765 -1.08631 1.30894 0
M  V30 1539 O 147.95 -1.10409 1.59761 0
M  V30 1540 C 145.08 -1.61828 3.07293 0
M  V30 1541 C 144.034 -1.13633 4.1264 0
M  V30 1542 C 143.36 -2.36766 4.79423 0
M  V30 1543 C 144.66 -0.223061 5.21823 0
M  V30 1544 H 146.354 0.150474 2.99022 0
M  V30 1545 H 143.9 0.0738103 1.43811 0
M  V30 1546 H 145.853 -2.21237 3.58653 0
M  V30 1547 H 144.577 -2.27292 2.34533 0
M  V30 1548 H 143.236 -0.564945 3.62221 0
M  V30 1549 H 142.884 -3.0068 4.03238 0
M  V30 1550 H 142.584 -2.05192 5.50609 0
M  V30 1551 H 144.108 -2.96865 5.33576 0
M  V30 1552 H 145.522 -0.724545 5.68703 0
M  V30 1553 H 143.919 0.001678 6.001 0
M  V30 1554 H 144.989 0.735553 4.79289 0
M  V30 1555 N 146.332 -1.57332 0.0918853 0
M  V30 1556 C 147.581 -1.93412 -0.572249 0
M  V30 1557 C 147.894 -0.975515 -1.69538 0
M  V30 1558 O 149.1 -1.22991 -2.42045 0
M  V30 1559 C 147.556 -3.43648 -1.0693 0
M  V30 1560 C 147.164 -4.47994 0.0239049 0
M  V30 1561 C 148.908 -3.88695 -1.70635 0
M  V30 1562 C 146.815 -5.89381 -0.488319 0
M  V30 1563 H 145.745 -0.721939 -0.217532 0
M  V30 1564 H 148.396 -1.82735 0.167369 0
M  V30 1565 H 146.778 -3.49466 -1.8625 0
M  V30 1566 H 147.952 -4.53815 0.799277 0
M  V30 1567 H 146.267 -4.12536 0.565946 0
M  V30 1568 H 148.864 -4.91725 -2.10025 0
M  V30 1569 H 149.207 -3.27166 -2.57426 0
M  V30 1570 H 149.74 -3.85564 -0.979023 0
M  V30 1571 H 146.479 -6.54602 0.342906 0
M  V30 1572 H 145.999 -5.87037 -1.23077 0
M  V30 1573 H 147.678 -6.39863 -0.958317 0
M  V30 1574 N 147.81 0.181792 -1.56548 0
M  V30 1575 C 149.226 0.53316 -1.50431 0
M  V30 1576 C 149.426 1.85184 -0.794297 0
M  V30 1577 O 148.482 2.50058 -0.350318 0
M  V30 1578 C 149.795 0.575597 -2.9514 0
M  V30 1579 C 151.343 0.663519 -3.05886 0
M  V30 1580 C 151.818 0.736946 -4.52032 0
M  V30 1581 N 153.309 0.800118 -4.56237 0
M  V30 1582 C 154.044 0.877327 -5.66649 0
M  V30 1583 N 153.54 0.916016 -6.86718 0
M  V30 1584 N 155.333 0.915542 -5.54594 0
M  V30 1585 H 147.484 -0.683025 -2.01118 0
M  V30 1586 H 149.747 -0.244988 -0.915797 0
M  V30 1587 H 149.453 -0.324482 -3.502 0
M  V30 1588 H 149.327 1.42572 -3.49218 0
M  V30 1589 H 151.714 1.55403 -2.50867 0
M  V30 1590 H 151.795 -0.21307 -2.54911 0
M  V30 1591 H 151.439 -0.149262 -5.07681 0
M  V30 1592 H 151.369 1.62953 -5.00753 0
M  V30 1593 H 153.86 0.778926 -3.69785 0
M  V30 1594 H 154.173 0.975813 -7.66614 0
M  V30 1595 H 152.518 0.884469 -6.89349 0
M  V30 1596 H 155.709 0.882245 -4.59711 0
M  V30 1597 H 155.882 0.972253 -6.40665 0
M  V30 1598 N 149.288 1.51039 0.449983 0
M  V30 1599 C 150.534 1.63322 1.20223 0
M  V30 1600 C 150.867 0.34241 1.91158 0
M  V30 1601 O 150.142 -0.657344 1.83055 0
M  V30 1602 C 150.425 2.82801 2.22925 0
M  V30 1603 C 150.278 4.21823 1.56157 0
M  V30 1604 C 151.597 2.97807 3.24035 0
M  V30 1605 H 148.716 0.594407 0.435718 0
M  V30 1606 H 151.358 1.83489 0.493136 0
M  V30 1607 H 149.508 2.65738 2.834 0
M  V30 1608 H 151.18 4.50526 0.991162 0
M  V30 1609 H 149.423 4.25105 0.864172 0
M  V30 1610 H 150.094 5.01391 2.30891 0
M  V30 1611 H 152.57 3.13497 2.73603 0
M  V30 1612 H 151.446 3.82992 3.93202 0
M  V30 1613 H 151.707 2.09328 3.89402 0
M  V30 1614 N 150.766 -0.704594 1.40972 0
M  V30 1615 C 151.676 -1.84856 1.44448 0
M  V30 1616 C 152.692 -1.70726 0.335961 0
M  V30 1617 O 153.868 -1.92799 0.582276 0
M  V30 1618 C 150.933 -3.20758 1.31587 0
M  V30 1619 C 149.994 -3.47063 2.52677 0
M  V30 1620 C 149.227 -4.76481 2.4042 0
M  V30 1621 O 149.45 -5.52341 1.42391 0
M  V30 1622 O 148.384 -5.03367 3.30007 0
M  V30 1623 H 152.21 -1.8488 2.40942 0
M  V30 1624 H 149.795 -0.85647 1.22413 0
M  V30 1625 H 151.677 -4.01913 1.26665 0
M  V30 1626 H 150.352 -3.21438 0.382049 0
M  V30 1627 H 149.259 -2.65873 2.63177 0
M  V30 1628 H 150.592 -3.5119 3.44858 0
M  V30 1629 N 152.244 -1.26651 -0.937939 0
M  V30 1630 C 153.492 -1.12165 -1.68118 0
M  V30 1631 C 153.813 0.334983 -1.92101 0
M  V30 1632 O 153.083 1.23583 -1.52 0
M  V30 1633 H 151.663 -0.412093 -0.623048 0
M  V30 1634 H 154.325 -1.59027 -1.12678 0
M  V30 1635 H 153.421 -1.64289 -2.6536 0
M  V30 1636 N 153.722 1.14298 -1.08507 0
M  V30 1637 C 154.947 1.8976 -0.837001 0
M  V30 1638 C 155.372 1.78097 0.605228 0
M  V30 1639 O 154.73 1.12188 1.4242 0
M  V30 1640 C 154.778 3.37685 -1.26495 0
M  V30 1641 O 153.882 4.10281 -0.417514 0
M  V30 1642 H 153.223 0.590365 -0.303917 0
M  V30 1643 H 155.753 1.44672 -1.44676 0
M  V30 1644 H 155.763 3.88501 -1.24625 0
M  V30 1645 H 154.438 3.45492 -2.31534 0
M  V30 1646 H 153.015 3.69536 -0.499722 0
M  V30 1647 N 155.201 0.870884 1.31352 0
M  V30 1648 C 156.133 0.28455 2.27427 0
M  V30 1649 C 157.146 -0.552927 1.53123 0
M  V30 1650 O 158.335 -0.374771 1.74521 0
M  V30 1651 C 155.435 -0.615164 3.3327 0
M  V30 1652 C 154.608 0.190079 4.36987 0
M  V30 1653 C 153.667 -0.637917 5.22319 0
M  V30 1654 O 152.693 -0.065626 5.69162 0
M  V30 1655 N 153.895 -1.94973 5.46778 0
M  V30 1656 H 156.66 1.11017 2.7838 0
M  V30 1657 H 154.221 0.732458 1.44384 0
M  V30 1658 H 156.213 -1.1748 3.87273 0
M  V30 1659 H 154.783 -1.34146 2.82354 0
M  V30 1660 H 154.003 0.931165 3.83044 0
M  V30 1661 H 155.291 0.742579 5.03352 0
M  V30 1662 H 154.689 -2.4378 5.10478 0
M  V30 1663 H 153.246 -2.45713 6.03712 0
M  V30 1664 N 156.679 -1.44442 0.630414 0
M  V30 1665 C 158.095 -1.56832 0.295973 0
M  V30 1666 C 158.295 -1.61806 -1.20088 0
M  V30 1667 O 157.351 -1.5607 -1.9849 0
M  V30 1668 C 158.664 -2.84031 0.987264 0
M  V30 1669 C 160.212 -2.97742 0.96534 0
M  V30 1670 C 160.687 -4.27743 1.63708 0
M  V30 1671 N 162.178 -4.34555 1.60364 0
M  V30 1672 C 162.913 -5.33862 2.09234 0
M  V30 1673 N 162.409 -6.39578 2.66292 0
M  V30 1674 N 164.202 -5.25366 1.99867 0
M  V30 1675 H 156.353 -1.39457 1.60205 0
M  V30 1676 H 158.616 -0.668237 0.672431 0
M  V30 1677 H 158.322 -2.86338 2.04215 0
M  V30 1678 H 158.196 -3.73534 0.524588 0
M  V30 1679 H 160.583 -2.94989 -0.0810639 0
M  V30 1680 H 160.664 -2.09589 1.4665 0
M  V30 1681 H 160.308 -4.31255 2.68293 0
M  V30 1682 H 160.238 -5.14752 1.11076 0
M  V30 1683 H 162.729 -3.58772 1.18705 0
M  V30 1684 H 163.042 -7.11637 3.01317 0
M  V30 1685 H 161.387 -6.40265 2.70343 0
M  V30 1686 H 164.578 -4.41688 1.55013 0
M  V30 1687 H 164.751 -6.02606 2.38265 0
M  V30 1688 N 158.157 -0.370918 -1.53173 0
M  V30 1689 C 159.405 0.216673 -2.00935 0
M  V30 1690 C 159.726 1.48845 -1.25977 0
M  V30 1691 O 158.996 1.92286 -0.374551 0
M  V30 1692 H 157.576 0.0830565 -0.742368 0
M  V30 1693 H 160.238 -0.49838 -1.8842 0
M  V30 1694 H 159.334 0.439893 -3.08984 0
M  V30 1695 N 159.635 1.57281 -0.100228 0
M  V30 1696 C 160.545 2.17833 0.870965 0
M  V30 1697 C 161.561 1.14921 1.30649 0
M  V30 1698 O 162.737 1.47313 1.37335 0
M  V30 1699 C 159.802 2.75085 2.1102 0
M  V30 1700 C 158.863 3.9297 1.72838 0
M  V30 1701 C 158.096 4.47482 2.90854 0
M  V30 1702 O 158.319 4.00922 4.05731 0
M  V30 1703 O 157.253 5.38433 2.69023 0
M  V30 1704 H 161.079 3.0124 0.38575 0
M  V30 1705 H 158.664 1.48881 0.124397 0
M  V30 1706 H 160.546 3.11656 2.83634 0
M  V30 1707 H 159.221 1.94721 2.58584 0
M  V30 1708 H 158.128 3.61201 0.973883 0
M  V30 1709 H 159.461 4.74713 1.30033 0
M  V30 1710 N 161.113 -0.173488 1.56642 0
M  V30 1711 C 162.361 -0.888706 1.81512 0
M  V30 1712 C 162.682 -1.82875 0.676872 0
M  V30 1713 O 161.952 -1.93536 -0.303414 0
M  V30 1714 H 160.532 -0.331164 0.669582 0
M  V30 1715 H 163.194 -0.173823 1.94123 0
M  V30 1716 H 162.29 -1.46691 2.75478 0
M  V30 1717 N 162.591 -1.51276 -0.441967 0
M  V30 1718 C 163.538 -1.72256 -1.53612 0
M  V30 1719 C 164.508 -0.564164 -1.56225 0
M  V30 1720 O 165.693 -0.798074 -1.73307 0
M  V30 1721 C 162.833 -1.84932 -2.91366 0
M  V30 1722 C 161.946 -3.12459 -2.98317 0
M  V30 1723 C 161.081 -3.15758 -4.27166 0
M  V30 1724 C 160.12 -4.37619 -4.27967 0
M  V30 1725 N 159.257 -4.38493 -5.48333 0
M  V30 1726 H 164.097 -2.65654 -1.35026 0
M  V30 1727 H 161.634 -1.31662 -0.656009 0
M  V30 1728 H 163.592 -1.90263 -3.7129 0
M  V30 1729 H 162.222 -0.949461 -3.08521 0
M  V30 1730 H 161.274 -3.1646 -2.11086 0
M  V30 1731 H 162.586 -4.02382 -2.94771 0
M  V30 1732 H 161.74 -3.19979 -5.15459 0
M  V30 1733 H 160.479 -2.23715 -4.33362 0
M  V30 1734 H 159.484 -4.33579 -3.38067 0
M  V30 1735 H 160.709 -5.30921 -4.23438 0
M  V30 1736 H 158.655 -3.49318 -5.55259 0
M  V30 1737 H 158.572 -5.22219 -5.46647 0
M  V30 1738 H 159.84 -4.469 -6.38671 0
M  V30 1739 N 164.069 0.697108 -1.41344 0
M  V30 1740 C 165.299 1.48377 -1.43763 0
M  V30 1741 C 165.707 1.89156 -0.0408726 0
M  V30 1742 O 165.05 1.57239 0.949812 0
M  V30 1743 C 165.112 2.7781 -2.2817 0
M  V30 1744 C 164.776 2.59244 -3.76353 0
M  V30 1745 C 165.773 2.25292 -4.68551 0
M  V30 1746 C 163.458 2.74933 -4.20378 0
M  V30 1747 C 165.452 2.07264 -6.02761 0
M  V30 1748 C 163.139 2.56521 -5.54653 0
M  V30 1749 C 164.137 2.22737 -6.4566 0
M  V30 1750 O 163.825 2.04485 -7.77458 0
M  V30 1751 H 163.557 0.463842 -0.491759 0
M  V30 1752 H 166.111 0.865934 -1.86255 0
M  V30 1753 H 164.341 3.41995 -1.8049 0
M  V30 1754 H 166.03 3.39608 -2.22309 0
M  V30 1755 H 166.796 2.12787 -4.35829 0
M  V30 1756 H 162.675 3.00213 -3.49848 0
M  V30 1757 H 166.219 1.80817 -6.73759 0
M  V30 1758 H 162.116 2.68616 -5.86955 0
M  V30 1759 H 162.884 2.1926 -7.88586 0
M  V30 1760 N 165.547 1.27147 0.931209 0
M  V30 1761 C 166.963 1.04475 1.20653 0
M  V30 1762 C 167.163 -0.223885 2.00252 0
M  V30 1763 O 166.219 -0.930332 2.34736 0
M  V30 1764 C 167.532 2.28209 1.95809 0
M  V30 1765 C 169.08 2.33211 2.08762 0
M  V30 1766 C 169.555 3.56665 2.87323 0
M  V30 1767 N 171.046 3.57201 2.94892 0
M  V30 1768 C 171.781 4.49395 3.56134 0
M  V30 1769 N 171.277 5.51889 4.18796 0
M  V30 1770 N 173.07 4.37026 3.53504 0
M  V30 1771 H 165.221 2.08612 0.399333 0
M  V30 1772 H 167.484 0.917312 0.239253 0
M  V30 1773 H 167.19 3.20538 1.44736 0
M  V30 1774 H 167.064 2.33247 2.96438 0
M  V30 1775 H 169.451 1.41391 2.59023 0
M  V30 1776 H 169.532 2.32178 1.07364 0
M  V30 1777 H 169.176 4.4882 2.37746 0
M  V30 1778 H 169.106 3.54948 3.88998 0
M  V30 1779 H 171.597 2.83074 2.50354 0
M  V30 1780 H 171.91 6.18409 4.63454 0
M  V30 1781 H 170.255 5.55735 4.17353 0
M  V30 1782 H 173.446 3.56166 3.03749 0
M  V30 1783 H 173.619 5.09067 4.00942 0
M  V30 1784 N 167.025 -1.13721 1.09112 0
M  V30 1785 C 168.271 -1.85198 0.826414 0
M  V30 1786 C 168.604 -1.83129 -0.646319 0
M  V30 1787 O 167.879 -1.2671 -1.47563 0
M  V30 1788 C 168.162 -3.33507 1.35812 0
M  V30 1789 C 168.015 -3.44108 2.89672 0
M  V30 1790 C 169.334 -4.28838 0.989256 0
M  V30 1791 H 166.453 -0.67243 0.301675 0
M  V30 1792 H 169.095 -1.33499 1.35197 0
M  V30 1793 H 167.245 -3.77666 0.911082 0
M  V30 1794 H 168.917 -3.08684 3.428 0
M  V30 1795 H 167.16 -2.85087 3.26967 0
M  V30 1796 H 167.831 -4.48388 3.21951 0
M  V30 1797 H 170.307 -3.92734 1.37475 0
M  V30 1798 H 169.183 -5.31051 1.38838 0
M  V30 1799 H 169.444 -4.4198 -0.102924 0
M  V30 1800 N 168.503 -0.877838 -1.30888 0
M  V30 1801 C 169.466 -0.344265 -2.266 0
M  V30 1802 C 170.466 0.50922 -1.52524 0
M  V30 1803 O 171.656 0.317398 -1.71284 0
M  V30 1804 C 168.788 0.510198 -3.37061 0
M  V30 1805 H 169.981 -1.1893 -2.7531 0
M  V30 1806 H 167.534 -0.654088 -1.41956 0
M  V30 1807 H 168.269 1.37612 -2.93655 0
M  V30 1808 H 168.054 -0.101047 -3.9197 0
M  V30 1809 H 169.544 0.875537 -4.08319 0
M  V30 1810 N 169.982 1.44106 -0.638065 0
M  V30 1811 C 171.21 2.06336 -0.152615 0
M  V30 1812 C 171.625 1.47731 1.17563 0
M  V30 1813 O 170.982 0.602806 1.72257 0
M  V30 1814 C 171.033 3.61479 -0.0391491 0
M  V30 1815 O 170.754 4.17903 -1.31487 0
M  V30 1816 C 172.255 4.40757 0.474176 0
M  V30 1817 H 169.475 0.665862 -0.0828776 0
M  V30 1818 H 172.019 1.84862 -0.87443 0
M  V30 1819 H 170.174 3.82191 0.633142 0
M  V30 1820 H 170.588 5.11416 -1.16421 0
M  V30 1821 H 172.062 5.49707 0.502562 0
M  V30 1822 H 172.539 4.12697 1.50258 0
M  V30 1823 H 173.145 4.24979 -0.165102 0
M  V30 1824 N 171.46 0.379036 1.52974 0
M  V30 1825 C 172.706 -0.199244 2.02422 0
M  V30 1826 C 173.061 -1.4532 1.26095 0
M  V30 1827 O 172.354 -1.88377 0.34996 0
M  V30 1828 C 172.548 -0.53096 3.53434 0
M  V30 1829 C 172.377 0.689298 4.44386 0
M  V30 1830 C 171.147 1.20546 4.9071 0
M  V30 1831 C 173.345 1.55856 4.90116 0
M  V30 1832 N 171.327 2.38434 5.65705 0
M  V30 1833 C 172.698 2.58396 5.63588 0
M  V30 1834 C 174.753 1.57986 4.7217 0
M  V30 1835 C 173.456 3.62939 6.21022 0
M  V30 1836 C 175.482 2.6143 5.30479 0
M  V30 1837 C 174.844 3.62693 6.03849 0
M  V30 1838 H 170.943 -0.0352671 0.781204 0
M  V30 1839 H 173.527 0.526614 1.87443 0
M  V30 1840 H 171.698 -1.22588 3.68547 0
M  V30 1841 H 173.43 -1.0955 3.89591 0
M  V30 1842 H 170.185 0.768022 4.67331 0
M  V30 1843 H 170.609 2.98055 6.07859 0
M  V30 1844 H 175.251 0.810475 4.14959 0
M  V30 1845 H 172.969 4.40751 6.77321 0
M  V30 1846 H 176.555 2.63949 5.18481 0
M  V30 1847 H 175.435 4.41424 6.48163 0
M  V30 1848 N 172.938 -1.57226 0.108567 0
M  V30 1849 C 173.848 -2.18292 -0.859401 0
M  V30 1850 C 174.864 -1.15612 -1.30038 0
M  V30 1851 O 176.04 -1.48039 -1.36552 0
M  V30 1852 C 173.105 -2.762 -2.09558 0
M  V30 1853 C 172.166 -3.93881 -1.70752 0
M  V30 1854 C 171.399 -4.49018 -2.88477 0
M  V30 1855 O 171.622 -4.03068 -4.036 0
M  V30 1856 O 170.556 -5.39852 -2.66164 0
M  V30 1857 H 174.382 -3.01441 -0.369769 0
M  V30 1858 H 171.967 -1.48945 -0.1165 0
M  V30 1859 H 173.849 -3.13156 -2.81978 0
M  V30 1860 H 172.524 -1.96089 -2.57548 0
M  V30 1861 H 171.431 -3.61713 -0.954714 0
M  V30 1862 H 172.764 -4.75396 -1.27513 0
M  V30 1863 N 174.416 0.165178 -1.56732 0
M  V30 1864 C 175.326 1.22423 -2.00125 0
M  V30 1865 C 176.342 1.48084 -0.913619 0
M  V30 1866 O 177.518 1.60112 -1.22172 0
M  V30 1867 C 174.583 2.54197 -2.35764 0
M  V30 1868 C 173.644 2.36343 -3.58386 0
M  V30 1869 C 172.877 3.61834 -3.92316 0
M  V30 1870 O 173.1 4.67267 -3.27135 0
M  V30 1871 O 172.034 3.55579 -4.85641 0
M  V30 1872 H 175.86 0.885886 -2.90492 0
M  V30 1873 H 173.445 0.372518 -1.44681 0
M  V30 1874 H 175.327 3.3192 -2.59629 0
M  V30 1875 H 174.002 2.87598 -1.48557 0
M  V30 1876 H 172.909 1.56632 -3.39731 0
M  V30 1877 H 174.242 2.07865 -4.46154 0
M  V30 1878 N 175.894 1.51508 0.433938 0
M  V30 1879 C 176.857 1.72473 1.50949 0
M  V30 1880 C 177.857 0.594725 1.49398 0
M  V30 1881 O 179.047 0.862315 1.5136 0
M  V30 1882 C 176.179 1.78431 2.90474 0
M  V30 1883 H 177.372 2.68467 1.33662 0
M  V30 1884 H 174.925 1.41549 0.662836 0
M  V30 1885 H 175.66 0.842645 3.13161 0
M  V30 1886 H 175.445 2.60558 2.93005 0
M  V30 1887 H 176.935 1.96479 3.68491 0
M  V30 1888 N 177.372 -0.689602 1.41712 0
M  V30 1889 C 178.302 -1.81577 1.46806 0
M  V30 1890 C 179.283 -1.66945 0.326105 0
M  V30 1891 O 180.468 -1.86588 0.538377 0
M  V30 1892 C 177.598 -3.19762 1.35535 0
M  V30 1893 C 176.552 -3.49107 2.47605 0
M  V30 1894 C 175.878 -4.86711 2.21397 0
M  V30 1895 C 177.178 -3.47483 3.89939 0
M  V30 1896 H 178.872 -1.7757 2.41058 0
M  V30 1897 H 176.418 -0.852887 1.16025 0
M  V30 1898 H 178.371 -3.98263 1.3771 0
M  V30 1899 H 177.095 -3.24409 0.377708 0
M  V30 1900 H 175.754 -2.72959 2.44722 0
M  V30 1901 H 175.402 -4.8799 1.21961 0
M  V30 1902 H 175.102 -5.0731 2.96497 0
M  V30 1903 H 176.626 -5.67515 2.25297 0
M  V30 1904 H 178.04 -4.1598 3.94505 0
M  V30 1905 H 176.437 -3.79615 4.64771 0
M  V30 1906 H 177.507 -2.46341 4.17665 0
M  V30 1907 N 178.85 -1.27639 -0.924453 0
M  V30 1908 C 180.127 -1.04887 -1.651 0
M  V30 1909 C 180.507 0.415327 -2.06974 0
M  V30 1910 O 179.855 1.39923 -1.80648 0
M  V30 1911 C 180.065 -2.01348 -2.85061 0
M  V30 1912 C 181.413 -2.30899 -3.56329 0
M  V30 1913 O 182.437 -1.99348 -2.95193 0
M  V30 1914 O 181.296 -2.84699 -4.66485 0
M  V30 1915 H 178.39 -0.400083 -0.723784 0
M  V30 1916 H 180.936 -1.38916 -0.974703 0
M  V30 1917 H 179.708 -3.0008 -2.51133 0
M  V30 1918 H 179.331 -1.679 -3.6041 0
M  V30 1919 N 180.328 1.1314 -1.09713 0
M  V30 1920 C 181.278 2.16709 -0.708593 0
M  V30 1921 C 182.262 1.58471 0.278523 0
M  V30 1922 O 183.454 1.76779 0.088427 0
M  V30 1923 C 180.583 3.43039 -0.133923 0
M  V30 1924 C 179.669 4.08277 -1.14763 0
M  V30 1925 N 180.06 4.48637 -2.33577 0
M  V30 1926 C 178.358 4.34954 -0.986446 0
M  V30 1927 C 179.059 4.9952 -2.98085 0
M  V30 1928 N 178.035 4.94561 -2.25632 0
M  V30 1929 H 181.837 2.45672 -1.61315 0
M  V30 1930 H 179.351 1.29967 -0.973775 0
M  V30 1931 H 181.348 4.16583 0.162465 0
M  V30 1932 H 180.008 3.15549 0.765447 0
M  V30 1933 H 181.019 4.41246 -2.7115 0
M  V30 1934 H 177.696 4.17258 -0.142008 0
M  V30 1935 H 179.086 5.40521 -3.99108 0
M  V30 1936 N 181.806 0.884767 1.30421 0
M  V30 1937 C 183.055 0.499164 1.95426 0
M  V30 1938 C 183.368 -0.95645 1.70621 0
M  V30 1939 O 184.574 -1.44889 2.29607 0
M  V30 1940 C 183.03 0.84177 3.49917 0
M  V30 1941 C 182.638 2.31514 3.83543 0
M  V30 1942 C 184.382 0.525355 4.21237 0
M  V30 1943 C 182.289 2.59939 5.31212 0
M  V30 1944 H 181.219 0.182944 0.73147 0
M  V30 1945 H 183.87 1.07971 1.48373 0
M  V30 1946 H 182.252 0.190311 3.95542 0
M  V30 1947 H 183.426 3.0109 3.48829 0
M  V30 1948 H 181.741 2.59907 3.25326 0
M  V30 1949 H 184.338 0.714762 5.29901 0
M  V30 1950 H 184.681 -0.535222 4.12845 0
M  V30 1951 H 185.214 1.134 3.81294 0
M  V30 1952 H 181.953 3.64736 5.44654 0
M  V30 1953 H 181.473 1.94972 5.67227 0
M  V30 1954 H 183.152 2.45429 5.98643 0
M  V30 1955 N 183.284 -1.43765 0.645699 0
M  V30 1956 C 184.247 -2.29163 -0.0409488 0
M  V30 1957 C 185.247 -1.41813 -0.757996 0
M  V30 1958 O 186.437 -1.63527 -0.600382 0
M  V30 1959 C 183.569 -3.23716 -1.06869 0
M  V30 1960 H 184.762 -2.91366 0.710345 0
M  V30 1961 H 182.315 -1.5092 0.406547 0
M  V30 1962 H 183.05 -2.66393 -1.84947 0
M  V30 1963 H 182.835 -3.88105 -0.558277 0
M  V30 1964 H 184.325 -3.87831 -1.54845 0
M  V30 1965 N 184.763 -0.387143 -1.52771 0
M  V30 1966 C 185.71 0.449048 -2.26389 0
M  V30 1967 C 186.68 1.05961 -1.27912 0
M  V30 1968 O 187.865 1.08804 -1.56737 0
M  V30 1969 C 185.005 1.57155 -3.0724 0
M  V30 1970 C 184.118 0.984066 -4.20643 0
M  V30 1971 C 183.253 2.07745 -4.88892 0
M  V30 1972 C 182.292 1.46574 -5.94292 0
M  V30 1973 N 181.429 2.49834 -6.56146 0
M  V30 1974 H 186.269 -0.185205 -2.97424 0
M  V30 1975 H 183.806 -0.103164 -1.46738 0
M  V30 1976 H 185.764 2.23309 -3.52405 0
M  V30 1977 H 184.394 2.17615 -2.38419 0
M  V30 1978 H 183.446 0.212193 -3.79808 0
M  V30 1979 H 184.758 0.497029 -4.96318 0
M  V30 1980 H 183.912 2.81673 -5.3735 0
M  V30 1981 H 182.651 2.59807 -4.12737 0
M  V30 1982 H 181.656 0.711696 -5.45174 0
M  V30 1983 H 182.881 0.953088 -6.72379 0
M  V30 1984 H 180.827 3.0107 -5.82832 0
M  V30 1985 H 180.744 2.05879 -7.27427 0
M  V30 1986 H 182.012 3.23399 -7.09249 0
M  V30 1987 N 186.241 1.57166 -0.116904 0
M  V30 1988 C 187.188 2.15202 0.83408 0
M  V30 1989 C 188.158 1.07644 1.26499 0
M  V30 1990 O 189.343 1.35541 1.34288 0
M  V30 1991 C 186.483 2.75405 2.07957 0
M  V30 1992 C 185.596 3.97264 1.69721 0
M  V30 1993 C 184.731 4.45561 2.89221 0
M  V30 1994 C 183.77 5.59956 2.47215 0
M  V30 1995 N 182.907 6.03006 3.59622 0
M  V30 1996 H 187.747 2.96141 0.332335 0
M  V30 1997 H 185.284 1.46309 0.152349 0
M  V30 1998 H 187.242 3.08439 2.80929 0
M  V30 1999 H 185.872 1.97159 2.55594 0
M  V30 2000 H 184.924 3.70404 0.866316 0
M  V30 2001 H 186.236 4.80226 1.34849 0
M  V30 2002 H 185.39 4.80493 3.7042 0
M  V30 2003 H 184.129 3.61544 3.27318 0
M  V30 2004 H 183.134 5.2463 1.64448 0
M  V30 2005 H 184.359 6.45738 2.10238 0
M  V30 2006 H 182.305 5.21931 3.97396 0
M  V30 2007 H 182.222 6.80819 3.28667 0
M  V30 2008 H 183.49 6.42576 4.41267 0
M  V30 2009 N 187.719 -0.156864 1.56817 0
M  V30 2010 C 188.652 -1.22316 1.9265 0
M  V30 2011 C 189.63 -1.42059 0.791076 0
M  V30 2012 O 190.814 -1.56831 1.04576 0
M  V30 2013 C 187.941 -2.58375 2.18998 0
M  V30 2014 C 186.987 -2.55284 3.41661 0
M  V30 2015 S 187.82 -2.02946 4.95553 0
M  V30 2016 C 188.976 -3.40753 5.25013 0
M  V30 2017 H 189.209 -0.917403 2.82791 0
M  V30 2018 H 186.742 -0.362059 1.50095 0
M  V30 2019 H 188.7 -3.36677 2.34859 0
M  V30 2020 H 187.361 -2.86145 1.29538 0
M  V30 2021 H 186.554 -3.55418 3.57343 0
M  V30 2022 H 186.156 -1.85086 3.24991 0
M  V30 2023 H 188.448 -4.36819 5.17876 0
M  V30 2024 H 189.391 -3.29933 6.26538 0
M  V30 2025 H 189.799 -3.37433 4.52548 0
M  V30 2026 N 189.197 -1.51736 -0.425897 0
M  V30 2027 C 190.127 -1.76827 -1.52494 0
M  V30 2028 C 191.108 -0.618524 -1.58456 0
M  V30 2029 O 192.293 -0.862416 -1.74 0
M  V30 2030 C 189.423 -1.90374 -2.90474 0
M  V30 2031 C 188.377 -3.0588 -2.99369 0
M  V30 2032 C 187.703 -3.04625 -4.3944 0
M  V30 2033 C 189.003 -4.45644 -2.72394 0
M  V30 2034 H 190.697 -2.68855 -1.31748 0
M  V30 2035 H 188.243 -1.29372 -0.632362 0
M  V30 2036 H 190.196 -2.0651 -3.6733 0
M  V30 2037 H 188.92 -0.95004 -3.12477 0
M  V30 2038 H 187.579 -2.89467 -2.24954 0
M  V30 2039 H 187.227 -2.0701 -4.58428 0
M  V30 2040 H 186.927 -3.82195 -4.46319 0
M  V30 2041 H 188.451 -3.22869 -5.18255 0
M  V30 2042 H 189.865 -4.62348 -3.38979 0
M  V30 2043 H 188.262 -5.25006 -2.9067 0
M  V30 2044 H 189.332 -4.54893 -1.67929 0
M  V30 2045 N 190.675 0.682077 -1.42076 0
M  V30 2046 C 191.585 1.82535 -1.47371 0
M  V30 2047 C 192.601 1.7017 -0.363079 0
M  V30 2048 O 193.777 1.91848 -0.612875 0
M  V30 2049 C 190.842 3.18624 -1.36674 0
M  V30 2050 C 189.903 3.42999 -2.58167 0
M  V30 2051 C 189.136 4.72595 -2.4797 0
M  V30 2052 O 189.359 5.50006 -1.5116 0
M  V30 2053 O 188.293 4.98054 -3.37974 0
M  V30 2054 H 192.119 1.81023 -2.43853 0
M  V30 2055 H 189.704 0.836887 -1.2376 0
M  V30 2056 H 191.586 3.99847 -1.33043 0
M  V30 2057 H 190.261 3.20789 -0.433138 0
M  V30 2058 H 189.168 2.61653 -2.67373 0
M  V30 2059 H 190.501 3.45659 -3.50401 0
M  V30 2060 N 192.153 1.28127 0.917671 0
M  V30 2061 C 193.402 1.14432 1.66097 0
M  V30 2062 C 193.715 -0.307247 1.93172 0
M  V30 2063 O 194.921 -0.565259 2.65551 0
M  V30 2064 C 193.377 2.00015 2.99202 0
M  V30 2065 C 192.985 3.49889 2.79789 0
M  V30 2066 C 194.729 1.94996 3.77064 0
M  V30 2067 C 192.636 4.27636 4.08511 0
M  V30 2068 H 191.566 0.424662 0.62304 0
M  V30 2069 H 194.217 1.52628 1.01868 0
M  V30 2070 H 192.599 1.54672 3.64544 0
M  V30 2071 H 193.773 4.03162 2.23152 0
M  V30 2072 H 192.088 3.56392 2.15345 0
M  V30 2073 H 194.685 2.50354 4.72469 0
M  V30 2074 H 195.028 0.925819 4.05875 0
M  V30 2075 H 195.561 2.38287 3.18534 0
M  V30 2076 H 192.3 5.30615 3.84874 0
M  V30 2077 H 191.82 3.79137 4.64774 0
M  V30 2078 H 193.499 4.37346 4.76799 0
M  V30 2079 N 193.631 -1.12557 1.10312 0
M  V30 2080 C 195.047 -1.36036 0.834649 0
M  V30 2081 C 195.247 -1.93946 -0.546539 0
M  V30 2082 O 194.303 -2.16484 -1.29966 0
M  V30 2083 C 195.616 -2.30312 1.9333 0
M  V30 2084 C 197.164 -2.43906 1.9616 0
M  V30 2085 C 197.639 -3.41496 3.05195 0
M  V30 2086 N 199.13 -3.49053 3.04494 0
M  V30 2087 C 199.865 -4.24471 3.85502 0
M  V30 2088 N 199.361 -5.02966 4.76442 0
M  V30 2089 N 201.154 -4.19864 3.73725 0
M  V30 2090 H 193.305 -0.733246 1.99342 0
M  V30 2091 H 195.568 -0.385234 0.866198 0
M  V30 2092 H 195.274 -1.94933 2.92735 0
M  V30 2093 H 195.148 -3.30421 1.81939 0
M  V30 2094 H 197.535 -2.78567 0.973886 0
M  V30 2095 H 197.616 -1.4369 2.11629 0
M  V30 2096 H 197.26 -3.07565 4.04186 0
M  V30 2097 H 197.19 -4.41539 2.86968 0
M  V30 2098 H 199.681 -2.93053 2.38596 0
M  V30 2099 H 199.994 -5.57846 5.34815 0
M  V30 2100 H 198.339 -5.02167 4.80472 0
M  V30 2101 H 201.53 -3.57623 3.02032 0
M  V30 2102 H 201.703 -4.78386 4.37093 0
M  V30 2103 N 195.109 -0.891671 -1.2995 0
M  V30 2104 C 196.019 -0.367691 -2.31701 0
M  V30 2105 C 197.035 0.533486 -1.6562 0
M  V30 2106 O 198.211 0.424997 -1.96865 0
M  V30 2107 C 195.276 0.403406 -3.44345 0
M  V30 2108 C 194.337 -0.528328 -4.26037 0
M  V30 2109 C 193.57 0.206063 -5.33302 0
M  V30 2110 O 193.793 1.43119 -5.52153 0
M  V30 2111 O 192.727 -0.447281 -6.00236 0
M  V30 2112 H 196.553 -1.21163 -2.78484 0
M  V30 2113 H 194.138 -0.655725 -1.34241 0
M  V30 2114 H 196.02 0.839753 -4.12948 0
M  V30 2115 H 194.695 1.22354 -2.99685 0
M  V30 2116 H 193.602 -1.01362 -3.60106 0
M  V30 2117 H 194.935 -1.31465 -4.74318 0
M  V30 2118 N 196.587 1.43421 -0.653314 0
M  V30 2119 C 197.534 2.30768 0.0382271 0
M  V30 2120 C 198.504 1.44755 0.814576 0
M  V30 2121 O 199.689 1.73624 0.791162 0
M  V30 2122 C 196.829 3.30336 0.998599 0
M  V30 2123 C 195.942 4.31448 0.218342 0
M  V30 2124 C 195.077 5.18098 1.17252 0
M  V30 2125 C 194.116 6.10902 0.382702 0
M  V30 2126 N 193.253 6.90176 1.28848 0
M  V30 2127 H 198.093 2.89357 -0.712511 0
M  V30 2128 H 195.63 1.42548 -0.363128 0
M  V30 2129 H 197.588 3.86572 1.56901 0
M  V30 2130 H 196.218 2.73397 1.71621 0
M  V30 2131 H 195.27 3.77506 -0.46836 0
M  V30 2132 H 196.582 4.97227 -0.395812 0
M  V30 2133 H 195.736 5.7896 1.81356 0
M  V30 2134 H 194.475 4.52444 1.82058 0
M  V30 2135 H 193.48 5.49128 -0.27169 0
M  V30 2136 H 194.705 6.78598 -0.260957 0
M  V30 2137 H 192.651 6.27171 1.92334 0
M  V30 2138 H 192.568 7.52478 0.728887 0
M  V30 2139 H 193.836 7.55543 1.91766 0
M  V30 2140 N 198.065 0.39524 1.52563 0
M  V30 2141 C 199.295 -0.184675 2.05773 0
M  V30 2142 C 199.703 -1.40571 1.26635 0
M  V30 2143 O 199.046 -1.81105 0.30769 0
M  V30 2144 C 199.108 -0.613551 3.54226 0
M  V30 2145 C 198.772 0.49484 4.54313 0
M  V30 2146 C 199.769 1.3541 5.01956 0
M  V30 2147 C 197.454 0.663565 4.97898 0
M  V30 2148 C 199.448 2.36716 5.91814 0
M  V30 2149 C 197.135 1.67996 5.87555 0
M  V30 2150 C 198.133 2.53017 6.34406 0
M  V30 2151 O 197.821 3.52917 7.22291 0
M  V30 2152 H 197.553 -0.030077 0.675331 0
M  V30 2153 H 200.107 0.560708 1.97599 0
M  V30 2154 H 198.337 -1.411 3.60038 0
M  V30 2155 H 200.026 -1.11981 3.90148 0
M  V30 2156 H 200.792 1.23509 4.6901 0
M  V30 2157 H 196.671 0.0114913 4.60999 0
M  V30 2158 H 200.215 3.03113 6.28306 0
M  V30 2159 H 196.112 1.79933 6.19915 0
M  V30 2160 H 196.88 3.48996 7.40367 0
M  V30 2161 N 199.544 -1.57102 0.125237 0
M  V30 2162 C 200.792 -1.95021 -0.530198 0
M  V30 2163 C 201.113 -1.00982 -1.66816 0
M  V30 2164 O 200.383 -0.0672693 -1.95784 0
M  V30 2165 H 198.963 -0.720046 -0.198853 0
M  V30 2166 H 201.625 -1.93916 0.19564 0
M  V30 2167 H 200.721 -2.98211 -0.920681 0
M  V30 2168 N 201.022 0.148545 -1.56898 0
M  V30 2169 C 202.433 0.708766 -1.72723 0
M  V30 2170 C 202.784 1.81734 -0.739395 0
M  V30 2171 O 201.909 2.16194 0.0943169 0
M  V30 2172 C 202.504 1.29245 -3.13179 0
M  V30 2173 C 201.063 1.79925 -3.30611 0
M  V30 2174 C 200.21 0.687111 -2.68652 0
M  V30 2175 H 203.161 -0.0771063 -1.58513 0
M  V30 2176 H 203.182 2.16224 -3.13093 0
M  V30 2177 H 202.694 0.485382 -3.85053 0
M  V30 2178 H 200.795 2.63203 -2.63732 0
M  V30 2179 H 200.908 1.92903 -4.38549 0
M  V30 2180 H 199.272 1.11335 -2.29078 0
M  V30 2181 H 200.055 -0.108483 -3.43129 0
M  V30 2182 N 202.5 1.5196 0.417844 0
M  V30 2183 C 203.41 1.77554 1.53336 0
M  V30 2184 C 204.426 0.660655 1.6097 0
M  V30 2185 O 205.602 0.945099 1.77848 0
M  V30 2186 C 202.667 1.91291 2.89152 0
M  V30 2187 C 201.728 3.15183 2.91475 0
M  V30 2188 C 200.961 3.28256 4.20813 0
M  V30 2189 O 201.184 2.46798 5.14244 0
M  V30 2190 O 200.118 4.21356 4.29817 0
M  V30 2191 H 203.944 2.7222 1.34647 0
M  V30 2192 H 201.529 1.36698 0.602828 0
M  V30 2193 H 203.411 2.02199 3.69721 0
M  V30 2194 H 202.086 0.998129 3.07927 0
M  V30 2195 H 200.993 3.09739 2.09791 0
M  V30 2196 H 202.326 4.06414 2.77648 0
M  V30 2197 N 203.978 -0.674533 1.42435 0
M  V30 2198 C 204.941 -1.76986 1.45632 0
M  V30 2199 C 205.941 -1.5708 0.343871 0
M  V30 2200 O 207.131 -1.63367 0.604709 0
M  V30 2201 C 204.263 -3.15623 1.28822 0
M  V30 2202 H 205.456 -1.75539 2.43158 0
M  V30 2203 H 203.009 -0.884189 1.28887 0
M  V30 2204 H 203.744 -3.22696 0.322193 0
M  V30 2205 H 203.529 -3.31475 2.09444 0
M  V30 2206 H 205.019 -3.95537 1.33942 0
M  V30 2207 N 205.456 -1.28612 -0.910864 0
M  V30 2208 C 206.705 -1.15311 -1.65488 0
M  V30 2209 C 207.018 0.296999 -1.93332 0
M  V30 2210 O 208.224 0.551168 -2.65847 0
M  V30 2211 C 206.68 -2.01599 -2.98137 0
M  V30 2212 C 206.288 -3.51367 -2.7793 0
M  V30 2213 C 208.032 -1.96993 -3.76024 0
M  V30 2214 C 205.939 -4.29797 -4.06237 0
M  V30 2215 H 204.869 -0.42796 -0.620779 0
M  V30 2216 H 207.52 -1.53166 -1.01057 0
M  V30 2217 H 205.902 -1.56603 -3.63719 0
M  V30 2218 H 207.076 -4.0434 -2.21011 0
M  V30 2219 H 205.391 -3.57529 -2.13452 0
M  V30 2220 H 207.988 -2.52856 -4.71135 0
M  V30 2221 H 208.331 -0.94733 -4.05378 0
M  V30 2222 H 208.864 -2.39973 -3.17266 0
M  V30 2223 H 205.603 -5.32648 -3.82055 0
M  V30 2224 H 205.123 -3.81596 -4.62757 0
M  V30 2225 H 206.802 -4.39869 -4.74473 0
M  V30 2226 N 206.934 1.1197 -1.10907 0
M  V30 2227 C 207.897 2.16031 -0.765707 0
M  V30 2228 C 208.897 1.59393 0.212235 0
M  V30 2229 O 210.087 1.74196 -0.0115441 0
M  V30 2230 C 207.219 3.40632 -0.135053 0
M  V30 2231 H 208.412 2.47919 -1.68748 0
M  V30 2232 H 205.965 1.27061 -0.910226 0
M  V30 2233 H 206.7 3.14348 0.797218 0
M  V30 2234 H 206.485 3.8302 -0.838937 0
M  V30 2235 H 207.975 4.17505 0.0892469 0
M  V30 2236 N 208.412 0.89855 1.29475 0
M  V30 2237 C 209.659 0.523882 1.95606 0
M  V30 2238 C 209.987 -0.929608 1.70847 0
M  V30 2239 O 209.242 -1.67401 1.01367 0
M  V30 2240 C 209.541 0.761398 3.49195 0
M  V30 2241 C 209.207 2.19207 3.94029 0
M  V30 2242 C 207.869 2.58326 4.05982 0
M  V30 2243 C 210.221 3.12379 4.17216 0
M  V30 2244 C 207.549 3.898 4.38489 0
M  V30 2245 C 209.901 4.43401 4.51197 0
M  V30 2246 C 208.565 4.82394 4.61359 0
M  V30 2247 H 207.835 0.191702 0.715773 0
M  V30 2248 H 210.482 1.13699 1.54094 0
M  V30 2249 H 208.787 0.0653622 3.91745 0
M  V30 2250 H 210.484 0.450904 3.98457 0
M  V30 2251 H 207.074 1.87846 3.85242 0
M  V30 2252 H 211.258 2.83371 4.07449 0
M  V30 2253 H 206.514 4.19734 4.44559 0
M  V30 2254 H 210.688 5.15623 4.68087 0
M  V30 2255 H 208.315 5.84306 4.86303 0
M  V30 2256 N 209.89 -1.43072 0.660911 0
M  V30 2257 C 211.137 -2.01721 0.177445 0
M  V30 2258 C 211.465 -1.5218 -1.21126 0
M  V30 2259 O 210.72 -0.708659 -1.82419 0
M  V30 2260 C 211.019 -3.57103 0.145563 0
M  V30 2261 C 210.685 -4.26021 1.47705 0
M  V30 2262 C 209.347 -4.44563 1.84165 0
M  V30 2263 C 211.699 -4.64983 2.35458 0
M  V30 2264 C 209.027 -4.99334 3.0803 0
M  V30 2265 C 211.379 -5.21127 3.58622 0
M  V30 2266 C 210.043 -5.37884 3.95268 0
M  V30 2267 H 209.313 -0.73815 0.0649317 0
M  V30 2268 H 211.96 -1.71446 0.853144 0
M  V30 2269 H 210.265 -3.86965 -0.61361 0
M  V30 2270 H 211.962 -4.00248 -0.2455 0
M  V30 2271 H 208.552 -4.11939 1.18339 0
M  V30 2272 H 212.736 -4.50343 2.08579 0
M  V30 2273 H 207.992 -5.10493 3.36462 0
M  V30 2274 H 212.166 -5.50262 4.26831 0
M  V30 2275 H 209.793 -5.80089 4.91325 0
M  V30 2276 N 211.368 -0.403325 -1.52352 0
M  V30 2277 C 212.616 0.174003 -2.0135 0
M  V30 2278 C 212.937 1.46139 -1.29106 0
M  V30 2279 O 212.207 1.91448 -0.415253 0
M  V30 2280 H 210.787 0.0672911 -0.743963 0
M  V30 2281 H 213.449 -0.538235 -1.87321 0
M  V30 2282 H 212.545 0.374254 -3.09848 0
M  V30 2283 N 212.846 1.57033 -0.133567 0
M  V30 2284 C 213.796 2.12641 0.822671 0
M  V30 2285 C 214.78 1.05081 1.21847 0
M  V30 2286 O 215.972 1.31287 1.18713 0
M  V30 2287 C 213.101 2.74094 2.06706 0
M  V30 2288 C 212.187 3.88757 1.69497 0
M  V30 2289 N 212.578 4.95194 1.03037 0
M  V30 2290 C 210.876 3.99213 1.98859 0
M  V30 2291 C 211.577 5.75414 0.852873 0
M  V30 2292 N 210.553 5.25726 1.3825 0
M  V30 2293 H 214.355 2.92308 0.305537 0
M  V30 2294 H 211.869 1.62256 0.0684276 0
M  V30 2295 H 213.866 3.12285 2.76195 0
M  V30 2296 H 212.526 1.95896 2.5895 0
M  V30 2297 H 213.537 5.13247 0.692669 0
M  V30 2298 H 210.214 3.32075 2.53047 0
M  V30 2299 H 211.604 6.71089 0.330091 0
M  V30 2300 N 214.325 -0.140222 1.56975 0
M  V30 2301 C 215.573 -0.850005 1.83356 0
M  V30 2302 C 215.894 -1.81399 0.71551 0
M  V30 2303 O 215.164 -1.94136 -0.262294 0
M  V30 2304 H 213.744 -0.316886 0.676456 0
M  V30 2305 H 216.406 -0.132608 1.94448 0
M  V30 2306 H 215.502 -1.40814 2.78528 0
M  V30 2307 N 215.803 -1.52179 -0.40978 0
M  V30 2308 C 217.031 -1.70054 -1.17853 0
M  V30 2309 C 217.446 -0.409735 -1.843 0
M  V30 2310 O 216.803 0.614183 -1.71855 0
M  V30 2311 C 216.854 -2.83568 -2.24213 0
M  V30 2312 O 216.575 -4.0765 -1.60478 0
M  V30 2313 C 218.076 -3.12947 -3.13973 0
M  V30 2314 H 215.296 -0.569917 -0.354169 0
M  V30 2315 H 217.84 -1.98734 -0.482198 0
M  V30 2316 H 215.995 -2.57409 -2.89516 0
M  V30 2317 H 216.409 -4.70899 -2.30986 0
M  V30 2318 H 217.883 -3.95889 -3.84677 0
M  V30 2319 H 218.36 -2.26472 -3.76307 0
M  V30 2320 H 218.966 -3.40868 -2.5434 0
M  V30 2321 N 217.281 0.66697 -1.42791 0
M  V30 2322 C 218.529 1.42417 -1.43394 0
M  V30 2323 C 218.85 1.94925 -0.0542373 0
M  V30 2324 O 218.12 1.73564 0.908415 0
M  V30 2325 H 216.7 0.528515 -0.527902 0
M  V30 2326 H 219.362 0.787562 -1.78279 0
M  V30 2327 H 218.458 2.27333 -2.13837 0
M  V30 2328 N 218.759 1.29093 0.90403 0
M  V30 2329 C 220.036 1.075 1.63411 0
M  V30 2330 C 220.416 -0.382346 2.07609 0
M  V30 2331 O 219.764 -1.37031 1.82851 0
M  V30 2332 C 219.974 2.05858 2.81822 0
M  V30 2333 C 221.322 2.36539 3.52611 0
M  V30 2334 O 222.346 2.04019 2.91984 0
M  V30 2335 O 221.205 2.92085 4.61897 0
M  V30 2336 H 218.299 0.411547 0.717327 0
M  V30 2337 H 220.845 1.40449 0.952479 0
M  V30 2338 H 219.617 3.04037 2.46327 0
M  V30 2339 H 219.24 1.73613 3.57693 0
M  V30 2340 N 220.237 -1.11381 1.11499 0
M  V30 2341 C 221.467 -1.86663 0.885464 0
M  V30 2342 C 221.875 -1.80464 -0.568281 0
M  V30 2343 O 221.218 -1.18445 -1.40415 0
M  V30 2344 C 221.28 -3.36337 1.26956 0
M  V30 2345 C 220.944 -3.66304 2.73259 0
M  V30 2346 C 221.941 -3.63733 3.71476 0
M  V30 2347 C 219.626 -3.9529 3.09921 0
M  V30 2348 C 221.62 -3.89725 5.04374 0
M  V30 2349 C 219.307 -4.20941 4.43004 0
M  V30 2350 C 220.305 -4.18147 5.40039 0
M  V30 2351 O 219.993 -4.43153 6.70724 0
M  V30 2352 H 219.725 -0.597114 0.316908 0
M  V30 2353 H 222.279 -1.41782 1.48617 0
M  V30 2354 H 220.509 -3.81826 0.611999 0
M  V30 2355 H 222.198 -3.92986 1.01573 0
M  V30 2356 H 222.964 -3.41389 3.44498 0
M  V30 2357 H 218.843 -3.966 2.35009 0
M  V30 2358 H 222.387 -3.8746 5.80104 0
M  V30 2359 H 218.284 -4.42761 4.69716 0
M  V30 2360 H 219.052 -4.60717 6.76522 0
M  V30 2361 N 221.715 -0.905404 -1.28997 0
M  V30 2362 C 222.961 -0.544465 -1.95977 0
M  V30 2363 C 223.316 0.90041 -1.70031 0
M  V30 2364 O 222.609 1.63064 -1.00601 0
M  V30 2365 C 222.803 -0.779906 -3.48787 0
M  V30 2366 C 222.632 -2.24612 -3.89589 0
M  V30 2367 C 221.402 -2.89464 -4.14172 0
M  V30 2368 C 223.6 -3.22182 -4.00878 0
M  V30 2369 N 221.582 -4.26469 -4.41585 0
M  V30 2370 C 222.953 -4.44323 -4.32409 0
M  V30 2371 C 225.008 -3.17694 -3.83373 0
M  V30 2372 C 223.711 -5.62546 -4.48258 0
M  V30 2373 C 225.737 -4.35208 -4.00435 0
M  V30 2374 C 225.099 -5.56121 -4.3233 0
M  V30 2375 H 221.198 -0.248948 -0.741316 0
M  V30 2376 H 223.782 -1.1674 -1.5582 0
M  V30 2377 H 221.953 -0.186308 -3.87953 0
M  V30 2378 H 223.685 -0.383833 -4.02876 0
M  V30 2379 H 220.44 -2.40232 -4.08149 0
M  V30 2380 H 220.864 -4.97283 -4.5939 0
M  V30 2381 H 225.506 -2.25297 -3.57773 0
M  V30 2382 H 223.224 -6.55429 -4.72692 0
M  V30 2383 H 226.81 -4.33228 -3.88336 0
M  V30 2384 H 225.69 -6.45537 -4.45255 0
M  V30 2385 N 223.193 1.4272 -0.668489 0
M  V30 2386 C 224.44 2.01624 -0.18814 0
M  V30 2387 C 224.768 1.5282 1.20317 0
M  V30 2388 O 224.023 0.718323 1.8204 0
M  V30 2389 C 224.322 3.57021 -0.164499 0
M  V30 2390 C 223.988 4.25232 -1.49962 0
M  V30 2391 C 222.65 4.4358 -1.8652 0
M  V30 2392 C 225.002 4.63727 -2.37921 0
M  V30 2393 C 222.33 4.97694 -3.10674 0
M  V30 2394 C 224.682 5.19218 -3.6138 0
M  V30 2395 C 223.346 5.3578 -3.98115 0
M  V30 2396 H 222.616 0.737795 -0.0688454 0
M  V30 2397 H 225.263 1.70991 -0.862225 0
M  V30 2398 H 223.568 3.87285 0.593079 0
M  V30 2399 H 225.265 4.00372 0.224271 0
M  V30 2400 H 221.855 4.11306 -1.20522 0
M  V30 2401 H 226.039 4.4923 -2.10964 0
M  V30 2402 H 221.295 5.08702 -3.39164 0
M  V30 2403 H 225.469 5.4799 -4.29743 0
M  V30 2404 H 223.096 5.77475 -4.94395 0
M  V30 2405 N 224.671 0.411399 1.52136 0
M  V30 2406 C 225.917 -0.163888 2.02137 0
M  V30 2407 C 226.25 -1.44597 1.29636 0
M  V30 2408 O 225.525 -1.90272 0.403353 0
M  V30 2409 C 225.808 -0.40927 3.57767 0
M  V30 2410 C 225.661 0.889643 4.40914 0
M  V30 2411 C 226.98 -1.19042 4.23694 0
M  V30 2412 H 224.099 -0.0580896 0.734707 0
M  V30 2413 H 226.741 0.54531 1.82007 0
M  V30 2414 H 224.891 -1.0134 3.7505 0
M  V30 2415 H 226.563 1.52575 4.35337 0
M  V30 2416 H 224.806 1.50011 4.07037 0
M  V30 2417 H 225.477 0.672314 5.4789 0
M  V30 2418 H 227.953 -0.678942 4.10524 0
M  V30 2419 H 226.829 -1.33086 5.32522 0
M  V30 2420 H 227.09 -2.21166 3.82803 0
M  V30 2421 N 226.149 -1.5696 0.141893 0
M  V30 2422 C 227.426 -1.87553 -0.555281 0
M  V30 2423 C 227.806 -1.04699 -1.83306 0
M  V30 2424 O 227.154 -0.132346 -2.28116 0
M  V30 2425 C 227.364 -3.39093 -0.825664 0
M  V30 2426 C 228.712 -4.08199 -1.16869 0
M  V30 2427 O 229.736 -3.44242 -0.915185 0
M  V30 2428 O 228.595 -5.21139 -1.6455 0
M  V30 2429 H 225.689 -0.777188 -0.282679 0
M  V30 2430 H 228.235 -1.68763 0.17812 0
M  V30 2431 H 227.007 -3.91221 0.0788633 0
M  V30 2432 H 226.63 -3.63393 -1.61343 0
M  V30 2433 N 227.627 0.131896 -1.57047 0
M  V30 2434 C 228.874 0.841932 -1.84168 0
M  V30 2435 C 229.202 1.8048 -0.725066 0
M  V30 2436 O 228.457 1.93618 0.284692 0
M  V30 2437 C 228.756 1.63703 -3.17704 0
M  V30 2438 C 228.422 0.81961 -4.43388 0
M  V30 2439 C 227.084 0.594148 -4.77518 0
M  V30 2440 C 229.436 0.248977 -5.20605 0
M  V30 2441 C 226.764 -0.212409 -5.86315 0
M  V30 2442 C 229.116 -0.544701 -6.30251 0
M  V30 2443 C 227.78 -0.780599 -6.6292 0
M  V30 2444 H 227.05 0.308085 -0.673917 0
M  V30 2445 H 229.697 0.104867 -1.91213 0
M  V30 2446 H 228.002 2.44464 -3.06177 0
M  V30 2447 H 229.699 2.19015 -3.35907 0
M  V30 2448 H 226.289 1.00542 -4.16641 0
M  V30 2449 H 230.473 0.410408 -4.946 0
M  V30 2450 H 225.729 -0.404524 -6.1006 0
M  V30 2451 H 229.903 -0.993922 -6.89271 0
M  V30 2452 H 227.53 -1.40742 -7.47058 0
M  V30 2453 N 229.106 1.52395 0.401703 0
M  V30 2454 C 230.036 1.79231 1.49661 0
M  V30 2455 C 231.017 0.643654 1.57452 0
M  V30 2456 O 232.202 0.889989 1.72606 0
M  V30 2457 C 229.332 1.94971 2.87409 0
M  V30 2458 C 228.286 3.10604 2.94465 0
M  V30 2459 C 227.612 3.11577 4.34538 0
M  V30 2460 C 228.912 4.49921 2.6527 0
M  V30 2461 H 230.606 2.70917 1.27454 0
M  V30 2462 H 228.152 1.30362 0.6117 0
M  V30 2463 H 230.105 2.12328 3.63999 0
M  V30 2464 H 228.829 0.999632 3.10926 0
M  V30 2465 H 227.488 2.93009 2.20321 0
M  V30 2466 H 227.136 2.14277 4.55076 0
M  V30 2467 H 226.836 3.89247 4.40183 0
M  V30 2468 H 228.36 3.31073 5.13053 0
M  V30 2469 H 229.774 4.67683 3.31581 0
M  V30 2470 H 228.171 5.29564 2.82281 0
M  V30 2471 H 229.241 4.57507 1.60671 0
M  V30 2472 N 230.584 -0.659388 1.43143 0
M  V30 2473 C 231.995 -1.24041 1.39537 0
M  V30 2474 C 232.346 -1.95963 0.0963364 0
M  V30 2475 O 231.471 -2.00892 -0.804438 0
M  V30 2476 C 232.066 -2.25601 2.52764 0
M  V30 2477 C 230.625 -2.79195 2.52443 0
M  V30 2478 C 229.772 -1.53743 2.30778 0
M  V30 2479 H 232.723 -0.451792 1.52133 0
M  V30 2480 H 232.744 -3.07651 2.23899 0
M  V30 2481 H 232.256 -1.73226 3.47296 0
M  V30 2482 H 230.357 -3.35649 1.61773 0
M  V30 2483 H 230.47 -3.2716 3.50004 0
M  V30 2484 H 228.834 -1.80869 1.79328 0
M  V30 2485 H 229.617 -1.03312 3.27386 0
M  V30 2486 N 232.062 -1.29571 -0.897171 0
M  V30 2487 C 233.025 -1.14913 -1.98312 0
M  V30 2488 C 234.025 -0.0838629 -1.60581 0
M  V30 2489 O 235.215 -0.331006 -1.71026 0
M  V30 2490 C 232.347 -0.757835 -3.3237 0
M  V30 2491 H 233.54 -2.11377 -2.12743 0
M  V30 2492 H 231.093 -1.12793 -1.08201 0
M  V30 2493 H 231.828 0.206837 -3.2364 0
M  V30 2494 H 231.613 -1.52755 -3.61121 0
M  V30 2495 H 233.103 -0.678408 -4.12053 0
M  V30 2496 N 233.54 1.10788 -1.12088 0
M  V30 2497 C 234.503 2.15207 -0.788577 0
M  V30 2498 C 235.503 1.59609 0.195317 0
M  V30 2499 O 236.693 1.74174 -0.0300193 0
M  V30 2500 C 233.825 3.4047 -0.171174 0
M  V30 2501 H 235.018 2.46116 -1.71368 0
M  V30 2502 H 232.571 1.26089 -0.923652 0
M  V30 2503 H 233.306 3.15176 0.763832 0
M  V30 2504 H 233.091 3.82109 -0.879514 0
M  V30 2505 H 234.581 4.17576 0.04496 0
M  V30 2506 N 235.018 0.912232 1.28515 0
M  V30 2507 C 236.264 0.554851 1.95686 0
M  V30 2508 C 236.619 -0.89138 1.70506 0
M  V30 2509 O 235.912 -1.62529 1.01464 0
M  V30 2510 C 236.106 0.798392 3.48368 0
M  V30 2511 C 235.935 2.26674 3.88393 0
M  V30 2512 C 234.705 2.91657 4.12631 0
M  V30 2513 C 236.903 3.24303 3.99164 0
M  V30 2514 N 234.885 4.28805 4.39317 0
M  V30 2515 C 236.256 4.4661 4.30046 0
M  V30 2516 C 238.311 3.19723 3.81683 0
M  V30 2517 C 237.014 5.64915 4.45268 0
M  V30 2518 C 239.04 4.37325 3.98121 0
M  V30 2519 C 238.402 5.58406 4.29375 0
M  V30 2520 H 234.501 0.252876 0.739985 0
M  V30 2521 H 237.085 1.17565 1.55199 0
M  V30 2522 H 235.256 0.20688 3.87849 0
M  V30 2523 H 236.988 0.405193 4.02666 0
M  V30 2524 H 233.743 2.42393 4.06869 0
M  V30 2525 H 234.167 4.99712 4.56746 0
M  V30 2526 H 238.809 2.27191 3.56573 0
M  V30 2527 H 236.527 6.57927 4.6921 0
M  V30 2528 H 240.113 4.35282 3.86033 0
M  V30 2529 H 238.993 6.47889 4.41825 0
M  V30 2530 N 236.496 -1.42363 0.676048 0
M  V30 2531 C 237.744 -2.01123 0.198437 0
M  V30 2532 C 238.065 -1.53731 -1.19966 0
M  V30 2533 O 237.335 -0.759518 -1.80577 0
M  V30 2534 H 235.915 -0.743678 0.0703721 0
M  V30 2535 H 238.577 -1.74263 0.872837 0
M  V30 2536 H 237.673 -3.11454 0.200686 0
M  V30 2537 N 237.974 -0.419461 -1.51915 0
M  V30 2538 C 239.199 0.154572 -2.06823 0
M  V30 2539 C 239.624 1.3722 -1.28656 0
M  V30 2540 O 238.982 1.78461 -0.319583 0
M  V30 2541 C 239.03 0.473172 -3.57482 0
M  V30 2542 O 238.134 1.56255 -3.81652 0
M  V30 2543 H 237.475 0.0096924 -0.663929 0
M  V30 2544 H 240.005 -0.595642 -1.95738 0
M  V30 2545 H 240.015 0.728825 -4.01438 0
M  V30 2546 H 238.69 -0.416873 -4.13805 0
M  V30 2547 H 237.267 1.29825 -3.49571 0
M  V30 2548 N 239.452 1.56882 -0.150215 0
M  V30 2549 C 240.863 1.82995 0.370076 0
M  V30 2550 C 241.214 1.06907 1.64515 0
M  V30 2551 O 240.339 0.315369 2.1409 0
M  V30 2552 C 240.934 3.31942 0.678208 0
M  V30 2553 C 239.493 3.58625 1.14301 0
M  V30 2554 C 238.64 2.76792 0.167778 0
M  V30 2555 H 241.591 1.54209 -0.374858 0
M  V30 2556 H 241.612 3.48272 1.53254 0
M  V30 2557 H 241.124 3.87294 -0.249991 0
M  V30 2558 H 239.225 3.08664 2.08704 0
M  V30 2559 H 239.338 4.67073 1.06676 0
M  V30 2560 H 237.702 2.45972 0.661037 0
M  V30 2561 H 238.485 3.34916 -0.754069 0
M  V30 2562 N 240.93 -0.123565 1.57115 0
M  V30 2563 C 241.878 -1.17082 2.00984 0
M  V30 2564 C 242.872 -1.43136 0.906009 0
M  V30 2565 O 244.078 -1.43152 1.09121 0
M  V30 2566 H 240.453 -0.394653 0.64012 0
M  V30 2567 H 242.424 -0.774292 2.88179 0
M  V30 2568 C 241.173 -2.49057 2.42623 0
M  V30 2569 H 240.496 -2.29846 3.27125 0
M  V30 2570 H 241.936 -3.20906 2.7712 0
M  V30 2571 C 240.395 -3.11305 1.28805 0
M  V30 2572 O 240.925 -3.97171 0.60153 0
M  V30 2573 N 239.131 -2.71111 1.04628 0
M  V30 2574 H 238.678 -2.01382 1.60634 0
M  V30 2575 H 238.636 -3.1309 0.286685 0
M  V30 2576 N 242.408 -1.52605 -0.393616 0
M  V30 2577 C 243.371 -1.76415 -1.46323 0
M  V30 2578 C 244.371 -0.634126 -1.47768 0
M  V30 2579 O 245.561 -0.902142 -1.4902 0
M  V30 2580 C 242.693 -1.8607 -2.85641 0
M  V30 2581 H 243.886 -2.71916 -1.26498 0
M  V30 2582 H 241.439 -1.43257 -0.625073 0
M  V30 2583 H 242.174 -0.925378 -3.10817 0
M  V30 2584 H 241.959 -2.68235 -2.85993 0
M  V30 2585 H 243.449 -2.06179 -3.63153 0
M  V30 2586 N 243.887 0.651787 -1.4349 0
M  V30 2587 C 244.85 1.74647 -1.48429 0
M  V30 2588 C 245.85 1.56513 -0.368817 0
M  V30 2589 O 247.04 1.62385 -0.630623 0
M  V30 2590 C 244.172 3.13533 -1.33827 0
M  V30 2591 H 245.365 1.71649 -2.4592 0
M  V30 2592 H 242.918 0.863573 -1.30277 0
M  V30 2593 H 243.653 3.22142 -0.37349 0
M  V30 2594 H 243.438 3.28101 -2.14691 0
M  V30 2595 H 244.928 3.93356 -1.40218 0
M  V30 2596 N 245.365 1.30045 0.890287 0
M  V30 2597 C 246.312 1.15976 1.99545 0
M  V30 2598 C 247.282 0.0506202 1.66023 0
M  V30 2599 O 248.467 0.219847 1.89529 0
M  V30 2600 C 245.607 0.852054 3.34416 0
M  V30 2601 C 244.72 2.04255 3.80662 0
M  V30 2602 C 243.855 1.6734 5.04154 0
M  V30 2603 C 242.894 2.82916 5.42794 0
M  V30 2604 N 242.031 2.46333 6.57468 0
M  V30 2605 H 246.871 2.10524 2.10911 0
M  V30 2606 H 244.408 1.04749 1.03276 0
M  V30 2607 H 246.366 0.654296 4.12037 0
M  V30 2608 H 244.996 -0.0565502 3.2275 0
M  V30 2609 H 244.048 2.35172 2.98995 0
M  V30 2610 H 245.36 2.90826 4.05242 0
M  V30 2611 H 244.514 1.43908 5.89386 0
M  V30 2612 H 243.253 0.779308 4.81433 0
M  V30 2613 H 242.258 3.0702 4.56091 0
M  V30 2614 H 243.483 3.73004 5.6749 0
M  V30 2615 H 241.429 1.59423 6.36334 0
M  V30 2616 H 241.346 3.26436 6.81891 0
M  V30 2617 H 242.614 2.26244 7.45945 0
M  V30 2618 N 246.843 -1.10192 1.12674 0
M  V30 2619 C 248.254 -1.63707 0.897604 0
M  V30 2620 C 248.605 -1.87812 -0.567546 0
M  V30 2621 O 247.73 -1.62196 -1.43253 0
M  V30 2622 C 248.325 -2.974 1.62292 0
M  V30 2623 C 246.884 -3.47772 1.43986 0
M  V30 2624 C 246.031 -2.22332 1.65722 0
M  V30 2625 H 248.982 -0.936587 1.28116 0
M  V30 2626 H 249.003 -3.64986 1.07541 0
M  V30 2627 H 248.515 -2.79824 2.68924 0
M  V30 2628 H 246.616 -3.70487 0.396206 0
M  V30 2629 H 246.729 -4.25723 2.19765 0
M  V30 2630 H 245.093 -2.30599 1.08149 0
M  V30 2631 H 245.876 -2.07285 2.73657 0
M  V30 2632 N 248.321 -0.919034 -1.28029 0
M  V30 2633 C 249.546 -0.570357 -1.99403 0
M  V30 2634 C 249.971 0.842486 -1.68178 0
M  V30 2635 O 249.329 1.56391 -0.917141 0
M  V30 2636 C 249.377 -0.792541 -3.51783 0
M  V30 2637 O 248.481 0.145988 -4.12142 0
M  V30 2638 H 247.822 -0.220555 -0.6263 0
M  V30 2639 H 250.352 -1.23592 -1.63053 0
M  V30 2640 H 250.362 -0.704708 -4.01868 0
M  V30 2641 H 249.037 -1.82247 -3.73844 0
M  V30 2642 H 247.614 0.00897528 -3.72899 0
M  V30 2643 N 249.799 1.42003 -0.683588 0
M  V30 2644 C 251.045 2.01712 -0.209825 0
M  V30 2645 C 251.378 1.53968 1.18353 0
M  V30 2646 O 250.653 0.745661 1.79639 0
M  V30 2647 C 250.936 3.59202 -0.254197 0
M  V30 2648 C 250.789 4.17102 -1.68363 0
M  V30 2649 C 252.108 4.38344 0.392709 0
M  V30 2650 H 249.227 0.732891 -0.0777189 0
M  V30 2651 H 251.869 1.68909 -0.87004 0
M  V30 2652 H 250.019 3.87278 0.307954 0
M  V30 2653 H 251.691 3.99946 -2.29871 0
M  V30 2654 H 249.934 3.72597 -2.22157 0
M  V30 2655 H 250.605 5.26249 -1.6663 0
M  V30 2656 H 253.081 4.16011 -0.0859162 0
M  V30 2657 H 251.957 5.47901 0.331063 0
M  V30 2658 H 252.218 4.16887 1.47164 0
M  V30 2659 N 251.277 0.427512 1.51691 0
M  V30 2660 C 252.502 -0.143601 2.06902 0
M  V30 2661 C 252.927 -1.36536 1.29382 0
M  V30 2662 O 252.285 -1.78289 0.329043 0
M  V30 2663 C 252.333 -0.454207 3.57728 0
M  V30 2664 O 251.437 -1.54228 3.82475 0
M  V30 2665 H 250.778 -0.00617128 0.663971 0
M  V30 2666 H 253.308 0.606014 1.95419 0
M  V30 2667 H 253.318 -0.707525 4.01818 0
M  V30 2668 H 251.993 0.438812 4.13579 0
M  V30 2669 H 250.57 -1.2797 3.50254 0
M  V30 2670 N 252.755 -1.56801 0.158532 0
M  V30 2671 C 253.685 -2.20347 -0.772609 0
M  V30 2672 C 254.666 -1.15518 -1.24859 0
M  V30 2673 O 255.851 -1.43902 -1.30406 0
M  V30 2674 C 252.981 -2.83417 -2.00729 0
M  V30 2675 C 251.935 -3.94174 -1.66765 0
M  V30 2676 C 251.261 -4.44233 -2.97592 0
M  V30 2677 C 252.561 -5.14392 -0.905447 0
M  V30 2678 H 254.255 -2.98413 -0.242959 0
M  V30 2679 H 251.801 -1.43537 -0.115419 0
M  V30 2680 H 253.754 -3.26543 -2.6636 0
M  V30 2681 H 252.478 -2.02701 -2.56086 0
M  V30 2682 H 251.137 -3.51684 -1.03508 0
M  V30 2683 H 250.785 -3.60325 -3.50963 0
M  V30 2684 H 250.485 -5.18945 -2.75626 0
M  V30 2685 H 252.009 -4.90037 -3.64274 0
M  V30 2686 H 253.423 -5.5429 -1.46408 0
M  V30 2687 H 251.82 -5.9494 -0.7853 0
M  V30 2688 H 252.89 -4.84795 0.100668 0
M  V30 2689 N 254.233 0.115231 -1.57178 0
M  V30 2690 C 255.473 0.828199 -1.8687 0
M  V30 2691 C 255.837 1.76873 -0.747002 0
M  V30 2692 O 257.038 2.52354 -0.925785 0
M  V30 2693 C 255.309 1.55515 -3.21792 0
M  V30 2694 S 256.868 2.30917 -3.73125 0
M  V30 2695 H 253.686 0.27634 -0.655101 0
M  V30 2696 H 256.288 0.0863469 -1.95309 0
M  V30 2697 H 254.992 0.856248 -4.01368 0
M  V30 2698 H 254.523 2.3373 -3.16439 0
M  V30 2699 H 256.538 3.56705 -3.44929 0
M  V30 2700 N 255.711 1.52812 0.385517 0
M  V30 2701 C 256.939 1.71907 1.15133 0
M  V30 2702 C 257.354 0.439004 1.83625 0
M  V30 2703 O 256.711 -0.586765 1.7281 0
M  V30 2704 C 256.762 2.87099 2.19673 0
M  V30 2705 O 256.483 4.10151 1.53973 0
M  V30 2706 C 257.984 3.17902 3.08955 0
M  V30 2707 H 255.204 0.575479 0.345057 0
M  V30 2708 H 257.748 1.99476 0.45052 0
M  V30 2709 H 255.903 2.61982 2.85384 0
M  V30 2710 H 256.317 4.74514 2.23465 0
M  V30 2711 H 257.791 4.01959 3.7833 0
M  V30 2712 H 258.268 2.3243 3.72657 0
M  V30 2713 H 258.874 3.44871 2.48885 0
M  V30 2714 N 257.189 -0.644168 1.43834 0
M  V30 2715 C 258.152 -1.73857 1.49353 0
M  V30 2716 C 259.152 -1.56315 0.377112 0
M  V30 2717 O 260.342 -1.62048 0.639226 0
M  V30 2718 C 257.474 -3.12819 1.35488 0
M  V30 2719 H 258.667 -1.70342 2.46827 0
M  V30 2720 H 256.22 -0.856652 1.30733 0
M  V30 2721 H 256.955 -3.2194 0.390569 0
M  V30 2722 H 256.74 -3.26958 2.16428 0
M  V30 2723 H 258.23 -3.92606 1.42302 0
M  V30 2724 N 258.668 -1.30515 -0.883378 0
M  V30 2725 C 260.079 -1.17509 -1.45081 0
M  V30 2726 C 260.43 0.223605 -1.94922 0
M  V30 2727 O 259.555 1.12041 -1.85137 0
M  V30 2728 C 260.15 -2.12715 -2.63701 0
M  V30 2729 C 258.709 -2.03682 -3.16529 0
M  V30 2730 C 257.856 -2.02706 -1.89224 0
M  V30 2731 H 260.807 -1.42762 -0.693165 0
M  V30 2732 H 260.828 -1.70891 -3.39965 0
M  V30 2733 H 260.34 -3.14505 -2.27395 0
M  V30 2734 H 258.441 -1.05039 -3.57488 0
M  V30 2735 H 258.554 -2.92146 -3.7972 0
M  V30 2736 H 256.918 -1.4753 -2.07622 0
M  V30 2737 H 257.701 -3.06229 -1.55174 0
M  V30 2738 N 260.146 1.09593 -1.13257 0
M  V30 2739 C 261.562 1.33775 -0.870423 0
M  V30 2740 C 261.762 1.95327 0.494926 0
M  V30 2741 O 260.818 2.19853 1.2418 0
M  V30 2742 C 262.131 2.25106 -1.99369 0
M  V30 2743 C 263.679 2.3862 -2.02558 0
M  V30 2744 C 264.154 3.33285 -3.14142 0
M  V30 2745 N 265.645 3.40857 -3.13641 0
M  V30 2746 C 266.38 4.14101 -3.96621 0
M  V30 2747 N 265.876 4.90157 -4.8961 0
M  V30 2748 N 267.669 4.09808 -3.84726 0
M  V30 2749 H 259.82 0.680136 -2.01216 0
M  V30 2750 H 262.083 0.362133 -0.876107 0
M  V30 2751 H 261.789 1.87103 -2.97801 0
M  V30 2752 H 261.663 3.25481 -1.90635 0
M  V30 2753 H 264.05 2.75887 -1.0474 0
M  V30 2754 H 264.131 1.38028 -2.15364 0
M  V30 2755 H 263.775 2.96741 -4.12198 0
M  V30 2756 H 263.705 4.33776 -2.98574 0
M  V30 2757 H 266.196 2.86624 -2.46282 0
M  V30 2758 H 266.509 5.4347 -5.49418 0
M  V30 2759 H 264.854 4.89251 -4.93617 0
M  V30 2760 H 268.045 3.4949 -3.11408 0
M  V30 2761 H 268.218 4.66629 -4.49623 0
M  V30 2762 N 261.624 0.925811 1.2754 0
M  V30 2763 C 262.534 0.428993 2.30644 0
M  V30 2764 C 263.55 -0.489387 1.66976 0
M  V30 2765 O 264.726 -0.372653 1.97922 0
M  V30 2766 C 261.791 -0.311967 3.45294 0
M  V30 2767 C 260.852 0.641098 4.24486 0
M  V30 2768 C 260.085 -0.0645955 5.33661 0
M  V30 2769 O 260.308 -1.28429 5.55754 0
M  V30 2770 O 259.242 0.606265 5.98839 0
M  V30 2771 H 263.068 1.28504 2.75173 0
M  V30 2772 H 260.653 0.691086 1.32455 0
M  V30 2773 H 262.535 -0.729972 4.15029 0
M  V30 2774 H 261.21 -1.14365 3.02824 0
M  V30 2775 H 260.117 1.10874 3.57292 0
M  V30 2776 H 261.45 1.43995 4.70666 0
M  V30 2777 N 263.102 -1.41638 0.69111 0
M  V30 2778 C 264.348 -2.01598 0.220519 0
M  V30 2779 C 264.681 -1.54594 -1.17535 0
M  V30 2780 O 263.956 -0.755177 -1.79241 0
M  V30 2781 C 264.239 -3.59062 0.273243 0
M  V30 2782 C 264.092 -4.16203 1.70573 0
M  V30 2783 C 265.411 -4.38546 -0.369457 0
M  V30 2784 H 262.53 -0.732468 0.0816045 0
M  V30 2785 H 265.172 -1.68445 0.878986 0
M  V30 2786 H 263.322 -3.87435 -0.287411 0
M  V30 2787 H 264.994 -3.98722 2.31989 0
M  V30 2788 H 263.237 -3.71414 2.2413 0
M  V30 2789 H 263.908 -5.25358 1.69419 0
M  V30 2790 H 266.384 -4.1596 0.107977 0
M  V30 2791 H 265.26 -5.48069 -0.302002 0
M  V30 2792 H 265.521 -4.17662 -1.44951 0
M  V30 2793 N 264.58 -0.43555 -1.51462 0
M  V30 2794 C 265.543 0.365137 -2.26273 0
M  V30 2795 C 266.543 0.951227 -1.29647 0
M  V30 2796 O 267.733 0.825958 -1.53374 0
M  V30 2797 C 264.865 1.51645 -3.05314 0
M  V30 2798 H 266.058 -0.290474 -2.9849 0
M  V30 2799 H 263.611 -0.188676 -1.55157 0
M  V30 2800 H 264.346 2.20816 -2.3751 0
M  V30 2801 H 264.131 1.10238 -3.76284 0
M  V30 2802 H 265.621 2.08218 -3.61987 0
M  V30 2803 N 266.058 1.56714 -0.166846 0
M  V30 2804 C 267.283 2.01557 0.488833 0
M  V30 2805 C 267.708 1.0463 1.56314 0
M  V30 2806 O 267.066 0.0251304 1.81283 0
M  V30 2807 C 267.114 3.4503 1.04818 0
M  V30 2808 O 266.218 3.51163 2.16236 0
M  V30 2809 H 265.559 0.653516 0.117526 0
M  V30 2810 H 268.089 2.02818 -0.269421 0
M  V30 2811 H 268.099 3.84243 1.37191 0
M  V30 2812 H 266.774 4.15077 0.261572 0
M  V30 2813 H 265.351 3.23807 1.84942 0
M  V30 2814 N 267.536 -0.106894 1.57237 0
M  V30 2815 C 268.468 -1.15646 1.97885 0
M  V30 2816 C 269.481 -1.36981 0.879779 0
M  V30 2817 O 270.67 -1.35841 1.15799 0
M  V30 2818 C 267.77 -2.51425 2.27241 0
M  V30 2819 C 266.943 -2.50529 3.58545 0
M  V30 2820 C 266.002 -3.68145 3.75973 0
M  V30 2821 O 265.028 -3.51176 4.47956 0
M  V30 2822 N 266.23 -4.87177 3.15656 0
M  V30 2823 H 268.995 -0.81059 2.8853 0
M  V30 2824 H 266.556 -0.296024 1.59171 0
M  V30 2825 H 268.548 -3.28689 2.36105 0
M  V30 2826 H 267.118 -2.78147 1.42663 0
M  V30 2827 H 266.338 -1.58894 3.60758 0
M  V30 2828 H 267.626 -2.46997 4.44826 0
M  V30 2829 H 267.024 -5.03868 2.57165 0
M  V30 2830 H 265.581 -5.62075 3.30023 0
M  V30 2831 N 269.014 -1.53014 -0.377408 0
M  V30 2832 C 270.26 -1.69821 -1.11948 0
M  V30 2833 C 270.615 -0.438581 -1.87335 0
M  V30 2834 O 269.908 0.568094 -1.82984 0
M  V30 2835 C 270.102 -2.87982 -2.11663 0
M  V30 2836 C 269.931 -4.25315 -1.46072 0
M  V30 2837 C 268.701 -4.90354 -1.21986 0
M  V30 2838 C 270.899 -5.06281 -0.904664 0
M  V30 2839 N 268.881 -6.11641 -0.526215 0
M  V30 2840 C 270.252 -6.19069 -0.339726 0
M  V30 2841 C 272.307 -4.91395 -0.8022 0
M  V30 2842 C 271.01 -7.18598 0.317669 0
M  V30 2843 C 273.036 -5.91187 -0.158606 0
M  V30 2844 C 272.398 -7.03289 0.39551 0
M  V30 2845 H 268.497 -0.674785 -0.395207 0
M  V30 2846 H 271.081 -1.90389 -0.407437 0
M  V30 2847 H 269.252 -2.68974 -2.80192 0
M  V30 2848 H 270.984 -2.93669 -2.78461 0
M  V30 2849 H 267.739 -4.49286 -1.49798 0
M  V30 2850 H 268.163 -6.76719 -0.195098 0
M  V30 2851 H 272.805 -4.04925 -1.21639 0
M  V30 2852 H 270.523 -8.04669 0.743836 0
M  V30 2853 H 274.109 -5.81744 -0.0804138 0
M  V30 2854 H 272.989 -7.79183 0.885648 0
M  V30 2855 N 270.492 0.636531 -1.44174 0
M  V30 2856 C 271.738 1.39826 -1.4689 0
M  V30 2857 C 272.071 1.93947 -0.0990585 0
M  V30 2858 O 271.346 1.73325 0.882544 0
M  V30 2859 C 271.629 2.56751 -2.5249 0
M  V30 2860 C 271.482 2.08014 -3.98811 0
M  V30 2861 C 272.801 3.58946 -2.54649 0
M  V30 2862 H 269.92 0.507075 -0.53483 0
M  V30 2863 H 272.562 0.720188 -1.75822 0
M  V30 2864 H 270.712 3.14597 -2.2795 0
M  V30 2865 H 272.384 1.5504 -4.34466 0
M  V30 2866 H 270.627 1.39242 -4.10846 0
M  V30 2867 H 271.298 2.92169 -4.68339 0
M  V30 2868 H 273.774 3.1089 -2.76563 0
M  V30 2869 H 272.65 4.38286 -3.3045 0
M  V30 2870 H 272.911 4.12655 -1.58646 0
M  V30 2871 N 271.97 1.30982 0.876444 0
M  V30 2872 C 273.217 1.20296 1.62896 0
M  V30 2873 C 273.545 -0.240395 1.93009 0
M  V30 2874 O 272.8 -1.18733 1.55567 0
M  V30 2875 C 273.099 1.98572 2.9716 0
M  V30 2876 C 272.765 3.48125 2.86566 0
M  V30 2877 C 271.427 3.88905 2.83383 0
M  V30 2878 C 273.779 4.43322 2.74071 0
M  V30 2879 C 271.107 5.2316 2.65556 0
M  V30 2880 C 273.459 5.77695 2.57781 0
M  V30 2881 C 272.123 6.17704 2.52979 0
M  V30 2882 H 271.393 0.440193 0.59608 0
M  V30 2883 H 274.04 1.62177 1.01837 0
M  V30 2884 H 272.345 1.49352 3.62217 0
M  V30 2885 H 274.042 1.8769 3.54364 0
M  V30 2886 H 270.632 3.15723 2.89856 0
M  V30 2887 H 274.816 4.12752 2.75589 0
M  V30 2888 H 270.072 5.53241 2.60259 0
M  V30 2889 H 274.246 6.51091 2.47089 0
M  V30 2890 H 271.873 7.21678 2.38924 0
M  V30 2891 N 273.449 -1.08991 1.13837 0
M  V30 2892 C 274.697 -1.80899 0.901098 0
M  V30 2893 C 275.018 -1.86356 -0.574134 0
M  V30 2894 O 274.288 -1.35235 -1.41733 0
M  V30 2895 H 272.868 -0.669966 0.330386 0
M  V30 2896 H 275.53 -1.318 1.43578 0
M  V30 2897 H 274.626 -2.83929 1.29578 0
M  V30 2898 N 274.927 -0.932562 -1.27047 0
M  V30 2899 C 276.343 -0.633544 -1.46487 0
M  V30 2900 C 276.543 0.815746 -1.84249 0
M  V30 2901 O 275.599 1.59319 -1.95892 0
M  V30 2902 C 276.912 -1.58758 -2.55375 0
M  V30 2903 C 278.46 -1.59634 -2.69232 0
M  V30 2904 C 278.935 -2.53747 -3.81283 0
M  V30 2905 N 280.426 -2.51982 -3.88664 0
M  V30 2906 C 281.161 -3.21491 -4.74796 0
M  V30 2907 N 280.657 -4.00395 -5.65381 0
M  V30 2908 N 282.45 -3.10485 -4.68568 0
M  V30 2909 H 274.601 -1.86946 -1.00821 0
M  V30 2910 H 276.864 -0.802897 -0.504044 0
M  V30 2911 H 276.57 -2.62172 -2.34432 0
M  V30 2912 H 276.444 -1.33301 -3.52861 0
M  V30 2913 H 278.831 -0.569488 -2.89553 0
M  V30 2914 H 278.912 -1.89142 -1.72218 0
M  V30 2915 H 278.556 -3.56545 -3.61715 0
M  V30 2916 H 278.486 -2.21532 -4.77735 0
M  V30 2917 H 280.977 -1.94681 -3.23895 0
M  V30 2918 H 281.29 -4.50406 -6.27976 0
M  V30 2919 H 279.635 -4.04498 -5.65161 0
M  V30 2920 H 282.826 -2.48331 -3.96799 0
M  V30 2921 H 282.999 -3.64925 -5.35475 0
M  V30 2922 N 276.405 1.4127 -0.698611 0
M  V30 2923 C 277.816 1.84187 -0.305289 0
M  V30 2924 C 278.167 1.58449 1.15708 0
M  V30 2925 O 277.292 1.05651 1.88856 0
M  V30 2926 C 277.887 3.3435 -0.547314 0
M  V30 2927 C 276.446 3.75826 -0.207878 0
M  V30 2928 C 275.593 2.64647 -0.828099 0
M  V30 2929 H 278.544 1.30778 -0.89904 0
M  V30 2930 H 278.565 3.8001 0.192998 0
M  V30 2931 H 278.077 3.53051 -1.61172 0
M  V30 2932 H 276.178 3.62725 0.852143 0
M  V30 2933 H 276.291 4.74462 -0.665021 0
M  V30 2934 H 274.655 2.53395 -0.257458 0
M  V30 2935 H 275.438 2.86165 -1.89643 0
M  V30 2936 N 277.883 0.443576 1.51229 0
M  V30 2937 C 279.132 -0.122332 2.01329 0
M  V30 2938 C 279.445 -1.43237 1.33201 0
M  V30 2939 O 280.651 -2.0816 1.74304 0
M  V30 2940 C 279.107 -0.268551 3.58897 0
M  V30 2941 C 278.715 1.03142 4.35965 0
M  V30 2942 C 280.459 -0.787894 4.17124 0
M  V30 2943 C 278.366 0.850504 5.85252 0
M  V30 2944 H 277.296 -0.0494929 0.752374 0
M  V30 2945 H 279.947 0.574289 1.74282 0
M  V30 2946 H 278.329 -1.02832 3.82415 0
M  V30 2947 H 279.503 1.80001 4.24189 0
M  V30 2948 H 277.818 1.47977 3.89219 0
M  V30 2949 H 280.415 -0.939841 5.26375 0
M  V30 2950 H 280.758 -1.77201 3.76703 0
M  V30 2951 H 281.291 -0.0862669 3.97706 0
M  V30 2952 H 278.03 1.80718 6.30096 0
M  V30 2953 H 277.55 0.121825 5.99676 0
M  V30 2954 H 279.229 0.506163 6.45017 0
M  V30 2955 N 279.361 -1.56624 0.175154 0
M  V30 2956 C 280.609 -1.96609 -0.467885 0
M  V30 2957 C 280.93 -1.06238 -1.63519 0
M  V30 2958 O 280.2 -0.129523 -1.95471 0
M  V30 2959 H 278.78 -0.726008 -0.175845 0
M  V30 2960 H 281.442 -1.93195 0.257234 0
M  V30 2961 H 280.538 -3.00989 -0.825342 0
M  V30 2962 N 280.839 0.0985539 -1.57292 0
M  V30 2963 C 282.087 0.801092 -1.85545 0
M  V30 2964 C 282.408 1.79438 -0.763353 0
M  V30 2965 O 281.678 1.94763 0.21073 0
M  V30 2966 H 280.258 0.29884 -0.684619 0
M  V30 2967 H 282.92 0.0810064 -1.94732 0
M  V30 2968 H 282.016 1.3338 -2.82163 0
M  V30 2969 N 282.317 1.53212 0.369288 0
M  V30 2970 C 283.267 1.75769 1.45222 0
M  V30 2971 C 284.251 0.612136 1.48801 0
M  V30 2972 O 285.443 0.870674 1.54105 0
M  V30 2973 C 282.572 1.94769 2.82701 0
M  V30 2974 C 281.658 3.15315 2.83615 0
M  V30 2975 N 282.049 4.37295 2.54178 0
M  V30 2976 C 280.347 3.15962 3.14776 0
M  V30 2977 C 281.048 5.19015 2.62675 0
M  V30 2978 N 280.024 4.55142 2.97232 0
M  V30 2979 H 283.826 2.67691 1.2132 0
M  V30 2980 H 281.34 1.51787 0.577438 0
M  V30 2981 H 283.337 2.09056 3.60696 0
M  V30 2982 H 281.997 1.04073 3.07569 0
M  V30 2983 H 283.008 4.65091 2.27839 0
M  V30 2984 H 279.685 2.35144 3.44983 0
M  V30 2985 H 281.075 6.26305 2.43294 0
M  V30 2986 N 283.795 -0.628877 1.44509 0
M  V30 2987 C 284.705 -1.7694 1.54044 0
M  V30 2988 C 285.721 -1.68705 0.425987 0
M  V30 2989 O 286.897 -1.89442 0.683656 0
M  V30 2990 C 283.962 -3.13332 1.48405 0
M  V30 2991 C 283.023 -3.33181 2.70719 0
M  V30 2992 C 282.256 -4.63067 2.6534 0
M  V30 2993 O 282.479 -5.44017 1.71469 0
M  V30 2994 O 281.413 -4.85167 3.56226 0
M  V30 2995 H 285.239 -1.71848 2.50403 0
M  V30 2996 H 282.824 -0.790378 1.26781 0
M  V30 2997 H 284.706 -3.94634 1.47791 0
M  V30 2998 H 283.381 -3.1896 0.551898 0
M  V30 2999 H 282.288 -2.51549 2.769 0
M  V30 3000 H 283.621 -3.32416 3.62988 0
M  V30 3001 N 285.273 -1.31445 -0.869486 0
M  V30 3002 C 286.684 -1.19042 -1.43826 0
M  V30 3003 C 287.035 0.202919 -1.95148 0
M  V30 3004 O 286.16 1.10071 -1.86315 0
M  V30 3005 C 286.755 -2.15499 -2.6143 0
M  V30 3006 C 285.314 -2.07028 -3.14351 0
M  V30 3007 C 284.461 -2.04701 -1.87063 0
M  V30 3008 H 287.412 -1.43489 -0.677984 0
M  V30 3009 H 287.433 -1.74488 -3.38134 0
M  V30 3010 H 286.945 -3.16899 -2.24046 0
M  V30 3011 H 285.046 -1.08825 -3.56354 0
M  V30 3012 H 285.159 -2.96157 -3.766 0
M  V30 3013 H 283.523 -1.49724 -2.06046 0
M  V30 3014 H 284.306 -3.07857 -1.51917 0
M  V30 3015 N 286.751 1.08385 -1.14413 0
M  V30 3016 C 288 1.80153 -0.907076 0
M  V30 3017 C 288.313 1.87176 0.567851 0
M  V30 3018 O 289.519 2.55359 0.922172 0
M  V30 3019 C 287.975 3.23687 -1.57336 0
M  V30 3020 C 287.583 3.24897 -3.08457 0
M  V30 3021 C 289.327 4.00136 -1.41744 0
M  V30 3022 C 287.234 4.6302 -3.67921 0
M  V30 3023 H 286.164 0.675139 -0.335714 0
M  V30 3024 H 288.815 1.21733 -1.37307 0
M  V30 3025 H 287.197 3.82234 -1.03505 0
M  V30 3026 H 288.371 2.76055 -3.68958 0
M  V30 3027 H 286.686 2.61943 -3.2369 0
M  V30 3028 H 289.283 5.02201 -1.83572 0
M  V30 3029 H 289.626 4.14709 -0.363576 0
M  V30 3030 H 290.159 3.48058 -1.92614 0
M  V30 3031 H 286.898 4.5365 -4.73161 0
M  V30 3032 H 286.418 5.12143 -3.12201 0
M  V30 3033 H 288.097 5.31994 -3.68227 0
M  V30 3034 N 288.23 0.939286 1.26551 0
M  V30 3035 C 289.507 0.5038 1.89001 0
M  V30 3036 C 289.887 -1.01854 1.84903 0
M  V30 3037 O 289.235 -1.87773 1.30206 0
M  V30 3038 C 289.445 1.063 3.32417 0
M  V30 3039 C 290.793 1.13051 4.09273 0
M  V30 3040 O 291.817 1.01345 3.41479 0
M  V30 3041 O 290.676 1.31233 5.30509 0
M  V30 3042 H 287.77 0.163897 0.810597 0
M  V30 3043 H 290.316 1.03173 1.34735 0
M  V30 3044 H 289.088 2.10665 3.29752 0
M  V30 3045 H 288.711 0.517408 3.94219 0
M  V30 3046 N 289.708 -1.40897 0.706093 0
M  V30 3047 C 290.954 -2.01849 0.250681 0
M  V30 3048 C 291.309 -1.5496 -1.14041 0
M  V30 3049 O 290.602 -0.755566 -1.76073 0
M  V30 3050 C 290.796 -3.5646 0.259099 0
M  V30 3051 C 290.625 -4.18357 1.64947 0
M  V30 3052 C 289.395 -4.522 2.25485 0
M  V30 3053 C 291.593 -4.43856 2.598 0
M  V30 3054 N 289.575 -4.9944 3.56977 0
M  V30 3055 C 290.946 -4.92986 3.75985 0
M  V30 3056 C 293.001 -4.25882 2.57933 0
M  V30 3057 C 291.704 -5.2603 4.90597 0
M  V30 3058 C 293.73 -4.6002 3.71665 0
M  V30 3059 C 293.092 -5.09331 4.86581 0
M  V30 3060 H 289.191 -0.769843 0.137353 0
M  V30 3061 H 291.775 -1.71278 0.925845 0
M  V30 3062 H 289.946 -3.86481 -0.385592 0
M  V30 3063 H 291.678 -4.04144 -0.21213 0
M  V30 3064 H 288.433 -4.3901 1.77671 0
M  V30 3065 H 288.857 -5.27454 4.24407 0
M  V30 3066 H 293.499 -3.86986 1.70298 0
M  V30 3067 H 291.217 -5.63843 5.78884 0
M  V30 3068 H 294.803 -4.47762 3.71484 0
M  V30 3069 H 293.683 -5.35251 5.73129 0
M  V30 3070 N 291.186 -0.45159 -1.50991 0
M  V30 3071 C 292.096 0.358431 -2.31846 0
M  V30 3072 C 293.112 1.01438 -1.41373 0
M  V30 3073 O 294.288 1.00663 -1.74439 0
M  V30 3074 C 291.353 1.43704 -3.15515 0
M  V30 3075 C 290.414 0.799742 -4.21785 0
M  V30 3076 C 289.647 1.82696 -5.01456 0
M  V30 3077 O 289.87 3.05105 -4.81941 0
M  V30 3078 O 288.804 1.40958 -5.85162 0
M  V30 3079 H 292.63 -0.302032 -3.02194 0
M  V30 3080 H 290.215 -0.213825 -1.47862 0
M  V30 3081 H 292.097 2.06227 -3.67489 0
M  V30 3082 H 290.772 2.08133 -2.47916 0
M  V30 3083 H 289.679 0.136084 -3.73852 0
M  V30 3084 H 291.012 0.198718 -4.91799 0
M  V30 3085 N 292.664 1.56529 -0.183458 0
M  V30 3086 C 293.612 2.19873 0.758845 0
M  V30 3087 C 294.606 1.16638 1.22849 0
M  V30 3088 O 295.812 1.3481 1.19274 0
M  V30 3089 H 292.187 0.7045 0.263029 0
M  V30 3090 H 294.158 2.97724 0.200755 0
M  V30 3091 C 292.907 2.86314 1.9728 0
M  V30 3092 H 292.23 3.65487 1.62047 0
M  V30 3093 H 293.67 3.3409 2.61075 0
M  V30 3094 C 292.129 1.86729 2.80418 0
M  V30 3095 O 292.659 1.36031 3.77966 0
M  V30 3096 N 290.865 1.55216 2.45675 0
M  V30 3097 H 290.412 1.96636 1.66409 0
M  V30 3098 H 290.37 0.888388 3.01588 0
M  V30 3099 N 294.142 -0.090211 1.57342 0
M  V30 3100 C 295.105 -1.09335 2.01441 0
M  V30 3101 C 296.105 -1.32666 0.908641 0
M  V30 3102 O 297.295 -1.28697 1.174 0
M  V30 3103 C 294.427 -2.44136 2.3793 0
M  V30 3104 H 295.62 -0.713662 2.91285 0
M  V30 3105 H 293.173 -0.335404 1.52659 0
M  V30 3106 H 293.908 -2.86972 1.51055 0
M  V30 3107 H 293.693 -2.28548 3.18603 0
M  V30 3108 H 295.183 -3.16277 2.72688 0
M  V30 3109 N 295.62 -1.53406 -0.361157 0
M  V30 3110 C 297.036 -1.43277 -0.703124 0
M  V30 3111 C 297.236 -0.575384 -1.9311 0
M  V30 3112 O 296.292 -0.0595362 -2.5243 0
M  V30 3113 C 297.605 -2.8653 -0.9122 0
M  V30 3114 C 299.153 -2.96191 -1.01193 0
M  V30 3115 C 299.628 -4.40514 -1.25345 0
M  V30 3116 N 301.119 -4.43962 -1.32105 0
M  V30 3117 C 301.854 -5.52746 -1.5251 0
M  V30 3118 N 301.35 -6.71567 -1.70203 0
M  V30 3119 N 303.143 -5.40331 -1.54916 0
M  V30 3120 H 295.294 -2.07654 0.446475 0
M  V30 3121 H 297.557 -0.937944 0.137715 0
M  V30 3122 H 297.263 -3.51605 -0.0816414 0
M  V30 3123 H 297.137 -3.30441 -1.81903 0
M  V30 3124 H 299.524 -2.31266 -1.83303 0
M  V30 3125 H 299.605 -2.55667 -0.0823929 0
M  V30 3126 H 299.249 -5.06014 -0.437346 0
M  V30 3127 H 299.179 -4.78614 -2.19627 0
M  V30 3128 H 301.67 -3.58332 -1.20028 0
M  V30 3129 H 301.983 -7.50241 -1.85359 0
M  V30 3130 H 300.328 -6.74545 -1.67373 0
M  V30 3131 H 303.519 -4.46465 -1.40663 0
M  V30 3132 H 303.692 -6.25173 -1.70477 0
M  V30 3133 N 297.098 0.621204 -1.44841 0
M  V30 3134 C 298.328 1.40548 -1.51426 0
M  V30 3135 C 298.736 1.88673 -0.141083 0
M  V30 3136 O 298.079 1.62053 0.865128 0
M  V30 3137 C 298.141 2.65325 -2.42576 0
M  V30 3138 C 297.805 2.3893 -3.89566 0
M  V30 3139 C 298.802 2.00138 -4.79834 0
M  V30 3140 C 296.487 2.52263 -4.3436 0
M  V30 3141 C 298.481 1.75021 -6.129 0
M  V30 3142 C 296.168 2.2676 -5.67471 0
M  V30 3143 C 297.166 1.88199 -6.56559 0
M  V30 3144 O 296.854 1.62986 -7.87204 0
M  V30 3145 H 296.586 0.437122 -0.515655 0
M  V30 3146 H 299.14 0.765987 -1.90583 0
M  V30 3147 H 297.37 3.31947 -1.98364 0
M  V30 3148 H 299.059 3.27347 -2.39998 0
M  V30 3149 H 299.825 1.89386 -4.46495 0
M  V30 3150 H 295.704 2.81246 -3.65269 0
M  V30 3151 H 299.248 1.44848 -6.82396 0
M  V30 3152 H 295.145 2.37125 -6.00368 0
M  V30 3153 H 295.913 1.7715 -7.991 0
M  V30 3154 N 298.576 1.31904 0.862503 0
M  V30 3155 C 299.825 1.21373 1.61094 0
M  V30 3156 C 300.138 -0.22504 1.94301 0
M  V30 3157 O 301.344 -0.452121 2.67709 0
M  V30 3158 C 299.8 2.12525 2.9045 0
M  V30 3159 C 299.408 3.61441 2.64697 0
M  V30 3160 C 301.152 2.10813 3.68454 0
M  V30 3161 C 299.059 4.44578 3.90006 0
M  V30 3162 H 297.989 0.450705 0.604468 0
M  V30 3163 H 300.64 1.56811 0.953027 0
M  V30 3164 H 299.022 1.69994 3.57656 0
M  V30 3165 H 300.196 4.12264 2.05851 0
M  V30 3166 H 298.511 3.65205 2.00036 0
M  V30 3167 H 301.108 2.70167 4.61426 0
M  V30 3168 H 301.451 1.09713 4.01583 0
M  V30 3169 H 301.984 2.51583 3.08141 0
M  V30 3170 H 298.723 5.46461 3.62023 0
M  V30 3171 H 298.243 3.98508 4.48276 0
M  V30 3172 H 299.922 4.57176 4.5782 0
M  V30 3173 N 300.054 -1.07777 1.14986 0
M  V30 3174 C 301.3 -1.80557 0.923422 0
M  V30 3175 C 301.633 -1.86298 -0.548337 0
M  V30 3176 O 300.908 -1.34354 -1.40639 0
M  V30 3177 C 301.191 -3.25839 1.53299 0
M  V30 3178 C 301.044 -3.28269 3.07505 0
M  V30 3179 C 302.363 -4.22991 1.21518 0
M  V30 3180 H 299.482 -0.655493 0.336894 0
M  V30 3181 H 302.124 -1.26144 1.42083 0
M  V30 3182 H 300.274 -3.72306 1.10999 0
M  V30 3183 H 301.946 -2.90079 3.58681 0
M  V30 3184 H 300.189 -2.67355 3.4162 0
M  V30 3185 H 300.86 -4.30691 3.45266 0
M  V30 3186 H 303.336 -3.84894 1.581 0
M  V30 3187 H 302.212 -5.22945 1.66793 0
M  V30 3188 H 302.473 -4.41904 0.131505 0
M  V30 3189 N 301.532 -0.945985 -1.26051 0
M  V30 3190 C 302.462 -0.477172 -2.28572 0
M  V30 3191 C 303.443 0.472032 -1.63419 0
M  V30 3192 O 304.628 0.372853 -1.90587 0
M  V30 3193 C 301.758 0.253975 -3.4637 0
M  V30 3194 C 300.712 -0.609135 -4.23643 0
M  V30 3195 C 300.038 0.252252 -5.34105 0
M  V30 3196 C 301.338 -1.8829 -4.8718 0
M  V30 3197 H 303.032 -1.33402 -2.68038 0
M  V30 3198 H 300.578 -0.642904 -1.28852 0
M  V30 3199 H 302.531 0.593016 -4.17207 0
M  V30 3200 H 301.255 1.145 -3.05871 0
M  V30 3201 H 299.914 -0.931138 -3.54578 0
M  V30 3202 H 299.562 1.14278 -4.89846 0
M  V30 3203 H 299.262 -0.32188 -5.86718 0
M  V30 3204 H 300.786 0.586454 -6.07777 0
M  V30 3205 H 302.2 -1.61081 -5.50205 0
M  V30 3206 H 300.597 -2.40199 -5.49931 0
M  V30 3207 H 301.667 -2.59134 -4.09851 0
M  V30 3208 N 303.011 1.40521 -0.713556 0
M  V30 3209 C 304.26 2.00155 -0.249192 0
M  V30 3210 C 304.573 1.57224 1.16362 0
M  V30 3211 O 305.779 2.09542 1.72639 0
M  V30 3212 C 304.235 3.5773 -0.3946 0
M  V30 3213 C 303.843 4.09635 -1.81392 0
M  V30 3214 C 305.587 4.24499 0.00907364 0
M  V30 3215 C 303.494 5.59707 -1.91003 0
M  V30 3216 H 302.424 0.74868 -0.0894114 0
M  V30 3217 H 305.075 1.60784 -0.884352 0
M  V30 3218 H 303.457 3.94792 0.30911 0
M  V30 3219 H 304.631 3.83955 -2.54785 0
M  V30 3220 H 302.946 3.55456 -2.16888 0
M  V30 3221 H 305.543 5.34683 -0.0420404 0
M  V30 3222 H 305.886 4.02824 1.05065 0
M  V30 3223 H 306.419 3.92536 -0.645007 0
M  V30 3224 H 303.158 5.86234 -2.93275 0
M  V30 3225 H 302.678 5.87258 -1.22019 0
M  V30 3226 H 304.357 6.24776 -1.6812 0
M  V30 3227 N 304.489 0.459591 1.5075 0
M  V30 3228 C 305.737 -0.0991532 2.01857 0
M  V30 3229 C 306.058 -1.41247 1.34441 0
M  V30 3230 O 305.328 -1.89775 0.486022 0
M  V30 3231 H 303.908 -0.039633 0.745948 0
M  V30 3232 H 306.57 0.607387 1.85194 0
M  V30 3233 H 305.666 -0.258998 3.11023 0
M  V30 3234 N 305.967 -1.56429 0.191757 0
M  V30 3235 C 306.917 -2.15548 -0.743184 0
M  V30 3236 C 307.901 -1.09531 -1.17863 0
M  V30 3237 O 309.093 -1.35602 -1.13759 0
M  V30 3238 C 306.222 -2.81577 -1.96391 0
M  V30 3239 C 305.308 -3.9478 -1.54951 0
M  V30 3240 N 305.699 -4.98677 -0.845876 0
M  V30 3241 C 303.997 -4.06319 -1.83905 0
M  V30 3242 C 304.698 -5.78183 -0.638724 0
M  V30 3243 N 303.674 -5.30495 -1.18643 0
M  V30 3244 H 307.476 -2.9324 -0.196839 0
M  V30 3245 H 304.99 -1.62398 -0.0081603 0
M  V30 3246 H 306.987 -3.22321 -2.64415 0
M  V30 3247 H 305.647 -2.05371 -2.51501 0
M  V30 3248 H 306.658 -5.15464 -0.501704 0
M  V30 3249 H 303.335 -3.41238 -2.40548 0
M  V30 3250 H 304.725 -6.71851 -0.0807929 0
M  V30 3251 N 307.445 0.0818655 -1.57387 0
M  V30 3252 C 308.395 1.10501 -1.99433 0
M  V30 3253 C 309.379 1.35041 -0.874798 0
M  V30 3254 O 310.571 1.35511 -1.13868 0
M  V30 3255 C 307.7 2.42159 -2.43339 0
M  V30 3256 C 306.786 2.20937 -3.62005 0
M  V30 3257 N 307.177 1.69616 -4.76512 0
M  V30 3258 C 305.475 2.51451 -3.68359 0
M  V30 3259 C 306.176 1.62973 -5.58404 0
M  V30 3260 N 305.152 2.08664 -5.01956 0
M  V30 3261 H 308.954 0.701373 -2.85408 0
M  V30 3262 H 306.468 0.289096 -1.59806 0
M  V30 3263 H 308.465 3.16208 -2.71695 0
M  V30 3264 H 307.125 2.83249 -1.58746 0
M  V30 3265 H 308.136 1.38624 -4.99003 0
M  V30 3266 H 304.813 2.95975 -2.94457 0
M  V30 3267 H 306.203 1.24233 -6.60315 0
M  V30 3268 N 308.923 1.53595 0.353017 0
M  V30 3269 C 310.172 1.69603 1.09168 0
M  V30 3270 C 310.485 0.460925 1.90092 0
M  V30 3271 O 311.691 0.501774 2.66823 0
M  V30 3272 C 310.147 2.99872 1.9901 0
M  V30 3273 C 309.755 4.30687 1.23339 0
M  V30 3274 C 311.499 3.25246 2.72792 0
M  V30 3275 C 309.406 5.52036 2.12156 0
M  V30 3276 H 308.336 0.631966 0.411261 0
M  V30 3277 H 310.987 1.80096 0.351802 0
M  V30 3278 H 309.369 2.83212 2.7678 0
M  V30 3279 H 310.543 4.58019 0.505456 0
M  V30 3280 H 308.858 4.11853 0.613663 0
M  V30 3281 H 311.455 4.13095 3.39495 0
M  V30 3282 H 311.798 2.41846 3.38846 0
M  V30 3283 H 312.331 3.42638 2.021 0
M  V30 3284 H 309.07 6.37951 1.50659 0
M  V30 3285 H 308.59 5.28966 2.82764 0
M  V30 3286 H 310.269 5.87313 2.71427 0
M  V30 3287 N 310.401 -0.613514 1.45168 0
M  V30 3288 C 311.649 -1.36997 1.48581 0
M  V30 3289 C 311.97 -1.94589 0.126545 0
M  V30 3290 O 311.24 -1.76816 -0.843372 0
M  V30 3291 H 309.82 -0.508558 0.547154 0
M  V30 3292 H 312.482 -0.720853 1.81079 0
M  V30 3293 H 311.578 -2.1924 2.22127 0
M  V30 3294 N 311.879 -1.3236 -0.855495 0
M  V30 3295 C 312.789 -1.23221 -1.99634 0
M  V30 3296 C 313.805 -0.145983 -1.73387 0
M  V30 3297 O 314.981 -0.366502 -1.98037 0
M  V30 3298 C 312.046 -0.954782 -3.33294 0
M  V30 3299 C 311.107 -2.12937 -3.72769 0
M  V30 3300 C 310.34 -1.86508 -5.00051 0
M  V30 3301 O 310.563 -0.807231 -5.64659 0
M  V30 3302 O 309.497 -2.72591 -5.36636 0
M  V30 3303 H 313.323 -2.19126 -2.1028 0
M  V30 3304 H 310.908 -1.12241 -0.986018 0
M  V30 3305 H 312.79 -0.816519 -4.13414 0
M  V30 3306 H 311.465 -0.0258854 -3.2369 0
M  V30 3307 H 310.372 -2.3231 -2.93228 0
M  V30 3308 H 311.705 -3.04102 -3.87018 0
M  V30 3309 N 313.357 1.07166 -1.15556 0
M  V30 3310 C 314.634 1.76546 -0.842069 0
M  V30 3311 C 315.014 2.00453 0.661939 0
M  V30 3312 O 314.362 1.62452 1.60691 0
M  V30 3313 C 314.572 3.07266 -1.65495 0
M  V30 3314 C 315.92 3.81578 -1.86234 0
M  V30 3315 O 316.944 3.17083 -1.62287 0
M  V30 3316 O 315.803 4.97419 -2.26355 0
M  V30 3317 H 312.897 0.766756 -0.309862 0
M  V30 3318 H 315.443 1.13514 -1.26145 0
M  V30 3319 H 314.215 2.85494 -2.67598 0
M  V30 3320 H 313.838 3.7803 -1.23203 0
M  V30 3321 N 314.835 0.952656 1.25548 0
M  V30 3322 C 316.063 0.623496 1.97282 0
M  V30 3323 C 316.478 -0.803987 1.70826 0
M  V30 3324 O 315.835 -1.53755 0.983147 0
M  V30 3325 C 315.886 0.870209 3.5087 0
M  V30 3326 O 315.607 2.24156 3.76412 0
M  V30 3327 C 317.108 0.553164 4.39835 0
M  V30 3328 H 314.328 0.233931 0.628902 0
M  V30 3329 H 316.872 1.27649 1.59768 0
M  V30 3330 H 315.027 0.263652 3.86502 0
M  V30 3331 H 315.441 2.31021 4.70882 0
M  V30 3332 H 316.915 0.776342 5.46513 0
M  V30 3333 H 317.392 -0.512215 4.36203 0
M  V30 3334 H 317.998 1.13896 4.09766 0
M  V30 3335 N 316.313 -1.40141 0.720998 0
M  V30 3336 C 317.263 -2.27949 0.0482544 0
M  V30 3337 C 318.247 -1.43538 -0.727021 0
M  V30 3338 O 319.439 -1.6658 -0.598332 0
M  V30 3339 C 316.568 -3.32126 -0.868729 0
M  V30 3340 C 315.654 -4.24008 -0.0883515 0
M  V30 3341 N 316.045 -4.97154 0.931226 0
M  V30 3342 C 314.343 -4.4485 -0.320105 0
M  V30 3343 C 315.044 -5.64587 1.4006 0
M  V30 3344 N 314.02 -5.38787 0.721752 0
M  V30 3345 H 317.822 -2.81948 0.829609 0
M  V30 3346 H 315.336 -1.52656 0.554067 0
M  V30 3347 H 317.333 -3.93884 -1.36605 0
M  V30 3348 H 315.993 -2.79687 -1.6494 0
M  V30 3349 H 317.004 -5.01 1.31222 0
M  V30 3350 H 313.681 -4.03378 -1.07668 0
M  V30 3351 H 315.071 -6.33175 2.24808 0
M  V30 3352 N 317.792 -0.46758 -1.50504 0
M  V30 3353 C 318.74 0.342482 -2.30065 0
M  V30 3354 C 319.734 0.993596 -1.37201 0
M  V30 3355 O 320.94 0.925102 -1.54408 0
M  V30 3356 H 317.315 0.129283 -0.740803 0
M  V30 3357 H 319.286 -0.34899 -2.96352 0
M  V30 3358 C 318.035 1.4139 -3.17654 0
M  V30 3359 H 317.358 0.922264 -3.89017 0
M  V30 3360 H 318.798 1.95335 -3.76325 0
M  V30 3361 C 317.257 2.4139 -2.35016 0
M  V30 3362 O 317.787 3.46586 -2.03079 0
M  V30 3363 N 315.993 2.13021 -1.97662 0
M  V30 3364 H 315.54 1.27499 -2.23834 0
M  V30 3365 H 315.498 2.80164 -1.42673 0
M  V30 3366 N 319.27 1.56325 -0.20005 0
M  V30 3367 C 320.498 2.02105 0.442874 0
M  V30 3368 C 320.913 1.08014 1.5485 0
M  V30 3369 O 320.27 0.0858797 1.82298 0
M  V30 3370 C 320.321 3.47549 0.994583 0
M  V30 3371 O 320.042 4.38049 -0.0669322 0
M  V30 3372 C 321.543 4.0887 1.7129 0
M  V30 3373 H 318.763 0.661807 0.110691 0
M  V30 3374 H 321.307 2.02134 -0.310207 0
M  V30 3375 H 319.462 3.48204 1.69803 0
M  V30 3376 H 319.876 5.23368 0.344462 0
M  V30 3377 H 321.35 5.12475 2.05118 0
M  V30 3378 H 321.827 3.52615 2.61838 0
M  V30 3379 H 322.433 4.12002 1.05518 0
M  V30 3380 N 320.748 -0.0735177 1.57428 0
M  V30 3381 C 321.68 -1.11423 2.00294 0
M  V30 3382 C 322.693 -1.35084 0.908637 0
M  V30 3383 O 323.882 -1.33355 1.18654 0
M  V30 3384 C 320.982 -2.46548 2.32523 0
M  V30 3385 C 320.155 -2.42867 3.63778 0
M  V30 3386 C 319.214 -3.60087 3.83697 0
M  V30 3387 O 318.24 -3.41595 4.55304 0
M  V30 3388 N 319.442 -4.80372 3.25919 0
M  V30 3389 H 322.207 -0.749206 2.90184 0
M  V30 3390 H 319.768 -0.262195 1.59763 0
M  V30 3391 H 321.76 -3.23607 2.43024 0
M  V30 3392 H 320.33 -2.75059 1.48531 0
M  V30 3393 H 319.55 -1.51206 3.64047 0
M  V30 3394 H 320.838 -2.37506 4.49965 0
M  V30 3395 H 320.236 -4.983 2.67795 0
M  V30 3396 H 318.793 -5.54948 3.41871 0
M  V30 3397 N 322.226 -1.5378 -0.344866 0
M  V30 3398 C 323.156 -1.84662 -1.42906 0
M  V30 3399 C 324.137 -0.701648 -1.54955 0
M  V30 3400 O 325.322 -0.953438 -1.69184 0
M  V30 3401 C 322.452 -2.05503 -2.79974 0
M  V30 3402 C 321.406 -3.21318 -2.82734 0
M  V30 3403 C 320.732 -3.2749 -4.22675 0
M  V30 3404 C 322.032 -4.59456 -2.48389 0
M  V30 3405 H 323.726 -2.75461 -1.17311 0
M  V30 3406 H 321.272 -1.32542 -0.562896 0
M  V30 3407 H 323.225 -2.25691 -3.55867 0
M  V30 3408 H 321.949 -1.11434 -3.07002 0
M  V30 3409 H 320.608 -3.00984 -2.09294 0
M  V30 3410 H 320.256 -2.31019 -4.4681 0
M  V30 3411 H 319.956 -4.05316 -4.25433 0
M  V30 3412 H 321.48 -3.49887 -5.00412 0
M  V30 3413 H 322.894 -4.79667 -3.13995 0
M  V30 3414 H 321.291 -5.39675 -2.62432 0
M  V30 3415 H 322.361 -4.63155 -1.4358 0
M  V30 3416 N 323.704 0.605807 -1.45491 0
M  V30 3417 C 324.636 1.73031 -1.5031 0
M  V30 3418 C 325.649 1.57968 -0.393687 0
M  V30 3419 O 326.838 1.65817 -0.660839 0
M  V30 3420 C 323.938 3.11049 -1.34543 0
M  V30 3421 C 323.111 3.52334 -2.59189 0
M  V30 3422 C 322.17 4.69323 -2.37954 0
M  V30 3423 O 321.196 4.7635 -3.11575 0
M  V30 3424 N 322.398 5.62705 -1.4263 0
M  V30 3425 H 325.163 1.6936 -2.4726 0
M  V30 3426 H 322.724 0.79114 -1.41254 0
M  V30 3427 H 324.716 3.87071 -1.18144 0
M  V30 3428 H 323.286 3.09217 -0.458623 0
M  V30 3429 H 322.506 2.66256 -2.90691 0
M  V30 3430 H 323.794 3.76677 -3.42041 0
M  V30 3431 H 323.192 5.59744 -0.818758 0
M  V30 3432 H 321.749 6.38252 -1.32202 0
M  V30 3433 N 325.182 1.32811 0.848464 0
M  V30 3434 C 326.459 1.14334 1.58704 0
M  V30 3435 C 326.839 -0.293948 2.09043 0
M  V30 3436 O 326.187 -1.29153 1.88499 0
M  V30 3437 C 326.397 2.17626 2.72837 0
M  V30 3438 C 327.745 2.51282 3.42261 0
M  V30 3439 O 328.769 2.16219 2.83068 0
M  V30 3440 O 327.628 3.11413 4.49093 0
M  V30 3441 H 324.722 0.441601 0.699226 0
M  V30 3442 H 327.268 1.44362 0.892053 0
M  V30 3443 H 326.04 3.14211 2.3321 0
M  V30 3444 H 325.663 1.88628 3.50008 0
M  V30 3445 N 326.66 -1.06551 1.16123 0
M  V30 3446 C 327.907 -1.79302 0.941126 0
M  V30 3447 C 328.235 -1.87105 -0.531235 0
M  V30 3448 O 327.49 -1.35692 -1.41018 0
M  V30 3449 C 327.789 -3.23911 1.51052 0
M  V30 3450 C 327.455 -3.36193 3.00475 0
M  V30 3451 C 326.117 -3.39252 3.41265 0
M  V30 3452 C 328.469 -3.38326 3.96465 0
M  V30 3453 C 325.797 -3.42057 4.76669 0
M  V30 3454 C 328.149 -3.4267 5.31752 0
M  V30 3455 C 326.813 -3.4401 5.72026 0
M  V30 3456 H 326.083 -0.656111 0.344382 0
M  V30 3457 H 328.73 -1.25325 1.44796 0
M  V30 3458 H 327.035 -3.80723 0.925063 0
M  V30 3459 H 328.732 -3.78793 1.31593 0
M  V30 3460 H 325.322 -3.34516 2.6795 0
M  V30 3461 H 329.506 -3.35176 3.6602 0
M  V30 3462 H 324.762 -3.41398 5.07206 0
M  V30 3463 H 328.936 -3.43268 6.05921 0
M  V30 3464 H 326.563 -3.45937 6.76928 0
M  V30 3465 N 328.138 -0.959301 -1.25041 0
M  V30 3466 C 329.101 -0.487677 -2.23952 0
M  V30 3467 C 330.101 0.41119 -1.55454 0
M  V30 3468 O 331.291 0.207825 -1.72956 0
M  V30 3469 C 328.423 0.294807 -3.39623 0
M  V30 3470 H 329.616 -1.36198 -2.67189 0
M  V30 3471 H 327.169 -0.743042 -1.37508 0
M  V30 3472 H 327.904 1.18658 -3.01813 0
M  V30 3473 H 327.689 -0.35012 -3.90534 0
M  V30 3474 H 329.179 0.614089 -4.1306 0
M  V30 3475 N 329.616 1.39756 -0.72842 0
M  V30 3476 C 330.546 2.33289 -0.0991354 0
M  V30 3477 C 331.527 1.53568 0.731489 0
M  V30 3478 O 332.712 1.81987 0.677807 0
M  V30 3479 C 329.842 3.3763 0.813834 0
M  V30 3480 C 328.796 4.2791 0.0878663 0
M  V30 3481 C 328.122 5.22894 1.11741 0
M  V30 3482 C 329.422 5.11314 -1.06563 0
M  V30 3483 H 331.116 2.86163 -0.880408 0
M  V30 3484 H 328.662 1.37591 -0.424819 0
M  V30 3485 H 330.615 4.0201 1.26355 0
M  V30 3486 H 329.339 2.83181 1.62715 0
M  V30 3487 H 327.998 3.65 -0.342159 0
M  V30 3488 H 327.646 4.64744 1.92412 0
M  V30 3489 H 327.346 5.84143 0.636477 0
M  V30 3490 H 328.87 5.90151 1.56697 0
M  V30 3491 H 330.284 5.69076 -0.694671 0
M  V30 3492 H 328.681 5.81671 -1.47577 0
M  V30 3493 H 329.751 4.46534 -1.89038 0
M  V30 3494 N 331.094 0.475555 1.50254 0
M  V30 3495 C 332.057 -0.305016 2.27161 0
M  V30 3496 C 333.057 -0.916519 1.32123 0
M  V30 3497 O 334.247 -0.785003 1.5551 0
M  V30 3498 C 331.379 -1.43496 3.09227 0
M  V30 3499 H 332.572 0.369511 2.97615 0
M  V30 3500 H 330.125 0.229747 1.54602 0
M  V30 3501 H 330.86 -2.14441 2.43281 0
M  V30 3502 H 330.645 -1.00223 3.79075 0
M  V30 3503 H 332.135 -1.98548 3.67381 0
M  V30 3504 N 332.573 -1.56217 0.208337 0
M  V30 3505 C 333.503 -2.22694 -0.702116 0
M  V30 3506 C 334.484 -1.19432 -1.2112 0
M  V30 3507 O 335.669 -1.47978 -1.25762 0
M  V30 3508 C 332.799 -2.8966 -1.9161 0
M  V30 3509 C 331.753 -3.9928 -1.5414 0
M  V30 3510 C 331.079 -4.53476 -2.83308 0
M  V30 3511 C 332.379 -5.17012 -0.741339 0
M  V30 3512 H 334.073 -2.99034 -0.147898 0
M  V30 3513 H 331.619 -1.43831 -0.0696951 0
M  V30 3514 H 333.572 -3.34852 -2.55836 0
M  V30 3515 H 332.296 -2.10746 -2.49507 0
M  V30 3516 H 330.955 -3.54799 -0.922668 0
M  V30 3517 H 330.603 -3.71308 -3.39322 0
M  V30 3518 H 330.303 -5.27451 -2.58976 0
M  V30 3519 H 331.827 -5.01378 -3.485 0
M  V30 3520 H 333.241 -5.58667 -1.28699 0
M  V30 3521 H 331.638 -5.97137 -0.595627 0
M  V30 3522 H 332.708 -4.8423 0.254851 0
M  V30 3523 N 334.051 0.0651679 -1.57465 0
M  V30 3524 C 334.998 1.07675 -2.04144 0
M  V30 3525 C 335.968 1.38071 -0.923335 0
M  V30 3526 O 337.153 1.49026 -1.19146 0
M  V30 3527 C 334.293 2.38337 -2.49579 0
M  V30 3528 C 333.406 2.14413 -3.75035 0
M  V30 3529 C 332.541 3.38686 -4.09225 0
M  V30 3530 C 331.58 3.10156 -5.27702 0
M  V30 3531 N 330.717 4.26778 -5.57499 0
M  V30 3532 H 335.557 0.671716 -2.90331 0
M  V30 3533 H 333.094 0.3201 -1.43575 0
M  V30 3534 H 335.052 3.14632 -2.73975 0
M  V30 3535 H 333.682 2.7663 -1.6636 0
M  V30 3536 H 332.734 1.2878 -3.57939 0
M  V30 3537 H 334.046 1.89344 -4.61466 0
M  V30 3538 H 333.2 4.23373 -4.34558 0
M  V30 3539 H 331.939 3.66837 -3.21374 0
M  V30 3540 H 330.944 2.23866 -5.02159 0
M  V30 3541 H 332.169 2.8332 -6.17176 0
M  V30 3542 H 330.115 4.54948 -4.72608 0
M  V30 3543 H 330.032 4.05005 -6.38362 0
M  V30 3544 H 331.3 5.12443 -5.87386 0
M  V30 3545 N 335.529 1.53961 0.336706 0
M  V30 3546 C 336.477 1.83136 1.43401 0
M  V30 3547 C 337.471 0.702313 1.54156 0
M  V30 3548 O 338.677 0.885765 1.56698 0
M  V30 3549 H 335.052 0.580309 0.478273 0
M  V30 3550 H 337.023 2.74925 1.16012 0
M  V30 3551 C 335.772 2.06385 2.79822 0
M  V30 3552 H 335.095 2.92718 2.72316 0
M  V30 3553 H 336.535 2.30761 3.55704 0
M  V30 3554 C 334.994 0.851414 3.25964 0
M  V30 3555 O 335.524 0.0541904 4.01663 0
M  V30 3556 N 333.73 0.66672 2.82848 0
M  V30 3557 H 333.277 1.31665 2.21409 0
M  V30 3558 H 333.235 -0.143032 3.14074 0
M  V30 3559 N 337.007 -0.598083 1.45811 0
M  V30 3560 C 338.255 -1.35413 1.50026 0
M  V30 3561 C 338.576 -1.94444 0.147177 0
M  V30 3562 O 337.846 -1.77701 -0.824571 0
M  V30 3563 H 336.426 -0.502727 0.552517 0
M  V30 3564 H 339.088 -0.701606 1.81834 0
M  V30 3565 H 338.184 -2.16871 2.2444 0
M  V30 3566 N 338.485 -1.33259 -0.841409 0
M  V30 3567 C 339.448 -1.23221 -1.9326 0
M  V30 3568 C 340.448 -0.151895 -1.60081 0
M  V30 3569 O 341.638 -0.403246 -1.69468 0
M  V30 3570 C 338.77 -0.898123 -3.28856 0
M  V30 3571 H 339.963 -2.2021 -2.03587 0
M  V30 3572 H 337.516 -1.17281 -1.03319 0
M  V30 3573 H 338.251 0.0693841 -3.24226 0
M  V30 3574 H 338.036 -1.67934 -3.54317 0
M  V30 3575 H 339.526 -0.852563 -4.08805 0
M  V30 3576 N 339.963 1.05934 -1.16686 0
M  V30 3577 C 340.91 2.13499 -0.876748 0
M  V30 3578 C 341.88 1.65162 0.176299 0
M  V30 3579 O 343.065 1.90757 0.0407143 0
M  V30 3580 C 340.205 3.42912 -0.387967 0
M  V30 3581 C 339.318 4.04964 -1.50426 0
M  V30 3582 C 338.453 5.22266 -0.970125 0
M  V30 3583 C 337.492 5.76309 -2.06238 0
M  V30 3584 N 336.629 6.84922 -1.54356 0
M  V30 3585 H 341.469 2.37654 -1.7979 0
M  V30 3586 H 339.006 1.16598 -0.896843 0
M  V30 3587 H 340.964 4.17111 -0.086186 0
M  V30 3588 H 339.594 3.18963 0.496235 0
M  V30 3589 H 338.646 3.28277 -1.92193 0
M  V30 3590 H 339.958 4.41122 -2.32836 0
M  V30 3591 H 339.112 6.03506 -0.621743 0
M  V30 3592 H 337.851 4.87564 -0.115377 0
M  V30 3593 H 336.856 4.93704 -2.41942 0
M  V30 3594 H 338.081 6.13062 -2.92115 0
M  V30 3595 H 336.027 6.52131 -0.711406 0
M  V30 3596 H 335.944 7.20043 -2.30379 0
M  V30 3597 H 337.212 7.69832 -1.22387 0
M  V30 3598 N 341.441 0.965919 1.2453 0
M  V30 3599 C 342.687 0.62776 1.92839 0
M  V30 3600 C 343.02 -0.834694 1.75347 0
M  V30 3601 O 342.295 -1.60031 1.10546 0
M  V30 3602 C 342.578 1.00109 3.45905 0
M  V30 3603 C 342.431 2.52011 3.72573 0
M  V30 3604 C 343.75 0.53435 4.36844 0
M  V30 3605 H 340.869 0.229537 0.700344 0
M  V30 3606 H 343.511 1.2046 1.46933 0
M  V30 3607 H 341.661 0.510238 3.85135 0
M  V30 3608 H 343.333 3.08559 3.42912 0
M  V30 3609 H 341.576 2.95287 3.17786 0
M  V30 3610 H 342.247 2.73183 4.79661 0
M  V30 3611 H 344.723 0.955565 4.04979 0
M  V30 3612 H 343.599 0.824152 5.42678 0
M  V30 3613 H 343.86 -0.565589 4.38467 0
M  V30 3614 N 342.919 -1.39368 0.735821 0
M  V30 3615 C 344.165 -2.00794 0.284544 0
M  V30 3616 C 344.498 -1.58255 -1.12557 0
M  V30 3617 O 343.773 -0.811819 -1.76748 0
M  V30 3618 C 344.056 -3.58011 0.387337 0
M  V30 3619 C 343.909 -4.10566 1.83728 0
M  V30 3620 C 345.228 -4.395 -0.22975 0
M  V30 3621 H 342.347 -0.729501 0.104866 0
M  V30 3622 H 344.989 -1.65564 0.93213 0
M  V30 3623 H 343.139 -3.88154 -0.164006 0
M  V30 3624 H 344.811 -3.91139 2.44556 0
M  V30 3625 H 343.054 -3.64095 2.35833 0
M  V30 3626 H 343.725 -5.19702 1.86047 0
M  V30 3627 H 346.201 -4.15406 0.240257 0
M  V30 3628 H 345.077 -5.48752 -0.127485 0
M  V30 3629 H 345.338 -4.22062 -1.3159 0
M  V30 3630 N 344.397 -0.483516 -1.5 0
M  V30 3631 C 345.643 0.0672592 -2.02688 0
M  V30 3632 C 345.976 1.38247 -1.36387 0
M  V30 3633 O 345.251 1.88131 -0.493675 0
M  V30 3634 C 345.534 0.238109 -3.59312 0
M  V30 3635 C 345.387 -1.099 -4.36168 0
M  V30 3636 C 346.706 0.986916 -4.28892 0
M  V30 3637 H 343.825 0.0229696 -0.736642 0
M  V30 3638 H 346.467 -0.631527 -1.79197 0
M  V30 3639 H 344.617 0.8333 -3.79458 0
M  V30 3640 H 346.289 -1.73172 -4.27562 0
M  V30 3641 H 344.532 -1.69261 -3.99416 0
M  V30 3642 H 345.203 -0.932954 -5.44059 0
M  V30 3643 H 347.679 0.482302 -4.13295 0
M  V30 3644 H 346.555 1.07527 -5.38265 0
M  V30 3645 H 346.816 2.0265 -3.92919 0
M  V30 3646 N 345.875 1.56104 -0.216619 0
M  V30 3647 C 347.121 1.98466 0.417033 0
M  V30 3648 C 347.454 1.10403 1.59765 0
M  V30 3649 O 346.729 0.160632 1.93836 0
M  V30 3650 C 347.012 3.49769 0.85637 0
M  V30 3651 C 346.865 4.48606 -0.327546 0
M  V30 3652 C 348.184 4.05339 1.7143 0
M  V30 3653 H 345.303 0.721551 0.150112 0
M  V30 3654 H 347.945 1.87423 -0.311864 0
M  V30 3655 H 346.095 3.5931 1.47745 0
M  V30 3656 H 347.767 4.5108 -0.965618 0
M  V30 3657 H 346.01 4.22682 -0.975805 0
M  V30 3658 H 346.681 5.51995 0.0227149 0
M  V30 3659 H 349.157 3.98712 1.19031 0
M  V30 3660 H 348.033 5.11533 1.99061 0
M  V30 3661 H 348.294 3.51918 2.67593 0
M  V30 3662 N 347.353 -0.0568162 1.57498 0
M  V30 3663 C 348.63 -0.786954 1.79071 0
M  V30 3664 C 349.01 -1.95028 0.80792 0
M  V30 3665 O 348.358 -2.27968 -0.155858 0
M  V30 3666 C 348.568 -1.24594 3.26002 0
M  V30 3667 C 349.916 -1.67323 3.90241 0
M  V30 3668 O 350.94 -1.34124 3.29984 0
M  V30 3669 O 349.799 -2.28842 4.9628 0
M  V30 3670 H 346.893 -0.378262 0.735423 0
M  V30 3671 H 349.439 -0.035734 1.69662 0
M  V30 3672 H 348.211 -0.41423 3.89101 0
M  V30 3673 H 347.834 -2.05803 3.40192 0
M  V30 3674 N 348.832 -1.54138 -0.328536 0
M  V30 3675 C 350.243 -1.63395 -0.903272 0
M  V30 3676 C 350.594 -0.524828 -1.8905 0
M  V30 3677 O 349.719 0.343068 -2.13663 0
M  V30 3678 C 350.314 -2.9618 -1.64507 0
M  V30 3679 C 348.873 -3.0765 -2.1686 0
M  V30 3680 C 348.02 -2.58933 -0.992416 0
M  V30 3681 H 350.971 -1.58344 -0.106253 0
M  V30 3682 H 350.992 -2.86061 -2.50897 0
M  V30 3683 H 350.504 -3.76884 -0.926302 0
M  V30 3684 H 348.605 -2.31611 -2.91868 0
M  V30 3685 H 348.718 -4.1337 -2.42202 0
M  V30 3686 H 347.082 -2.14706 -1.37016 0
M  V30 3687 H 347.865 -3.42089 -0.288041 0
M  V30 3688 N 350.31 0.590341 -1.46126 0
M  V30 3689 C 351.726 0.912917 -1.30912 0
M  V30 3690 C 351.926 1.99616 -0.274893 0
M  V30 3691 O 350.982 2.50397 0.325197 0
M  V30 3692 C 352.295 1.3375 -2.69317 0
M  V30 3693 C 353.843 1.45077 -2.77348 0
M  V30 3694 C 354.318 1.90904 -4.16317 0
M  V30 3695 N 355.809 1.9811 -4.18696 0
M  V30 3696 C 356.544 2.34828 -5.23109 0
M  V30 3697 N 356.04 2.70393 -6.37856 0
M  V30 3698 N 357.833 2.35317 -5.10473 0
M  V30 3699 H 349.984 -0.125358 -2.1203 0
M  V30 3700 H 352.247 0.00658481 -0.947977 0
M  V30 3701 H 351.953 0.615614 -3.4627 0
M  V30 3702 H 351.827 2.30058 -2.9892 0
M  V30 3703 H 354.214 2.16353 -2.00687 0
M  V30 3704 H 354.295 0.4704 -2.51438 0
M  V30 3705 H 353.939 1.20209 -4.9347 0
M  V30 3706 H 353.869 2.89886 -4.39629 0
M  V30 3707 H 356.36 1.73146 -3.359 0
M  V30 3708 H 356.673 2.97341 -7.13308 0
M  V30 3709 H 355.018 2.68048 -6.41229 0
M  V30 3710 H 358.209 2.0695 -4.19868 0
M  V30 3711 H 358.382 2.63605 -5.9196 0
M  V30 3712 N 351.788 1.33704 0.83433 0
M  V30 3713 C 353.035 1.25417 1.58987 0
M  V30 3714 C 353.363 -0.178869 1.93676 0
M  V30 3715 O 352.618 -1.13723 1.59265 0
M  V30 3716 C 352.917 2.07926 2.90692 0
M  V30 3717 C 352.583 3.57066 2.75345 0
M  V30 3718 C 351.245 3.97724 2.70867 0
M  V30 3719 C 353.597 4.51817 2.59828 0
M  V30 3720 C 350.925 5.31344 2.48778 0
M  V30 3721 C 353.277 5.85604 2.39272 0
M  V30 3722 C 351.941 6.25439 2.33199 0
M  V30 3723 H 351.211 0.458934 0.581774 0
M  V30 3724 H 353.858 1.65335 0.966261 0
M  V30 3725 H 352.163 1.608 3.57282 0
M  V30 3726 H 353.86 1.98868 3.48213 0
M  V30 3727 H 350.45 3.24785 2.79665 0
M  V30 3728 H 354.634 4.21311 2.62319 0
M  V30 3729 H 349.89 5.61241 2.42526 0
M  V30 3730 H 354.064 6.58623 2.2625 0
M  V30 3731 H 351.691 7.28914 2.15843 0
M  V30 3732 N 353.266 -1.05314 1.17247 0
M  V30 3733 C 354.491 -1.82509 0.985148 0
M  V30 3734 C 354.916 -1.82343 -0.461788 0
M  V30 3735 O 354.274 -1.23151 -1.33055 0
M  V30 3736 C 354.322 -3.26566 1.52929 0
M  V30 3737 O 353.426 -4.05666 0.742225 0
M  V30 3738 H 352.767 -0.564347 0.349869 0
M  V30 3739 H 355.297 -1.32718 1.55715 0
M  V30 3740 H 355.307 -3.77369 1.55103 0
M  V30 3741 H 353.982 -3.26001 2.58256 0
M  V30 3742 H 352.559 -3.64397 0.791794 0
M  V30 3743 N 354.744 -0.972509 -1.24016 0
M  V30 3744 C 355.972 -0.654803 -1.96265 0
M  V30 3745 C 356.387 0.776708 -1.72083 0
M  V30 3746 O 355.744 1.52171 -1.00748 0
M  V30 3747 C 355.795 -0.92592 -3.49441 0
M  V30 3748 O 355.516 -2.30116 -3.72798 0
M  V30 3749 C 357.017 -0.623068 -4.38899 0
M  V30 3750 H 354.237 -0.243907 -0.6251 0
M  V30 3751 H 356.781 -1.30175 -1.57717 0
M  V30 3752 H 354.936 -0.325108 -3.86033 0
M  V30 3753 H 355.35 -2.38483 -4.67147 0
M  V30 3754 H 356.824 -0.863189 -5.45209 0
M  V30 3755 H 357.301 0.442754 -4.36963 0
M  V30 3756 H 357.907 -1.204 -4.07902 0
M  V30 3757 N 356.222 1.38976 -0.743202 0
M  V30 3758 C 357.185 2.28901 -0.117014 0
M  V30 3759 C 358.185 1.46698 0.658503 0
M  V30 3760 O 359.375 1.67274 0.486305 0
M  V30 3761 C 356.507 3.30309 0.84315 0
M  V30 3762 H 357.7 2.8578 -0.909373 0
M  V30 3763 H 355.253 1.47761 -0.509547 0
M  V30 3764 H 355.988 2.785 1.66157 0
M  V30 3765 H 355.773 3.91029 0.289594 0
M  V30 3766 H 357.263 3.97577 1.2776 0
M  V30 3767 N 357.7 0.491464 1.49741 0
M  V30 3768 C 358.663 -0.280906 2.27472 0
M  V30 3769 C 359.663 -0.902454 1.33088 0
M  V30 3770 O 360.853 -0.768465 1.56334 0
M  V30 3771 C 357.985 -1.40209 3.10732 0
M  V30 3772 H 359.178 0.401056 2.97206 0
M  V30 3773 H 356.731 0.246131 1.5435 0
M  V30 3774 H 357.466 -2.11849 2.45541 0
M  V30 3775 H 357.251 -0.961969 3.80117 0
M  V30 3776 H 358.741 -1.9464 3.69466 0
M  V30 3777 N 359.178 -1.55987 0.224894 0
M  V30 3778 C 360.141 -2.19178 -0.670348 0
M  V30 3779 C 361.141 -1.15461 -1.11917 0
M  V30 3780 O 362.331 -1.40675 -1.02743 0
M  V30 3781 C 359.463 -2.81777 -1.9187 0
M  V30 3782 H 360.656 -2.99662 -0.119364 0
M  V30 3783 H 358.209 -1.5628 -0.0247128 0
M  V30 3784 H 358.944 -2.05172 -2.51147 0
M  V30 3785 H 358.729 -3.57732 -1.60531 0
M  V30 3786 H 360.219 -3.30205 -2.55645 0
M  V30 3787 N 360.656 0.0484629 -1.57525 0
M  V30 3788 C 361.603 1.05504 -2.05275 0
M  V30 3789 C 362.573 1.37084 -0.937927 0
M  V30 3790 O 363.758 1.47754 -1.2072 0
M  V30 3791 C 360.898 2.35676 -2.52093 0
M  V30 3792 C 360.011 2.10423 -3.77288 0
M  V30 3793 C 359.146 3.34327 -4.12794 0
M  V30 3794 C 358.185 3.04542 -5.30962 0
M  V30 3795 N 357.322 4.20841 -5.61994 0
M  V30 3796 H 362.162 0.640885 -2.91027 0
M  V30 3797 H 359.699 0.304854 -1.43906 0
M  V30 3798 H 361.657 3.11709 -2.77297 0
M  V30 3799 H 360.287 2.7485 -1.69285 0
M  V30 3800 H 359.339 1.24976 -3.59284 0
M  V30 3801 H 360.651 1.84438 -4.63448 0
M  V30 3802 H 359.805 4.1874 -4.39024 0
M  V30 3803 H 358.544 3.63408 -3.25247 0
M  V30 3804 H 357.549 2.18528 -5.04505 0
M  V30 3805 H 358.774 2.76758 -6.20146 0
M  V30 3806 H 356.72 4.4991 -4.77406 0
M  V30 3807 H 356.637 3.98212 -6.42622 0
M  V30 3808 H 357.905 5.06184 -5.92789 0
M  V30 3809 N 362.134 1.5431 0.320358 0
M  V30 3810 C 363.097 1.83195 1.3774 0
M  V30 3811 C 364.097 0.703906 1.44575 0
M  V30 3812 O 365.287 0.972214 1.44546 0
M  V30 3813 C 362.419 1.99487 2.76438 0
M  V30 3814 H 363.612 2.77642 1.1338 0
M  V30 3815 H 361.165 1.46076 0.556012 0
M  V30 3816 H 361.9 1.07262 3.06048 0
M  V30 3817 H 361.685 2.81575 2.7287 0
M  V30 3818 H 363.175 2.23271 3.52902 0
M  V30 3819 N 363.613 -0.582584 1.46437 0
M  V30 3820 C 364.563 -1.68654 1.53426 0
M  V30 3821 C 365.547 -1.55971 0.395194 0
M  V30 3822 O 366.739 -1.64884 0.643612 0
M  V30 3823 C 363.868 -3.07439 1.52762 0
M  V30 3824 C 362.954 -3.25418 2.71963 0
M  V30 3825 N 363.345 -3.13556 3.96883 0
M  V30 3826 C 361.643 -3.56357 2.68189 0
M  V30 3827 C 362.344 -3.33543 4.76575 0
M  V30 3828 N 361.32 -3.58704 4.08451 0
M  V30 3829 H 365.122 -1.58014 2.47808 0
M  V30 3830 H 362.636 -0.786617 1.42078 0
M  V30 3831 H 364.633 -3.86671 1.55857 0
M  V30 3832 H 363.293 -3.1921 0.594573 0
M  V30 3833 H 364.304 -2.9142 4.28129 0
M  V30 3834 H 360.981 -3.74812 1.83908 0
M  V30 3835 H 362.371 -3.29555 5.85528 0
M  V30 3836 N 365.091 -1.34144 -0.827227 0
M  V30 3837 C 366.507 -1.13732 -1.11969 0
M  V30 3838 C 366.707 0.0640463 -2.01398 0
M  V30 3839 O 365.763 0.740856 -2.41387 0
M  V30 3840 C 367.076 -2.43047 -1.77055 0
M  V30 3841 C 368.624 -2.49063 -1.89569 0
M  V30 3842 C 369.099 -3.78369 -2.58072 0
M  V30 3843 N 370.59 -3.79505 -2.65575 0
M  V30 3844 C 371.325 -4.76274 -3.19297 0
M  V30 3845 N 370.821 -5.83424 -3.73616 0
M  V30 3846 N 372.614 -4.63735 -3.17658 0
M  V30 3847 H 364.765 -2.11126 -0.232296 0
M  V30 3848 H 367.028 -0.933424 -0.165602 0
M  V30 3849 H 366.734 -3.31025 -1.18807 0
M  V30 3850 H 366.608 -2.56066 -2.76966 0
M  V30 3851 H 368.995 -1.61527 -2.46968 0
M  V30 3852 H 369.076 -2.39975 -0.885745 0
M  V30 3853 H 368.72 -4.66293 -2.01329 0
M  V30 3854 H 368.65 -3.84737 -3.59562 0
M  V30 3855 H 371.141 -3.02074 -2.27068 0
M  V30 3856 H 371.454 -6.53282 -4.12846 0
M  V30 3857 H 369.799 -5.87143 -3.71871 0
M  V30 3858 H 372.99 -3.79177 -2.74486 0
M  V30 3859 H 373.163 -5.39318 -3.59221 0
M  V30 3860 N 366.569 1.04691 -1.17803 0
M  V30 3861 C 367.815 1.78181 -0.980977 0
M  V30 3862 C 368.17 1.86191 0.484825 0
M  V30 3863 O 367.463 1.35436 1.35527 0
M  V30 3864 C 367.657 3.21467 -1.56186 0
M  V30 3865 C 367.486 3.27422 -3.08261 0
M  V30 3866 C 366.256 3.36415 -3.77032 0
M  V30 3867 C 368.454 3.15947 -4.0581 0
M  V30 3868 N 366.436 3.31554 -5.16667 0
M  V30 3869 C 367.807 3.18514 -5.31929 0
M  V30 3870 C 369.862 2.99945 -3.97413 0
M  V30 3871 C 368.565 3.06723 -6.50625 0
M  V30 3872 C 370.591 2.89497 -5.15699 0
M  V30 3873 C 369.953 2.92702 -6.40706 0
M  V30 3874 H 366.052 0.6641 -0.412911 0
M  V30 3875 H 368.636 1.24762 -1.49474 0
M  V30 3876 H 366.807 3.73245 -1.07436 0
M  V30 3877 H 368.539 3.8322 -1.30093 0
M  V30 3878 H 365.294 3.41887 -3.27735 0
M  V30 3879 H 365.718 3.3258 -5.89678 0
M  V30 3880 H 370.36 2.96302 -3.01604 0
M  V30 3881 H 368.078 3.0912 -7.46639 0
M  V30 3882 H 371.664 2.78179 -5.10987 0
M  V30 3883 H 370.544 2.84697 -7.30696 0
M  V30 3884 N 368.047 0.979072 1.23499 0
M  V30 3885 C 368.977 0.537606 2.27227 0
M  V30 3886 C 369.958 -0.428539 1.64613 0
M  V30 3887 O 371.143 -0.322191 1.91509 0
M  V30 3888 C 368.273 -0.162052 3.46922 0
M  V30 3889 C 367.227 0.721242 4.21879 0
M  V30 3890 C 366.553 -0.110555 5.34586 0
M  V30 3891 C 367.853 2.01141 4.82016 0
M  V30 3892 H 369.547 1.40462 2.64406 0
M  V30 3893 H 367.093 0.67684 1.27102 0
M  V30 3894 H 369.046 -0.482192 4.18632 0
M  V30 3895 H 367.77 -1.06351 3.08799 0
M  V30 3896 H 366.429 1.02482 3.51984 0
M  V30 3897 H 366.077 -1.0125 4.92704 0
M  V30 3898 H 365.777 0.477325 5.85658 0
M  V30 3899 H 367.301 -0.425107 6.09118 0
M  V30 3900 H 368.715 1.75612 5.45741 0
M  V30 3901 H 367.112 2.54695 5.43369 0
M  V30 3902 H 368.182 2.69909 4.02836 0
M  V30 3903 N 369.525 -1.3858 0.750561 0
M  V30 3904 C 370.936 -1.82927 0.373438 0
M  V30 3905 C 371.287 -1.62634 -1.09748 0
M  V30 3906 O 370.412 -1.12588 -1.84805 0
M  V30 3907 C 371.007 -3.32088 0.671029 0
M  V30 3908 C 369.566 -3.74795 0.34722 0
M  V30 3909 C 368.713 -2.61391 0.92575 0
M  V30 3910 H 371.664 -1.27351 0.946958 0
M  V30 3911 H 371.685 -3.80465 -0.0518269 0
M  V30 3912 H 371.197 -3.46826 1.74164 0
M  V30 3913 H 369.298 -3.65638 -0.716933 0
M  V30 3914 H 369.411 -4.71667 0.840656 0
M  V30 3915 H 367.775 -2.52265 0.351327 0
M  V30 3916 H 368.558 -2.78929 2.00133 0
M  V30 3917 N 371.003 -0.499398 -1.49478 0
M  V30 3918 C 372.252 0.0475259 -2.01644 0
M  V30 3919 C 372.565 1.38195 -1.38425 0
M  V30 3920 O 373.771 2.01547 -1.8191 0
M  V30 3921 C 372.227 0.135164 -3.59646 0
M  V30 3922 C 371.835 -1.19252 -4.31837 0
M  V30 3923 C 373.579 0.632538 -4.19761 0
M  V30 3924 C 371.486 -1.06713 -5.81693 0
M  V30 3925 H 370.416 0.0215349 -0.753692 0
M  V30 3926 H 373.067 -0.638577 -1.7203 0
M  V30 3927 H 371.449 0.885681 -3.85969 0
M  V30 3928 H 372.623 -1.9562 -4.17216 0
M  V30 3929 H 370.938 -1.62321 -3.83459 0
M  V30 3930 H 373.535 0.743833 -5.29501 0
M  V30 3931 H 373.878 1.63098 -3.83021 0
M  V30 3932 H 374.411 -0.0613987 -3.97753 0
M  V30 3933 H 371.15 -2.03979 -6.22955 0
M  V30 3934 H 370.67 -0.344307 -5.98811 0
M  V30 3935 H 372.349 -0.745208 -6.42694 0
M  V30 3936 N 372.481 1.55866 -0.233164 0
M  V30 3937 C 373.428 2.20796 0.67215 0
M  V30 3938 C 374.398 1.16731 1.18166 0
M  V30 3939 O 375.583 1.45129 1.23864 0
M  V30 3940 C 372.723 2.90072 1.86955 0
M  V30 3941 C 371.836 4.08759 1.39786 0
M  V30 3942 C 370.971 4.65787 2.55374 0
M  V30 3943 C 370.01 5.76752 2.04998 0
M  V30 3944 N 369.147 6.28021 3.13901 0
M  V30 3945 H 373.987 2.9779 0.111749 0
M  V30 3946 H 371.524 1.47036 0.0434007 0
M  V30 3947 H 373.482 3.28428 2.57276 0
M  V30 3948 H 372.112 2.15575 2.40265 0
M  V30 3949 H 371.164 3.7581 0.589173 0
M  V30 3950 H 372.476 4.88906 0.98856 0
M  V30 3951 H 371.63 5.06646 3.33758 0
M  V30 3952 H 370.369 3.84828 2.99598 0
M  V30 3953 H 369.374 5.35383 1.25079 0
M  V30 3954 H 370.599 6.59553 1.61759 0
M  V30 3955 H 368.545 5.49971 3.57586 0
M  V30 3956 H 368.462 7.03323 2.7726 0
M  V30 3957 H 369.73 6.73538 3.92386 0
M  V30 3958 N 373.959 -0.0401083 1.57549 0
M  V30 3959 C 375.37 -0.588097 1.77196 0
M  V30 3960 C 375.721 -1.76209 0.862832 0
M  V30 3961 O 374.846 -2.16331 0.0548389 0
M  V30 3962 C 375.441 -1.07363 3.21339 0
M  V30 3963 C 374 -1.56723 3.42221 0
M  V30 3964 C 373.147 -0.50041 2.72747 0
M  V30 3965 H 376.098 0.186119 1.57605 0
M  V30 3966 H 376.119 -1.94143 3.27244 0
M  V30 3967 H 375.631 -0.218975 3.87482 0
M  V30 3968 H 373.732 -2.4441 2.81237 0
M  V30 3969 H 373.845 -1.62234 4.50796 0
M  V30 3970 H 372.209 -0.952894 2.36203 0
M  V30 3971 H 372.992 0.344599 3.41566 0
M  V30 3972 N 375.437 -1.54477 -0.31217 0
M  V30 3973 C 376.685 -1.72884 -1.04668 0
M  V30 3974 C 377.006 -0.511477 -1.88173 0
M  V30 3975 O 376.276 0.474407 -1.90069 0
M  V30 3976 H 374.856 -0.637461 -0.389425 0
M  V30 3977 H 377.518 -1.91807 -0.345852 0
M  V30 3978 H 376.614 -2.61334 -1.70619 0
M  V30 3979 N 376.915 0.57481 -1.46744 0
M  V30 3980 C 378.143 1.35856 -1.56047 0
M  V30 3981 C 378.558 1.87691 -0.204365 0
M  V30 3982 O 377.915 1.64049 0.79963 0
M  V30 3983 C 377.966 2.54066 -2.57163 0
M  V30 3984 O 377.687 2.04377 -3.87507 0
M  V30 3985 C 379.188 3.46514 -2.76483 0
M  V30 3986 H 376.408 0.414754 -0.527466 0
M  V30 3987 H 378.952 0.698035 -1.92218 0
M  V30 3988 H 377.107 3.16092 -2.23974 0
M  V30 3989 H 377.521 2.81419 -4.4261 0
M  V30 3990 H 378.995 4.25919 -3.51137 0
M  V30 3991 H 379.472 3.98951 -1.83671 0
M  V30 3992 H 380.078 2.90318 -3.10799 0
M  V30 3993 N 378.394 1.34581 0.820102 0
M  V30 3994 C 379.671 1.17675 1.56244 0
M  V30 3995 C 380.051 -0.249541 2.0962 0
M  V30 3996 O 379.399 -1.25125 1.91196 0
M  V30 3997 C 379.609 2.23364 2.6816 0
M  V30 3998 C 380.957 2.58485 3.36854 0
M  V30 3999 O 381.981 2.22175 2.78418 0
M  V30 4000 O 380.84 3.20868 4.42386 0
M  V30 4001 H 377.934 0.456333 0.689702 0
M  V30 4002 H 380.48 1.46222 0.861231 0
M  V30 4003 H 379.252 3.19087 2.26493 0
M  V30 4004 H 378.875 1.96009 3.45928 0
M  V30 4005 N 379.872 -1.04064 1.18357 0
M  V30 4006 C 381.1 -1.80916 1.00384 0
M  V30 4007 C 381.515 -1.83414 -0.447738 0
M  V30 4008 O 380.872 -1.26962 -1.31099 0
M  V30 4009 C 380.923 -3.26516 1.55144 0
M  V30 4010 O 380.644 -3.2424 2.94618 0
M  V30 4011 C 382.145 -4.20013 1.41789 0
M  V30 4012 H 379.365 -0.569728 0.354474 0
M  V30 4013 H 381.909 -1.31151 1.56906 0
M  V30 4014 H 380.064 -3.73512 1.02798 0
M  V30 4015 H 380.478 -4.15452 3.20156 0
M  V30 4016 H 381.952 -5.20111 1.84901 0
M  V30 4017 H 382.429 -4.37667 0.36661 0
M  V30 4018 H 383.035 -3.78881 1.93207 0
M  V30 4019 N 381.35 -0.985608 -1.22978 0
M  V30 4020 C 382.313 -0.535071 -2.22867 0
M  V30 4021 C 383.313 0.378123 -1.56291 0
M  V30 4022 O 384.503 0.171092 -1.73358 0
M  V30 4023 C 381.635 0.222702 -3.40172 0
M  V30 4024 H 382.828 -1.41835 -2.6424 0
M  V30 4025 H 380.381 -0.772042 -1.35901 0
M  V30 4026 H 381.116 1.12229 -3.04262 0
M  V30 4027 H 380.901 -0.43288 -3.89703 0
M  V30 4028 H 382.391 0.526335 -4.1427 0
M  V30 4029 N 382.828 1.3818 -0.7579 0
M  V30 4030 C 383.758 2.33027 -0.148597 0
M  V30 4031 C 384.739 1.55085 0.69875 0
M  V30 4032 O 385.924 1.83384 0.639053 0
M  V30 4033 C 383.054 3.3928 0.742034 0
M  V30 4034 C 382.008 4.28 -0.00291946 0
M  V30 4035 C 381.334 5.25146 1.00625 0
M  V30 4036 C 382.634 5.08938 -1.17385 0
M  V30 4037 H 384.328 2.84231 -0.940909 0
M  V30 4038 H 381.874 1.36659 -0.453908 0
M  V30 4039 H 383.827 4.046 1.17799 0
M  V30 4040 H 382.551 2.86569 1.56671 0
M  V30 4041 H 381.21 3.64192 -0.419504 0
M  V30 4042 H 380.858 4.68721 1.8251 0
M  V30 4043 H 380.558 5.85361 0.512428 0
M  V30 4044 H 382.082 5.93342 1.44143 0
M  V30 4045 H 383.496 5.67474 -0.815224 0
M  V30 4046 H 381.893 5.7841 -1.59882 0
M  V30 4047 H 382.963 4.42424 -1.98468 0
M  V30 4048 N 384.306 0.507319 1.49211 0
M  V30 4049 C 385.236 -0.256939 2.32082 0
M  V30 4050 C 386.217 -0.956609 1.40652 0
M  V30 4051 O 387.402 -0.946788 1.69557 0
M  V30 4052 C 384.532 -1.31802 3.21318 0
M  V30 4053 C 383.486 -0.737855 4.21592 0
M  V30 4054 C 382.812 -1.89992 4.99807 0
M  V30 4055 C 384.112 0.275325 5.21574 0
M  V30 4056 H 385.806 0.434798 2.96226 0
M  V30 4057 H 383.352 0.210546 1.42452 0
M  V30 4058 H 385.305 -1.86045 3.78107 0
M  V30 4059 H 384.029 -2.03903 2.5513 0
M  V30 4060 H 382.688 -0.217126 3.65956 0
M  V30 4061 H 382.336 -2.60877 4.30061 0
M  V30 4062 H 382.036 -1.51777 5.6766 0
M  V30 4063 H 383.56 -2.44657 5.59442 0
M  V30 4064 H 384.974 -0.179193 5.7302 0
M  V30 4065 H 383.371 0.573649 5.97352 0
M  V30 4066 H 384.441 1.18903 4.70096 0
M  V30 4067 N 385.784 -1.5574 0.241426 0
M  V30 4068 C 386.714 -2.24133 -0.654722 0
M  V30 4069 C 387.695 -1.21974 -1.1856 0
M  V30 4070 O 388.88 -1.50612 -1.22595 0
M  V30 4071 C 386.01 -2.93659 -1.85423 0
M  V30 4072 C 384.964 -4.0246 -1.45636 0
M  V30 4073 C 384.29 -4.59383 -2.73626 0
M  V30 4074 C 385.59 -5.18468 -0.631506 0
M  V30 4075 H 387.284 -2.99281 -0.0844353 0
M  V30 4076 H 384.83 -1.43947 -0.0391707 0
M  V30 4077 H 386.783 -3.40203 -2.48676 0
M  V30 4078 H 385.507 -2.15991 -2.44981 0
M  V30 4079 H 384.166 -3.56676 -0.847202 0
M  V30 4080 H 383.814 -3.78422 -3.3137 0
M  V30 4081 H 383.514 -5.32826 -2.4773 0
M  V30 4082 H 385.038 -5.08658 -3.37786 0
M  V30 4083 H 386.452 -5.61272 -1.1682 0
M  V30 4084 H 384.849 -5.98266 -0.468831 0
M  V30 4085 H 385.919 -4.8358 0.357506 0
M  V30 4086 N 387.262 0.0317525 -1.57568 0
M  V30 4087 C 388.225 1.01783 -2.0536 0
M  V30 4088 C 389.225 1.29203 -0.957253 0
M  V30 4089 O 390.415 1.24251 -1.22095 0
M  V30 4090 C 387.547 2.35137 -2.46827 0
M  V30 4091 H 388.74 0.605062 -2.93733 0
M  V30 4092 H 386.293 0.278514 -1.53799 0
M  V30 4093 H 387.028 2.81168 -1.61602 0
M  V30 4094 H 386.813 2.16566 -3.26866 0
M  V30 4095 H 388.303 3.05938 -2.84239 0
M  V30 4096 N 388.74 1.54641 0.303973 0
M  V30 4097 C 389.986 1.74969 1.03718 0
M  V30 4098 C 390.341 0.527461 1.85029 0
M  V30 4099 O 389.634 -0.480143 1.85486 0
M  V30 4100 C 389.828 2.97753 1.97681 0
M  V30 4101 C 389.657 4.318 1.25613 0
M  V30 4102 C 388.427 4.95616 0.984518 0
M  V30 4103 C 390.625 5.10021 0.662081 0
M  V30 4104 N 388.607 6.13455 0.233794 0
M  V30 4105 C 389.978 6.19984 0.0439736 0
M  V30 4106 C 392.033 4.94663 0.566835 0
M  V30 4107 C 390.736 7.16264 -0.66016 0
M  V30 4108 C 392.762 5.91271 -0.123637 0
M  V30 4109 C 392.124 7.00601 -0.730608 0
M  V30 4110 H 388.223 0.692873 0.362562 0
M  V30 4111 H 390.807 1.92116 0.316135 0
M  V30 4112 H 388.978 2.82036 2.6704 0
M  V30 4113 H 390.71 3.06621 2.64132 0
M  V30 4114 H 387.465 4.55921 1.28191 0
M  V30 4115 H 387.889 6.76879 -0.127996 0
M  V30 4116 H 392.531 4.10267 1.02181 0
M  V30 4117 H 390.249 8.00204 -1.12691 0
M  V30 4118 H 393.835 5.81466 -0.197236 0
M  V30 4119 H 392.715 7.7407 -1.2564 0
M  V30 4120 N 390.218 -0.567019 1.47046 0
M  V30 4121 C 391.467 -1.32091 1.5243 0
M  V30 4122 C 391.78 -1.94704 0.187021 0
M  V30 4123 O 392.986 -2.7124 0.118771 0
M  V30 4124 C 391.442 -2.39479 2.68659 0
M  V30 4125 C 391.05 -1.831 4.08874 0
M  V30 4126 C 392.794 -3.16111 2.83327 0
M  V30 4127 C 390.701 -2.8821 5.16419 0
M  V30 4128 H 389.631 -0.496629 0.56734 0
M  V30 4129 H 392.282 -0.603354 1.73297 0
M  V30 4130 H 390.664 -3.14105 2.41152 0
M  V30 4131 H 391.838 -1.14913 4.46242 0
M  V30 4132 H 390.153 -1.19085 3.99008 0
M  V30 4133 H 392.75 -3.94585 3.60842 0
M  V30 4134 H 393.093 -3.69686 1.91411 0
M  V30 4135 H 393.626 -2.48595 3.10556 0
M  V30 4136 H 390.365 -2.39504 6.10179 0
M  V30 4137 H 389.885 -3.54839 4.8358 0
M  V30 4138 H 391.564 -3.51881 5.42945 0
M  V30 4139 N 391.696 -1.35014 -0.812953 0
M  V30 4140 C 392.646 -1.23959 -1.91359 0
M  V30 4141 C 393.63 -0.136306 -1.60322 0
M  V30 4142 O 394.822 -0.366925 -1.73155 0
M  V30 4143 C 391.951 -1.00736 -3.28188 0
M  V30 4144 C 391.037 -2.15426 -3.65311 0
M  V30 4145 N 391.428 -3.40612 -3.73921 0
M  V30 4146 C 389.726 -2.06672 -3.95225 0
M  V30 4147 C 390.427 -4.15994 -4.06601 0
M  V30 4148 N 389.403 -3.44685 -4.20349 0
M  V30 4149 H 393.205 -2.18815 -1.96208 0
M  V30 4150 H 390.719 -1.27395 -1.00718 0
M  V30 4151 H 392.716 -0.909052 -4.06868 0
M  V30 4152 H 391.376 -0.067586 -3.2463 0
M  V30 4153 H 392.387 -3.75043 -3.5716 0
M  V30 4154 H 389.064 -1.20511 -3.99729 0
M  V30 4155 H 390.454 -5.24145 -4.20382 0
M  V30 4156 N 393.175 1.03435 -1.18907 0
M  V30 4157 C 394.421 1.77005 -0.989798 0
M  V30 4158 C 394.754 1.88205 0.478816 0
M  V30 4159 O 394.029 1.39481 1.35556 0
M  V30 4160 C 394.312 3.19925 -1.65287 0
M  V30 4161 C 394.165 3.1663 -3.19477 0
M  V30 4162 C 395.484 4.18189 -1.37134 0
M  V30 4163 H 392.603 0.642538 -0.360991 0
M  V30 4164 H 395.245 1.20784 -1.46667 0
M  V30 4165 H 393.395 3.67929 -1.24741 0
M  V30 4166 H 395.067 2.76567 -3.692 0
M  V30 4167 H 393.31 2.54491 -3.51307 0
M  V30 4168 H 393.981 4.1758 -3.61013 0
M  V30 4169 H 396.457 3.78761 -1.72276 0
M  V30 4170 H 395.333 5.16394 -1.86087 0
M  V30 4171 H 395.594 4.41112 -0.295424 0
M  V30 4172 N 394.653 0.992116 1.22453 0
M  V30 4173 C 395.583 0.561677 2.26644 0
M  V30 4174 C 396.564 -0.411055 1.65059 0
M  V30 4175 O 397.749 -0.301861 1.9184 0
M  V30 4176 C 394.879 -0.125247 3.47074 0
M  V30 4177 C 393.833 0.765948 4.21091 0
M  V30 4178 C 393.159 -0.0538484 5.34673 0
M  V30 4179 C 394.459 2.06242 4.79856 0
M  V30 4180 H 396.153 1.43259 2.62902 0
M  V30 4181 H 393.699 0.690283 1.26377 0
M  V30 4182 H 395.652 -0.437764 4.1912 0
M  V30 4183 H 394.376 -1.03069 3.0991 0
M  V30 4184 H 393.035 1.0621 3.50878 0
M  V30 4185 H 392.683 -0.960188 4.9375 0
M  V30 4186 H 392.383 0.539415 5.85119 0
M  V30 4187 H 393.907 -0.360477 6.09535 0
M  V30 4188 H 395.321 1.8139 5.43848 0
M  V30 4189 H 393.718 2.60444 5.40638 0
M  V30 4190 H 394.788 2.74167 3.99951 0
M  V30 4191 N 396.131 -1.37776 0.765217 0
M  V30 4192 C 397.38 -1.99092 0.323307 0
M  V30 4193 C 397.693 -1.61434 -1.10446 0
M  V30 4194 O 398.899 -2.15805 -1.64743 0
M  V30 4195 C 397.355 -3.56019 0.527098 0
M  V30 4196 C 396.963 -4.0262 1.96471 0
M  V30 4197 C 398.707 -4.2424 0.148483 0
M  V30 4198 C 396.614 -5.52233 2.11644 0
M  V30 4199 H 395.544 -0.744846 0.117137 0
M  V30 4200 H 398.195 -1.57391 0.943417 0
M  V30 4201 H 396.577 -3.95667 -0.162372 0
M  V30 4202 H 397.751 -3.74234 2.68859 0
M  V30 4203 H 396.066 -3.47161 2.29931 0
M  V30 4204 H 398.663 -5.34159 0.240456 0
M  V30 4205 H 399.006 -4.06446 -0.900422 0
M  V30 4206 H 399.539 -3.89872 0.79025 0
M  V30 4207 H 396.278 -5.74945 3.1483 0
M  V30 4208 H 395.798 -5.82324 1.4373 0
M  V30 4209 H 397.477 -6.18106 1.91193 0
M  V30 4210 N 397.609 -0.515225 -1.4894 0
M  V30 4211 C 398.839 0.0205735 -2.0659 0
M  V30 4212 C 399.247 1.30064 -1.37405 0
M  V30 4213 O 398.59 1.78087 -0.450632 0
M  V30 4214 C 398.652 0.330124 -3.57981 0
M  V30 4215 C 398.316 -0.854295 -4.48944 0
M  V30 4216 C 399.313 -1.7487 -4.89609 0
M  V30 4217 C 396.998 -1.05712 -4.9105 0
M  V30 4218 C 398.992 -2.82996 -5.71132 0
M  V30 4219 C 396.679 -2.14154 -5.72347 0
M  V30 4220 C 397.677 -3.0263 -6.12294 0
M  V30 4221 O 397.365 -4.09198 -6.91962 0
M  V30 4222 H 397.097 -0.0236833 -0.675585 0
M  V30 4223 H 399.651 -0.715956 -1.92518 0
M  V30 4224 H 397.881 1.12044 -3.70112 0
M  V30 4225 H 399.57 0.806233 -3.97812 0
M  V30 4226 H 400.336 -1.60388 -4.57712 0
M  V30 4227 H 396.215 -0.377788 -4.59449 0
M  V30 4228 H 399.759 -3.52083 -6.02232 0
M  V30 4229 H 395.656 -2.28626 -6.03656 0
M  V30 4230 H 396.424 -4.06726 -7.10293 0
M  V30 4231 N 399.087 1.5561 -0.249682 0
M  V30 4232 C 399.997 2.25143 0.659375 0
M  V30 4233 C 401.013 1.2685 1.19101 0
M  V30 4234 O 402.189 1.59732 1.22669 0
M  V30 4235 C 399.254 2.93945 1.8384 0
M  V30 4236 C 398.315 4.07655 1.34596 0
M  V30 4237 C 397.548 4.73167 2.46878 0
M  V30 4238 O 397.771 4.37768 3.65671 0
M  V30 4239 O 396.705 5.61623 2.16478 0
M  V30 4240 H 400.531 3.03545 0.0968698 0
M  V30 4241 H 398.116 1.49389 -0.018074 0
M  V30 4242 H 399.998 3.37271 2.52638 0
M  V30 4243 H 398.673 2.18481 2.38847 0
M  V30 4244 H 397.58 3.68839 0.625174 0
M  V30 4245 H 398.913 4.84946 0.841941 0
M  V30 4246 N 400.565 -0.0233959 1.57583 0
M  V30 4247 C 401.842 -0.748794 1.807 0
M  V30 4248 C 402.222 -1.9327 0.849106 0
M  V30 4249 O 401.57 -2.28247 -0.107468 0
M  V30 4250 C 401.78 -1.17651 3.28571 0
M  V30 4251 C 403.128 -1.59008 3.93702 0
M  V30 4252 O 404.152 -1.27094 3.32755 0
M  V30 4253 O 403.011 -2.18264 5.01022 0
M  V30 4254 H 400.105 -0.362578 0.743281 0
M  V30 4255 H 402.651 0.000261958 1.697 0
M  V30 4256 H 401.423 -0.331603 3.89892 0
M  V30 4257 H 401.046 -1.98541 3.44481 0
M  V30 4258 N 402.043 -1.548 -0.295768 0
M  V30 4259 C 402.973 -1.89115 -1.36959 0
M  V30 4260 C 403.954 -0.75059 -1.52644 0
M  V30 4261 O 405.139 -1.00678 -1.66065 0
M  V30 4262 C 402.269 -2.14307 -2.73295 0
M  V30 4263 C 401.223 -3.30151 -2.72368 0
M  V30 4264 C 400.549 -3.40772 -4.12042 0
M  V30 4265 C 401.849 -4.67126 -2.33646 0
M  V30 4266 H 403.543 -2.79053 -1.08488 0
M  V30 4267 H 401.089 -1.34266 -0.520443 0
M  V30 4268 H 403.042 -2.36898 -3.48507 0
M  V30 4269 H 401.766 -1.21145 -3.03301 0
M  V30 4270 H 400.425 -3.0749 -1.99613 0
M  V30 4271 H 400.073 -2.45117 -4.39234 0
M  V30 4272 H 399.773 -4.18645 -4.12322 0
M  V30 4273 H 401.297 -3.6563 -4.89027 0
M  V30 4274 H 402.711 -4.89414 -2.98575 0
M  V30 4275 H 401.108 -5.47751 -2.45129 0
M  V30 4276 H 402.178 -4.67489 -1.28772 0
M  V30 4277 N 403.521 0.559213 -1.47345 0
M  V30 4278 C 404.751 1.33999 -1.57251 0
M  V30 4279 C 405.159 1.87905 -0.220978 0
M  V30 4280 O 404.502 1.65577 0.795617 0
M  V30 4281 C 404.564 2.54798 -2.53611 0
M  V30 4282 C 404.228 2.22192 -3.99349 0
M  V30 4283 C 405.225 1.79607 -4.87891 0
M  V30 4284 C 402.91 2.33613 -4.44669 0
M  V30 4285 C 404.904 1.48868 -6.19772 0
M  V30 4286 C 402.591 2.02487 -5.76578 0
M  V30 4287 C 403.589 1.60183 -6.63951 0
M  V30 4288 O 403.277 1.29451 -7.93409 0
M  V30 4289 H 403.009 0.414858 -0.533731 0
M  V30 4290 H 405.563 0.684465 -1.9366 0
M  V30 4291 H 403.793 3.23235 -2.12265 0
M  V30 4292 H 405.482 3.16873 -2.53666 0
M  V30 4293 H 406.248 1.70278 -4.54126 0
M  V30 4294 H 402.127 2.65501 -3.76869 0
M  V30 4295 H 405.671 1.15775 -6.87926 0
M  V30 4296 H 401.568 2.11448 -6.09885 0
M  V30 4297 H 402.336 1.43098 -8.05894 0
M  V30 4298 N 404.999 1.35443 0.805782 0
M  V30 4299 C 406.276 1.19325 1.54987 0
M  V30 4300 C 406.656 -0.227294 2.09873 0
M  V30 4301 O 406.004 -1.2309 1.92512 0
M  V30 4302 C 406.214 2.26196 2.65775 0
M  V30 4303 C 407.562 2.62043 3.34094 0
M  V30 4304 O 408.586 2.25115 2.76046 0
M  V30 4305 O 407.445 3.25542 4.38958 0
M  V30 4306 H 404.539 0.463623 0.684823 0
M  V30 4307 H 407.085 1.47127 0.845674 0
M  V30 4308 H 405.857 3.21471 2.23096 0
M  V30 4309 H 405.48 1.99667 3.43829 0
M  V30 4310 N 406.477 -1.02803 1.19454 0
M  V30 4311 C 407.424 -2.11099 0.933046 0
M  V30 4312 C 408.394 -1.65571 -0.132447 0
M  V30 4313 O 409.579 -1.90797 0.00987576 0
M  V30 4314 C 406.719 -3.41763 0.478747 0
M  V30 4315 C 405.832 -4.00833 1.6111 0
M  V30 4316 C 404.967 -5.19511 1.10825 0
M  V30 4317 C 404.006 -5.70639 2.21445 0
M  V30 4318 N 403.143 -6.80589 1.72461 0
M  V30 4319 H 407.983 -2.32804 1.86028 0
M  V30 4320 H 405.52 -1.14179 0.927441 0
M  V30 4321 H 407.478 -4.16736 0.196745 0
M  V30 4322 H 406.108 -3.20166 -0.411493 0
M  V30 4323 H 405.16 -3.23066 2.00829 0
M  V30 4324 H 406.472 -4.34794 2.4445 0
M  V30 4325 H 405.626 -6.01645 0.781533 0
M  V30 4326 H 404.365 -4.87086 0.244606 0
M  V30 4327 H 403.37 -4.87116 2.54947 0
M  V30 4328 H 404.595 -6.05102 3.08267 0
M  V30 4329 H 402.541 -6.50016 0.884056 0
M  V30 4330 H 402.458 -7.13681 2.49389 0
M  V30 4331 H 403.726 -7.66317 1.42755 0
M  V30 4332 N 407.956 -0.998596 -1.21925 0
M  V30 4333 C 408.866 -0.562736 -2.27751 0
M  V30 4334 C 409.882 0.391203 -1.69545 0
M  V30 4335 O 411.058 0.256625 -1.99758 0
M  V30 4336 C 408.123 0.11012 -3.46525 0
M  V30 4337 C 407.184 -0.887495 -4.20026 0
M  V30 4338 C 406.417 -0.246654 -5.3313 0
M  V30 4339 O 406.64 0.958088 -5.62296 0
M  V30 4340 O 405.574 -0.954374 -5.94286 0
M  V30 4341 H 409.4 -1.44329 -2.67213 0
M  V30 4342 H 406.985 -0.767135 -1.28201 0
M  V30 4343 H 408.867 0.486756 -4.18579 0
M  V30 4344 H 407.542 0.965154 -3.08976 0
M  V30 4345 H 406.449 -1.31517 -3.5022 0
M  V30 4346 H 407.782 -1.71191 -4.6147 0
M  V30 4347 N 409.434 1.37368 -0.772513 0
M  V30 4348 C 410.664 2.03647 -0.348082 0
M  V30 4349 C 411.072 1.58392 1.03482 0
M  V30 4350 O 410.415 0.760921 1.672 0
M  V30 4351 C 410.477 3.58131 -0.313404 0
M  V30 4352 C 410.141 4.2652 -1.64102 0
M  V30 4353 C 411.138 4.50587 -2.5936 0
M  V30 4354 C 408.823 4.64335 -1.91567 0
M  V30 4355 C 410.817 5.11526 -3.80289 0
M  V30 4356 C 408.504 5.24996 -3.12766 0
M  V30 4357 C 409.502 5.48529 -4.06946 0
M  V30 4358 O 409.19 6.07921 -5.26011 0
M  V30 4359 H 408.922 0.660538 -0.143753 0
M  V30 4360 H 411.476 1.76669 -1.04772 0
M  V30 4361 H 409.706 3.84159 0.442617 0
M  V30 4362 H 411.395 4.05813 0.0840613 0
M  V30 4363 H 412.161 4.21784 -2.39423 0
M  V30 4364 H 408.04 4.45353 -1.19088 0
M  V30 4365 H 411.584 5.29811 -4.53813 0
M  V30 4366 H 407.481 5.53223 -3.32588 0
M  V30 4367 H 408.249 6.26398 -5.26847 0
M  V30 4368 N 410.912 0.523116 1.48665 0
M  V30 4369 C 412.158 -0.0134963 2.02796 0
M  V30 4370 C 412.491 -1.34582 1.40004 0
M  V30 4371 O 411.766 -1.86756 0.543381 0
M  V30 4372 C 412.049 -0.14276 3.59817 0
M  V30 4373 C 411.902 1.21425 4.331 0
M  V30 4374 C 413.221 -0.872856 4.31357 0
M  V30 4375 H 410.34 -0.00343074 0.736992 0
M  V30 4376 H 412.982 0.678816 1.7746 0
M  V30 4377 H 411.132 -0.732401 3.81534 0
M  V30 4378 H 412.804 1.84447 4.2282 0
M  V30 4379 H 411.047 1.79791 3.94788 0
M  V30 4380 H 411.718 1.07687 5.41394 0
M  V30 4381 H 414.194 -0.372555 4.14429 0
M  V30 4382 H 413.07 -0.932185 5.40927 0
M  V30 4383 H 413.331 -1.92161 3.98154 0
M  V30 4384 N 412.39 -1.55475 0.257931 0
M  V30 4385 C 413.353 -2.20551 -0.623706 0
M  V30 4386 C 414.353 -1.17809 -1.09443 0
M  V30 4387 O 415.543 -1.42823 -0.997362 0
M  V30 4388 C 412.675 -2.85784 -1.8585 0
M  V30 4389 H 413.868 -2.99848 -0.0557743 0
M  V30 4390 H 411.421 -1.56298 0.0084422 0
M  V30 4391 H 412.156 -2.10453 -2.46739 0
M  V30 4392 H 411.941 -3.61057 -1.52907 0
M  V30 4393 H 413.431 -3.35553 -2.48584 0
M  V30 4394 N 413.868 0.0150385 -1.57593 0
M  V30 4395 C 414.815 1.01126 -2.07466 0
M  V30 4396 C 415.785 1.35064 -0.966794 0
M  V30 4397 O 416.97 1.4516 -1.23827 0
M  V30 4398 C 414.11 2.30276 -2.57035 0
M  V30 4399 C 413.223 2.02373 -3.81666 0
M  V30 4400 C 412.358 3.25496 -4.19793 0
M  V30 4401 C 411.397 2.93211 -5.37303 0
M  V30 4402 N 410.534 4.08826 -5.70794 0
M  V30 4403 H 415.374 0.57901 -2.92321 0
M  V30 4404 H 412.911 0.27426 -1.44521 0
M  V30 4405 H 414.869 3.05757 -2.83846 0
M  V30 4406 H 413.499 2.71197 -1.75077 0
M  V30 4407 H 412.551 1.17327 -3.61854 0
M  V30 4408 H 413.863 1.74567 -4.67256 0
M  V30 4409 H 413.017 4.09333 -4.47807 0
M  V30 4410 H 411.756 3.56428 -3.32882 0
M  V30 4411 H 410.761 2.07777 -5.09027 0
M  V30 4412 H 411.986 2.63542 -6.25877 0
M  V30 4413 H 409.932 4.39682 -4.86842 0
M  V30 4414 H 409.849 3.84491 -6.50924 0
M  V30 4415 H 411.117 4.93496 -6.03392 0
M  V30 4416 N 415.346 1.54954 0.287554 0
M  V30 4417 C 416.576 1.78622 1.03816 0
M  V30 4418 C 416.984 0.552451 1.80955 0
M  V30 4419 O 416.327 -0.487665 1.77109 0
M  V30 4420 C 416.389 2.94975 2.055 0
M  V30 4421 C 416.053 4.32565 1.47433 0
M  V30 4422 C 417.05 5.12096 0.897436 0
M  V30 4423 C 414.735 4.79195 1.50591 0
M  V30 4424 C 416.729 6.36383 0.359851 0
M  V30 4425 C 414.416 6.03441 0.964459 0
M  V30 4426 C 415.414 6.81872 0.392413 0
M  V30 4427 O 415.102 8.03777 -0.140788 0
M  V30 4428 H 414.834 0.599144 0.313053 0
M  V30 4429 H 417.388 2.02761 0.328225 0
M  V30 4430 H 415.618 2.66493 2.80211 0
M  V30 4431 H 417.307 3.06097 2.6657 0
M  V30 4432 H 418.073 4.77209 0.865841 0
M  V30 4433 H 413.952 4.18167 1.94055 0
M  V30 4434 H 417.496 6.97545 -0.0872951 0
M  V30 4435 H 413.393 6.37813 0.993246 0
M  V30 4436 H 414.161 8.18495 -0.0287617 0
M  V30 4437 N 416.824 -0.551391 1.4764 0
M  V30 4438 C 418.052 -1.33357 1.58189 0
M  V30 4439 C 418.467 -1.87342 0.234199 0
M  V30 4440 O 417.824 -1.65301 -0.77343 0
M  V30 4441 C 417.875 -2.49942 2.61173 0
M  V30 4442 O 417.596 -1.98187 3.90709 0
M  V30 4443 C 419.097 -3.42072 2.8196 0
M  V30 4444 H 416.317 -0.40631 0.533998 0
M  V30 4445 H 418.861 -0.667367 1.93304 0
M  V30 4446 H 417.016 -3.12489 2.28975 0
M  V30 4447 H 417.43 -2.74342 4.47031 0
M  V30 4448 H 418.904 -4.20278 3.57869 0
M  V30 4449 H 419.381 -3.95978 1.89995 0
M  V30 4450 H 419.987 -2.85336 3.15378 0
M  V30 4451 N 418.302 -1.35869 -0.798587 0
M  V30 4452 C 419.548 -1.2978 -1.55836 0
M  V30 4453 C 419.881 0.125322 -1.93795 0
M  V30 4454 O 419.156 1.07658 -1.61987 0
M  V30 4455 C 419.439 -2.21188 -2.84162 0
M  V30 4456 C 419.292 -3.72155 -2.52628 0
M  V30 4457 C 420.611 -2.11545 -3.85923 0
M  V30 4458 H 417.73 -0.472769 -0.565383 0
M  V30 4459 H 420.372 -1.66341 -0.918192 0
M  V30 4460 H 418.522 -1.90139 -3.38791 0
M  V30 4461 H 420.194 -4.13682 -2.04121 0
M  V30 4462 H 418.437 -3.92042 -1.85704 0
M  V30 4463 H 419.108 -4.31511 -3.44242 0
M  V30 4464 H 421.584 -2.38855 -3.40716 0
M  V30 4465 H 420.46 -2.77688 -4.73477 0
M  V30 4466 H 420.721 -1.09987 -4.282 0
M  V30 4467 N 419.78 1.02168 -1.19998 0
M  V30 4468 C 421.028 1.75338 -1.00504 0
M  V30 4469 C 421.349 1.89387 0.464506 0
M  V30 4470 O 420.619 1.43268 1.33608 0
M  V30 4471 H 419.199 0.649564 -0.368885 0
M  V30 4472 H 421.861 1.23205 -1.51018 0
M  V30 4473 H 420.957 2.75892 -1.45912 0
M  V30 4474 N 421.258 1.00505 1.21394 0
M  V30 4475 C 422.505 0.687774 1.90462 0
M  V30 4476 C 422.833 -0.78147 1.7811 0
M  V30 4477 O 422.088 -1.58208 1.1519 0
M  V30 4478 C 422.387 1.0546 3.41486 0
M  V30 4479 C 422.053 2.51812 3.74034 0
M  V30 4480 C 420.715 2.91804 3.82628 0
M  V30 4481 C 423.067 3.46614 3.8924 0
M  V30 4482 C 420.395 4.2556 4.03876 0
M  V30 4483 C 422.747 4.80044 4.11995 0
M  V30 4484 C 421.411 5.19759 4.18816 0
M  V30 4485 H 420.681 0.251674 0.696951 0
M  V30 4486 H 423.328 1.26349 1.43903 0
M  V30 4487 H 421.633 0.397133 3.89782 0
M  V30 4488 H 423.33 0.786976 3.93202 0
M  V30 4489 H 419.92 2.1982 3.67936 0
M  V30 4490 H 424.104 3.16883 3.81967 0
M  V30 4491 H 419.36 4.55901 4.07387 0
M  V30 4492 H 423.534 5.53439 4.22704 0
M  V30 4493 H 421.161 6.23418 4.35033 0
M  V30 4494 N 422.737 -1.36956 0.779787 0
M  V30 4495 C 423.647 -2.33965 0.172491 0
M  V30 4496 C 424.663 -1.60574 -0.670222 0
M  V30 4497 O 425.839 -1.92617 -0.588263 0
M  V30 4498 C 422.904 -3.39761 -0.690173 0
M  V30 4499 C 421.965 -4.28964 0.169924 0
M  V30 4500 C 421.198 -5.29707 -0.651662 0
M  V30 4501 O 421.421 -5.38238 -1.88827 0
M  V30 4502 O 420.355 -6.01873 -0.0566264 0
M  V30 4503 H 424.181 -2.87647 0.974321 0
M  V30 4504 H 421.766 -1.39258 0.541078 0
M  V30 4505 H 423.648 -4.04471 -1.1824 0
M  V30 4506 H 422.323 -2.88394 -1.47006 0
M  V30 4507 H 421.23 -3.67326 0.708696 0
M  V30 4508 H 422.563 -4.83656 0.913085 0
M  V30 4509 N 424.215 -0.530993 -1.48385 0
M  V30 4510 C 425.125 0.23503 -2.3342 0
M  V30 4511 C 426.141 0.93801 -1.46552 0
M  V30 4512 O 427.317 0.912745 -1.7953 0
M  V30 4513 C 424.382 1.26778 -3.22689 0
M  V30 4514 C 423.443 0.575038 -4.25431 0
M  V30 4515 C 422.676 1.55858 -5.10435 0
M  V30 4516 O 422.899 2.79129 -4.97437 0
M  V30 4517 O 421.833 1.09742 -5.91811 0
M  V30 4518 H 425.659 -0.461794 -3.00169 0
M  V30 4519 H 423.244 -0.291903 -1.46521 0
M  V30 4520 H 425.126 1.86457 -3.77904 0
M  V30 4521 H 423.801 1.94699 -2.586 0
M  V30 4522 H 422.708 -0.0622782 -3.74048 0
M  V30 4523 H 424.041 -0.062253 -4.92161 0
M  V30 4524 N 425.693 1.55336 -0.266172 0
M  V30 4525 C 426.623 2.25146 0.618981 0
M  V30 4526 C 427.604 1.23845 1.16604 0
M  V30 4527 O 428.789 1.52544 1.20183 0
M  V30 4528 C 425.919 2.96572 1.80728 0
M  V30 4529 C 424.873 4.04726 1.39215 0
M  V30 4530 C 424.199 4.63678 2.66283 0
M  V30 4531 C 425.499 5.19407 0.548942 0
M  V30 4532 H 427.193 2.99377 0.0368116 0
M  V30 4533 H 424.739 1.43991 0.0162651 0
M  V30 4534 H 426.692 3.44116 2.43232 0
M  V30 4535 H 425.416 2.19861 2.41514 0
M  V30 4536 H 424.075 3.57979 0.790351 0
M  V30 4537 H 423.723 3.83646 3.25308 0
M  V30 4538 H 423.423 5.367 2.39222 0
M  V30 4539 H 424.947 5.13967 3.29651 0
M  V30 4540 H 426.361 5.63059 1.07876 0
M  V30 4541 H 424.758 5.98936 0.373593 0
M  V30 4542 H 425.828 4.8295 -0.434394 0
M  V30 4543 N 427.171 -0.0066808 1.57599 0
M  V30 4544 C 428.118 -1.00024 2.08 0
M  V30 4545 C 429.088 -1.34549 0.973943 0
M  V30 4546 O 430.273 -1.44502 1.24595 0
M  V30 4547 C 427.413 -2.2891 2.58252 0
M  V30 4548 C 426.526 -2.00346 3.82734 0
M  V30 4549 C 425.661 -3.23265 4.21513 0
M  V30 4550 C 424.7 -2.90357 5.3885 0
M  V30 4551 N 423.837 -4.05793 5.72954 0
M  V30 4552 H 428.677 -0.563499 2.92624 0
M  V30 4553 H 426.214 -0.266592 1.44664 0
M  V30 4554 H 428.172 -3.04247 2.85464 0
M  V30 4555 H 426.802 -2.70265 1.76512 0
M  V30 4556 H 425.854 -1.15406 3.62471 0
M  V30 4557 H 427.166 -1.72086 4.68175 0
M  V30 4558 H 426.32 -4.06953 4.49971 0
M  V30 4559 H 425.059 -3.54657 3.34768 0
M  V30 4560 H 424.064 -2.05075 5.10122 0
M  V30 4561 H 425.289 -2.60219 6.27266 0
M  V30 4562 H 423.235 -4.37094 4.89167 0
M  V30 4563 H 423.152 -3.81034 6.52954 0
M  V30 4564 H 424.42 -4.90289 6.06001 0
M  V30 4565 N 428.649 -1.55105 -0.279332 0
M  V30 4566 C 429.612 -1.86783 -1.32834 0
M  V30 4567 C 430.612 -0.74199 -1.42657 0
M  V30 4568 O 431.802 -1.0102 -1.41918 0
M  V30 4569 C 428.934 -2.06746 -2.71052 0
M  V30 4570 H 430.127 -2.8055 -1.05979 0
M  V30 4571 H 427.68 -1.47499 -0.517087 0
M  V30 4572 H 428.415 -1.15339 -3.03097 0
M  V30 4573 H 428.2 -2.88711 -2.65309 0
M  V30 4574 H 429.69 -2.32549 -3.46858 0
M  V30 4575 N 430.127 0.543554 -1.4793 0
M  V30 4576 C 431.077 1.64527 -1.57844 0
M  V30 4577 C 432.061 1.54869 -0.436408 0
M  V30 4578 O 433.253 1.63119 -0.687101 0
M  V30 4579 C 430.382 3.03281 -1.6086 0
M  V30 4580 C 429.468 3.18093 -2.80495 0
M  V30 4581 N 429.859 3.02923 -4.05057 0
M  V30 4582 C 428.157 3.49121 -2.77543 0
M  V30 4583 C 428.858 3.20791 -4.85251 0
M  V30 4584 N 427.834 3.47749 -4.17818 0
M  V30 4585 H 431.636 1.51388 -2.5191 0
M  V30 4586 H 429.15 0.748671 -1.44113 0
M  V30 4587 H 431.147 3.82403 -1.66054 0
M  V30 4588 H 429.807 3.17521 -0.678996 0
M  V30 4589 H 430.818 2.79966 -4.35705 0
M  V30 4590 H 427.495 3.69804 -1.93781 0
M  V30 4591 H 428.885 3.13915 -5.9406 0
M  V30 4592 N 431.605 1.3629 0.791371 0
M  V30 4593 C 432.851 1.30605 1.55146 0
M  V30 4594 C 433.184 -0.115042 1.93859 0
M  V30 4595 O 432.459 -1.06798 1.62556 0
M  V30 4596 C 432.742 2.22692 2.82985 0
M  V30 4597 C 432.595 3.73489 2.50651 0
M  V30 4598 C 433.914 2.13588 3.84796 0
M  V30 4599 H 431.033 0.475761 0.562868 0
M  V30 4600 H 433.675 1.66825 0.909358 0
M  V30 4601 H 431.825 1.91933 3.37778 0
M  V30 4602 H 433.497 4.14758 2.01924 0
M  V30 4603 H 431.74 3.93021 1.83622 0
M  V30 4604 H 432.411 4.3333 3.41949 0
M  V30 4605 H 434.887 2.40659 3.39445 0
M  V30 4606 H 433.763 2.80195 4.71998 0
M  V30 4607 H 434.024 1.12256 4.27611 0
M  V30 4608 N 433.083 -1.0153 1.20538 0
M  V30 4609 C 434.03 -2.10098 0.955383 0
M  V30 4610 C 435 -1.65702 -0.114878 0
M  V30 4611 O 436.185 -1.90776 0.0301118 0
M  V30 4612 C 433.325 -3.41236 0.514969 0
M  V30 4613 C 432.438 -3.99102 1.65353 0
M  V30 4614 C 431.573 -5.18306 1.16329 0
M  V30 4615 C 430.612 -5.68258 2.27485 0
M  V30 4616 N 429.749 -6.78722 1.7967 0
M  V30 4617 H 434.589 -2.30818 1.88486 0
M  V30 4618 H 432.126 -1.13189 0.939499 0
M  V30 4619 H 434.084 -4.16504 0.240935 0
M  V30 4620 H 432.714 -3.20585 -0.377512 0
M  V30 4621 H 431.766 -3.20918 2.04245 0
M  V30 4622 H 433.078 -4.32177 2.49047 0
M  V30 4623 H 432.232 -6.00782 0.845302 0
M  V30 4624 H 430.971 -4.86799 0.296254 0
M  V30 4625 H 429.976 -4.84385 2.60099 0
M  V30 4626 H 431.201 -6.01798 3.14667 0
M  V30 4627 H 429.147 -6.49042 0.95295 0
M  V30 4628 H 429.064 -7.10996 2.56944 0
M  V30 4629 H 430.332 -7.64759 1.50875 0
M  V30 4630 N 434.561 -1.01147 -1.20859 0
M  V30 4631 C 435.838 -0.613136 -1.85742 0
M  V30 4632 C 436.218 0.909004 -1.90526 0
M  V30 4633 O 435.566 1.79862 -1.40932 0
M  V30 4634 C 435.776 -1.255 -3.25654 0
M  V30 4635 C 437.124 -1.3672 -4.01986 0
M  V30 4636 O 438.148 -1.21082 -3.34989 0
M  V30 4637 O 437.007 -1.6194 -5.21956 0
M  V30 4638 H 434.101 -0.210878 -0.799662 0
M  V30 4639 H 436.647 -1.10853 -1.2849 0
M  V30 4640 H 435.419 -2.29532 -3.16908 0
M  V30 4641 H 435.042 -0.746369 -3.90532 0
M  V30 4642 N 436.039 1.36541 -0.78704 0
M  V30 4643 C 437.286 1.99304 -0.358341 0
M  V30 4644 C 437.614 1.62467 1.06933 0
M  V30 4645 O 436.869 0.870019 1.75297 0
M  V30 4646 C 437.168 3.54343 -0.466485 0
M  V30 4647 C 436.834 4.10993 -1.85461 0
M  V30 4648 C 435.496 4.26177 -2.23443 0
M  V30 4649 C 437.848 4.41895 -2.76366 0
M  V30 4650 C 435.176 4.69573 -3.51736 0
M  V30 4651 C 437.528 4.86722 -4.04084 0
M  V30 4652 C 436.192 5.00112 -4.42091 0
M  V30 4653 H 435.462 0.729306 -0.131126 0
M  V30 4654 H 438.109 1.63068 -1.00404 0
M  V30 4655 H 436.414 3.90918 0.262719 0
M  V30 4656 H 438.111 4.00833 -0.115854 0
M  V30 4657 H 434.701 3.99612 -1.54946 0
M  V30 4658 H 438.885 4.29735 -2.48277 0
M  V30 4659 H 434.141 4.78127 -3.81057 0
M  V30 4660 H 438.315 5.09598 -4.7464 0
M  V30 4661 H 435.942 5.33498 -5.41557 0
M  V30 4662 N 437.518 0.538854 1.48102 0
M  V30 4663 C 438.746 0.0123136 2.06896 0
M  V30 4664 C 439.161 -1.27312 1.39417 0
M  V30 4665 O 438.518 -1.75949 0.484582 0
M  V30 4666 C 438.569 -0.206118 3.60912 0
M  V30 4667 O 438.29 1.0284 4.25859 0
M  V30 4668 C 439.791 -0.772033 4.36526 0
M  V30 4669 H 437.011 0.0375239 0.66995 0
M  V30 4670 H 439.555 0.747032 1.90367 0
M  V30 4671 H 437.71 -0.89091 3.77017 0
M  V30 4672 H 438.124 0.814654 5.18135 0
M  V30 4673 H 439.598 -0.874251 5.45033 0
M  V30 4674 H 440.075 -1.77904 4.01555 0
M  V30 4675 H 440.681 -0.123526 4.25121 0
M  V30 4676 N 438.996 -1.55193 0.274407 0
M  V30 4677 C 440.407 -1.85358 -0.223488 0
M  V30 4678 C 440.758 -1.19642 -1.555 0
M  V30 4679 O 439.883 -0.484498 -2.10907 0
M  V30 4680 C 440.478 -3.36282 -0.412285 0
M  V30 4681 C 439.037 -3.66574 -0.854413 0
M  V30 4682 C 438.184 -2.7725 0.0527056 0
M  V30 4683 H 441.135 -1.50743 0.496215 0
M  V30 4684 H 441.156 -3.59349 -1.25094 0
M  V30 4685 H 440.668 -3.84083 0.556965 0
M  V30 4686 H 438.769 -3.24273 -1.83516 0
M  V30 4687 H 438.882 -4.74073 -0.692226 0
M  V30 4688 H 437.246 -2.50447 -0.463484 0
M  V30 4689 H 438.029 -3.27865 1.01783 0
M  V30 4690 N 440.474 -0.00167713 -1.576 0
M  V30 4691 C 441.384 1.00548 -2.1196 0
M  V30 4692 C 442.4 1.3758 -1.06526 0
M  V30 4693 O 443.576 1.46278 -1.38436 0
M  V30 4694 C 440.641 2.27809 -2.6135 0
M  V30 4695 C 439.702 1.97074 -3.81393 0
M  V30 4696 C 438.935 3.18267 -4.28417 0
M  V30 4697 O 439.158 4.30009 -3.74765 0
M  V30 4698 O 438.092 3.02167 -5.20556 0
M  V30 4699 H 441.918 0.573373 -2.98238 0
M  V30 4700 H 439.503 0.217255 -1.47812 0
M  V30 4701 H 441.385 3.02568 -2.93309 0
M  V30 4702 H 440.06 2.70254 -1.78169 0
M  V30 4703 H 438.967 1.19785 -3.54404 0
M  V30 4704 H 440.3 1.59464 -4.65652 0
M  V30 4705 N 441.952 1.55251 0.271103 0
M  V30 4706 C 443.198 1.7713 0.999832 0
M  V30 4707 C 443.553 0.56659 1.83868 0
M  V30 4708 O 442.846 -0.44069 1.86463 0
M  V30 4709 C 443.04 3.01879 1.91321 0
M  V30 4710 C 442.869 4.34368 1.16426 0
M  V30 4711 C 441.639 4.97593 0.879169 0
M  V30 4712 C 443.837 5.1131 0.553749 0
M  V30 4713 N 441.819 6.13813 0.103618 0
M  V30 4714 C 443.19 6.19938 -0.0875442 0
M  V30 4715 C 445.245 4.95754 0.461782 0
M  V30 4716 C 443.948 7.14703 -0.811942 0
M  V30 4717 C 445.974 5.90875 -0.249027 0
M  V30 4718 C 445.336 6.98893 -0.879051 0
M  V30 4719 H 441.435 0.700407 0.347784 0
M  V30 4720 H 444.019 1.92744 0.275314 0
M  V30 4721 H 442.19 2.87637 2.60997 0
M  V30 4722 H 443.922 3.12154 2.57569 0
M  V30 4723 H 440.677 4.58538 1.18491 0
M  V30 4724 H 441.101 6.76455 -0.271543 0
M  V30 4725 H 445.743 4.12342 0.934552 0
M  V30 4726 H 443.461 7.97634 -1.29639 0
M  V30 4727 H 447.047 5.80916 -0.320529 0
M  V30 4728 H 445.927 7.71231 -1.42031 0
M  V30 4729 N 443.43 -0.535701 1.48216 0
M  V30 4730 C 444.393 -1.623 1.61838 0
M  V30 4731 C 445.393 -1.53087 0.492024 0
M  V30 4732 O 446.583 -1.5686 0.757668 0
M  V30 4733 C 443.715 -3.01907 1.58319 0
M  V30 4734 H 444.908 -1.51564 2.58783 0
M  V30 4735 H 442.461 -0.757317 1.36727 0
M  V30 4736 H 443.196 -3.18155 0.628299 0
M  V30 4737 H 442.981 -3.10003 2.40085 0
M  V30 4738 H 444.471 -3.80969 1.71033 0
M  V30 4739 N 444.908 -1.36708 -0.784132 0
M  V30 4740 C 445.818 -1.3363 -1.92822 0
M  V30 4741 C 446.834 -0.237686 -1.72369 0
M  V30 4742 O 448.01 -0.470962 -1.95816 0
M  V30 4743 C 445.075 -1.13011 -3.27764 0
M  V30 4744 C 444.136 -2.32397 -3.60957 0
M  V30 4745 C 443.369 -2.12752 -4.89461 0
M  V30 4746 O 443.592 -1.10541 -5.59586 0
M  V30 4747 O 442.526 -3.00653 -5.21432 0
M  V30 4748 H 446.352 -2.29964 -1.98369 0
M  V30 4749 H 443.937 -1.1731 -0.925136 0
M  V30 4750 H 445.819 -1.03451 -4.08504 0
M  V30 4751 H 444.494 -0.19743 -3.23097 0
M  V30 4752 H 443.401 -2.47527 -2.80502 0
M  V30 4753 H 444.734 -3.2419 -3.70354 0
M  V30 4754 N 446.386 1.0089 -1.21074 0
M  V30 4755 C 447.333 2.09588 -0.966512 0
M  V30 4756 C 448.303 1.65761 0.106089 0
M  V30 4757 O 449.488 1.90758 -0.0402287 0
M  V30 4758 C 446.628 3.40958 -0.533058 0
M  V30 4759 C 445.741 3.9822 -1.67467 0
M  V30 4760 C 444.876 5.17682 -1.19076 0
M  V30 4761 C 443.915 5.67043 -2.30496 0
M  V30 4762 N 443.052 6.77759 -1.83267 0
M  V30 4763 H 447.892 2.29815 -1.89708 0
M  V30 4764 H 445.429 1.12689 -0.945489 0
M  V30 4765 H 447.387 4.1637 -0.263019 0
M  V30 4766 H 446.017 3.20781 0.360505 0
M  V30 4767 H 445.069 3.1983 -2.05944 0
M  V30 4768 H 446.381 4.3085 -2.51336 0
M  V30 4769 H 445.535 6.00326 -0.877151 0
M  V30 4770 H 444.274 4.86635 -0.322066 0
M  V30 4771 H 443.279 4.82999 -2.62664 0
M  V30 4772 H 444.504 6.00121 -3.17855 0
M  V30 4773 H 442.45 6.48527 -0.987356 0
M  V30 4774 H 442.367 7.09624 -2.60711 0
M  V30 4775 H 443.635 7.63949 -1.54928 0
M  V30 4776 N 447.864 1.01787 1.20321 0
M  V30 4777 C 448.814 0.559976 2.21016 0
M  V30 4778 C 449.798 -0.385366 1.56217 0
M  V30 4779 O 450.99 -0.208126 1.75772 0
M  V30 4780 C 448.119 -0.0990553 3.43157 0
M  V30 4781 C 447.205 0.86807 4.15121 0
M  V30 4782 N 447.596 2.0261 4.63447 0
M  V30 4783 C 445.894 0.689162 4.40643 0
M  V30 4784 C 446.595 2.63518 5.18588 0
M  V30 4785 N 445.571 1.91569 5.08726 0
M  V30 4786 H 449.373 1.44281 2.56048 0
M  V30 4787 H 446.887 0.883381 1.36272 0
M  V30 4788 H 448.884 -0.444643 4.14522 0
M  V30 4789 H 447.544 -0.977709 3.0963 0
M  V30 4790 H 448.555 2.40598 4.58621 0
M  V30 4791 H 445.232 -0.14133 4.17261 0
M  V30 4792 H 446.622 3.61527 5.66346 0
M  V30 4793 N 449.342 -1.36122 0.79427 0
M  V30 4794 C 450.57 -2.03362 0.380989 0
M  V30 4795 C 450.985 -1.59881 -1.00416 0
M  V30 4796 O 450.342 -0.790515 -1.6449 0
M  V30 4797 C 450.393 -3.58804 0.440649 0
M  V30 4798 O 450.114 -4.007 1.77118 0
M  V30 4799 C 451.615 -4.43296 0.0186117 0
M  V30 4800 H 448.835 -0.652526 0.156367 0
M  V30 4801 H 451.379 -1.73998 1.07447 0
M  V30 4802 H 449.534 -3.8686 -0.204458 0
M  V30 4803 H 449.948 -4.95309 1.72538 0
M  V30 4804 H 451.422 -5.51887 0.111488 0
M  V30 4805 H 451.899 -4.2684 -1.03461 0
M  V30 4806 H 452.505 -4.20512 0.636395 0
M  V30 4807 N 450.82 -0.546701 -1.47814 0
M  V30 4808 C 451.73 0.21026 -2.33656 0
M  V30 4809 C 452.746 0.922413 -1.47538 0
M  V30 4810 O 453.922 0.893652 -1.80488 0
M  V30 4811 C 450.987 1.23348 -3.24016 0
M  V30 4812 C 450.048 0.529883 -4.26017 0
M  V30 4813 C 449.281 1.50435 -5.12059 0
M  V30 4814 O 449.504 2.73837 -5.00369 0
M  V30 4815 O 448.438 1.03459 -5.92942 0
M  V30 4816 H 452.264 -0.493605 -2.99662 0
M  V30 4817 H 449.849 -0.307427 -1.46203 0
M  V30 4818 H 451.731 1.82438 -3.79861 0
M  V30 4819 H 450.406 1.91945 -2.60651 0
M  V30 4820 H 449.313 -0.101948 -3.73961 0
M  V30 4821 H 450.646 -0.11445 -4.92067 0
M  V30 4822 N 452.299 1.55045 -0.282633 0
M  V30 4823 C 453.548 1.98938 0.332667 0
M  V30 4824 C 453.861 1.17455 1.56409 0
M  V30 4825 O 455.067 1.51527 2.25282 0
M  V30 4826 C 453.523 3.54105 0.643226 0
M  V30 4827 C 453.131 4.44374 -0.568814 0
M  V30 4828 C 454.875 4.06569 1.22074 0
M  V30 4829 C 452.782 5.90943 -0.232426 0
M  V30 4830 H 451.712 0.743043 0.128075 0
M  V30 4831 H 454.363 1.79341 -0.388464 0
M  V30 4832 H 452.745 3.69532 1.42346 0
M  V30 4833 H 453.919 4.40718 -1.34551 0
M  V30 4834 H 452.234 4.02585 -1.06369 0
M  V30 4835 H 454.831 5.13626 1.48635 0
M  V30 4836 H 455.174 3.56057 2.15707 0
M  V30 4837 H 455.707 3.94612 0.502621 0
M  V30 4838 H 452.446 6.45567 -1.13683 0
M  V30 4839 H 451.966 5.9765 0.507357 0
M  V30 4840 H 453.645 6.4677 0.172657 0
M  V30 4841 N 453.777 0.010035 1.57597 0
M  V30 4842 C 455.188 -0.531426 1.78977 0
M  V30 4843 C 455.539 -1.73375 0.918454 0
M  V30 4844 O 454.664 -2.16047 0.123635 0
M  V30 4845 C 455.259 -0.97086 3.24592 0
M  V30 4846 C 453.818 -1.45756 3.47033 0
M  V30 4847 C 452.965 -0.413384 2.74201 0
M  V30 4848 H 455.916 0.236166 1.56933 0
M  V30 4849 H 455.937 -1.83633 3.33255 0
M  V30 4850 H 455.449 -0.0955893 3.87982 0
M  V30 4851 H 453.55 -2.35339 2.88871 0
M  V30 4852 H 453.663 -1.4781 4.55729 0
M  V30 4853 H 452.027 -0.877266 2.39115 0
M  V30 4854 H 452.81 0.453092 3.40297 0
M  V30 4855 N 455.255 -1.55392 -0.262866 0
M  V30 4856 C 456.218 -1.88181 -1.30846 0
M  V30 4857 C 457.218 -0.757079 -1.41862 0
M  V30 4858 O 458.408 -1.02519 -1.40838 0
M  V30 4859 C 455.54 -2.09609 -2.68844 0
M  V30 4860 H 456.733 -2.81659 -1.02997 0
M  V30 4861 H 454.286 -1.48039 -0.501414 0
M  V30 4862 H 455.021 -1.18547 -3.01856 0
M  V30 4863 H 454.806 -2.91508 -2.62231 0
M  V30 4864 H 456.296 -2.36215 -3.44372 0
M  V30 4865 N 456.733 0.527833 -1.48498 0
M  V30 4866 C 457.665 1.6482 -1.5927 0
M  V30 4867 C 458.678 1.55659 -0.476869 0
M  V30 4868 O 459.867 1.62081 -0.747806 0
M  V30 4869 C 456.967 3.0348 -1.50842 0
M  V30 4870 C 456.14 3.381 -2.77502 0
M  V30 4871 C 455.199 4.5605 -2.62497 0
M  V30 4872 O 454.225 4.59165 -3.36387 0
M  V30 4873 N 455.427 5.54353 -1.72257 0
M  V30 4874 H 458.192 1.56015 -2.55889 0
M  V30 4875 H 455.753 0.715152 -1.45249 0
M  V30 4876 H 457.745 3.80264 -1.38496 0
M  V30 4877 H 456.315 3.06352 -0.621887 0
M  V30 4878 H 455.535 2.50473 -3.04396 0
M  V30 4879 H 456.823 3.58017 -3.61527 0
M  V30 4880 H 456.221 5.54617 -1.11431 0
M  V30 4881 H 454.778 6.30347 -1.65849 0
M  V30 4882 N 458.211 1.37122 0.776871 0
M  V30 4883 C 459.457 1.32243 1.53752 0
M  V30 4884 C 459.79 -0.0944745 1.9397 0
M  V30 4885 O 459.065 -1.05068 1.6368 0
M  V30 4886 C 459.348 2.25681 2.80607 0
M  V30 4887 C 459.201 3.76127 2.46676 0
M  V30 4888 C 460.52 2.17657 3.82509 0
M  V30 4889 H 457.639 0.481704 0.557791 0
M  V30 4890 H 460.281 1.6778 0.891612 0
M  V30 4891 H 458.431 1.95505 3.35723 0
M  V30 4892 H 460.103 4.16877 1.97513 0
M  V30 4893 H 458.346 3.94946 1.79443 0
M  V30 4894 H 459.017 4.36933 3.37333 0
M  V30 4895 H 461.493 2.44245 3.36873 0
M  V30 4896 H 460.369 2.85185 4.69 0
M  V30 4897 H 460.63 1.16785 4.26396 0
M  V30 4898 N 459.689 -1.00246 1.21608 0
M  V30 4899 C 460.938 -1.73476 1.02902 0
M  V30 4900 C 461.251 -1.90643 -0.437561 0
M  V30 4901 O 462.457 -2.61105 -0.74407 0
M  V30 4902 C 460.913 -3.12079 1.79261 0
M  V30 4903 C 460.521 -3.02877 3.30106 0
M  V30 4904 C 462.265 -3.89421 1.68972 0
M  V30 4905 C 460.172 -4.36575 3.98944 0
M  V30 4906 H 459.102 -0.650408 0.381425 0
M  V30 4907 H 461.753 -1.11985 1.45367 0
M  V30 4908 H 460.135 -3.74196 1.2959 0
M  V30 4909 H 461.309 -2.49983 3.87098 0
M  V30 4910 H 459.624 -2.39022 3.40965 0
M  V30 4911 H 462.221 -4.88362 2.17731 0
M  V30 4912 H 462.564 -4.1122 0.648397 0
M  V30 4913 H 463.097 -3.33963 2.16133 0
M  V30 4914 H 459.836 -4.19978 5.03288 0
M  V30 4915 H 459.356 -4.8942 3.4674 0
M  V30 4916 H 461.035 -5.05364 4.04 0
M  V30 4917 N 461.167 -1.02423 -1.1978 0
M  V30 4918 C 462.583 -0.740459 -1.41384 0
M  V30 4919 C 462.783 0.676827 -1.89793 0
M  V30 4920 O 461.839 1.4435 -2.0717 0
M  V30 4921 C 463.152 -1.77264 -2.42895 0
M  V30 4922 C 464.7 -1.79165 -2.56649 0
M  V30 4923 C 465.175 -2.8133 -3.6141 0
M  V30 4924 N 466.666 -2.80118 -3.68901 0
M  V30 4925 C 467.401 -3.55824 -4.49641 0
M  V30 4926 N 466.897 -4.41231 -5.34123 0
M  V30 4927 N 468.69 -3.44387 -4.44246 0
M  V30 4928 H 460.841 -1.9391 -0.866764 0
M  V30 4929 H 463.104 -0.838074 -0.443098 0
M  V30 4930 H 462.81 -2.7884 -2.14339 0
M  V30 4931 H 462.684 -1.59108 -3.42001 0
M  V30 4932 H 465.071 -0.782702 -2.84531 0
M  V30 4933 H 465.152 -2.01396 -1.57713 0
M  V30 4934 H 464.796 -3.82394 -3.34271 0
M  V30 4935 H 464.726 -2.56359 -4.59986 0
M  V30 4936 H 467.217 -2.1817 -3.08562 0
M  V30 4937 H 467.53 -4.95747 -5.92836 0
M  V30 4938 H 465.875 -4.45306 -5.33599 0
M  V30 4939 H 469.066 -2.7708 -3.77285 0
M  V30 4940 H 469.239 -4.0364 -5.06931 0
M  V30 4941 N 462.645 1.35699 -0.801477 0
M  V30 4942 C 463.555 2.33661 -0.209691 0
M  V30 4943 C 464.571 1.6162 0.644591 0
M  V30 4944 O 465.747 1.93529 0.557545 0
M  V30 4945 C 462.812 3.40816 0.636033 0
M  V30 4946 C 461.873 4.28639 -0.238147 0
M  V30 4947 C 461.106 5.30676 0.567307 0
M  V30 4948 O 461.329 5.41174 1.8024 0
M  V30 4949 O 460.263 6.01887 -0.0391336 0
M  V30 4950 H 464.089 2.8606 -1.01996 0
M  V30 4951 H 461.674 1.38379 -0.563164 0
M  V30 4952 H 463.556 4.06301 1.11791 0
M  V30 4953 H 462.231 2.90696 1.42399 0
M  V30 4954 H 461.138 3.66152 -0.767044 0
M  V30 4955 H 462.471 4.82143 -0.989915 0
M  V30 4956 N 464.123 0.554532 1.47522 0
M  V30 4957 C 465.369 0.0295227 2.02779 0
M  V30 4958 C 465.702 -1.31582 1.42828 0
M  V30 4959 O 464.977 -1.85561 0.582872 0
M  V30 4960 C 465.26 -0.0664057 3.60039 0
M  V30 4961 C 465.113 1.30585 4.30427 0
M  V30 4962 C 466.432 -0.781162 4.33112 0
M  V30 4963 H 463.551 0.0122027 0.736899 0
M  V30 4964 H 466.193 0.716305 1.7598 0
M  V30 4965 H 464.343 -0.651307 3.83002 0
M  V30 4966 H 466.015 1.93374 4.18813 0
M  V30 4967 H 464.258 1.88125 3.90886 0
M  V30 4968 H 464.929 1.19147 5.38988 0
M  V30 4969 H 467.405 -0.284565 4.15126 0
M  V30 4970 H 466.281 -0.817237 5.42782 0
M  V30 4971 H 466.542 -1.83672 4.0214 0
M  V30 4972 N 465.601 -1.54893 0.290851 0
M  V30 4973 C 466.564 -2.21824 -0.576784 0
M  V30 4974 C 467.564 -1.20104 -1.06919 0
M  V30 4975 O 468.754 -1.44906 -0.966843 0
M  V30 4976 C 465.886 -2.89662 -1.79747 0
M  V30 4977 H 467.079 -2.99899 0.00784051 0
M  V30 4978 H 464.632 -1.56245 0.0415934 0
M  V30 4979 H 465.367 -2.15639 -2.42219 0
M  V30 4980 H 465.152 -3.64219 -1.45214 0
M  V30 4981 H 466.642 -3.4075 -2.4141 0
M  V30 4982 N 467.08 -0.0183926 -1.57589 0
M  V30 4983 C 468.496 0.337897 -1.55982 0
M  V30 4984 C 468.696 1.73604 -1.02294 0
M  V30 4985 O 467.752 2.43589 -0.664895 0
M  V30 4986 C 469.065 0.196305 -3.00059 0
M  V30 4987 C 470.613 0.269875 -3.11834 0
M  V30 4988 C 471.088 0.157197 -4.5773 0
M  V30 4989 N 472.579 0.214521 -4.62703 0
M  V30 4990 C 473.314 0.150955 -5.73201 0
M  V30 4991 N 472.81 0.0369212 -6.9279 0
M  V30 4992 N 474.603 0.204162 -5.61729 0
M  V30 4993 H 466.754 -0.93279 -1.90821 0
M  V30 4994 H 469.017 -0.359253 -0.877292 0
M  V30 4995 H 468.723 -0.766383 -3.43248 0
M  V30 4996 H 468.597 0.970908 -3.6449 0
M  V30 4997 H 470.984 1.22302 -2.68563 0
M  V30 4998 H 471.065 -0.534918 -2.50144 0
M  V30 4999 H 470.709 -0.792479 -5.01679 0
M  V30 5000 H 470.639 0.980717 -5.17387 0
M  V30 5001 H 473.13 0.303238 -3.76681 0
M  V30 5002 H 473.443 -0.00518321 -7.728 0
M  V30 5003 H 471.788 0.0022886 -6.95 0
M  V30 5004 H 474.979 0.291575 -4.67191 0
M  V30 5005 H 475.152 0.15116 -6.47824 0
M  V30 5006 N 468.558 1.5553 0.254621 0
M  V30 5007 C 469.468 1.92789 1.33677 0
M  V30 5008 C 470.484 0.827356 1.53071 0
M  V30 5009 O 471.66 1.12807 1.66843 0
M  V30 5010 C 468.725 2.20827 2.67275 0
M  V30 5011 C 467.786 3.4427 2.5647 0
M  V30 5012 C 467.019 3.70961 3.83697 0
M  V30 5013 O 467.242 2.99852 4.85227 0
M  V30 5014 O 466.176 4.64491 3.82794 0
M  V30 5015 H 470.002 2.84945 1.05071 0
M  V30 5016 H 467.587 1.42312 0.454723 0
M  V30 5017 H 469.469 2.40204 3.46237 0
M  V30 5018 H 468.144 1.31851 2.9563 0
M  V30 5019 H 467.051 3.30209 1.75821 0
M  V30 5020 H 468.384 4.33524 2.33062 0
M  V30 5021 N 470.036 -0.519951 1.48776 0
M  V30 5022 C 470.969 -1.64053 1.58625 0
M  V30 5023 C 471.947 -1.5664 0.43618 0
M  V30 5024 O 473.131 -1.76969 0.649159 0
M  V30 5025 C 470.258 -3.02497 1.52359 0
M  V30 5026 C 469.304 -3.28235 2.72331 0
M  V30 5027 S 470.137 -3.13414 4.34203 0
M  V30 5028 C 471.293 -4.54287 4.30551 0
M  V30 5029 H 471.526 -1.5545 2.53422 0
M  V30 5030 H 469.059 -0.703681 1.37433 0
M  V30 5031 H 471.017 -3.82336 1.4943 0
M  V30 5032 H 469.678 -3.08531 0.588824 0
M  V30 5033 H 468.871 -4.29256 2.64113 0
M  V30 5034 H 468.473 -2.56085 2.72574 0
M  V30 5035 H 470.765 -5.46006 4.01103 0
M  V30 5036 H 471.708 -4.67558 5.31785 0
M  V30 5037 H 472.116 -4.34079 3.60881 0
M  V30 5038 N 471.514 -1.37532 -0.769588 0
M  V30 5039 C 472.477 -1.33292 -1.86456 0
M  V30 5040 C 473.477 -0.236537 -1.59051 0
M  V30 5041 O 474.667 -0.492511 -1.67093 0
M  V30 5042 C 471.799 -1.07118 -3.23633 0
M  V30 5043 H 472.992 -2.30692 -1.91628 0
M  V30 5044 H 470.545 -1.22593 -0.969572 0
M  V30 5045 H 471.28 -0.102578 -3.24138 0
M  V30 5046 H 471.065 -1.86479 -3.44917 0
M  V30 5047 H 472.555 -1.06806 -4.03711 0
M  V30 5048 N 472.992 0.995999 -1.22138 0
M  V30 5049 C 473.955 2.06711 -0.990109 0
M  V30 5050 C 474.955 1.60744 0.0422978 0
M  V30 5051 O 476.145 1.73095 -0.195895 0
M  V30 5052 C 473.277 3.37288 -0.49491 0
M  V30 5053 H 474.47 2.28661 -1.94047 0
M  V30 5054 H 472.023 1.16711 -1.03963 0
M  V30 5055 H 472.758 3.21022 0.459948 0
M  V30 5056 H 472.543 3.71986 -1.23971 0
M  V30 5057 H 474.033 4.16103 -0.353253 0
M  V30 5058 N 474.47 1.03057 1.19235 0
M  V30 5059 C 475.42 0.583386 2.2041 0
M  V30 5060 C 476.404 -0.368776 1.56617 0
M  V30 5061 O 477.596 -0.189471 1.75983 0
M  V30 5062 C 474.725 -0.0626534 3.43243 0
M  V30 5063 C 473.811 0.91205 4.14177 0
M  V30 5064 N 474.202 2.07514 4.61272 0
M  V30 5065 C 472.5 0.735859 4.39888 0
M  V30 5066 C 473.201 2.69003 5.15764 0
M  V30 5067 N 472.177 1.96954 5.06666 0
M  V30 5068 H 475.979 1.46988 2.54503 0
M  V30 5069 H 473.493 0.897785 1.35328 0
M  V30 5070 H 475.49 -0.400653 4.1497 0
M  V30 5071 H 474.15 -0.944813 3.1065 0
M  V30 5072 H 475.161 2.45448 4.56043 0
M  V30 5073 H 471.838 -0.0970656 4.17387 0
M  V30 5074 H 473.228 3.67514 5.6248 0
M  V30 5075 N 475.948 -1.35272 0.808662 0
M  V30 5076 C 476.895 -2.29764 0.218482 0
M  V30 5077 C 477.865 -1.52911 -0.648652 0
M  V30 5078 O 479.05 -1.81341 -0.593297 0
M  V30 5079 C 476.19 -3.39388 -0.625282 0
M  V30 5080 C 475.303 -4.31202 0.262516 0
M  V30 5081 C 474.438 -5.27919 -0.589451 0
M  V30 5082 C 473.477 -6.11371 0.298617 0
M  V30 5083 N 472.614 -7.0022 -0.513443 0
M  V30 5084 H 477.454 -2.79645 1.02968 0
M  V30 5085 H 474.991 -1.37629 0.519303 0
M  V30 5086 H 476.949 -4.01615 -1.12966 0
M  V30 5087 H 475.579 -2.90777 -1.40173 0
M  V30 5088 H 474.631 -3.69962 0.885013 0
M  V30 5089 H 475.943 -4.89748 0.945971 0
M  V30 5090 H 475.097 -5.95529 -1.15888 0
M  V30 5091 H 473.836 -4.69875 -1.30647 0
M  V30 5092 H 472.841 -5.42707 0.880301 0
M  V30 5093 H 474.066 -6.71494 1.01352 0
M  V30 5094 H 472.012 -6.44662 -1.21439 0
M  V30 5095 H 471.929 -7.55917 0.111922 0
M  V30 5096 H 473.197 -7.72175 -1.06608 0
M  V30 5097 N 477.426 -0.562348 -1.47226 0
M  V30 5098 C 478.837 -0.130325 -1.86245 0
M  V30 5099 C 479.188 1.30128 -1.46838 0
M  V30 5100 O 478.313 1.97974 -0.873805 0
M  V30 5101 C 478.908 -0.229738 -3.3802 0
M  V30 5102 C 477.467 0.14728 -3.76112 0
M  V30 5103 C 476.614 -0.574971 -2.71274 0
M  V30 5104 H 479.565 -0.771773 -1.3867 0
M  V30 5105 H 479.586 0.550316 -3.76499 0
M  V30 5106 H 479.098 -1.27178 -3.66671 0
M  V30 5107 H 477.199 1.19023 -3.53078 0
M  V30 5108 H 477.312 -0.214858 -4.78618 0
M  V30 5109 H 475.676 -0.0174756 -2.54694 0
M  V30 5110 H 476.459 -1.61827 -3.02766 0
M  V30 5111 N 478.904 1.54736 -0.299062 0
M  V30 5112 C 480.32 1.59507 0.0543849 0
M  V30 5113 C 480.52 1.31606 1.52585 0
M  V30 5114 O 479.576 1.08853 2.27832 0
M  V30 5115 C 480.889 2.98751 -0.34181 0
M  V30 5116 C 482.437 3.1165 -0.290414 0
M  V30 5117 C 482.912 4.53199 -0.661402 0
M  V30 5118 N 484.403 4.59114 -0.613863 0
M  V30 5119 C 485.138 5.66709 -0.873417 0
M  V30 5120 N 484.634 6.82349 -1.19884 0
M  V30 5121 N 486.427 5.56369 -0.800608 0
M  V30 5122 H 478.578 1.71133 -1.25806 0
M  V30 5123 H 480.841 0.799186 -0.509908 0
M  V30 5124 H 480.547 3.24085 -1.36608 0
M  V30 5125 H 480.421 3.75961 0.305508 0
M  V30 5126 H 482.808 2.86066 0.724605 0
M  V30 5127 H 482.889 2.366 -0.972327 0
M  V30 5128 H 482.533 4.79513 -1.67422 0
M  V30 5129 H 482.463 5.26583 0.0425612 0
M  V30 5130 H 484.954 3.76053 -0.3732 0
M  V30 5131 H 485.267 7.60326 -1.38291 0
M  V30 5132 H 483.612 6.83906 -1.23685 0
M  V30 5133 H 486.803 4.64904 -0.546045 0
M  V30 5134 H 486.976 6.40139 -1.00626 0
M  V30 5135 N 480.382 0.0267497 1.57577 0
M  V30 5136 C 481.345 -0.940916 2.08996 0
M  V30 5137 C 482.345 -1.25561 1.00455 0
M  V30 5138 O 483.535 -1.19634 1.26623 0
M  V30 5139 C 480.667 -2.25814 2.55384 0
M  V30 5140 H 481.86 -0.495628 2.95776 0
M  V30 5141 H 479.413 -0.221241 1.54726 0
M  V30 5142 H 480.148 -2.74976 1.71926 0
M  V30 5143 H 479.933 -2.04285 3.34679 0
M  V30 5144 H 481.423 -2.95178 2.95398 0
M  V30 5145 N 481.861 -1.55662 -0.24637 0
M  V30 5146 C 483.107 -1.77782 -0.975779 0
M  V30 5147 C 483.44 -0.592103 -1.84953 0
M  V30 5148 O 482.715 0.409588 -1.90138 0
M  V30 5149 C 482.998 -3.09788 -1.83584 0
M  V30 5150 C 482.851 -4.38764 -0.990241 0
M  V30 5151 C 484.17 -3.38029 -2.81823 0
M  V30 5152 H 481.289 -0.646789 -0.353317 0
M  V30 5153 H 483.931 -1.88398 -0.246248 0
M  V30 5154 H 482.081 -3.00869 -2.45784 0
M  V30 5155 H 483.753 -4.59675 -0.386897 0
M  V30 5156 H 481.996 -4.32798 -0.294626 0
M  V30 5157 H 482.667 -5.27514 -1.62584 0
M  V30 5158 H 485.143 -3.46915 -2.2976 0
M  V30 5159 H 484.019 -4.3161 -3.39122 0
M  V30 5160 H 484.28 -2.58968 -3.58313 0
M  V30 5161 N 483.339 0.512053 -1.4905 0
M  V30 5162 C 484.269 1.62365 -1.67809 0
M  V30 5163 C 485.25 1.61737 -0.526809 0
M  V30 5164 O 486.435 1.78651 -0.761404 0
M  V30 5165 C 483.565 3.00895 -1.73435 0
M  V30 5166 C 482.519 3.16387 -2.88242 0
M  V30 5167 C 481.845 4.56157 -2.78971 0
M  V30 5168 C 483.145 2.97457 -4.29321 0
M  V30 5169 H 484.839 1.46921 -2.60873 0
M  V30 5170 H 482.385 0.705379 -1.2554 0
M  V30 5171 H 484.338 3.78549 -1.85145 0
M  V30 5172 H 483.062 3.17403 -0.769619 0
M  V30 5173 H 481.721 2.41155 -2.76116 0
M  V30 5174 H 481.369 4.69525 -1.8043 0
M  V30 5175 H 481.069 4.67465 -3.5602 0
M  V30 5176 H 482.593 5.35886 -2.92675 0
M  V30 5177 H 484.007 3.64888 -4.42187 0
M  V30 5178 H 482.404 3.20245 -5.07507 0
M  V30 5179 H 483.474 1.93692 -4.44535 0
M  V30 5180 N 484.817 1.37938 0.762283 0
M  V30 5181 C 486.228 1.30094 1.33912 0
M  V30 5182 C 486.579 -0.0472026 1.96143 0
M  V30 5183 O 485.704 -0.94917 1.94473 0
M  V30 5184 C 486.299 2.35592 2.43478 0
M  V30 5185 C 484.858 2.31353 2.96905 0
M  V30 5186 C 484.005 2.18919 1.70205 0
M  V30 5187 H 486.956 1.48423 0.561816 0
M  V30 5188 H 486.977 2.00806 3.23199 0
M  V30 5189 H 486.489 3.33701 1.98155 0
M  V30 5190 H 484.59 1.36799 3.46579 0
M  V30 5191 H 484.703 3.25147 3.51875 0
M  V30 5192 H 483.067 1.65624 1.93496 0
M  V30 5193 H 483.85 3.18956 1.26973 0
M  V30 5194 N 486.295 -0.989507 1.22664 0
M  V30 5195 C 487.706 -1.54406 1.04955 0
M  V30 5196 C 488.057 -1.92366 -0.385951 0
M  V30 5197 O 487.182 -1.75111 -1.27142 0
M  V30 5198 C 487.777 -2.80578 1.89899 0
M  V30 5199 C 486.336 -3.32464 1.76478 0
M  V30 5200 C 485.483 -2.05524 1.86159 0
M  V30 5201 H 488.434 -0.810211 1.3646 0
M  V30 5202 H 488.455 -3.53075 1.4184 0
M  V30 5203 H 487.967 -2.52918 2.94371 0
M  V30 5204 H 486.068 -3.65024 0.747528 0
M  V30 5205 H 486.181 -4.02838 2.59342 0
M  V30 5206 H 484.545 -2.19241 1.29636 0
M  V30 5207 H 485.328 -1.80258 2.92168 0
M  V30 5208 N 487.773 -1.03688 -1.18687 0
M  V30 5209 C 489.001 -0.757918 -1.92518 0
M  V30 5210 C 489.416 0.684398 -1.75959 0
M  V30 5211 O 488.773 1.46617 -1.08673 0
M  V30 5212 C 488.824 -1.10985 -3.44042 0
M  V30 5213 O 488.545 -2.49554 -3.60076 0
M  V30 5214 C 490.046 -0.854844 -4.3498 0
M  V30 5215 H 487.266 -0.276699 -0.611293 0
M  V30 5216 H 489.81 -1.38352 -1.50595 0
M  V30 5217 H 487.965 -0.529279 -3.83767 0
M  V30 5218 H 488.379 -2.6291 -4.53849 0
M  V30 5219 H 489.853 -1.15098 -5.39867 0
M  V30 5220 H 490.33 0.210507 -4.38695 0
M  V30 5221 H 490.936 -1.41853 -4.00946 0
M  V30 5222 N 489.251 1.34841 -0.815825 0
M  V30 5223 C 490.667 1.51543 -0.500697 0
M  V30 5224 C 490.867 1.76261 0.976444 0
M  V30 5225 O 489.923 1.8094 1.76117 0
M  V30 5226 C 491.236 2.68487 -1.35407 0
M  V30 5227 C 492.784 2.82368 -1.35046 0
M  V30 5228 C 493.259 4.02347 -2.18816 0
M  V30 5229 N 494.75 4.09542 -2.16402 0
M  V30 5230 C 495.485 5.01517 -2.77971 0
M  V30 5231 N 494.981 5.98763 -3.48503 0
M  V30 5232 N 496.774 4.94334 -2.67563 0
M  V30 5233 H 488.925 1.17055 -1.77234 0
M  V30 5234 H 491.188 0.573481 -0.754866 0
M  V30 5235 H 490.894 2.56829 -2.40274 0
M  V30 5236 H 490.768 3.63321 -1.01377 0
M  V30 5237 H 493.155 2.93471 -0.309604 0
M  V30 5238 H 493.236 1.88363 -1.73069 0
M  V30 5239 H 492.88 3.92004 -3.22948 0
M  V30 5240 H 492.81 4.95551 -1.78148 0
M  V30 5241 H 495.301 3.39932 -1.65091 0
M  V30 5242 H 495.614 6.6556 -3.92747 0
M  V30 5243 H 493.959 5.98909 -3.52609 0
M  V30 5244 H 497.15 4.1732 -2.12041 0
M  V30 5245 H 497.323 5.6582 -3.15834 0
M  V30 5246 N 490.729 0.570148 1.46925 0
M  V30 5247 C 491.679 -0.190921 2.27199 0
M  V30 5248 C 492.663 -0.873457 1.35128 0
M  V30 5249 O 493.855 -0.769627 1.59392 0
M  V30 5250 C 490.984 -1.21204 3.21192 0
M  V30 5251 C 490.07 -0.532261 4.20747 0
M  V30 5252 N 490.461 0.405038 5.04176 0
M  V30 5253 C 488.759 -0.784582 4.39045 0
M  V30 5254 C 489.46 0.801149 5.76157 0
M  V30 5255 N 488.436 0.153082 5.43384 0
M  V30 5256 H 492.238 0.529535 2.8909 0
M  V30 5257 H 489.752 0.391019 1.57622 0
M  V30 5258 H 491.749 -1.77135 3.77398 0
M  V30 5259 H 490.409 -1.93345 2.6086 0
M  V30 5260 H 491.42 0.779903 5.11994 0
M  V30 5261 H 488.097 -1.49352 3.89872 0
M  V30 5262 H 489.487 1.57208 6.5325 0
M  V30 5263 N 492.207 -1.54576 0.307264 0
M  V30 5264 C 493.155 -2.25208 -0.581723 0
M  V30 5265 C 494.149 -1.26031 -1.13192 0
M  V30 5266 O 495.355 -1.43862 -1.08184 0
M  V30 5267 H 491.73 -0.723173 -0.206214 0
M  V30 5268 H 493.701 -2.98378 0.0364663 0
M  V30 5269 C 492.45 -3.01086 -1.73904 0
M  V30 5270 H 491.773 -3.77208 -1.32491 0
M  V30 5271 H 493.213 -3.5378 -2.33701 0
M  V30 5272 C 491.672 -2.08422 -2.64692 0
M  V30 5273 O 492.202 -1.65636 -3.65961 0
M  V30 5274 N 490.408 -1.74247 -2.32564 0
M  V30 5275 H 489.955 -2.09238 -1.50257 0
M  V30 5276 H 489.913 -1.12524 -2.93574 0
M  V30 5277 N 493.685 -0.035106 -1.57561 0
M  V30 5278 C 494.931 0.64318 -1.92331 0
M  V30 5279 C 495.264 1.71434 -0.912368 0
M  V30 5280 O 494.539 1.94395 0.0640303 0
M  V30 5281 C 494.822 1.25411 -3.37556 0
M  V30 5282 C 494.675 0.192109 -4.4939 0
M  V30 5283 C 495.994 2.17041 -3.82859 0
M  V30 5284 H 493.113 0.232341 -0.699419 0
M  V30 5285 H 495.755 -0.0935889 -1.89769 0
M  V30 5286 H 493.905 1.88205 -3.39869 0
M  V30 5287 H 495.577 -0.438849 -4.59208 0
M  V30 5288 H 493.82 -0.481725 -4.31117 0
M  V30 5289 H 494.491 0.659292 -5.48049 0
M  V30 5290 H 496.967 1.64228 -3.8232 0
M  V30 5291 H 495.843 2.56738 -4.85157 0
M  V30 5292 H 496.104 3.06401 -3.18702 0
M  V30 5293 N 495.163 1.55791 0.238111 0
M  V30 5294 C 496.409 1.79211 0.962035 0
M  V30 5295 C 496.764 0.605463 1.82625 0
M  V30 5296 O 496.057 -0.40104 1.87356 0
M  V30 5297 C 496.251 3.05869 1.84875 0
M  V30 5298 C 496.08 4.36739 1.07186 0
M  V30 5299 C 494.85 4.99346 0.773424 0
M  V30 5300 C 497.048 5.1237 0.445168 0
M  V30 5301 N 495.03 6.13894 -0.0266037 0
M  V30 5302 C 496.401 6.19613 -0.219023 0
M  V30 5303 C 498.456 4.96622 0.356522 0
M  V30 5304 C 497.159 7.1282 -0.963358 0
M  V30 5305 C 499.185 5.90214 -0.374304 0
M  V30 5306 C 498.547 6.96872 -1.0271 0
M  V30 5307 H 494.646 0.707627 0.332849 0
M  V30 5308 H 497.23 1.93284 0.234368 0
M  V30 5309 H 495.401 2.93108 2.54837 0
M  V30 5310 H 497.133 3.17547 2.5089 0
M  V30 5311 H 493.888 4.60948 1.08738 0
M  V30 5312 H 494.312 6.75727 -0.414968 0
M  V30 5313 H 498.954 4.14232 0.846878 0
M  V30 5314 H 496.672 7.94704 -1.46529 0
M  V30 5315 H 500.258 5.80106 -0.443678 0
M  V30 5316 H 499.138 7.68045 -1.58358 0
M  V30 5317 N 496.642 -0.504142 1.49319 0
M  V30 5318 C 497.872 -1.28071 1.62116 0
M  V30 5319 C 498.28 -1.86955 0.290566 0
M  V30 5320 O 497.623 -1.68415 -0.733616 0
M  V30 5321 C 497.685 -2.4521 2.62893 0
M  V30 5322 C 497.349 -2.07218 4.0732 0
M  V30 5323 C 498.346 -1.61375 4.94221 0
M  V30 5324 C 496.031 -2.16949 4.53033 0
M  V30 5325 C 498.025 -1.25763 6.2487 0
M  V30 5326 C 495.712 -1.80949 5.83696 0
M  V30 5327 C 496.71 -1.3543 6.69438 0
M  V30 5328 O 496.398 -0.99915 7.97667 0
M  V30 5329 H 496.13 -0.394763 0.54876 0
M  V30 5330 H 498.684 -0.612118 1.96067 0
M  V30 5331 H 496.914 -3.15134 2.24115 0
M  V30 5332 H 498.603 -3.0724 2.65252 0
M  V30 5333 H 499.369 -1.53306 4.60133 0
M  V30 5334 H 495.248 -2.5133 3.86463 0
M  V30 5335 H 498.792 -0.901631 6.91749 0
M  V30 5336 H 494.689 -1.88667 6.17313 0
M  V30 5337 H 495.457 -1.13089 8.1065 0
M  V30 5338 N 498.12 -1.38341 -0.754957 0
M  V30 5339 C 499.368 -1.34208 -1.51105 0
M  V30 5340 C 499.689 0.0677634 -1.94882 0
M  V30 5341 O 498.959 1.01517 -1.67544 0
M  V30 5342 H 497.539 -0.493819 -0.560493 0
M  V30 5343 H 500.201 -1.73005 -0.897507 0
M  V30 5344 H 499.297 -1.99203 -2.4026 0
M  V30 5345 N 499.598 0.982988 -1.23187 0
M  V30 5346 C 500.875 1.69814 -0.970707 0
M  V30 5347 C 501.255 2.04811 0.511424 0
M  V30 5348 O 500.603 1.73924 1.48198 0
M  V30 5349 C 500.813 2.94143 -1.87831 0
M  V30 5350 C 502.161 3.66712 -2.14026 0
M  V30 5351 O 503.185 3.04171 -1.8536 0
M  V30 5352 O 502.044 4.79258 -2.62629 0
M  V30 5353 H 499.138 0.741659 -0.365884 0
M  V30 5354 H 501.684 1.03844 -1.34218 0
M  V30 5355 H 500.456 2.64858 -2.88038 0
M  V30 5356 H 500.079 3.6785 -1.50905 0
M  V30 5357 N 501.076 1.04316 1.18135 0
M  V30 5358 C 502.353 0.662166 1.84051 0
M  V30 5359 C 502.733 -0.858169 1.9287 0
M  V30 5360 O 502.081 -1.76062 1.45652 0
M  V30 5361 C 502.291 1.3409 3.22212 0
M  V30 5362 C 503.639 1.4733 3.9822 0
M  V30 5363 O 504.663 1.29921 3.31661 0
M  V30 5364 O 503.522 1.75722 5.17479 0
M  V30 5365 H 500.616 0.232005 0.79379 0
M  V30 5366 H 503.162 1.1422 1.25506 0
M  V30 5367 H 501.934 2.37853 3.10711 0
M  V30 5368 H 501.557 0.849649 3.88416 0
M  V30 5369 N 502.554 -1.34406 0.822964 0
M  V30 5370 C 503.782 -2.02508 0.424039 0
M  V30 5371 C 504.197 -1.61975 -0.970022 0
M  V30 5372 O 503.554 -0.825228 -1.62777 0
M  V30 5373 C 503.605 -3.57789 0.516657 0
M  V30 5374 O 503.326 -3.96853 1.85577 0
M  V30 5375 C 504.827 -4.43157 0.112637 0
M  V30 5376 H 502.047 -0.649063 0.170173 0
M  V30 5377 H 504.591 -1.7168 1.11113 0
M  V30 5378 H 502.746 -3.87207 -0.122353 0
M  V30 5379 H 503.16 -4.91538 1.83005 0
M  V30 5380 H 504.634 -5.51527 0.228526 0
M  V30 5381 H 505.111 -4.28939 -0.943837 0
M  V30 5382 H 505.717 -4.19067 0.725449 0
M  V30 5383 N 504.032 -0.577932 -1.46621 0
M  V30 5384 C 505.262 -0.0670668 -2.06491 0
M  V30 5385 C 505.67 1.24119 -1.42798 0
M  V30 5386 O 505.013 1.76016 -0.525759 0
M  V30 5387 C 505.075 0.177995 -3.59059 0
M  V30 5388 C 504.739 -1.04394 -4.44917 0
M  V30 5389 C 505.736 -1.95479 -4.81751 0
M  V30 5390 C 503.421 -1.26444 -4.86125 0
M  V30 5391 C 505.415 -3.06965 -5.58615 0
M  V30 5392 C 503.102 -2.38237 -5.62749 0
M  V30 5393 C 504.1 -3.28327 -5.98908 0
M  V30 5394 O 503.788 -4.38179 -6.73984 0
M  V30 5395 H 503.52 -0.0523159 -0.673973 0
M  V30 5396 H 506.074 -0.796966 -1.89308 0
M  V30 5397 H 504.304 0.962451 -3.74531 0
M  V30 5398 H 505.993 0.636782 -4.00874 0
M  V30 5399 H 506.759 -1.79657 -4.50498 0
M  V30 5400 H 502.638 -0.572316 -4.57434 0
M  V30 5401 H 506.182 -3.77309 -5.86757 0
M  V30 5402 H 502.079 -2.54023 -5.93416 0
M  V30 5403 H 502.847 -4.36486 -6.92403 0
M  V30 5404 N 505.51 1.54411 -0.315457 0
M  V30 5405 C 506.926 1.59556 0.037464 0
M  V30 5406 C 507.126 1.33217 1.5118 0
M  V30 5407 O 506.182 1.11264 2.26664 0
M  V30 5408 C 507.495 2.98372 -0.373477 0
M  V30 5409 C 509.043 3.11324 -0.323452 0
M  V30 5410 C 509.518 4.52472 -0.709433 0
M  V30 5411 N 511.009 4.58437 -0.662524 0
M  V30 5412 C 511.744 5.65751 -0.933474 0
M  V30 5413 N 511.24 6.81039 -1.27114 0
M  V30 5414 N 513.033 5.55489 -0.859573 0
M  V30 5415 H 505.184 1.6979 -1.27614 0
M  V30 5416 H 507.447 0.793732 -0.518356 0
M  V30 5417 H 507.153 3.22618 -1.40037 0
M  V30 5418 H 507.027 3.76264 0.265615 0
M  V30 5419 H 509.414 2.86818 0.694223 0
M  V30 5420 H 509.495 2.35555 -0.997367 0
M  V30 5421 H 509.139 4.7771 -1.72498 0
M  V30 5422 H 509.069 5.26598 -0.0132923 0
M  V30 5423 H 511.56 3.75636 -0.413065 0
M  V30 5424 H 511.873 7.58816 -1.46348 0
M  V30 5425 H 510.218 6.82555 -1.30932 0
M  V30 5426 H 513.409 4.64299 -0.595324 0
M  V30 5427 H 513.582 6.39036 -1.0741 0
M  V30 5428 N 506.988 0.0434614 1.5754 0
M  V30 5429 C 508.234 -0.632971 1.92669 0
M  V30 5430 C 508.567 -1.70947 0.921446 0
M  V30 5431 O 507.842 -1.94426 -0.0537202 0
M  V30 5432 C 508.125 -1.23619 3.38216 0
M  V30 5433 C 507.978 -0.168274 4.49485 0
M  V30 5434 C 509.297 -2.15008 3.84005 0
M  V30 5435 H 506.416 -0.228629 0.700641 0
M  V30 5436 H 509.058 0.103651 1.89717 0
M  V30 5437 H 507.208 -1.864 3.40863 0
M  V30 5438 H 508.88 0.463196 4.58969 0
M  V30 5439 H 507.123 0.504581 4.30855 0
M  V30 5440 H 507.794 -0.630218 5.48391 0
M  V30 5441 H 510.27 -1.62198 3.83185 0
M  V30 5442 H 509.146 -2.54161 4.86511 0
M  V30 5443 H 509.407 -3.04707 3.20322 0
M  V30 5444 N 508.466 -1.55915 -0.229846 0
M  V30 5445 C 509.399 -1.86734 -1.3117 0
M  V30 5446 C 510.377 -0.723947 -1.45595 0
M  V30 5447 O 511.561 -0.971462 -1.61539 0
M  V30 5448 C 508.688 -2.06707 -2.68309 0
M  V30 5449 C 507.734 -3.2938 -2.70944 0
M  V30 5450 S 508.567 -4.85547 -2.25842 0
M  V30 5451 C 509.723 -5.08546 -3.64873 0
M  V30 5452 H 509.956 -2.78204 -1.04832 0
M  V30 5453 H 507.489 -1.48243 -0.431681 0
M  V30 5454 H 509.447 -2.18898 -3.47267 0
M  V30 5455 H 508.108 -1.16049 -2.91876 0
M  V30 5456 H 507.301 -3.40374 -3.71701 0
M  V30 5457 H 506.903 -3.16004 -2.00044 0
M  V30 5458 H 509.195 -4.96935 -4.60502 0
M  V30 5459 H 510.138 -6.10465 -3.58801 0
M  V30 5460 H 510.546 -4.36314 -3.58176 0
M  V30 5461 N 509.944 0.496216 -1.49584 0
M  V30 5462 C 510.907 1.57952 -1.66084 0
M  V30 5463 C 511.907 1.51729 -0.53244 0
M  V30 5464 O 513.097 1.54796 -0.79899 0
M  V30 5465 C 510.229 2.97604 -1.66268 0
M  V30 5466 H 511.422 1.44649 -2.6271 0
M  V30 5467 H 508.975 0.7208 -1.38687 0
M  V30 5468 H 509.71 3.16378 -0.712432 0
M  V30 5469 H 509.495 3.03528 -2.4822 0
M  V30 5470 H 510.985 3.76301 -1.81073 0
M  V30 5471 N 511.423 1.38739 0.74761 0
M  V30 5472 C 512.353 1.39173 1.87492 0
M  V30 5473 C 513.334 0.256794 1.6815 0
M  V30 5474 O 514.519 0.460762 1.88655 0
M  V30 5475 C 511.649 1.22197 3.25093 0
M  V30 5476 C 510.603 2.32957 3.59047 0
M  V30 5477 C 509.929 2.01082 4.95449 0
M  V30 5478 C 511.229 3.75237 3.6331 0
M  V30 5479 H 512.923 2.3351 1.87386 0
M  V30 5480 H 510.469 1.12399 0.900134 0
M  V30 5481 H 512.422 1.21124 4.03617 0
M  V30 5482 H 511.146 0.243241 3.25693 0
M  V30 5483 H 509.805 2.33226 2.82845 0
M  V30 5484 H 509.453 1.01678 4.92616 0
M  V30 5485 H 509.153 2.75267 5.19136 0
M  V30 5486 H 510.677 2.01638 5.76346 0
M  V30 5487 H 512.091 3.76966 4.31937 0
M  V30 5488 H 510.488 4.48677 3.98509 0
M  V30 5489 H 511.558 4.07122 2.634 0
M  V30 5490 N 512.901 -0.976442 1.23707 0
M  V30 5491 C 513.831 -2.08749 1.04624 0
M  V30 5492 C 514.812 -1.70057 -0.0380956 0
M  V30 5493 O 515.997 -1.93782 0.127308 0
M  V30 5494 C 513.127 -3.41335 0.640902 0
M  V30 5495 C 512.081 -3.93947 1.67302 0
M  V30 5496 C 511.407 -5.22774 1.12301 0
M  V30 5497 C 512.707 -4.22769 3.06697 0
M  V30 5498 H 514.401 -2.24972 1.97555 0
M  V30 5499 H 511.947 -1.08108 0.951247 0
M  V30 5500 H 513.9 -4.18489 0.494434 0
M  V30 5501 H 512.624 -3.24988 -0.324099 0
M  V30 5502 H 511.283 -3.18941 1.80755 0
M  V30 5503 H 510.931 -5.0278 0.148877 0
M  V30 5504 H 510.631 -5.58942 1.81267 0
M  V30 5505 H 512.155 -6.02546 0.988479 0
M  V30 5506 H 513.569 -4.90659 2.96524 0
M  V30 5507 H 511.966 -4.70147 3.72937 0
M  V30 5508 H 513.036 -3.29885 3.55392 0
M  V30 5509 N 514.379 -1.04941 -1.1758 0
M  V30 5510 C 515.609 -0.777166 -1.91425 0
M  V30 5511 C 516.017 0.670647 -1.76915 0
M  V30 5512 O 515.36 1.46965 -1.10213 0
M  V30 5513 C 515.422 -1.07495 -3.43052 0
M  V30 5514 C 515.086 -2.51844 -3.81345 0
M  V30 5515 C 516.083 -3.50047 -3.844 0
M  V30 5516 C 513.768 -2.86787 -4.12382 0
M  V30 5517 C 515.762 -4.81239 -4.17957 0
M  V30 5518 C 513.449 -4.18182 -4.45608 0
M  V30 5519 C 514.447 -5.15219 -4.48373 0
M  V30 5520 O 514.135 -6.44258 -4.80819 0
M  V30 5521 H 513.867 -0.282209 -0.614275 0
M  V30 5522 H 516.421 -1.40258 -1.50056 0
M  V30 5523 H 514.651 -0.392437 -3.84704 0
M  V30 5524 H 516.34 -0.78912 -3.98155 0
M  V30 5525 H 517.106 -3.24391 -3.60548 0
M  V30 5526 H 512.985 -2.11922 -4.09402 0
M  V30 5527 H 516.529 -5.56974 -4.2003 0
M  V30 5528 H 512.426 -4.43602 -4.68922 0
M  V30 5529 H 513.194 -6.49041 -4.98686 0
M  V30 5530 N 515.857 1.33968 -0.830081 0
M  V30 5531 C 517.103 1.98357 -0.422191 0
M  V30 5532 C 517.436 1.65633 1.01387 0
M  V30 5533 O 516.711 0.931648 1.70735 0
M  V30 5534 C 516.994 3.54492 -0.633043 0
M  V30 5535 C 516.847 3.96934 -2.11574 0
M  V30 5536 C 518.166 4.40039 -0.0735584 0
M  V30 5537 H 515.285 0.720544 -0.154871 0
M  V30 5538 H 517.927 1.58749 -1.04397 0
M  V30 5539 H 516.077 3.88361 -0.103775 0
M  V30 5540 H 517.749 3.73363 -2.7092 0
M  V30 5541 H 515.992 3.46984 -2.60354 0
M  V30 5542 H 516.663 5.05651 -2.21406 0
M  V30 5543 H 519.139 4.12764 -0.52585 0
M  V30 5544 H 518.015 5.48327 -0.250841 0
M  V30 5545 H 518.276 4.30124 1.02202 0
M  V30 5546 N 517.335 0.585699 1.46312 0
M  V30 5547 C 518.283 -0.158577 2.32059 0
M  V30 5548 C 519.277 -0.881427 1.44662 0
M  V30 5549 O 520.483 -0.799476 1.61271 0
M  V30 5550 H 516.858 -0.0700066 0.748734 0
M  V30 5551 H 518.829 0.583383 2.92642 0
M  V30 5552 C 517.578 -1.15701 3.27885 0
M  V30 5553 H 516.901 -0.610215 3.95116 0
M  V30 5554 H 518.341 -1.64812 3.90657 0
M  V30 5555 C 516.8 -2.21951 2.53455 0
M  V30 5556 O 517.33 -3.29352 2.29978 0
M  V30 5557 N 515.536 -1.9664 2.13965 0
M  V30 5558 H 515.083 -1.09309 2.33258 0
M  V30 5559 H 515.041 -2.6794 1.64485 0
M  V30 5560 N 518.813 -1.54241 0.323641 0
M  V30 5561 C 520.059 -2.00867 -0.279323 0
M  V30 5562 C 520.392 -1.21146 -1.5178 0
M  V30 5563 O 519.667 -0.29378 -1.92269 0
M  V30 5564 C 519.95 -3.54837 -0.613387 0
M  V30 5565 C 519.803 -4.45284 0.635803 0
M  V30 5566 C 521.122 -4.16186 -1.43099 0
M  V30 5567 H 518.241 -0.730177 -0.100049 0
M  V30 5568 H 520.883 -1.84829 0.440235 0
M  V30 5569 H 519.033 -3.68634 -1.22641 0
M  V30 5570 H 520.705 -4.43357 1.27406 0
M  V30 5571 H 518.948 -4.14956 1.26466 0
M  V30 5572 H 519.619 -5.5084 0.357597 0
M  V30 5573 H 522.095 -4.05964 -0.912814 0
M  V30 5574 H 520.971 -5.24031 -1.6335 0
M  V30 5575 H 521.232 -3.69516 -2.42715 0
M  V30 5576 N 520.291 -0.0518155 -1.57515 0
M  V30 5577 C 521.221 0.920283 -2.146 0
M  V30 5578 C 522.202 1.32406 -1.06783 0
M  V30 5579 O 523.387 1.39866 -1.34726 0
M  V30 5580 C 520.517 2.1949 -2.6915 0
M  V30 5581 C 519.471 1.93116 -3.81956 0
M  V30 5582 C 518.797 3.27037 -4.23026 0
M  V30 5583 C 520.097 1.25225 -5.07066 0
M  V30 5584 H 521.791 0.444801 -2.96077 0
M  V30 5585 H 519.337 0.212508 -1.42423 0
M  V30 5586 H 521.29 2.87894 -3.07725 0
M  V30 5587 H 520.014 2.69244 -1.84865 0
M  V30 5588 H 518.673 1.27123 -3.43854 0
M  V30 5589 H 518.321 3.74595 -3.3569 0
M  V30 5590 H 518.021 3.10189 -4.99056 0
M  V30 5591 H 519.545 3.96673 -4.64202 0
M  V30 5592 H 520.959 1.83666 -5.43083 0
M  V30 5593 H 519.356 1.18702 -5.88243 0
M  V30 5594 H 520.426 0.228382 -4.84362 0
M  V30 5595 N 521.769 1.56035 0.221574 0
M  V30 5596 C 522.699 1.95434 1.2778 0
M  V30 5597 C 523.68 0.822564 1.48889 0
M  V30 5598 O 524.865 1.08486 1.61072 0
M  V30 5599 C 521.995 2.27102 2.62759 0
M  V30 5600 C 520.949 3.4277 2.56306 0
M  V30 5601 C 520.275 3.60043 3.95314 0
M  V30 5602 C 521.575 4.77742 2.11093 0
M  V30 5603 H 523.269 2.83912 0.950504 0
M  V30 5604 H 520.815 1.36596 0.455791 0
M  V30 5605 H 522.768 2.53256 3.36807 0
M  V30 5606 H 521.492 1.35478 2.97176 0
M  V30 5607 H 520.151 3.16664 1.84715 0
M  V30 5608 H 519.799 2.65794 4.27039 0
M  V30 5609 H 519.499 4.37841 3.91879 0
M  V30 5610 H 521.023 3.88545 4.71025 0
M  V30 5611 H 522.437 5.03102 2.74885 0
M  V30 5612 H 520.834 5.58823 2.18716 0
M  V30 5613 H 521.904 4.731 1.06321 0
M  V30 5614 N 523.247 -0.488276 1.49845 0
M  V30 5615 C 524.495 -1.23911 1.59657 0
M  V30 5616 C 524.816 -1.92816 0.291005 0
M  V30 5617 O 524.086 -1.83328 -0.690485 0
M  V30 5618 H 522.666 -0.460357 0.588286 0
M  V30 5619 H 525.328 -0.564794 1.86537 0
M  V30 5620 H 524.424 -1.99625 2.39909 0
M  V30 5621 N 524.725 -1.39134 -0.740242 0
M  V30 5622 C 525.673 -1.3757 -1.87556 0
M  V30 5623 C 526.667 -0.259593 -1.67399 0
M  V30 5624 O 527.873 -0.429349 -1.74804 0
M  V30 5625 H 524.248 -0.42947 -0.6173 0
M  V30 5626 H 526.219 -2.33345 -1.85991 0
M  V30 5627 C 524.968 -1.23087 -3.25184 0
M  V30 5628 H 524.291 -2.08237 -3.41288 0
M  V30 5629 H 525.731 -1.26049 -4.0483 0
M  V30 5630 C 524.19 0.0611471 -3.36845 0
M  V30 5631 O 524.72 1.03328 -3.88183 0
M  V30 5632 N 522.926 0.122454 -2.90342 0
M  V30 5633 H 522.473 -0.669329 -2.48752 0
M  V30 5634 H 522.431 0.986463 -2.98523 0
M  V30 5635 N 526.204 0.969867 -1.24223 0
M  V30 5636 C 527.434 1.74502 -1.106 0
M  V30 5637 C 527.842 1.86038 0.344483 0
M  V30 5638 O 527.185 1.3465 1.24961 0
M  V30 5639 C 527.247 3.18391 -1.66935 0
M  V30 5640 C 526.911 3.30334 -3.15798 0
M  V30 5641 C 527.908 3.15832 -4.12973 0
M  V30 5642 C 525.593 3.54644 -3.55715 0
M  V30 5643 C 527.587 3.25461 -5.48045 0
M  V30 5644 C 525.274 3.63912 -4.90929 0
M  V30 5645 C 526.272 3.49332 -5.86904 0
M  V30 5646 O 525.96 3.58251 -7.1966 0
M  V30 5647 H 525.692 0.554119 -0.387206 0
M  V30 5648 H 528.246 1.22646 -1.64764 0
M  V30 5649 H 526.476 3.71543 -1.07203 0
M  V30 5650 H 528.165 3.77707 -1.48634 0
M  V30 5651 H 528.931 2.96937 -3.83476 0
M  V30 5652 H 524.81 3.65059 -2.81519 0
M  V30 5653 H 528.354 3.13998 -6.22937 0
M  V30 5654 H 524.251 3.82319 -5.20098 0
M  V30 5655 H 525.019 3.7498 -7.27552 0
M  V30 5656 N 527.682 1.05563 1.17022 0
M  V30 5657 C 528.93 0.76642 1.87004 0
M  V30 5658 C 529.251 -0.708854 1.8166 0
M  V30 5659 O 528.521 -1.51242 1.2451 0
M  V30 5660 H 527.101 0.280516 0.692329 0
M  V30 5661 H 529.763 1.33557 1.41945 0
M  V30 5662 H 528.859 1.08472 2.92644 0
M  V30 5663 N 529.16 -1.33526 0.837174 0
M  V30 5664 C 530.576 -1.50727 0.524743 0
M  V30 5665 C 530.776 -1.77792 -0.948279 0
M  V30 5666 O 529.832 -1.83719 -1.73216 0
M  V30 5667 C 531.145 -2.66299 1.39661 0
M  V30 5668 C 532.693 -2.80183 1.39521 0
M  V30 5669 C 533.168 -3.98815 2.25189 0
M  V30 5670 N 534.659 -4.06047 2.2289 0
M  V30 5671 C 535.394 -4.97032 2.85915 0
M  V30 5672 N 534.89 -5.93143 3.57985 0
M  V30 5673 N 536.683 -4.90015 2.75394 0
M  V30 5674 H 528.834 -1.1422 1.79074 0
M  V30 5675 H 531.097 -0.561399 0.763894 0
M  V30 5676 H 530.803 -2.52974 2.4433 0
M  V30 5677 H 530.677 -3.61663 1.07145 0
M  V30 5678 H 533.064 -2.92942 0.356253 0
M  V30 5679 H 533.145 -1.85586 1.76044 0
M  V30 5680 H 532.789 -3.86817 3.29143 0
M  V30 5681 H 532.719 -4.92654 1.86009 0
M  V30 5682 H 535.21 -3.37262 1.70478 0
M  V30 5683 H 535.523 -6.59227 4.03286 0
M  V30 5684 H 533.868 -5.93223 3.62093 0
M  V30 5685 H 537.059 -4.13894 2.18654 0
M  V30 5686 H 537.232 -5.60724 3.24796 0
M  V30 5687 N 530.638 -0.59345 -1.46 0
M  V30 5688 C 532.049 -0.169801 -1.85926 0
M  V30 5689 C 532.4 1.26984 -1.49565 0
M  V30 5690 O 531.525 1.96076 -0.915602 0
M  V30 5691 C 532.12 -0.301385 -3.37457 0
M  V30 5692 C 530.679 0.0674684 -3.7634 0
M  V30 5693 C 529.826 -0.632383 -2.69993 0
M  V30 5694 H 532.777 -0.801014 -1.37002 0
M  V30 5695 H 532.798 0.470331 -3.77582 0
M  V30 5696 H 532.31 -1.34927 -3.63891 0
M  V30 5697 H 530.411 1.11507 -3.55523 0
M  V30 5698 H 530.524 -0.316332 -4.78055 0
M  V30 5699 H 528.888 -0.0714961 -2.546 0
M  V30 5700 H 529.671 -1.68212 -2.99265 0
M  V30 5701 N 532.116 1.54067 -0.331816 0
M  V30 5702 C 533.364 2.00319 0.267739 0
M  V30 5703 C 533.685 1.22148 1.52003 0
M  V30 5704 O 532.955 0.325494 1.93177 0
M  V30 5705 H 531.535 0.740014 0.101922 0
M  V30 5706 H 534.197 1.89628 -0.450267 0
M  V30 5707 H 533.293 3.07765 0.518385 0
M  V30 5708 N 533.594 0.0601682 1.57485 0
M  V30 5709 C 534.842 -0.610386 1.92662 0
M  V30 5710 C 535.163 -1.70849 0.939981 0
M  V30 5711 O 534.433 -1.95895 -0.0137455 0
M  V30 5712 H 533.013 -0.228457 0.711208 0
M  V30 5713 H 535.675 0.115288 1.94559 0
M  V30 5714 H 534.771 -1.0432 2.94149 0
M  V30 5715 N 535.072 -1.5615 -0.213296 0
M  V30 5716 C 536.319 -1.79546 -0.936462 0
M  V30 5717 C 536.647 -0.630337 -1.84003 0
M  V30 5718 O 535.902 0.384883 -1.91878 0
M  V30 5719 C 536.201 -3.08772 -1.79985 0
M  V30 5720 C 535.867 -4.38532 -1.04882 0
M  V30 5721 C 534.529 -4.73787 -0.841393 0
M  V30 5722 C 536.881 -5.18609 -0.51907 0
M  V30 5723 C 534.209 -5.86627 -0.0924403 0
M  V30 5724 C 536.561 -6.32229 0.216581 0
M  V30 5725 C 535.225 -6.6608 0.435191 0
M  V30 5726 H 534.495 -0.657004 -0.342676 0
M  V30 5727 H 537.142 -1.9041 -0.204051 0
M  V30 5728 H 535.447 -2.93065 -2.60038 0
M  V30 5729 H 537.144 -3.24077 -2.36168 0
M  V30 5730 H 533.734 -4.10855 -1.22048 0
M  V30 5731 H 537.918 -4.91801 -0.666775 0
M  V30 5732 H 533.174 -6.11338 0.087081 0
M  V30 5733 H 537.348 -6.93503 0.634538 0
M  V30 5734 H 534.975 -7.5336 1.01746 0
M  V30 5735 N 536.55 0.480323 -1.50102 0
M  V30 5736 C 537.78 1.25475 -1.64133 0
M  V30 5737 C 538.188 1.8647 -0.320272 0
M  V30 5738 O 537.531 1.69561 0.70673 0
M  V30 5739 C 537.593 2.40996 -2.6676 0
M  V30 5740 C 537.257 2.00711 -4.10565 0
M  V30 5741 C 538.254 1.53492 -4.96725 0
M  V30 5742 C 535.939 2.09714 -4.56427 0
M  V30 5743 C 537.933 1.15806 -6.26792 0
M  V30 5744 C 535.62 1.7164 -5.86501 0
M  V30 5745 C 536.618 1.24763 -6.71508 0
M  V30 5746 O 536.306 0.872122 -7.99155 0
M  V30 5747 H 536.038 0.385983 -0.554971 0
M  V30 5748 H 538.592 0.580848 -1.97016 0
M  V30 5749 H 536.822 3.11528 -2.291 0
M  V30 5750 H 538.511 3.02981 -2.70106 0
M  V30 5751 H 539.277 1.45966 -4.62514 0
M  V30 5752 H 535.156 2.4515 -3.90413 0
M  V30 5753 H 538.7 0.791465 -6.93096 0
M  V30 5754 H 534.597 1.78822 -6.20236 0
M  V30 5755 H 535.365 1.00178 -8.12346 0
M  V30 5756 N 538.028 1.39524 0.732853 0
M  V30 5757 C 539.277 1.36175 1.48792 0
M  V30 5758 C 539.59 -0.0388195 1.95561 0
M  V30 5759 O 540.796 -0.194899 2.708 0
M  V30 5760 C 539.252 2.39242 2.68871 0
M  V30 5761 C 538.86 3.85024 2.29042 0
M  V30 5762 C 540.604 2.44972 3.46683 0
M  V30 5763 C 538.511 4.79727 3.45856 0
M  V30 5764 H 537.441 0.506267 0.558757 0
M  V30 5765 H 540.092 1.65181 0.799226 0
M  V30 5766 H 538.474 2.0331 3.39825 0
M  V30 5767 H 539.648 4.30008 1.6562 0
M  V30 5768 H 537.963 3.82609 1.64316 0
M  V30 5769 H 540.56 3.12918 4.33574 0
M  V30 5770 H 540.903 1.4749 3.89297 0
M  V30 5771 H 541.436 2.79808 2.82759 0
M  V30 5772 H 538.175 5.78479 3.08289 0
M  V30 5773 H 537.695 4.39421 4.08251 0
M  V30 5774 H 539.374 4.98731 4.12161 0
M  V30 5775 N 539.506 -0.963266 1.24736 0
M  V30 5776 C 540.469 -2.04013 1.04457 0
M  V30 5777 C 541.469 -1.608 0.000335555 0
M  V30 5778 O 542.659 -1.72515 0.241719 0
M  V30 5779 C 539.791 -3.35858 0.584162 0
M  V30 5780 H 540.984 -2.23436 2.00041 0
M  V30 5781 H 538.537 -1.13914 1.07021 0
M  V30 5782 H 539.272 -3.22128 -0.374673 0
M  V30 5783 H 539.057 -3.68568 1.3379 0
M  V30 5784 H 540.547 -4.1502 0.463451 0
M  V30 5785 N 540.985 -1.06182 -1.16461 0
M  V30 5786 C 541.917 -0.629584 -2.20383 0
M  V30 5787 C 542.93 0.311834 -1.59786 0
M  V30 5788 O 544.119 0.103 -1.78203 0
M  V30 5789 C 541.219 0.0973695 -3.3876 0
M  V30 5790 C 540.392 -0.857252 -4.28917 0
M  V30 5791 C 539.451 -0.169749 -5.25926 0
M  V30 5792 O 538.477 -0.807044 -5.6345 0
M  V30 5793 N 539.679 1.08911 -5.70192 0
M  V30 5794 H 542.444 -1.52352 -2.58087 0
M  V30 5795 H 540.005 -0.944993 -1.31459 0
M  V30 5796 H 541.997 0.567676 -4.00699 0
M  V30 5797 H 540.567 0.893093 -2.99571 0
M  V30 5798 H 539.787 -1.50696 -3.64259 0
M  V30 5799 H 541.075 -1.50489 -4.86035 0
M  V30 5800 H 540.473 1.62703 -5.41797 0
M  V30 5801 H 539.03 1.50331 -6.34227 0
M  V30 5802 N 542.463 1.3308 -0.844243 0
M  V30 5803 C 543.688 2.02341 -0.455282 0
M  V30 5804 C 544.113 1.6308 0.93737 0
M  V30 5805 O 543.471 0.826118 1.61385 0
M  V30 5806 C 543.519 3.55743 -0.58988 0
M  V30 5807 O 542.623 4.1063 0.38166 0
M  V30 5808 H 541.964 0.637898 -0.184343 0
M  V30 5809 H 544.494 1.6986 -1.14056 0
M  V30 5810 H 544.504 4.05243 -0.473522 0
M  V30 5811 H 543.179 3.83662 -1.60549 0
M  V30 5812 H 541.756 3.72236 0.22241 0
M  V30 5813 N 543.941 0.601185 1.45683 0
M  V30 5814 C 545.352 0.179659 1.85834 0
M  V30 5815 C 545.703 -1.26189 1.50236 0
M  V30 5816 O 544.828 -1.95587 0.925987 0
M  V30 5817 C 545.423 0.319277 3.37292 0
M  V30 5818 C 543.982 -0.0475092 3.7637 0
M  V30 5819 C 543.129 0.646692 2.69654 0
M  V30 5820 H 546.08 0.808268 1.36575 0
M  V30 5821 H 546.101 -0.4503 3.77826 0
M  V30 5822 H 545.613 1.36855 3.6317 0
M  V30 5823 H 543.714 -1.0962 3.5611 0
M  V30 5824 H 543.827 0.34168 4.7788 0
M  V30 5825 H 542.191 0.0849971 2.54558 0
M  V30 5826 H 542.974 1.69797 2.98369 0
M  V30 5827 N 545.419 -1.53889 0.339982 0
M  V30 5828 C 546.649 -2.04973 -0.258738 0
M  V30 5829 C 547.057 -1.21485 -1.45045 0
M  V30 5830 O 546.4 -0.2422 -1.82096 0
M  V30 5831 C 546.462 -3.51783 -0.740853 0
M  V30 5832 C 546.126 -4.55802 0.330734 0
M  V30 5833 C 547.123 -5.06512 1.17226 0
M  V30 5834 C 544.808 -4.99966 0.483637 0
M  V30 5835 C 546.802 -5.99963 2.15227 0
M  V30 5836 C 544.489 -5.93229 1.46704 0
M  V30 5837 C 545.487 -6.43115 2.29981 0
M  V30 5838 O 545.175 -7.34545 3.26649 0
M  V30 5839 H 544.907 -0.673807 -0.0544037 0
M  V30 5840 H 547.461 -1.99492 0.489107 0
M  V30 5841 H 545.691 -3.54717 -1.53988 0
M  V30 5842 H 547.38 -3.85857 -1.25973 0
M  V30 5843 H 548.146 -4.73158 1.0652 0
M  V30 5844 H 544.025 -4.6074 -0.15471 0
M  V30 5845 H 547.569 -6.38825 2.80265 0
M  V30 5846 H 543.466 -6.25998 1.57468 0
M  V30 5847 H 544.234 -7.52468 3.22078 0
M  V30 5848 N 546.897 -0.0685191 -1.57451 0
M  V30 5849 C 547.827 0.89747 -2.15564 0
M  V30 5850 C 548.808 1.31266 -1.08181 0
M  V30 5851 O 549.993 1.38429 -1.36202 0
M  V30 5852 C 547.123 2.16623 -2.71463 0
M  V30 5853 C 546.077 1.89054 -3.83982 0
M  V30 5854 C 545.403 3.22532 -4.26471 0
M  V30 5855 C 546.703 1.1984 -5.08366 0
M  V30 5856 H 548.397 0.413373 -2.96533 0
M  V30 5857 H 545.943 0.197391 -1.42641 0
M  V30 5858 H 547.896 2.84614 -3.10761 0
M  V30 5859 H 546.62 2.67269 -1.8771 0
M  V30 5860 H 545.279 1.23469 -3.45183 0
M  V30 5861 H 544.927 3.71013 -3.39644 0
M  V30 5862 H 544.627 3.04879 -5.02317 0
M  V30 5863 H 546.151 3.91727 -4.68383 0
M  V30 5864 H 547.565 1.77896 -5.45001 0
M  V30 5865 H 545.962 1.12456 -5.89469 0
M  V30 5866 H 547.032 0.176996 -4.84577 0
M  V30 5867 N 548.375 1.56261 0.205012 0
M  V30 5868 C 549.285 1.96944 1.27476 0
M  V30 5869 C 550.301 0.875636 1.50362 0
M  V30 5870 O 551.477 1.18058 1.6317 0
M  V30 5871 C 548.542 2.29219 2.60115 0
M  V30 5872 C 547.603 3.52255 2.45387 0
M  V30 5873 C 546.836 3.8298 3.71701 0
M  V30 5874 O 547.059 3.15138 4.75441 0
M  V30 5875 O 545.993 4.76435 3.67823 0
M  V30 5876 H 549.819 2.88144 0.959527 0
M  V30 5877 H 547.404 1.43686 0.409217 0
M  V30 5878 H 549.286 2.51098 3.3842 0
M  V30 5879 H 547.961 1.4119 2.91285 0
M  V30 5880 H 546.868 3.35635 1.65227 0
M  V30 5881 H 548.201 4.40719 2.19152 0
M  V30 5882 N 549.853 -0.472356 1.50355 0
M  V30 5883 C 550.8 -1.57051 1.69126 0
M  V30 5884 C 551.77 -1.5733 0.532574 0
M  V30 5885 O 552.955 -1.7488 0.762994 0
M  V30 5886 C 550.095 -2.95033 1.79024 0
M  V30 5887 C 549.208 -3.04552 3.06386 0
M  V30 5888 C 548.343 -4.33441 3.07087 0
M  V30 5889 C 547.382 -4.36697 4.28908 0
M  V30 5890 N 546.519 -5.57056 4.27356 0
M  V30 5891 H 551.359 -1.40351 2.62879 0
M  V30 5892 H 548.896 -0.682403 1.30314 0
M  V30 5893 H 550.854 -3.75048 1.82744 0
M  V30 5894 H 549.484 -3.10371 0.887109 0
M  V30 5895 H 548.536 -2.17419 3.12143 0
M  V30 5896 H 549.848 -3.02818 3.96362 0
M  V30 5897 H 549.002 -5.21801 3.09529 0
M  V30 5898 H 547.741 -4.37782 2.14939 0
M  V30 5899 H 546.746 -3.46734 4.2668 0
M  V30 5900 H 547.971 -4.34049 5.22282 0
M  V30 5901 H 545.917 -5.62184 3.3806 0
M  V30 5902 H 545.834 -5.57058 5.111 0
M  V30 5903 H 547.102 -6.47545 4.33942 0
M  V30 5904 N 551.331 -1.39911 -0.725443 0
M  V30 5905 C 552.561 -1.40744 -1.51244 0
M  V30 5906 C 552.969 -0.00275403 -1.892 0
M  V30 5907 O 552.312 0.981299 -1.55294 0
M  V30 5908 C 552.374 -2.22527 -2.82351 0
M  V30 5909 C 552.038 -3.71053 -2.66774 0
M  V30 5910 C 553.035 -4.63916 -2.34686 0
M  V30 5911 C 550.72 -4.14753 -2.83347 0
M  V30 5912 C 552.714 -5.98463 -2.19366 0
M  V30 5913 C 550.401 -5.49372 -2.67644 0
M  V30 5914 C 551.399 -6.41042 -2.357 0
M  V30 5915 O 551.087 -7.73181 -2.20107 0
M  V30 5916 H 550.819 -0.482314 -0.473655 0
M  V30 5917 H 553.373 -1.84472 -0.903284 0
M  V30 5918 H 551.603 -1.73563 -3.45562 0
M  V30 5919 H 553.292 -2.15421 -3.44018 0
M  V30 5920 H 554.058 -4.31453 -2.21525 0
M  V30 5921 H 549.937 -3.43728 -3.072 0
M  V30 5922 H 553.481 -6.69979 -1.94354 0
M  V30 5923 H 549.378 -5.81424 -2.80387 0
M  V30 5924 H 550.146 -7.84008 -2.35103 0
M  V30 5925 N 552.809 0.956637 -1.25245 0
M  V30 5926 C 554.22 1.51569 -1.09012 0
M  V30 5927 C 554.571 1.93322 0.334813 0
M  V30 5928 O 553.696 1.78421 1.22454 0
M  V30 5929 C 554.291 2.75444 -1.97271 0
M  V30 5930 C 552.85 3.27669 -1.8523 0
M  V30 5931 C 551.997 2.00517 -1.91542 0
M  V30 5932 H 554.948 0.773746 -1.3856 0
M  V30 5933 H 554.969 3.4919 -1.51151 0
M  V30 5934 H 554.481 2.45024 -3.00973 0
M  V30 5935 H 552.582 3.62914 -0.844045 0
M  V30 5936 H 552.695 3.9582 -2.69932 0
M  V30 5937 H 551.059 2.15727 -1.35404 0
M  V30 5938 H 551.842 1.72448 -2.96844 0
M  V30 5939 N 554.287 1.06798 1.15896 0
M  V30 5940 C 555.217 0.704677 2.22613 0
M  V30 5941 C 556.198 -0.305252 1.67339 0
M  V30 5942 O 557.383 -0.179247 1.93371 0
M  V30 5943 C 554.513 0.0957325 3.47168 0
M  V30 5944 C 553.467 1.0322 4.15367 0
M  V30 5945 C 552.793 0.286293 5.33933 0
M  V30 5946 C 554.093 2.36341 4.65768 0
M  V30 5947 H 555.787 1.59688 2.53259 0
M  V30 5948 H 553.333 0.769257 1.21731 0
M  V30 5949 H 555.286 -0.170333 4.21056 0
M  V30 5950 H 554.01 -0.831516 3.15838 0
M  V30 5951 H 552.669 1.28309 3.43413 0
M  V30 5952 H 552.317 -0.644237 4.98857 0
M  V30 5953 H 552.017 0.910436 5.80504 0
M  V30 5954 H 553.541 0.0278938 6.10594 0
M  V30 5955 H 554.955 2.1561 5.31211 0
M  V30 5956 H 553.352 2.94299 5.2298 0
M  V30 5957 H 554.422 2.99047 3.81705 0
M  V30 5958 N 555.766 -1.3263 0.851289 0
M  V30 5959 C 557.177 -1.79653 0.5081 0
M  V30 5960 C 557.528 -1.70327 -0.973815 0
M  V30 5961 O 556.653 -1.25986 -1.75944 0
M  V30 5962 C 557.248 -3.26196 0.915515 0
M  V30 5963 C 555.807 -3.71187 0.624277 0
M  V30 5964 C 554.954 -2.53804 1.11709 0
M  V30 5965 H 557.905 -1.19976 1.03882 0
M  V30 5966 H 557.926 -3.79801 0.230535 0
M  V30 5967 H 557.438 -3.32952 1.99411 0
M  V30 5968 H 555.539 -3.69948 -0.443737 0
M  V30 5969 H 555.652 -4.64132 1.18821 0
M  V30 5970 H 554.016 -2.48964 0.537484 0
M  V30 5971 H 554.799 -2.63315 2.20272 0
M  V30 5972 N 557.244 -0.608902 -1.45362 0
M  V30 5973 C 558.655 -0.189511 -1.85736 0
M  V30 5974 C 559.006 1.2539 -1.50903 0
M  V30 5975 O 558.131 1.95094 -0.936347 0
M  V30 5976 C 558.726 -0.33716 -3.37118 0
M  V30 5977 C 557.285 0.0275487 -3.7639 0
M  V30 5978 C 556.432 -0.660983 -2.69307 0
M  V30 5979 H 559.383 -0.815499 -1.36144 0
M  V30 5980 H 559.404 0.430257 -3.7806 0
M  V30 5981 H 558.916 -1.38779 -3.62439 0
M  V30 5982 H 557.017 1.0773 -3.56686 0
M  V30 5983 H 557.13 -0.367018 -4.77692 0
M  V30 5984 H 555.494 -0.0984958 -2.54509 0
M  V30 5985 H 556.277 -1.71377 -2.97464 0
M  V30 5986 N 558.722 1.53707 -0.348139 0
M  V30 5987 C 559.652 2.28111 0.498766 0
M  V30 5988 C 560.633 1.29851 1.09876 0
M  V30 5989 O 561.818 1.587 1.11928 0
M  V30 5990 C 558.948 3.05735 1.64753 0
M  V30 5991 C 557.902 4.11537 1.17565 0
M  V30 5992 C 557.228 4.77142 2.4133 0
M  V30 5993 C 558.528 5.21587 0.272844 0
M  V30 5994 H 560.222 2.99152 -0.121934 0
M  V30 5995 H 557.768 1.43875 -0.0600842 0
M  V30 5996 H 559.721 3.56526 2.24649 0
M  V30 5997 H 558.445 2.32354 2.2952 0
M  V30 5998 H 557.104 3.61665 0.599483 0
M  V30 5999 H 556.752 4.0035 3.04514 0
M  V30 6000 H 556.452 5.48626 2.10436 0
M  V30 6001 H 557.976 5.30719 3.01943 0
M  V30 6002 H 559.39 5.67986 0.778779 0
M  V30 6003 H 557.787 6.00074 0.0555849 0
M  V30 6004 H 558.857 4.79969 -0.689785 0
M  V30 6005 N 560.2 0.0768682 1.57412 0
M  V30 6006 C 561.611 -0.455037 1.8107 0
M  V30 6007 C 561.962 -1.69323 0.991162 0
M  V30 6008 O 561.087 -2.15328 0.215156 0
M  V30 6009 C 561.682 -0.832316 3.28417 0
M  V30 6010 C 560.241 -1.30906 3.52903 0
M  V30 6011 C 559.388 -0.296714 2.75708 0
M  V30 6012 H 562.339 0.302514 1.5579 0
M  V30 6013 H 562.36 -1.69333 3.40744 0
M  V30 6014 H 561.872 0.0690532 3.88039 0
M  V30 6015 H 559.973 -2.22875 2.98592 0
M  V30 6016 H 560.086 -1.28348 4.61588 0
M  V30 6017 H 558.45 -0.775059 2.42621 0
M  V30 6018 H 559.233 0.597015 3.38069 0
M  V30 6019 N 561.678 -1.56367 -0.196722 0
M  V30 6020 C 562.608 -1.97442 -1.24655 0
M  V30 6021 C 563.589 -0.846147 -1.47561 0
M  V30 6022 O 564.774 -1.11035 -1.59326 0
M  V30 6023 C 561.904 -2.31253 -2.59112 0
M  V30 6024 C 560.858 -3.46804 -2.50821 0
M  V30 6025 C 560.184 -3.66286 -3.89536 0
M  V30 6026 C 561.484 -4.8104 -2.03465 0
M  V30 6027 H 563.178 -2.85388 -0.905216 0
M  V30 6028 H 560.724 -1.37304 -0.434002 0
M  V30 6029 H 562.677 -2.58583 -3.32736 0
M  V30 6030 H 561.401 -1.40188 -2.94983 0
M  V30 6031 H 560.06 -3.19563 -1.79653 0
M  V30 6032 H 559.708 -2.72555 -4.22756 0
M  V30 6033 H 559.408 -4.4402 -3.84864 0
M  V30 6034 H 560.932 -3.9599 -4.64784 0
M  V30 6035 H 562.346 -5.07411 -2.66846 0
M  V30 6036 H 560.743 -5.62232 -2.09798 0
M  V30 6037 H 561.813 -4.74732 -0.98781 0
M  V30 6038 N 563.156 0.464375 -1.50603 0
M  V30 6039 C 564.066 1.58723 -1.72754 0
M  V30 6040 C 565.082 1.62925 -0.610844 0
M  V30 6041 O 566.258 1.8067 -0.889963 0
M  V30 6042 C 563.323 2.94897 -1.82309 0
M  V30 6043 C 562.384 3.0103 -3.06071 0
M  V30 6044 C 561.617 4.30708 -3.1516 0
M  V30 6045 O 561.84 5.2159 -2.30868 0
M  V30 6046 O 560.774 4.42571 -4.0794 0
M  V30 6047 H 564.6 1.42954 -2.67951 0
M  V30 6048 H 562.185 0.644579 -1.3478 0
M  V30 6049 H 564.067 3.75764 -1.90735 0
M  V30 6050 H 562.742 3.10851 -0.902967 0
M  V30 6051 H 561.649 2.19217 -3.03142 0
M  V30 6052 H 562.982 2.90014 -3.97684 0
M  V30 6053 N 564.634 1.40294 0.718013 0
M  V30 6054 C 566.045 1.34289 1.29705 0
M  V30 6055 C 566.396 0.0152228 1.96194 0
M  V30 6056 O 565.521 -0.88682 1.97394 0
M  V30 6057 C 566.116 2.43219 2.3586 0
M  V30 6058 C 564.675 2.40682 2.89394 0
M  V30 6059 C 563.822 2.24223 1.63154 0
M  V30 6060 H 566.773 1.50135 0.514312 0
M  V30 6061 H 566.794 2.10986 3.16647 0
M  V30 6062 H 566.306 3.39836 1.87439 0
M  V30 6063 H 564.407 1.47756 3.42051 0
M  V30 6064 H 564.52 3.36177 3.41353 0
M  V30 6065 H 562.884 1.71696 1.88129 0
M  V30 6066 H 563.667 3.22834 1.16761 0
M  V30 6067 N 566.112 -0.949982 1.2575 0
M  V30 6068 C 567.075 -2.02894 1.06615 0
M  V30 6069 C 568.075 -1.60791 0.0173905 0
M  V30 6070 O 569.265 -1.72249 0.260003 0
M  V30 6071 C 566.397 -3.35219 0.619751 0
M  V30 6072 H 567.59 -2.21302 2.02399 0
M  V30 6073 H 565.143 -1.12772 1.08223 0
M  V30 6074 H 565.878 -3.22508 -0.340486 0
M  V30 6075 H 565.663 -3.67129 1.37692 0
M  V30 6076 H 567.153 -4.14505 0.507443 0
M  V30 6077 N 567.59 -1.07411 -1.15328 0
M  V30 6078 C 568.553 -0.698914 -2.18284 0
M  V30 6079 C 569.553 0.261149 -1.58665 0
M  V30 6080 O 570.743 0.0420277 -1.74149 0
M  V30 6081 C 567.875 -0.0302427 -3.40887 0
M  V30 6082 H 569.068 -1.61045 -2.52991 0
M  V30 6083 H 566.621 -0.870724 -1.298 0
M  V30 6084 H 567.356 0.893505 -3.11748 0
M  V30 6085 H 567.141 -0.720759 -3.85419 0
M  V30 6086 H 568.631 0.21759 -4.17033 0
M  V30 6087 N 569.068 1.32177 -0.85831 0
M  V30 6088 C 570.316 1.96735 -0.462568 0
M  V30 6089 C 570.637 1.6824 0.985911 0
M  V30 6090 O 569.907 0.991564 1.68952 0
M  V30 6091 H 568.487 0.727849 -0.168064 0
M  V30 6092 H 571.149 1.61195 -1.09554 0
M  V30 6093 H 570.245 3.06068 -0.610647 0
M  V30 6094 N 570.547 0.616602 1.45037 0
M  V30 6095 C 571.795 0.115103 2.01772 0
M  V30 6096 C 572.116 -1.2622 1.48639 0
M  V30 6097 O 571.386 -1.83563 0.684199 0
M  V30 6098 H 569.966 0.0395607 0.745952 0
M  V30 6099 H 572.628 0.800032 1.77723 0
M  V30 6100 H 571.724 0.0717274 3.12018 0
M  V30 6101 N 572.025 -1.5352 0.356285 0
M  V30 6102 C 573.265 -2.03027 -0.23649 0
M  V30 6103 C 573.629 -1.23813 -1.46746 0
M  V30 6104 O 574.83 -1.63281 -2.13525 0
M  V30 6105 C 573.101 -3.53442 -0.530415 0
M  V30 6106 S 574.66 -4.24836 -1.09819 0
M  V30 6107 H 571.478 -0.707591 -0.0695378 0
M  V30 6108 H 574.08 -1.89077 0.496999 0
M  V30 6109 H 572.784 -4.087 0.373114 0
M  V30 6110 H 572.315 -3.71536 -1.29323 0
M  V30 6111 H 574.33 -4.35228 -2.38309 0
M  V30 6112 N 573.503 -0.0852151 -1.57369 0
M  V30 6113 C 574.728 0.592872 -1.98746 0
M  V30 6114 C 575.153 1.61538 -0.963689 0
M  V30 6115 O 574.511 1.81168 0.069071 0
M  V30 6116 C 574.559 1.22599 -3.39119 0
M  V30 6117 O 573.663 2.34185 -3.39457 0
M  V30 6118 H 573.004 0.151314 -0.646529 0
M  V30 6119 H 575.534 -0.163703 -2.03944 0
M  V30 6120 H 575.544 1.56965 -3.76598 0
M  V30 6121 H 574.219 0.476831 -4.13158 0
M  V30 6122 H 572.796 2.01512 -3.13763 0
M  V30 6123 N 574.981 1.5647 0.188427 0
M  V30 6124 C 576.229 1.80655 0.905986 0
M  V30 6125 C 576.55 0.659391 1.83513 0
M  V30 6126 O 575.82 -0.321868 1.93238 0
M  V30 6127 H 574.4 0.666391 0.337538 0
M  V30 6128 H 577.062 1.93949 0.192339 0
M  V30 6129 H 576.158 2.74066 1.49313 0
M  V30 6130 N 576.459 -0.456382 1.50847 0
M  V30 6131 C 577.87 -1.03685 1.55262 0
M  V30 6132 C 578.221 -1.92779 0.364771 0
M  V30 6133 O 577.346 -2.10043 -0.52068 0
M  V30 6134 C 577.941 -1.88718 2.81374 0
M  V30 6135 C 576.5 -2.41847 2.88422 0
M  V30 6136 C 575.647 -1.20564 2.49719 0
M  V30 6137 H 578.598 -0.238399 1.56899 0
M  V30 6138 H 578.619 -2.73957 2.6406 0
M  V30 6139 H 578.131 -1.23847 3.67809 0
M  V30 6140 H 576.232 -3.10228 2.06372 0
M  V30 6141 H 576.345 -2.75947 3.9165 0
M  V30 6142 H 574.709 -1.54504 2.02486 0
M  V30 6143 H 575.492 -0.573326 3.38479 0
M  V30 6144 N 577.937 -1.40673 -0.710563 0
M  V30 6145 C 579.162 -1.42741 -1.50465 0
M  V30 6146 C 579.587 -0.0302116 -1.88076 0
M  V30 6147 O 578.945 0.962945 -1.53613 0
M  V30 6148 C 578.993 -2.32873 -2.75322 0
M  V30 6149 O 578.097 -1.77544 -3.72226 0
M  V30 6150 H 577.438 -0.485056 -0.45345 0
M  V30 6151 H 579.968 -1.84961 -0.874681 0
M  V30 6152 H 579.978 -2.48233 -3.23797 0
M  V30 6153 H 578.653 -3.34401 -2.47283 0
M  V30 6154 H 577.23 -1.71556 -3.31093 0
M  V30 6155 N 579.415 0.9433 -1.26252 0
M  V30 6156 C 580.663 1.68592 -1.11451 0
M  V30 6157 C 580.984 1.91957 0.343123 0
M  V30 6158 O 580.254 1.51475 1.24226 0
M  V30 6159 H 578.834 0.624789 -0.409448 0
M  V30 6160 H 581.496 1.13351 -1.58548 0
M  V30 6161 H 580.592 2.66054 -1.63162 0
M  V30 6162 N 580.893 1.08022 1.14757 0
M  V30 6163 C 582.141 0.805913 1.85336 0
M  V30 6164 C 582.462 -0.670162 1.83122 0
M  V30 6165 O 581.732 -1.48567 1.2769 0
M  V30 6166 H 580.312 0.295138 0.686223 0
M  V30 6167 H 582.974 1.36538 1.3908 0
M  V30 6168 H 582.07 1.14655 2.90277 0
M  V30 6169 N 582.371 -1.3172 0.865308 0
M  V30 6170 C 583.648 -1.91574 0.394789 0
M  V30 6171 C 584.028 -1.78769 -1.12271 0
M  V30 6172 O 583.376 -1.19245 -1.94918 0
M  V30 6173 C 583.586 -3.37957 0.870982 0
M  V30 6174 C 584.934 -4.15073 0.894384 0
M  V30 6175 O 585.958 -3.4672 0.816325 0
M  V30 6176 O 584.817 -5.37151 1.00651 0
M  V30 6177 H 581.911 -0.818649 0.117229 0
M  V30 6178 H 584.457 -1.4042 0.952913 0
M  V30 6179 H 583.229 -3.41269 1.91444 0
M  V30 6180 H 582.852 -3.96534 0.290907 0
M  V30 6181 N 583.85 -0.624285 -1.44708 0
M  V30 6182 C 584.8 0.106466 -2.27751 0
M  V30 6183 C 585.784 0.822703 -1.38277 0
M  V30 6184 O 586.976 0.709939 -1.62138 0
M  V30 6185 C 584.105 1.092 -3.25469 0
M  V30 6186 C 583.191 0.375737 -4.22432 0
M  V30 6187 N 583.582 -0.591881 -5.02325 0
M  V30 6188 C 581.88 0.621093 -4.41654 0
M  V30 6189 C 582.581 -1.01443 -5.72786 0
M  V30 6190 N 581.557 -0.354651 -5.42442 0
M  V30 6191 H 585.359 -0.636464 -2.86926 0
M  V30 6192 H 582.873 -0.44925 -1.56062 0
M  V30 6193 H 584.87 1.63006 -3.83712 0
M  V30 6194 H 583.529 1.8353 -2.67856 0
M  V30 6195 H 584.541 -0.969389 -5.08747 0
M  V30 6196 H 581.218 1.34779 -3.95147 0
M  V30 6197 H 582.608 -1.81345 -6.46965 0
M  V30 6198 N 585.328 1.53329 -0.364422 0
M  V30 6199 C 586.238 2.29414 0.490552 0
M  V30 6200 C 587.254 1.35335 1.09363 0
M  V30 6201 O 588.43 1.68391 1.10483 0
M  V30 6202 C 585.495 3.06772 1.61529 0
M  V30 6203 C 584.556 4.16516 1.03986 0
M  V30 6204 C 583.789 4.90176 2.111 0
M  V30 6205 O 584.012 4.63687 3.32191 0
M  V30 6206 O 582.946 5.76134 1.74222 0
M  V30 6207 H 586.772 3.03428 -0.12856 0
M  V30 6208 H 584.357 1.48843 -0.128837 0
M  V30 6209 H 586.239 3.55082 2.26924 0
M  V30 6210 H 584.914 2.35596 2.21983 0
M  V30 6211 H 583.821 3.7246 0.349856 0
M  V30 6212 H 585.154 4.89855 0.4799 0
M  V30 6213 N 586.806 0.0935595 1.57322 0
M  V30 6214 C 588.217 -0.435807 1.81542 0
M  V30 6215 C 588.568 -1.68263 1.00907 0
M  V30 6216 O 587.693 -2.15087 0.237983 0
M  V30 6217 C 588.288 -0.797436 3.29282 0
M  V30 6218 C 586.847 -1.27155 3.54272 0
M  V30 6219 C 585.994 -0.267455 2.76007 0
M  V30 6220 H 588.945 0.31902 1.5546 0
M  V30 6221 H 588.966 -1.6571 3.42521 0
M  V30 6222 H 588.478 0.110206 3.87943 0
M  V30 6223 H 586.579 -2.19696 3.00939 0
M  V30 6224 H 586.692 -1.23445 4.62923 0
M  V30 6225 H 585.056 -0.749282 2.43429 0
M  V30 6226 H 585.839 0.632839 3.37417 0
M  V30 6227 N 588.284 -1.56567 -0.180126 0
M  V30 6228 C 589.194 -1.98947 -1.24327 0
M  V30 6229 C 590.21 -0.899446 -1.4895 0
M  V30 6230 O 591.386 -1.20639 -1.61271 0
M  V30 6231 C 588.451 -2.33328 -2.56435 0
M  V30 6232 C 587.512 -3.56114 -2.39752 0
M  V30 6233 C 586.745 -3.88845 -3.65561 0
M  V30 6234 O 586.968 -3.22662 -4.70368 0
M  V30 6235 O 585.902 -4.82226 -3.60197 0
M  V30 6236 H 589.728 -2.89634 -0.913565 0
M  V30 6237 H 587.313 -1.44319 -0.386306 0
M  V30 6238 H 589.195 -2.5645 -3.34382 0
M  V30 6239 H 587.87 -1.45806 -2.89002 0
M  V30 6240 H 586.777 -3.38221 -1.59866 0
M  V30 6241 H 588.11 -4.4415 -2.12113 0
M  V30 6242 N 589.762 0.448376 -1.51087 0
M  V30 6243 C 591.01 1.19635 -1.62886 0
M  V30 6244 C 591.331 1.91977 -0.342024 0
M  V30 6245 O 590.601 1.85094 0.641636 0
M  V30 6246 H 589.181 0.444598 -0.600285 0
M  V30 6247 H 591.843 0.515138 -1.87969 0
M  V30 6248 H 590.939 1.93194 -2.45117 0
M  V30 6249 N 591.24 1.41047 0.703093 0
M  V30 6250 C 592.487 1.4 1.46309 0
M  V30 6251 C 592.815 0.00654574 1.94499 0
M  V30 6252 O 592.07 -0.980255 1.6938 0
M  V30 6253 C 592.369 2.34686 2.6955 0
M  V30 6254 C 592.035 3.81684 2.40058 0
M  V30 6255 C 590.697 4.21731 2.31725 0
M  V30 6256 C 593.049 4.74525 2.15581 0
M  V30 6257 C 590.377 5.52637 1.97001 0
M  V30 6258 C 592.729 6.05744 1.82366 0
M  V30 6259 C 591.393 6.44819 1.72524 0
M  V30 6260 H 590.663 0.512295 0.535382 0
M  V30 6261 H 593.31 1.73792 0.804275 0
M  V30 6262 H 591.615 1.94122 3.40329 0
M  V30 6263 H 593.312 2.31152 3.27673 0
M  V30 6264 H 589.902 3.49963 2.47435 0
M  V30 6265 H 594.086 4.44395 2.20968 0
M  V30 6266 H 589.342 5.81802 1.87928 0
M  V30 6267 H 593.516 6.77189 1.62444 0
M  V30 6268 H 591.143 7.46168 1.45385 0
M  V30 6269 N 592.718 -0.936591 1.26751 0
M  V30 6270 C 593.665 -2.03597 1.08706 0
M  V30 6271 C 594.635 -1.66097 -0.00926542 0
M  V30 6272 O 595.82 -1.90199 0.151377 0
M  V30 6273 C 592.96 -3.3727 0.73094 0
M  V30 6274 C 592.073 -3.87778 1.90399 0
M  V30 6275 C 591.208 -5.09859 1.49056 0
M  V30 6276 C 590.247 -5.5264 2.63164 0
M  V30 6277 N 589.384 -6.65921 2.22471 0
M  V30 6278 H 594.224 -2.18364 2.02784 0
M  V30 6279 H 591.761 -1.06985 1.00958 0
M  V30 6280 H 593.719 -4.14128 0.505328 0
M  V30 6281 H 592.349 -3.22337 -0.172868 0
M  V30 6282 H 591.401 -3.07279 2.2424 0
M  V30 6283 H 592.713 -4.15464 2.76028 0
M  V30 6284 H 591.867 -5.9419 1.22567 0
M  V30 6285 H 590.606 -4.8393 0.60524 0
M  V30 6286 H 589.611 -4.66863 2.90377 0
M  V30 6287 H 590.836 -5.80568 3.52303 0
M  V30 6288 H 588.782 -6.41667 1.36379 0
M  V30 6289 H 588.699 -6.93216 3.01641 0
M  V30 6290 H 589.967 -7.53616 1.99205 0
M  V30 6291 N 594.196 -1.08629 -1.14182 0
M  V30 6292 C 595.607 -0.838003 -1.66836 0
M  V30 6293 C 595.958 0.634885 -1.85644 0
M  V30 6294 O 595.083 1.49008 -1.56926 0
M  V30 6295 C 595.678 -1.51465 -3.03058 0
M  V30 6296 C 594.237 -1.31355 -3.52736 0
M  V30 6297 C 593.384 -1.57599 -2.28162 0
M  V30 6298 H 596.335 -1.24656 -0.982165 0
M  V30 6299 H 596.356 -0.943134 -3.68626 0
M  V30 6300 H 595.868 -2.58661 -2.89337 0
M  V30 6301 H 593.969 -0.262384 -3.71675 0
M  V30 6302 H 594.082 -2.04275 -4.33369 0
M  V30 6303 H 592.446 -0.997659 -2.34348 0
M  V30 6304 H 593.229 -2.66006 -2.17015 0
M  V30 6305 N 595.674 1.31259 -0.872281 0
M  V30 6306 C 597.09 1.49283 -0.564521 0
M  V30 6307 C 597.29 1.80243 0.900807 0
M  V30 6308 O 596.346 1.88246 1.68284 0
M  V30 6309 C 597.659 2.62503 -1.46673 0
M  V30 6310 C 599.207 2.76386 -1.46901 0
M  V30 6311 C 599.682 3.92705 -2.35684 0
M  V30 6312 N 601.173 3.99995 -2.33577 0
M  V30 6313 C 601.908 4.89276 -2.98992 0
M  V30 6314 N 601.404 5.83443 -3.73585 0
M  V30 6315 N 603.197 4.82541 -2.88289 0
M  V30 6316 H 595.348 1.09432 -1.82039 0
M  V30 6317 H 597.611 0.540949 -0.77851 0
M  V30 6318 H 597.317 2.46407 -2.50951 0
M  V30 6319 H 597.191 3.58695 -1.16696 0
M  V30 6320 H 599.578 2.91894 -0.433796 0
M  V30 6321 H 599.659 1.80853 -1.80903 0
M  V30 6322 H 599.303 3.77954 -3.39283 0
M  V30 6323 H 599.233 4.87549 -1.99006 0
M  V30 6324 H 601.724 3.32624 -1.7936 0
M  V30 6325 H 602.037 6.48303 -4.20622 0
M  V30 6326 H 600.382 5.83415 -3.77694 0
M  V30 6327 H 603.573 4.07951 -2.2955 0
M  V30 6328 H 603.746 5.51916 -3.39549 0
M  V30 6329 N 597.152 0.631951 1.44375 0
M  V30 6330 C 598.115 -0.0628142 2.29114 0
M  V30 6331 C 599.115 -0.771494 1.41084 0
M  V30 6332 O 600.305 -0.615959 1.62947 0
M  V30 6333 C 597.437 -1.09953 3.22681 0
M  V30 6334 H 598.63 0.682509 2.92031 0
M  V30 6335 H 596.183 0.392128 1.51301 0
M  V30 6336 H 596.918 -1.87481 2.64616 0
M  V30 6337 H 596.703 -0.595286 3.87555 0
M  V30 6338 H 598.193 -1.58538 3.86336 0
M  V30 6339 N 598.631 -1.53133 0.372548 0
M  V30 6340 C 599.908 -1.93704 -0.271693 0
M  V30 6341 C 600.288 -1.30667 -1.65799 0
M  V30 6342 O 599.636 -0.46838 -2.23648 0
M  V30 6343 C 599.846 -3.47576 -0.314903 0
M  V30 6344 C 601.194 -4.20998 -0.551912 0
M  V30 6345 O 602.218 -3.53994 -0.39582 0
M  V30 6346 O 601.077 -5.39748 -0.85639 0
M  V30 6347 H 598.171 -0.810457 -0.164586 0
M  V30 6348 H 600.717 -1.6427 0.425838 0
M  V30 6349 H 599.489 -3.85749 0.656792 0
M  V30 6350 H 599.112 -3.83264 -1.05804 0
M  V30 6351 N 600.109 -0.101901 -1.5727 0
M  V30 6352 C 601.056 0.854577 -2.14396 0
M  V30 6353 C 602.026 1.27521 -1.06432 0
M  V30 6354 O 603.211 1.35575 -1.34253 0
M  V30 6355 C 600.351 2.10576 -2.73408 0
M  V30 6356 C 599.464 1.73504 -3.95626 0
M  V30 6357 C 598.599 2.9346 -4.42781 0
M  V30 6358 C 597.638 2.52547 -5.57572 0
M  V30 6359 N 596.775 3.65359 -5.99547 0
M  V30 6360 H 601.615 0.360578 -2.9581 0
M  V30 6361 H 599.152 0.166303 -1.46157 0
M  V30 6362 H 601.11 2.83859 -3.05745 0
M  V30 6363 H 599.74 2.57463 -1.94711 0
M  V30 6364 H 598.792 0.901622 -3.6956 0
M  V30 6365 H 600.104 1.39426 -4.78917 0
M  V30 6366 H 599.258 3.74988 -4.76937 0
M  V30 6367 H 597.997 3.30753 -3.58404 0
M  V30 6368 H 597.002 1.69446 -5.23037 0
M  V30 6369 H 598.227 2.1639 -6.43702 0
M  V30 6370 H 596.173 4.02358 -5.18116 0
M  V30 6371 H 596.09 3.35148 -6.77652 0
M  V30 6372 H 597.358 4.47378 -6.38336 0
M  V30 6373 N 601.587 1.56661 0.17182 0
M  V30 6374 C 602.835 1.81606 0.886774 0
M  V30 6375 C 603.156 0.678818 1.82803 0
M  V30 6376 O 602.426 -0.301354 1.93568 0
M  V30 6377 H 601.006 0.669934 0.330451 0
M  V30 6378 H 603.668 1.94142 0.171757 0
M  V30 6379 H 602.764 2.75634 1.46398 0
M  V30 6380 N 603.065 -0.440357 1.51323 0
M  V30 6381 C 604.012 -1.53429 1.72419 0
M  V30 6382 C 604.982 -1.56165 0.565826 0
M  V30 6383 O 606.167 -1.73222 0.799917 0
M  V30 6384 C 603.307 -2.91169 1.85242 0
M  V30 6385 C 602.42 -2.97985 3.12777 0
M  V30 6386 C 601.555 -4.26829 3.16212 0
M  V30 6387 C 600.594 -4.27501 4.38074 0
M  V30 6388 N 599.731 -5.47866 4.39076 0
M  V30 6389 H 604.571 -1.34743 2.65797 0
M  V30 6390 H 602.108 -0.654608 1.31732 0
M  V30 6391 H 604.066 -3.71087 1.90658 0
M  V30 6392 H 602.696 -3.0842 0.952744 0
M  V30 6393 H 601.748 -2.10749 3.16685 0
M  V30 6394 H 603.06 -2.94342 4.02696 0
M  V30 6395 H 602.214 -5.15118 3.20527 0
M  V30 6396 H 600.953 -4.33124 2.24176 0
M  V30 6397 H 599.958 -3.37606 4.33938 0
M  V30 6398 H 601.183 -4.22873 5.31371 0
M  V30 6399 H 599.129 -5.54887 3.49909 0
M  V30 6400 H 599.046 -5.46091 5.22801 0
M  V30 6401 H 600.314 -6.38195 4.4758 0
M  V30 6402 N 604.543 -1.41418 -0.695603 0
M  V30 6403 C 605.79 -1.40774 -1.45564 0
M  V30 6404 C 606.118 -0.0168604 -1.94493 0
M  V30 6405 O 605.373 0.971259 -1.69897 0
M  V30 6406 C 605.672 -2.36112 -2.68302 0
M  V30 6407 C 605.338 -3.82952 -2.38031 0
M  V30 6408 C 604 -4.22954 -2.29486 0
M  V30 6409 C 606.352 -4.75662 -2.13061 0
M  V30 6410 C 603.68 -5.53674 -1.94067 0
M  V30 6411 C 606.032 -6.06702 -1.79151 0
M  V30 6412 C 604.696 -6.45725 -1.69102 0
M  V30 6413 H 603.966 -0.515128 -0.532658 0
M  V30 6414 H 606.613 -1.74216 -0.795047 0
M  V30 6415 H 604.918 -1.95924 -3.39295 0
M  V30 6416 H 606.615 -2.32887 -3.26442 0
M  V30 6417 H 603.205 -3.5127 -2.45576 0
M  V30 6418 H 607.389 -4.45561 -2.18608 0
M  V30 6419 H 602.645 -5.8279 -1.8484 0
M  V30 6420 H 606.819 -6.78041 -1.5885 0
M  V30 6421 H 604.446 -7.46929 -1.41426 0
M  V30 6422 N 606.021 0.929856 -1.27246 0
M  V30 6423 C 607.268 1.67731 -1.13457 0
M  V30 6424 C 607.596 1.9185 0.319998 0
M  V30 6425 O 606.851 1.50524 1.25064 0
M  V30 6426 C 607.15 3.05116 -1.86115 0
M  V30 6427 C 606.816 3.00715 -3.35978 0
M  V30 6428 C 605.478 2.99222 -3.76855 0
M  V30 6429 C 607.83 2.92168 -4.3161 0
M  V30 6430 C 605.158 2.86962 -5.11732 0
M  V30 6431 C 607.51 2.81449 -5.66542 0
M  V30 6432 C 606.174 2.78305 -6.06715 0
M  V30 6433 H 605.444 0.613772 -0.415168 0
M  V30 6434 H 608.091 1.08456 -1.57827 0
M  V30 6435 H 606.396 3.68083 -1.34246 0
M  V30 6436 H 608.093 3.61822 -1.72876 0
M  V30 6437 H 604.683 3.02664 -3.03468 0
M  V30 6438 H 608.867 2.92421 -4.01003 0
M  V30 6439 H 604.123 2.82913 -5.42006 0
M  V30 6440 H 608.297 2.738 -6.40317 0
M  V30 6441 H 605.924 2.68561 -7.11181 0
M  V30 6442 N 607.499 1.09233 1.13605 0
M  V30 6443 C 608.462 0.733553 2.17144 0
M  V30 6444 C 609.462 -0.235873 1.59061 0
M  V30 6445 O 610.652 -0.0143167 1.74194 0
M  V30 6446 C 607.784 0.084471 3.40795 0
M  V30 6447 H 608.977 1.65049 2.50397 0
M  V30 6448 H 606.53 0.891264 1.28399 0
M  V30 6449 H 607.265 -0.843795 3.1313 0
M  V30 6450 H 607.05 0.781985 3.84223 0
M  V30 6451 H 608.54 -0.151216 4.17326 0
M  V30 6452 N 608.977 -1.30795 0.87923 0
M  V30 6453 C 610.393 -1.48981 0.57243 0
M  V30 6454 C 610.593 -1.80719 -0.891236 0
M  V30 6455 O 609.649 -1.89136 -1.67283 0
M  V30 6456 C 610.962 -2.61721 1.48063 0
M  V30 6457 C 612.51 -2.75603 1.48365 0
M  V30 6458 C 612.985 -3.91449 2.37763 0
M  V30 6459 N 614.476 -3.98751 2.35695 0
M  V30 6460 C 615.211 -4.87684 3.01583 0
M  V30 6461 N 614.707 -5.81454 3.76674 0
M  V30 6462 N 616.5 -4.81005 2.90844 0
M  V30 6463 H 608.651 -1.08465 1.82617 0
M  V30 6464 H 610.914 -0.536813 0.781368 0
M  V30 6465 H 610.62 -2.45073 2.52254 0
M  V30 6466 H 610.494 -3.58071 1.18596 0
M  V30 6467 H 612.881 -2.9166 0.44927 0
M  V30 6468 H 612.962 -1.79891 1.81859 0
M  V30 6469 H 612.606 -3.76149 3.41283 0
M  V30 6470 H 612.536 -4.86487 2.01589 0
M  V30 6471 H 615.027 -3.31668 1.81121 0
M  V30 6472 H 615.34 -6.46063 4.24054 0
M  V30 6473 H 613.685 -5.81403 3.80782 0
M  V30 6474 H 616.876 -4.06728 2.31711 0
M  V30 6475 H 617.049 -5.50107 3.42471 0
M  V30 6476 N 610.455 -0.639598 -1.44038 0
M  V30 6477 C 611.68 -0.153117 -2.06834 0
M  V30 6478 C 612.105 1.16676 -1.47541 0
M  V30 6479 O 611.463 1.71769 -0.580093 0
M  V30 6480 C 611.511 -0.0609169 -3.60549 0
M  V30 6481 O 610.615 0.98071 -4.00569 0
M  V30 6482 H 609.956 -0.0886402 -0.658057 0
M  V30 6483 H 612.486 -0.878674 -1.84771 0
M  V30 6484 H 612.496 0.126892 -4.07803 0
M  V30 6485 H 611.171 -1.0245 -4.03084 0
M  V30 6486 H 609.748 0.766789 -3.64931 0
M  V30 6487 N 611.933 1.52934 -0.380664 0
M  V30 6488 C 613.161 2.05886 0.204599 0
M  V30 6489 C 613.576 1.25305 1.41223 0
M  V30 6490 O 612.933 0.297504 1.80059 0
M  V30 6491 C 612.984 3.56764 0.583249 0
M  V30 6492 O 612.705 4.34292 -0.576398 0
M  V30 6493 C 614.206 4.2603 1.2253 0
M  V30 6494 H 611.426 0.670193 0.0328991 0
M  V30 6495 H 613.97 1.97148 -0.543397 0
M  V30 6496 H 612.125 3.65603 1.28115 0
M  V30 6497 H 612.539 5.23819 -0.267119 0
M  V30 6498 H 614.013 5.32868 1.44068 0
M  V30 6499 H 614.49 3.80698 2.19011 0
M  V30 6500 H 615.096 4.21485 0.568407 0
M  V30 6501 N 613.412 0.11024 1.57214 0
M  V30 6502 C 614.375 -0.828808 2.1369 0
M  V30 6503 C 615.375 -1.20059 1.06969 0
M  V30 6504 O 616.565 -1.12754 1.32786 0
M  V30 6505 C 613.697 -2.11959 2.66994 0
M  V30 6506 H 614.89 -0.338146 2.97988 0
M  V30 6507 H 612.443 -0.138913 1.55681 0
M  V30 6508 H 613.178 -2.65476 1.8626 0
M  V30 6509 H 612.963 -1.86258 3.45037 0
M  V30 6510 H 614.453 -2.79105 3.10629 0
M  V30 6511 N 614.89 -1.56749 -0.16351 0
M  V30 6512 C 616.139 -1.81626 -0.877211 0
M  V30 6513 C 616.452 -0.688791 -1.83071 0
M  V30 6514 O 617.658 -0.822697 -2.58735 0
M  V30 6515 C 616.114 -3.21858 -1.61045 0
M  V30 6516 C 615.722 -4.42494 -0.700195 0
M  V30 6517 C 617.466 -3.56021 -2.31192 0
M  V30 6518 C 615.373 -5.73748 -1.43412 0
M  V30 6519 H 614.303 -0.67731 -0.331312 0
M  V30 6520 H 616.954 -1.83039 -0.13006 0
M  V30 6521 H 615.336 -3.14784 -2.40264 0
M  V30 6522 H 616.51 -4.60766 0.0555849 0
M  V30 6523 H 614.825 -4.1626 -0.10799 0
M  V30 6524 H 617.422 -4.51333 -2.8671 0
M  V30 6525 H 617.765 -2.81277 -3.06902 0
M  V30 6526 H 618.298 -3.64682 -1.58909 0
M  V30 6527 H 615.037 -6.51543 -0.719186 0
M  V30 6528 H 614.557 -5.5944 -2.16302 0
M  V30 6529 H 616.236 -6.15975 -1.9795 0
M  V30 6530 N 616.368 0.432326 -1.51554 0
M  V30 6531 C 617.3 1.54357 -1.6943 0
M  V30 6532 C 618.313 1.52311 -0.574897 0
M  V30 6533 O 619.502 1.56997 -0.849369 0
M  V30 6534 C 616.602 2.93273 -1.69836 0
M  V30 6535 C 615.775 3.19768 -2.98442 0
M  V30 6536 C 614.834 4.38433 -2.90969 0
M  V30 6537 O 613.86 4.36842 -3.64908 0
M  V30 6538 N 615.062 5.42276 -2.07163 0
M  V30 6539 H 617.827 1.39426 -2.65293 0
M  V30 6540 H 615.388 0.621331 -1.49503 0
M  V30 6541 H 617.38 3.70687 -1.62399 0
M  V30 6542 H 615.95 3.01777 -0.815456 0
M  V30 6543 H 615.17 2.30607 -3.19709 0
M  V30 6544 H 616.458 3.343 -3.83563 0
M  V30 6545 H 615.856 5.46407 -1.46477 0
M  V30 6546 H 614.413 6.18524 -2.05601 0
M  V30 6547 N 617.846 1.41785 0.688094 0
M  V30 6548 C 618.756 1.46596 1.83158 0
M  V30 6549 C 619.772 0.355862 1.70322 0
M  V30 6550 O 620.948 0.604737 1.92106 0
M  V30 6551 C 618.013 1.35322 3.192 0
M  V30 6552 C 617.074 2.56711 3.4409 0
M  V30 6553 C 616.307 2.45965 4.73642 0
M  V30 6554 O 616.53 1.48827 5.50642 0
M  V30 6555 O 615.464 3.35859 4.99482 0
M  V30 6556 H 619.29 2.43083 1.82056 0
M  V30 6557 H 616.875 1.23404 0.842126 0
M  V30 6558 H 618.757 1.31347 4.00407 0
M  V30 6559 H 617.432 0.419536 3.2097 0
M  V30 6560 H 616.339 2.66262 2.62784 0
M  V30 6561 H 617.672 3.48933 3.47141 0
M  V30 6562 N 619.324 -0.923095 1.27737 0
M  V30 6563 C 620.254 -2.04124 1.13383 0
M  V30 6564 C 621.235 -1.70066 0.0340658 0
M  V30 6565 O 622.42 -1.93068 0.209383 0
M  V30 6566 C 619.55 -3.3831 0.785097 0
M  V30 6567 C 618.504 -3.86496 1.8386 0
M  V30 6568 C 617.83 -5.1754 1.34373 0
M  V30 6569 C 619.13 -4.09381 3.24353 0
M  V30 6570 H 620.824 -2.1639 2.06919 0
M  V30 6571 H 618.37 -1.03976 0.996243 0
M  V30 6572 H 620.323 -4.16016 0.671485 0
M  V30 6573 H 619.047 -3.2607 -0.185969 0
M  V30 6574 H 617.706 -3.10987 1.9412 0
M  V30 6575 H 617.354 -5.01696 0.361989 0
M  V30 6576 H 617.054 -5.50751 2.04811 0
M  V30 6577 H 618.578 -5.97811 1.24315 0
M  V30 6578 H 619.992 -4.77641 3.17067 0
M  V30 6579 H 618.389 -4.53906 3.92542 0
M  V30 6580 H 619.459 -3.14515 3.69064 0
M  V30 6581 N 620.802 -1.09834 -1.13024 0
M  V30 6582 C 622.051 -0.831806 -1.83749 0
M  V30 6583 C 622.364 0.644763 -1.84668 0
M  V30 6584 O 623.57 1.02697 -2.51327 0
M  V30 6585 C 622.026 -1.43817 -3.29916 0
M  V30 6586 C 621.634 -2.94759 -3.37374 0
M  V30 6587 C 623.378 -1.25077 -4.05655 0
M  V30 6588 C 621.285 -3.48461 -4.77838 0
M  V30 6589 H 620.215 -0.30751 -0.688443 0
M  V30 6590 H 622.866 -1.32156 -1.27307 0
M  V30 6591 H 621.248 -0.876106 -3.86187 0
M  V30 6592 H 622.422 -3.57228 -2.91076 0
M  V30 6593 H 620.737 -3.12581 -2.75103 0
M  V30 6594 H 623.334 -1.62649 -5.09362 0
M  V30 6595 H 623.677 -0.191782 -4.15858 0
M  V30 6596 H 624.21 -1.78057 -3.55725 0
M  V30 6597 H 620.949 -4.53998 -4.72828 0
M  V30 6598 H 620.469 -2.90757 -5.24615 0
M  V30 6599 H 622.148 -3.45914 -5.46766 0
M  V30 6600 N 622.28 1.30327 -0.886154 0
M  V30 6601 C 623.19 2.31854 -0.357866 0
M  V30 6602 C 624.206 1.65392 0.540502 0
M  V30 6603 O 625.382 1.96683 0.433339 0
M  V30 6604 C 622.447 3.44171 0.417999 0
M  V30 6605 C 621.508 4.26257 -0.510263 0
M  V30 6606 C 620.741 5.3321 0.228669 0
M  V30 6607 O 620.964 5.51542 1.45458 0
M  V30 6608 O 619.898 6.0042 -0.421832 0
M  V30 6609 H 623.724 2.78995 -1.19982 0
M  V30 6610 H 621.309 1.34518 -0.650028 0
M  V30 6611 H 623.191 4.12588 0.857251 0
M  V30 6612 H 621.866 2.99164 1.23623 0
M  V30 6613 H 620.773 3.60533 -0.99835 0
M  V30 6614 H 622.106 4.74871 -1.29454 0
M  V30 6615 N 623.758 0.647228 1.43697 0
M  V30 6616 C 625.169 0.238689 1.85168 0
M  V30 6617 C 625.52 -1.21345 1.54175 0
M  V30 6618 O 624.645 -1.92542 0.987743 0
M  V30 6619 C 625.24 0.426422 3.36106 0
M  V30 6620 C 623.799 0.0722541 3.76331 0
M  V30 6621 C 622.946 0.732153 2.6746 0
M  V30 6622 H 625.897 0.851309 1.33934 0
M  V30 6623 H 625.918 -0.32987 3.79067 0
M  V30 6624 H 625.43 1.48339 3.58632 0
M  V30 6625 H 623.531 -0.982355 3.59417 0
M  V30 6626 H 623.644 0.493541 4.76551 0
M  V30 6627 H 622.008 0.16594 2.54159 0
M  V30 6628 H 622.791 1.79204 2.92816 0
M  V30 6629 N 625.236 -1.5273 0.388769 0
M  V30 6630 C 626.169 -2.22861 -0.490752 0
M  V30 6631 C 627.147 -1.22912 -1.06449 0
M  V30 6632 O 628.331 -1.51896 -1.11624 0
M  V30 6633 C 625.458 -2.94141 -1.67925 0
M  V30 6634 C 624.504 -4.08355 -1.23081 0
M  V30 6635 S 625.337 -5.35077 -0.212786 0
M  V30 6636 C 626.493 -6.09879 -1.40708 0
M  V30 6637 H 626.726 -2.97115 0.104787 0
M  V30 6638 H 624.259 -1.53428 0.172956 0
M  V30 6639 H 626.217 -3.35818 -2.36085 0
M  V30 6640 H 624.878 -2.19568 -2.24608 0
M  V30 6641 H 624.071 -4.57328 -2.11818 0
M  V30 6642 H 623.673 -3.68688 -0.628121 0
M  V30 6643 H 625.965 -6.36018 -2.33424 0
M  V30 6644 H 626.908 -7.01586 -0.958271 0
M  V30 6645 H 627.316 -5.40646 -1.62364 0
M  V30 6646 N 626.714 -0.118576 -1.57153 0
M  V30 6647 C 627.963 0.539339 -1.94355 0
M  V30 6648 C 628.276 1.67858 -1.00415 0
M  V30 6649 O 629.482 2.39922 -1.27081 0
M  V30 6650 C 627.938 1.01082 -3.45414 0
M  V30 6651 C 627.546 -0.0999402 -4.47889 0
M  V30 6652 C 629.29 1.64013 -3.91535 0
M  V30 6653 C 627.197 0.388212 -5.90124 0
M  V30 6654 H 626.127 0.205247 -0.725527 0
M  V30 6655 H 628.778 -0.19836 -1.82425 0
M  V30 6656 H 627.16 1.80292 -3.52577 0
M  V30 6657 H 628.334 -0.876189 -4.52393 0
M  V30 6658 H 626.649 -0.635885 -4.11516 0
M  V30 6659 H 629.246 2.01649 -4.95219 0
M  V30 6660 H 629.589 2.51836 -3.31488 0
M  V30 6661 H 630.122 0.913439 -3.87171 0
M  V30 6662 H 626.861 -0.453963 -6.53926 0
M  V30 6663 H 626.381 1.13095 -5.89041 0
M  V30 6664 H 628.06 0.849574 -6.41398 0
M  V30 6665 N 628.193 1.56834 0.155195 0
M  V30 6666 C 629.421 1.87049 0.884326 0
M  V30 6667 C 629.836 0.705839 1.7511 0
M  V30 6668 O 629.193 -0.324641 1.79589 0
M  V30 6669 C 629.244 3.1644 1.74781 0
M  V30 6670 O 628.965 4.28417 0.915978 0
M  V30 6671 C 630.466 3.60113 2.58522 0
M  V30 6672 H 627.686 0.620196 0.25612 0
M  V30 6673 H 630.23 2.03946 0.150445 0
M  V30 6674 H 628.385 3.01321 2.43484 0
M  V30 6675 H 628.799 5.02353 1.50803 0
M  V30 6676 H 630.273 4.53508 3.14698 0
M  V30 6677 H 630.75 2.85005 3.34169 0
M  V30 6678 H 631.356 3.77898 1.95124 0
M  V30 6679 N 629.671 -0.424282 1.51781 0
M  V30 6680 C 630.919 -1.17028 1.64769 0
M  V30 6681 C 631.24 -1.91409 0.372523 0
M  V30 6682 O 630.51 -1.86091 -0.612108 0
M  V30 6683 H 629.09 -0.434992 0.607282 0
M  V30 6684 H 631.752 -0.485169 1.88765 0
M  V30 6685 H 630.848 -1.8927 2.4816 0
M  V30 6686 N 631.149 -1.42148 -0.680565 0
M  V30 6687 C 632.059 -1.47565 -1.82378 0
M  V30 6688 C 633.075 -0.36489 -1.70131 0
M  V30 6689 O 634.251 -0.614916 -1.91783 0
M  V30 6690 C 631.316 -1.37013 -3.18478 0
M  V30 6691 C 630.377 -2.58532 -3.42724 0
M  V30 6692 C 629.61 -2.48473 -4.72331 0
M  V30 6693 O 629.833 -1.51745 -5.49845 0
M  V30 6694 O 628.767 -3.38503 -4.97694 0
M  V30 6695 H 632.593 -2.44045 -1.80764 0
M  V30 6696 H 630.178 -1.23849 -0.835569 0
M  V30 6697 H 632.06 -1.33468 -3.99705 0
M  V30 6698 H 630.735 -0.436552 -3.20743 0
M  V30 6699 H 629.642 -2.67652 -2.61368 0
M  V30 6700 H 630.975 -3.50769 -3.45286 0
M  V30 6701 N 632.627 0.916307 -1.28225 0
M  V30 6702 C 634.038 1.48024 -1.13779 0
M  V30 6703 C 634.389 1.94289 0.273139 0
M  V30 6704 O 633.514 1.82226 1.16716 0
M  V30 6705 C 634.109 2.69029 -2.05935 0
M  V30 6706 C 632.668 3.2161 -1.95561 0
M  V30 6707 C 631.815 1.94321 -1.97825 0
M  V30 6708 H 634.766 0.729272 -1.40951 0
M  V30 6709 H 634.787 3.44204 -1.62184 0
M  V30 6710 H 634.299 2.35325 -3.08616 0
M  V30 6711 H 632.4 3.60045 -0.959076 0
M  V30 6712 H 632.513 3.87032 -2.82388 0
M  V30 6713 H 630.877 2.1131 -1.42198 0
M  V30 6714 H 631.66 1.62917 -3.0218 0
M  V30 6715 N 634.105 1.10431 1.1244 0
M  V30 6716 C 635.335 0.867612 1.87499 0
M  V30 6717 C 635.743 -0.585475 1.79913 0
M  V30 6718 O 635.086 -1.41539 1.171 0
M  V30 6719 C 635.148 1.2374 3.37533 0
M  V30 6720 C 634.812 2.69751 3.68895 0
M  V30 6721 C 635.809 3.67988 3.67261 0
M  V30 6722 C 633.494 3.06135 3.98229 0
M  V30 6723 C 635.488 5.00632 3.9452 0
M  V30 6724 C 633.175 4.38967 4.25149 0
M  V30 6725 C 634.173 5.36025 4.23281 0
M  V30 6726 O 633.861 6.66465 4.49533 0
M  V30 6727 H 633.593 0.311196 0.600111 0
M  V30 6728 H 636.147 1.47257 1.43194 0
M  V30 6729 H 634.377 0.575537 3.82393 0
M  V30 6730 H 636.066 0.978187 3.93937 0
M  V30 6731 H 636.832 3.41224 3.44661 0
M  V30 6732 H 632.711 2.31214 3.98825 0
M  V30 6733 H 636.255 5.7638 3.92978 0
M  V30 6734 H 632.152 4.6547 4.47223 0
M  V30 6735 H 632.92 6.72095 4.67152 0
M  V30 6736 N 635.583 -1.29855 0.893053 0
M  V30 6737 C 636.994 -1.77946 0.564998 0
M  V30 6738 C 637.345 -1.73339 -0.919134 0
M  V30 6739 O 636.47 -1.3152 -1.71847 0
M  V30 6740 C 637.065 -3.23118 1.01883 0
M  V30 6741 C 635.624 -3.69013 0.742051 0
M  V30 6742 C 634.771 -2.50121 1.19727 0
M  V30 6743 H 637.722 -1.16611 1.07646 0
M  V30 6744 H 637.743 -3.78875 0.351249 0
M  V30 6745 H 637.255 -3.26439 2.09903 0
M  V30 6746 H 635.356 -3.71173 -0.325816 0
M  V30 6747 H 635.469 -4.60117 1.33527 0
M  V30 6748 H 633.833 -2.47128 0.616418 0
M  V30 6749 H 634.616 -2.56174 2.28538 0
M  V30 6750 N 637.061 -0.65484 -1.43351 0
M  V30 6751 C 638.31 -0.166215 -2.01014 0
M  V30 6752 C 638.623 1.22764 -1.52278 0
M  V30 6753 O 639.829 1.81156 -2.02224 0
M  V30 6754 C 638.285 -0.246341 -3.59056 0
M  V30 6755 C 637.893 -1.64299 -4.16785 0
M  V30 6756 C 639.637 0.184597 -4.24098 0
M  V30 6757 C 637.544 -1.67695 -5.67126 0
M  V30 6758 H 636.474 -0.0583769 -0.751737 0
M  V30 6759 H 639.125 -0.817111 -1.64303 0
M  V30 6760 H 637.507 0.472092 -3.93176 0
M  V30 6761 H 638.681 -2.3869 -3.94162 0
M  V30 6762 H 636.996 -2.02004 -3.6412 0
M  V30 6763 H 639.593 0.179088 -5.344 0
M  V30 6764 H 639.936 1.21632 -3.98135 0
M  V30 6765 H 640.469 -0.482141 -3.94867 0
M  V30 6766 H 637.208 -2.68783 -5.9786 0
M  V30 6767 H 636.728 -0.976313 -5.91801 0
M  V30 6768 H 638.407 -1.42142 -6.31193 0
M  V30 6769 N 638.539 1.52521 -0.396863 0
M  V30 6770 C 639.486 2.26671 0.434624 0
M  V30 6771 C 640.456 1.28584 1.05144 0
M  V30 6772 O 641.641 1.57426 1.07804 0
M  V30 6773 C 638.781 3.08234 1.55196 0
M  V30 6774 C 637.894 4.21261 0.957262 0
M  V30 6775 C 637.029 4.90205 2.04627 0
M  V30 6776 C 636.068 5.95213 1.42787 0
M  V30 6777 N 635.205 6.57723 2.45651 0
M  V30 6778 H 640.045 2.973 -0.204139 0
M  V30 6779 H 637.582 1.46669 -0.112505 0
M  V30 6780 H 639.54 3.53819 2.2106 0
M  V30 6781 H 638.17 2.398 2.16092 0
M  V30 6782 H 637.222 3.79935 0.188005 0
M  V30 6783 H 638.534 4.96624 0.465416 0
M  V30 6784 H 637.688 5.39133 2.78246 0
M  V30 6785 H 636.427 4.14383 2.57174 0
M  V30 6786 H 635.432 5.45616 0.676968 0
M  V30 6787 H 636.657 6.72972 0.910255 0
M  V30 6788 H 634.603 5.84737 2.97353 0
M  V30 6789 H 634.52 7.28723 2.01243 0
M  V30 6790 H 635.788 7.11293 3.18876 0
M  V30 6791 N 640.017 0.126909 1.57088 0
M  V30 6792 C 641.265 -0.528123 1.95078 0
M  V30 6793 C 641.586 -1.66708 1.0116 0
M  V30 6794 O 640.856 -1.95777 0.0693527 0
M  V30 6795 H 639.436 -0.198087 0.720257 0
M  V30 6796 H 642.098 0.197703 1.93895 0
M  V30 6797 H 641.194 -0.917507 2.98309 0
M  V30 6798 N 641.495 -1.56914 -0.146875 0
M  V30 6799 C 642.425 -2.01308 -1.1831 0
M  V30 6800 C 643.406 -0.892664 -1.44795 0
M  V30 6801 O 644.591 -1.16048 -1.55713 0
M  V30 6802 C 641.721 -2.3938 -2.51624 0
M  V30 6803 C 640.675 -3.54608 -2.3966 0
M  V30 6804 C 640.001 -3.78493 -3.77686 0
M  V30 6805 C 641.301 -4.87269 -1.88058 0
M  V30 6806 H 642.995 -2.88123 -0.813964 0
M  V30 6807 H 640.541 -1.38615 -0.3901 0
M  V30 6808 H 642.494 -2.69037 -3.24341 0
M  V30 6809 H 641.218 -1.49502 -2.90373 0
M  V30 6810 H 639.877 -3.25116 -1.69396 0
M  V30 6811 H 639.525 -2.85866 -4.13871 0
M  V30 6812 H 639.225 -4.56039 -3.70543 0
M  V30 6813 H 640.749 -4.10576 -4.51951 0
M  V30 6814 H 642.163 -5.15644 -2.50568 0
M  V30 6815 H 640.56 -5.68622 -1.91805 0
M  V30 6816 H 641.63 -4.77634 -0.836277 0
M  V30 6817 N 642.974 0.416227 -1.52004 0
M  V30 6818 C 644.221 1.16383 -1.65714 0
M  V30 6819 C 644.549 1.9068 -0.383594 0
M  V30 6820 O 643.804 1.85174 0.633185 0
M  V30 6821 C 644.103 2.18923 -2.82502 0
M  V30 6822 C 643.769 1.61485 -4.20991 0
M  V30 6823 C 642.431 1.45545 -4.58661 0
M  V30 6824 C 644.783 1.19468 -5.07323 0
M  V30 6825 C 642.111 0.860937 -5.80349 0
M  V30 6826 C 644.463 0.614386 -6.29609 0
M  V30 6827 C 643.127 0.442056 -6.66035 0
M  V30 6828 H 642.397 0.425875 -0.606392 0
M  V30 6829 H 645.044 0.45199 -1.8609 0
M  V30 6830 H 643.349 2.96225 -2.56433 0
M  V30 6831 H 645.046 2.76628 -2.90307 0
M  V30 6832 H 641.636 1.74873 -3.91302 0
M  V30 6833 H 645.82 1.30596 -4.78809 0
M  V30 6834 H 641.076 0.715372 -6.072 0
M  V30 6835 H 645.25 0.280393 -6.95835 0
M  V30 6836 H 642.877 -0.0207218 -7.60197 0
M  V30 6837 N 644.452 1.42507 0.673017 0
M  V30 6838 C 645.415 1.4582 1.76831 0
M  V30 6839 C 646.415 0.345542 1.57043 0
M  V30 6840 O 647.605 0.606447 1.63303 0
M  V30 6841 C 644.737 1.29158 3.15485 0
M  V30 6842 H 645.93 2.43345 1.7528 0
M  V30 6843 H 643.483 1.28981 0.882817 0
M  V30 6844 H 644.218 0.325626 3.22661 0
M  V30 6845 H 644.003 2.09797 3.31252 0
M  V30 6846 H 645.493 1.34363 3.95394 0
M  V30 6847 N 645.93 -0.909495 1.28709 0
M  V30 6848 C 647.16 -1.69027 1.188 0
M  V30 6849 C 647.568 -1.87469 -0.255329 0
M  V30 6850 O 646.911 -1.40458 -1.18394 0
M  V30 6851 C 646.973 -3.10064 1.81936 0
M  V30 6852 C 646.637 -3.14891 3.31199 0
M  V30 6853 C 647.634 -2.95768 4.27571 0
M  V30 6854 C 645.319 -3.37269 3.7223 0
M  V30 6855 C 647.313 -2.98942 5.6295 0
M  V30 6856 C 645 -3.40074 5.07733 0
M  V30 6857 C 645.998 -3.20932 6.02903 0
M  V30 6858 O 645.686 -3.23507 7.35934 0
M  V30 6859 H 645.418 -0.535014 0.413203 0
M  V30 6860 H 647.972 -1.14645 1.70428 0
M  V30 6861 H 646.202 -3.66005 1.24808 0
M  V30 6862 H 647.891 -3.70185 1.66486 0
M  V30 6863 H 648.657 -2.78302 3.97206 0
M  V30 6864 H 644.536 -3.51212 2.98615 0
M  V30 6865 H 648.08 -2.83919 6.37209 0
M  V30 6866 H 643.977 -3.5707 5.37747 0
M  V30 6867 H 644.745 -3.3984 7.44615 0
M  V30 6868 N 647.408 -1.11026 -1.11852 0
M  V30 6869 C 648.656 -0.854769 -1.83134 0
M  V30 6870 C 648.977 0.621375 -1.84835 0
M  V30 6871 O 648.247 1.45129 -1.31584 0
M  V30 6872 H 646.827 -0.313229 -0.678157 0
M  V30 6873 H 649.489 -1.40178 -1.35411 0
M  V30 6874 H 648.585 -1.22311 -2.87135 0
M  V30 6875 N 648.886 1.2938 -0.899927 0
M  V30 6876 C 650.135 1.9483 -0.521937 0
M  V30 6877 C 650.448 1.71725 0.936473 0
M  V30 6878 O 651.654 2.31282 1.42199 0
M  V30 6879 C 650.11 3.48911 -0.88255 0
M  V30 6880 C 649.718 3.80815 -2.35974 0
M  V30 6881 C 651.462 4.20595 -0.57448 0
M  V30 6882 C 649.369 5.28142 -2.66121 0
M  V30 6883 H 648.299 0.729285 -0.191468 0
M  V30 6884 H 650.95 1.47103 -1.09695 0
M  V30 6885 H 649.332 3.95293 -0.236459 0
M  V30 6886 H 650.506 3.45291 -3.05141 0
M  V30 6887 H 648.821 3.22271 -2.63686 0
M  V30 6888 H 651.418 5.29031 -0.776556 0
M  V30 6889 H 651.761 4.13442 0.487005 0
M  V30 6890 H 652.294 3.79945 -1.17842 0
M  V30 6891 H 649.033 5.4036 -3.71068 0
M  V30 6892 H 648.553 5.64913 -2.01578 0
M  V30 6893 H 650.232 5.95738 -2.52399 0
M  V30 6894 N 650.364 0.662433 1.43002 0
M  V30 6895 C 651.312 -0.035345 2.32573 0
M  V30 6896 C 652.306 -0.803505 1.49131 0
M  V30 6897 O 653.512 -0.712865 1.65282 0
M  V30 6898 H 649.887 -0.0302194 0.751393 0
M  V30 6899 H 651.858 0.737686 2.89138 0
M  V30 6900 C 650.607 -0.981575 3.33557 0
M  V30 6901 H 649.93 -0.399914 3.97795 0
M  V30 6902 H 651.37 -1.43873 3.98844 0
M  V30 6903 C 649.829 -2.08204 2.64863 0
M  V30 6904 O 650.359 -3.16698 2.47113 0
M  V30 6905 N 648.565 -1.85022 2.24088 0
M  V30 6906 H 648.112 -0.967909 2.38724 0
M  V30 6907 H 648.07 -2.58845 1.78457 0
M  V30 6908 N 651.842 -1.52309 0.404946 0
M  V30 6909 C 652.772 -2.29805 -0.41376 0
M  V30 6910 C 653.753 -1.3384 -1.0498 0
M  V30 6911 O 654.938 -1.62745 -1.05961 0
M  V30 6912 C 652.068 -3.11639 -1.53292 0
M  V30 6913 C 651.022 -4.15616 -1.02211 0
M  V30 6914 C 650.348 -4.8577 -2.23455 0
M  V30 6915 C 651.648 -5.2224 -0.0790725 0
M  V30 6916 H 653.342 -2.98493 0.232878 0
M  V30 6917 H 650.888 -1.43552 0.113441 0
M  V30 6918 H 652.841 -3.64618 -2.11262 0
M  V30 6919 H 651.565 -2.40712 -2.20738 0
M  V30 6920 H 650.224 -3.63641 -0.46484 0
M  V30 6921 H 649.872 -4.11376 -2.89445 0
M  V30 6922 H 649.572 -5.56058 -1.89929 0
M  V30 6923 H 651.096 -5.4156 -2.82038 0
M  V30 6924 H 652.51 -5.70485 -0.567438 0
M  V30 6925 H 650.907 -5.99867 0.167167 0
M  V30 6926 H 651.977 -4.77078 0.867447 0
M  V30 6927 N 653.32 -0.135238 -1.57019 0
M  V30 6928 C 654.567 0.518794 -1.95742 0
M  V30 6929 C 654.895 1.65642 -1.01947 0
M  V30 6930 O 654.15 1.95645 -0.0464016 0
M  V30 6931 C 654.449 1.07694 -3.40788 0
M  V30 6932 C 654.115 0.058992 -4.50861 0
M  V30 6933 C 652.777 -0.220872 -4.80693 0
M  V30 6934 C 655.129 -0.633856 -5.17331 0
M  V30 6935 C 652.457 -1.19959 -5.74305 0
M  V30 6936 C 654.809 -1.60131 -6.11997 0
M  V30 6937 C 653.473 -1.889 -6.40213 0
M  V30 6938 H 652.743 0.18984 -0.716269 0
M  V30 6939 H 655.39 -0.219581 -1.90237 0
M  V30 6940 H 653.695 1.89241 -3.43067 0
M  V30 6941 H 655.392 1.59137 -3.68071 0
M  V30 6942 H 651.982 0.287304 -4.27636 0
M  V30 6943 H 656.166 -0.430823 -4.94427 0
M  V30 6944 H 651.422 -1.42905 -5.94465 0
M  V30 6945 H 655.596 -2.14376 -6.62583 0
M  V30 6946 H 653.223 -2.64891 -7.12556 0
M  V30 6947 N 654.798 1.5699 0.138552 0
M  V30 6948 C 655.748 1.9532 1.17619 0
M  V30 6949 C 656.732 0.825545 1.38107 0
M  V30 6950 O 657.924 1.08908 1.39528 0
M  V30 6951 C 655.053 2.34451 2.50774 0
M  V30 6952 C 654.139 3.53805 2.33844 0
M  V30 6953 N 654.53 4.70088 1.86685 0
M  V30 6954 C 652.828 3.59055 2.64567 0
M  V30 6955 C 653.529 5.52165 1.82998 0
M  V30 6956 N 652.505 4.94108 2.26624 0
M  V30 6957 H 656.307 2.82694 0.803809 0
M  V30 6958 H 653.821 1.5866 0.346519 0
M  V30 6959 H 655.818 2.60119 3.25797 0
M  V30 6960 H 654.478 1.48431 2.88788 0
M  V30 6961 H 655.489 4.93681 1.56523 0
M  V30 6962 H 652.166 2.83596 3.06398 0
M  V30 6963 H 653.556 6.55407 1.47957 0
M  V30 6964 N 656.276 -0.40816 1.52223 0
M  V30 6965 C 657.501 -1.18127 1.70472 0
M  V30 6966 C 657.926 -1.83491 0.41384 0
M  V30 6967 O 657.284 -1.70047 -0.628778 0
M  V30 6968 C 657.332 -2.21935 2.84213 0
M  V30 6969 O 656.436 -3.28099 2.4985 0
M  V30 6970 H 655.777 -0.344781 0.56747 0
M  V30 6971 H 658.307 -0.478328 1.9893 0
M  V30 6972 H 658.317 -2.66248 3.09153 0
M  V30 6973 H 656.992 -1.73744 3.7787 0
M  V30 6974 H 655.569 -2.89058 2.35584 0
M  V30 6975 N 657.755 -1.42862 -0.66545 0
M  V30 6976 C 659.004 -1.43119 -1.42126 0
M  V30 6977 C 659.317 -0.0545297 -1.95524 0
M  V30 6978 O 660.523 0.0654747 -2.71421 0
M  V30 6979 C 658.979 -2.51797 -2.5715 0
M  V30 6980 C 658.587 -3.95514 -2.10411 0
M  V30 6981 C 660.331 -2.61233 -3.346 0
M  V30 6982 C 658.238 -4.95682 -3.22573 0
M  V30 6983 H 657.168 -0.532349 -0.533966 0
M  V30 6984 H 659.819 -1.68806 -0.719506 0
M  V30 6985 H 658.201 -2.19292 -3.29738 0
M  V30 6986 H 659.375 -4.3742 -1.44915 0
M  V30 6987 H 657.69 -3.90012 -1.45874 0
M  V30 6988 H 660.287 -3.33248 -4.18151 0
M  V30 6989 H 660.63 -1.65896 -3.81817 0
M  V30 6990 H 661.163 -2.9298 -2.69087 0
M  V30 6991 H 657.902 -5.92529 -2.80338 0
M  V30 6992 H 657.422 -4.58399 -3.86821 0
M  V30 6993 H 659.101 -5.17828 -3.87896 0
M  V30 6994 N 659.233 0.902656 -1.29189 0
M  V30 6995 C 660.644 1.46809 -1.15343 0
M  V30 6996 C 660.995 1.94568 0.252517 0
M  V30 6997 O 660.12 1.83454 1.14777 0
M  V30 6998 C 660.715 2.66829 -2.08776 0
M  V30 6999 C 659.274 3.19518 -1.98961 0
M  V30 7000 C 658.421 1.92212 -1.99874 0
M  V30 7001 H 661.372 0.714282 -1.41717 0
M  V30 7002 H 661.393 3.42465 -1.65826 0
M  V30 7003 H 660.905 2.32039 -3.11094 0
M  V30 7004 H 659.006 3.59008 -0.99721 0
M  V30 7005 H 659.119 3.84016 -2.86477 0
M  V30 7006 H 657.483 2.0979 -1.44431 0
M  V30 7007 H 658.266 1.59702 -3.03891 0
M  V30 7008 N 660.711 1.11618 1.11262 0
M  V30 7009 C 661.659 0.771291 2.1944 0
M  V30 7010 C 662.653 -0.238073 1.67719 0
M  V30 7011 O 663.859 -0.0971628 1.79738 0
M  V30 7012 H 660.234 0.231548 0.715465 0
M  V30 7013 H 662.205 1.69226 2.45775 0
M  V30 7014 C 660.954 0.232765 3.4692 0
M  V30 7015 H 660.277 1.00072 3.87073 0
M  V30 7016 H 661.717 0.0296561 4.2399 0
M  V30 7017 C 660.176 -1.03738 3.20531 0
M  V30 7018 O 660.706 -2.11675 3.41404 0
M  V30 7019 N 658.912 -0.960906 2.74253 0
M  V30 7020 H 658.459 -0.0824323 2.57468 0
M  V30 7021 H 658.417 -1.8114 2.56974 0
M  V30 7022 N 662.189 -1.289 0.906776 0
M  V30 7023 C 663.435 -1.95558 0.53712 0
M  V30 7024 C 663.768 -1.71262 -0.915582 0
M  V30 7025 O 663.043 -1.02961 -1.65013 0
M  V30 7026 C 663.326 -3.50198 0.838645 0
M  V30 7027 C 663.179 -3.83923 2.34357 0
M  V30 7028 C 664.498 -4.38861 0.329988 0
M  V30 7029 H 661.617 -0.710289 0.196617 0
M  V30 7030 H 664.259 -1.52392 1.13475 0
M  V30 7031 H 662.409 -3.87096 0.330024 0
M  V30 7032 H 664.081 -3.56933 2.92227 0
M  V30 7033 H 662.324 -3.31215 2.80141 0
M  V30 7034 H 662.995 -4.91883 2.5051 0
M  V30 7035 H 665.471 -4.08996 0.765609 0
M  V30 7036 H 664.347 -5.45931 0.570105 0
M  V30 7037 H 664.608 -4.35352 -0.769511 0
M  V30 7038 N 663.667 -0.670007 -1.42649 0
M  V30 7039 C 665.078 -0.268118 -1.84765 0
M  V30 7040 C 665.429 1.18877 -1.56086 0
M  V30 7041 O 664.554 1.90947 -1.01825 0
M  V30 7042 C 665.149 -0.47984 -3.35385 0
M  V30 7043 C 663.708 -0.132116 -3.76168 0
M  V30 7044 C 662.855 -0.774611 -2.66261 0
M  V30 7045 H 665.806 -0.872509 -1.32563 0
M  V30 7046 H 665.827 0.269522 -3.79544 0
M  V30 7047 H 665.339 -1.54026 -3.56227 0
M  V30 7048 H 663.44 0.92505 -3.60934 0
M  V30 7049 H 663.553 -0.569294 -4.75706 0
M  V30 7050 H 661.917 -0.206353 -2.53863 0
M  V30 7051 H 662.7 -1.83839 -2.89928 0
M  V30 7052 N 665.145 1.52092 -0.413018 0
M  V30 7053 C 666.561 1.59471 -0.0640836 0
M  V30 7054 C 666.761 1.42562 1.42402 0
M  V30 7055 O 665.817 1.25453 2.19129 0
M  V30 7056 C 667.13 2.95392 -0.562474 0
M  V30 7057 C 668.678 3.08637 -0.520788 0
M  V30 7058 C 669.153 4.47044 -0.995752 0
M  V30 7059 N 670.644 4.53296 -0.952732 0
M  V30 7060 C 671.379 5.58669 -1.29138 0
M  V30 7061 N 670.875 6.71576 -1.70168 0
M  V30 7062 N 672.668 5.48898 -1.2111 0
M  V30 7063 H 664.819 1.6133 -1.38153 0
M  V30 7064 H 667.082 0.75916 -0.567785 0
M  V30 7065 H 666.788 3.13059 -1.60271 0
M  V30 7066 H 666.662 3.77191 0.0257875 0
M  V30 7067 H 669.049 2.90652 0.510412 0
M  V30 7068 H 669.13 2.28735 -1.14515 0
M  V30 7069 H 668.774 4.65773 -2.0253 0
M  V30 7070 H 668.704 5.25448 -0.348162 0
M  V30 7071 H 671.195 3.72248 -0.651119 0
M  V30 7072 H 671.508 7.47973 -1.9431 0
M  V30 7073 H 669.853 6.72847 -1.74075 0
M  V30 7074 H 673.044 4.59573 -0.889396 0
M  V30 7075 H 673.217 6.30912 -1.47833 0
M  V30 7076 N 666.623 0.143563 1.56945 0
M  V30 7077 C 667.851 -0.515447 2.00377 0
M  V30 7078 C 668.266 -1.58643 1.02361 0
M  V30 7079 O 667.623 -1.82489 0.0201039 0
M  V30 7080 C 667.674 -1.11923 3.43737 0
M  V30 7081 O 667.395 -0.0910318 4.38005 0
M  V30 7082 C 668.896 -1.85918 4.02429 0
M  V30 7083 H 666.116 -0.134478 0.657386 0
M  V30 7084 H 668.66 0.237135 2.0312 0
M  V30 7085 H 666.815 -1.82245 3.41856 0
M  V30 7086 H 667.229 -0.532916 5.21786 0
M  V30 7087 H 668.703 -2.2346 5.04747 0
M  V30 7088 H 669.18 -2.7438 3.42947 0
M  V30 7089 H 669.786 -1.20303 4.07931 0
M  V30 7090 N 668.101 -1.57061 -0.130224 0
M  V30 7091 C 669.048 -1.99517 -1.16024 0
M  V30 7092 C 670.018 -0.865452 -1.41771 0
M  V30 7093 O 671.203 -1.12882 -1.53826 0
M  V30 7094 C 668.343 -2.3951 -2.48453 0
M  V30 7095 C 667.456 -3.65848 -2.29737 0
M  V30 7096 C 666.591 -3.9487 -3.55318 0
M  V30 7097 C 665.63 -5.14426 -3.31711 0
M  V30 7098 N 664.767 -5.39375 -4.49466 0
M  V30 7099 H 669.607 -2.87305 -0.791194 0
M  V30 7100 H 667.144 -1.42129 -0.379195 0
M  V30 7101 H 669.102 -2.60731 -3.25692 0
M  V30 7102 H 667.732 -1.54779 -2.83272 0
M  V30 7103 H 666.784 -3.52307 -1.4347 0
M  V30 7104 H 668.096 -4.53241 -2.08263 0
M  V30 7105 H 667.25 -4.16679 -4.4098 0
M  V30 7106 H 665.989 -3.05931 -3.79813 0
M  V30 7107 H 664.994 -4.92473 -2.44439 0
M  V30 7108 H 666.219 -6.04933 -3.08598 0
M  V30 7109 H 664.165 -4.53391 -4.74102 0
M  V30 7110 H 664.082 -6.21069 -4.31055 0
M  V30 7111 H 665.35 -5.65694 -5.36293 0
M  V30 7112 N 669.579 0.400081 -1.52437 0
M  V30 7113 C 670.489 1.51253 -1.79331 0
M  V30 7114 C 671.505 1.60188 -0.679396 0
M  V30 7115 O 672.681 1.76733 -0.965791 0
M  V30 7116 C 669.746 2.869 -1.94652 0
M  V30 7117 C 668.807 2.87777 -3.18564 0
M  V30 7118 C 668.04 4.16954 -3.33145 0
M  V30 7119 O 668.263 5.11329 -2.52783 0
M  V30 7120 O 667.197 4.2487 -4.26343 0
M  V30 7121 H 671.023 1.31461 -2.73773 0
M  V30 7122 H 668.608 0.586834 -1.37392 0
M  V30 7123 H 670.49 3.67336 -2.065 0
M  V30 7124 H 669.165 3.06741 -1.034 0
M  V30 7125 H 668.072 2.06162 -3.12167 0
M  V30 7126 H 669.405 2.72886 -4.09627 0
M  V30 7127 N 671.057 1.43213 0.657864 0
M  V30 7128 C 672.02 1.47687 1.75275 0
M  V30 7129 C 673.02 0.362179 1.56668 0
M  V30 7130 O 674.21 0.623734 1.62651 0
M  V30 7131 C 671.342 1.32497 3.14098 0
M  V30 7132 H 672.535 2.4519 1.7269 0
M  V30 7133 H 670.088 1.2991 0.869087 0
M  V30 7134 H 670.823 0.359831 3.22298 0
M  V30 7135 H 670.608 2.13299 3.29008 0
M  V30 7136 H 672.098 1.38549 3.93946 0
M  V30 7137 N 672.536 -0.895792 1.29666 0
M  V30 7138 C 673.466 -2.01673 1.17688 0
M  V30 7139 C 674.447 -1.69955 0.0701317 0
M  V30 7140 O 675.632 -1.9258 0.250289 0
M  V30 7141 C 672.762 -3.36568 0.856681 0
M  V30 7142 C 671.716 -3.82509 1.92017 0
M  V30 7143 C 671.042 -5.14574 1.4532 0
M  V30 7144 C 672.342 -4.02409 3.32963 0
M  V30 7145 H 674.036 -2.11953 2.11463 0
M  V30 7146 H 671.582 -1.01839 1.01807 0
M  V30 7147 H 673.535 -4.14498 0.759577 0
M  V30 7148 H 672.259 -3.26391 -0.116763 0
M  V30 7149 H 670.918 -3.068 2.00673 0
M  V30 7150 H 670.566 -5.00815 0.468325 0
M  V30 7151 H 670.266 -5.46283 2.16447 0
M  V30 7152 H 671.79 -5.9504 1.36968 0
M  V30 7153 H 673.204 -4.70808 3.27127 0
M  V30 7154 H 671.601 -4.45478 4.02082 0
M  V30 7155 H 672.671 -3.06616 3.75652 0
M  V30 7156 N 674.014 -1.12206 -1.10668 0
M  V30 7157 C 674.961 -0.787716 -2.16942 0
M  V30 7158 C 675.931 0.244442 -1.64291 0
M  V30 7159 O 677.116 0.119558 -1.90425 0
M  V30 7160 C 674.256 -0.24584 -3.44223 0
M  V30 7161 C 673.369 -1.33552 -4.10838 0
M  V30 7162 C 672.504 -0.753337 -5.25831 0
M  V30 7163 C 671.543 -1.82231 -5.84344 0
M  V30 7164 N 670.68 -1.25902 -6.90719 0
M  V30 7165 H 675.52 -1.69809 -2.44885 0
M  V30 7166 H 673.057 -0.847862 -1.20207 0
M  V30 7167 H 675.015 0.0863639 -4.17111 0
M  V30 7168 H 673.645 0.627702 -3.16638 0
M  V30 7169 H 672.697 -1.78454 -3.35944 0
M  V30 7170 H 674.009 -2.14396 -4.50373 0
M  V30 7171 H 673.163 -0.37166 -6.05561 0
M  V30 7172 H 671.902 0.0863297 -4.87624 0
M  V30 7173 H 670.907 -2.2132 -5.03287 0
M  V30 7174 H 672.132 -2.66515 -6.24617 0
M  V30 7175 H 670.078 -0.44114 -6.54515 0
M  V30 7176 H 669.995 -2.00408 -7.28953 0
M  V30 7177 H 671.263 -0.904498 -7.74235 0
M  V30 7178 N 675.492 1.28418 -0.913599 0
M  V30 7179 C 676.44 2.29272 -0.392037 0
M  V30 7180 C 677.434 1.61344 0.516198 0
M  V30 7181 O 678.64 1.75557 0.39746 0
M  V30 7182 H 675.015 0.744178 -0.108178 0
M  V30 7183 H 676.986 2.70691 -1.25574 0
M  V30 7184 C 675.735 3.45905 0.352815 0
M  V30 7185 H 675.058 3.98378 -0.336848 0
M  V30 7186 H 676.498 4.18473 0.682398 0
M  V30 7187 C 674.957 2.98572 1.56065 0
M  V30 7188 O 675.487 3.01033 2.65974 0
M  V30 7189 N 673.693 2.54235 1.40759 0
M  V30 7190 H 673.24 2.52432 0.513403 0
M  V30 7191 H 673.198 2.22925 2.21702 0
M  V30 7192 N 676.97 0.677563 1.42291 0
M  V30 7193 C 677.9 0.014968 2.33495 0
M  V30 7194 C 678.881 -0.786376 1.50831 0
M  V30 7195 O 680.066 -0.742975 1.79426 0
M  V30 7196 C 677.196 -0.935023 3.34477 0
M  V30 7197 C 676.15 -0.242074 4.27315 0
M  V30 7198 C 675.476 -1.30519 5.18526 0
M  V30 7199 C 676.776 0.880604 5.14823 0
M  V30 7200 H 678.47 0.776671 2.89151 0
M  V30 7201 H 676.016 0.37494 1.39033 0
M  V30 7202 H 677.969 -1.40766 3.97194 0
M  V30 7203 H 676.693 -1.72818 2.77131 0
M  V30 7204 H 675.352 0.210351 3.65996 0
M  V30 7205 H 675 -2.09041 4.57505 0
M  V30 7206 H 674.7 -0.846652 5.81468 0
M  V30 7207 H 676.224 -1.7787 5.84119 0
M  V30 7208 H 677.638 0.489062 5.7121 0
M  V30 7209 H 676.035 1.26511 5.86613 0
M  V30 7210 H 677.105 1.72818 4.53059 0
M  V30 7211 N 678.448 -1.51871 0.421078 0
M  V30 7212 C 679.725 -1.9447 -0.20993 0
M  V30 7213 C 680.105 -1.35875 -1.61558 0
M  V30 7214 O 679.453 -0.539294 -2.22045 0
M  V30 7215 C 679.663 -3.48402 -0.204165 0
M  V30 7216 C 681.011 -4.2254 -0.417696 0
M  V30 7217 O 682.035 -3.55074 -0.282999 0
M  V30 7218 O 680.894 -5.422 -0.684239 0
M  V30 7219 H 677.988 -0.815283 -0.138718 0
M  V30 7220 H 680.534 -1.62832 0.477884 0
M  V30 7221 H 679.306 -3.83464 0.779183 0
M  V30 7222 H 678.929 -3.86436 -0.935576 0
M  V30 7223 N 679.926 -0.151884 -1.56866 0
M  V30 7224 C 680.856 0.781943 -2.20018 0
M  V30 7225 C 681.837 1.25347 -1.14987 0
M  V30 7226 O 683.022 1.31015 -1.43348 0
M  V30 7227 C 680.152 2.01928 -2.82564 0
M  V30 7228 C 679.106 1.68434 -3.93464 0
M  V30 7229 C 678.432 2.99472 -4.42968 0
M  V30 7230 C 679.732 0.927244 -5.14003 0
M  V30 7231 H 681.426 0.255607 -2.98307 0
M  V30 7232 H 678.972 0.121502 -1.43486 0
M  V30 7233 H 680.925 2.67741 -3.25411 0
M  V30 7234 H 679.649 2.56943 -2.01614 0
M  V30 7235 H 678.308 1.04998 -3.51242 0
M  V30 7236 H 677.956 3.52488 -3.58834 0
M  V30 7237 H 677.656 2.77823 -5.17772 0
M  V30 7238 H 679.18 3.66348 -4.88489 0
M  V30 7239 H 680.594 1.48756 -5.53665 0
M  V30 7240 H 678.991 0.810513 -5.94601 0
M  V30 7241 H 680.061 -0.0801163 -4.84834 0
M  V30 7242 N 681.404 1.57128 0.121893 0
M  V30 7243 C 682.634 1.88609 0.843227 0
M  V30 7244 C 683.042 0.740917 1.74089 0
M  V30 7245 O 682.385 -0.297426 1.81276 0
M  V30 7246 C 682.447 3.15073 1.73117 0
M  V30 7247 C 682.111 4.45742 1.0081 0
M  V30 7248 C 683.108 5.18719 0.350255 0
M  V30 7249 C 680.793 4.92444 0.99014 0
M  V30 7250 C 682.787 6.36617 -0.315889 0
M  V30 7251 C 680.474 6.10261 0.320196 0
M  V30 7252 C 681.472 6.82194 -0.331666 0
M  V30 7253 O 681.16 7.97769 -0.990927 0
M  V30 7254 H 680.892 0.628919 0.247865 0
M  V30 7255 H 683.446 2.05096 0.111725 0
M  V30 7256 H 681.676 2.9466 2.50424 0
M  V30 7257 H 683.365 3.32597 2.32667 0
M  V30 7258 H 684.131 4.83693 0.35577 0
M  V30 7259 H 680.01 4.36361 1.48695 0
M  V30 7260 H 683.554 6.92701 -0.825272 0
M  V30 7261 H 679.451 6.44743 0.312433 0
M  V30 7262 H 680.219 8.13591 -0.895113 0
M  V30 7263 N 682.882 -0.391992 1.52647 0
M  V30 7264 C 684.128 -1.139 1.67793 0
M  V30 7265 C 684.461 -1.89711 0.41514 0
M  V30 7266 O 683.736 -1.85431 -0.586979 0
M  V30 7267 C 684.019 -2.11966 2.91105 0
M  V30 7268 C 683.872 -1.39939 4.27478 0
M  V30 7269 C 685.191 -3.1243 3.09961 0
M  V30 7270 H 682.31 -0.412707 0.610608 0
M  V30 7271 H 684.952 -0.422725 1.85238 0
M  V30 7272 H 683.102 -2.73048 2.76364 0
M  V30 7273 H 684.774 -0.818439 4.53982 0
M  V30 7274 H 683.017 -0.701246 4.28095 0
M  V30 7275 H 683.688 -2.1158 5.09841 0
M  V30 7276 H 686.164 -2.61435 3.23714 0
M  V30 7277 H 685.04 -3.78294 3.97725 0
M  V30 7278 H 685.301 -3.81127 2.24042 0
M  V30 7279 N 684.36 -1.4356 -0.65026 0
M  V30 7280 C 685.323 -1.48615 -1.74489 0
M  V30 7281 C 686.323 -0.370483 -1.56474 0
M  V30 7282 O 687.513 -0.632351 -1.62317 0
M  V30 7283 C 684.645 -1.34161 -3.13391 0
M  V30 7284 H 685.838 -2.46103 -1.71387 0
M  V30 7285 H 683.391 -1.30369 -0.862186 0
M  V30 7286 H 684.126 -0.376918 -3.22102 0
M  V30 7287 H 683.911 -2.1504 -3.27872 0
M  V30 7288 H 685.401 -1.40637 -3.93206 0
M  V30 7289 N 685.838 0.888903 -1.30139 0
M  V30 7290 C 687.087 1.63507 -1.18103 0
M  V30 7291 C 687.4 1.93808 0.264141 0
M  V30 7292 O 688.606 2.66744 0.505966 0
M  V30 7293 C 687.062 2.94673 -2.0663 0
M  V30 7294 C 686.67 2.71926 -3.56034 0
M  V30 7295 C 688.414 3.72626 -2.03346 0
M  V30 7296 C 686.321 3.98884 -4.3663 0
M  V30 7297 H 685.251 0.613426 -0.438435 0
M  V30 7298 H 687.902 0.984427 -1.54859 0
M  V30 7299 H 686.284 3.61009 -1.62754 0
M  V30 7300 H 687.458 2.14116 -4.08033 0
M  V30 7301 H 685.773 2.07353 -3.61101 0
M  V30 7302 H 688.37 4.66775 -2.60816 0
M  V30 7303 H 688.713 4.03712 -1.016 0
M  V30 7304 H 689.246 3.13147 -2.45324 0
M  V30 7305 H 685.985 3.72959 -5.39056 0
M  V30 7306 H 685.505 4.56214 -3.89396 0
M  V30 7307 H 687.184 4.66938 -4.47859 0
M  V30 7308 N 687.317 1.12792 1.10072 0
M  V30 7309 C 688.594 0.796867 1.78632 0
M  V30 7310 C 688.974 -0.712739 1.98704 0
M  V30 7311 O 688.322 -1.64773 1.5831 0
M  V30 7312 C 688.532 1.57622 3.11378 0
M  V30 7313 C 689.88 1.76463 3.86194 0
M  V30 7314 O 690.904 1.54165 3.2111 0
M  V30 7315 O 689.763 2.13623 5.03018 0
M  V30 7316 H 686.857 0.290248 0.774394 0
M  V30 7317 H 689.403 1.23215 1.16688 0
M  V30 7318 H 688.175 2.60246 2.92212 0
M  V30 7319 H 687.798 1.13543 3.81043 0
M  V30 7320 N 688.795 -1.27931 0.920396 0
M  V30 7321 C 690.041 -1.94977 0.557832 0
M  V30 7322 C 690.374 -1.72224 -0.897365 0
M  V30 7323 O 689.649 -1.04705 -1.63912 0
M  V30 7324 C 689.932 -3.49289 0.875741 0
M  V30 7325 C 689.785 -3.81416 2.38416 0
M  V30 7326 C 691.104 -4.38486 0.376517 0
M  V30 7327 H 688.223 -0.708164 0.20414 0
M  V30 7328 H 690.865 -1.5118 1.15085 0
M  V30 7329 H 689.015 -3.86724 0.371062 0
M  V30 7330 H 690.687 -3.53813 2.95997 0
M  V30 7331 H 688.93 -3.28225 2.83639 0
M  V30 7332 H 689.601 -4.89198 2.55713 0
M  V30 7333 H 692.077 -4.08161 0.808945 0
M  V30 7334 H 690.953 -5.45296 0.627976 0
M  V30 7335 H 691.214 -4.36143 -0.723293 0
M  V30 7336 N 690.273 -0.685099 -1.4193 0
M  V30 7337 C 691.203 -0.0273506 -2.33484 0
M  V30 7338 C 692.184 0.778366 -1.51246 0
M  V30 7339 O 693.369 0.733449 -1.79817 0
M  V30 7340 C 690.499 0.917272 -3.34968 0
M  V30 7341 C 689.453 0.21941 -4.27437 0
M  V30 7342 C 688.779 1.27768 -5.1921 0
M  V30 7343 C 690.079 -0.907894 -5.14349 0
M  V30 7344 H 691.773 -0.791994 -2.88735 0
M  V30 7345 H 689.319 -0.382308 -1.38832 0
M  V30 7346 H 691.272 1.38657 -3.97935 0
M  V30 7347 H 689.996 1.71346 -2.78043 0
M  V30 7348 H 688.655 -0.229757 -3.65879 0
M  V30 7349 H 688.303 2.06612 -4.58607 0
M  V30 7350 H 688.003 0.815803 -5.81909 0
M  V30 7351 H 689.527 1.7477 -5.85054 0
M  V30 7352 H 690.941 -0.519348 -5.70943 0
M  V30 7353 H 689.338 -1.2962 -5.85934 0
M  V30 7354 H 690.408 -1.75218 -4.52136 0
M  V30 7355 N 691.751 1.51645 -0.429126 0
M  V30 7356 C 693.162 1.86665 0.0359003 0
M  V30 7357 C 693.513 1.34677 1.42676 0
M  V30 7358 O 692.638 0.694195 2.04963 0
M  V30 7359 C 693.233 3.38724 0.0719221 0
M  V30 7360 C 691.792 3.7331 0.481336 0
M  V30 7361 C 690.939 2.75313 -0.331329 0
M  V30 7362 H 693.89 1.44987 -0.645333 0
M  V30 7363 H 693.911 3.7011 0.883118 0
M  V30 7364 H 693.423 3.76532 -0.940495 0
M  V30 7365 H 691.524 3.41088 1.49966 0
M  V30 7366 H 691.637 4.78631 0.211837 0
M  V30 7367 H 690.001 2.53839 0.209204 0
M  V30 7368 H 690.784 3.15963 -1.34247 0
M  V30 7369 N 693.229 0.160201 1.56784 0
M  V30 7370 C 694.161 -0.80564 2.14574 0
M  V30 7371 C 695.174 -1.20154 1.09849 0
M  V30 7372 O 696.363 -1.14333 1.37078 0
M  V30 7373 C 693.463 -2.09434 2.6644 0
M  V30 7374 C 692.636 -1.86375 3.95706 0
M  V30 7375 C 691.695 -2.99358 4.32749 0
M  V30 7376 O 690.721 -2.70475 5.00831 0
M  V30 7377 N 691.923 -4.26867 3.93402 0
M  V30 7378 H 694.688 -0.311644 2.98075 0
M  V30 7379 H 692.249 -0.0229465 1.61884 0
M  V30 7380 H 694.241 -2.84091 2.88226 0
M  V30 7381 H 692.811 -2.50057 1.8759 0
M  V30 7382 H 692.031 -0.956821 3.82412 0
M  V30 7383 H 693.319 -1.68322 4.80151 0
M  V30 7384 H 692.717 -4.53197 3.38569 0
M  V30 7385 H 691.274 -4.98263 4.20211 0
M  V30 7386 N 694.707 -1.5719 -0.113559 0
M  V30 7387 C 695.617 -2.04041 -1.15777 0
M  V30 7388 C 696.633 -0.961812 -1.45001 0
M  V30 7389 O 697.809 -1.2737 -1.56009 0
M  V30 7390 C 694.874 -2.43994 -2.46308 0
M  V30 7391 C 693.935 -3.65962 -2.24433 0
M  V30 7392 C 693.168 -4.04 -3.4874 0
M  V30 7393 O 693.391 -3.42321 -4.56259 0
M  V30 7394 O 692.325 -4.97069 -3.3942 0
M  V30 7395 H 696.151 -2.93248 -0.789899 0
M  V30 7396 H 693.736 -1.45828 -0.324748 0
M  V30 7397 H 695.618 -2.70401 -3.23204 0
M  V30 7398 H 694.293 -1.57932 -2.82558 0
M  V30 7399 H 693.2 -3.44697 -1.45377 0
M  V30 7400 H 694.533 -4.52746 -1.93084 0
M  V30 7401 N 696.185 0.383891 -1.52853 0
M  V30 7402 C 697.135 1.46892 -1.74375 0
M  V30 7403 C 698.119 1.49378 -0.597909 0
M  V30 7404 O 699.311 1.54929 -0.855929 0
M  V30 7405 C 696.44 2.84547 -1.92063 0
M  V30 7406 C 695.526 2.8661 -3.12594 0
M  V30 7407 N 695.917 2.58339 -4.3485 0
M  V30 7408 C 694.215 3.17777 -3.12944 0
M  V30 7409 C 694.916 2.67616 -5.16485 0
M  V30 7410 N 693.892 3.01561 -4.52285 0
M  V30 7411 H 697.694 1.23869 -2.66522 0
M  V30 7412 H 695.208 0.591895 -1.51229 0
M  V30 7413 H 697.205 3.62674 -2.05604 0
M  V30 7414 H 695.865 3.08549 -1.01133 0
M  V30 7415 H 696.876 2.32266 -4.62896 0
M  V30 7416 H 693.553 3.47211 -2.31842 0
M  V30 7417 H 694.943 2.4926 -6.23955 0
M  V30 7418 N 697.663 1.43903 0.642637 0
M  V30 7419 C 698.909 1.46296 1.40447 0
M  V30 7420 C 699.242 0.0908361 1.93987 0
M  V30 7421 O 698.517 -0.889884 1.72949 0
M  V30 7422 C 698.8 2.51399 2.57819 0
M  V30 7423 C 698.653 3.97926 2.09702 0
M  V30 7424 C 699.972 2.53125 3.60022 0
M  V30 7425 H 697.091 0.532676 0.509338 0
M  V30 7426 H 699.733 1.75515 0.727635 0
M  V30 7427 H 697.883 2.26614 3.1556 0
M  V30 7428 H 699.555 4.33804 1.5688 0
M  V30 7429 H 697.798 4.10252 1.40982 0
M  V30 7430 H 698.469 4.67096 2.94152 0
M  V30 7431 H 700.945 2.75242 3.12059 0
M  V30 7432 H 699.821 3.28589 4.39682 0
M  V30 7433 H 700.082 1.56895 4.13324 0
M  V30 7434 N 699.141 -0.881989 1.30609 0
M  V30 7435 C 700.074 -1.99066 1.11571 0
M  V30 7436 C 701.052 -1.62584 0.022516 0
M  V30 7437 O 702.236 -1.87671 0.176644 0
M  V30 7438 C 699.363 -3.3134 0.702237 0
M  V30 7439 C 698.409 -3.86807 1.79673 0
M  V30 7440 S 699.242 -4.13735 3.39976 0
M  V30 7441 C 700.398 -5.49024 3.00538 0
M  V30 7442 H 700.631 -2.1491 2.05429 0
M  V30 7443 H 698.164 -1.03074 1.14957 0
M  V30 7444 H 700.122 -4.07796 0.470415 0
M  V30 7445 H 698.783 -3.13349 -0.217034 0
M  V30 7446 H 697.976 -4.82397 1.45977 0
M  V30 7447 H 697.578 -3.17102 1.98298 0
M  V30 7448 H 699.87 -6.30208 2.48684 0
M  V30 7449 H 700.813 -5.8766 3.95046 0
M  V30 7450 H 701.221 -5.11726 2.3832 0
M  V30 7451 N 700.619 -1.13374 -1.09472 0
M  V30 7452 C 701.865 -0.906459 -1.82085 0
M  V30 7453 C 702.22 0.5614 -1.84027 0
M  V30 7454 O 701.513 1.41012 -1.29716 0
M  V30 7455 C 701.707 -1.42759 -3.2765 0
M  V30 7456 C 701.536 -2.94459 -3.39888 0
M  V30 7457 C 700.306 -3.62798 -3.51718 0
M  V30 7458 C 702.504 -3.92398 -3.32457 0
M  V30 7459 N 700.486 -5.02516 -3.52635 0
M  V30 7460 C 701.857 -5.18304 -3.40237 0
M  V30 7461 C 703.912 -3.84671 -3.16122 0
M  V30 7462 C 702.615 -6.37386 -3.33364 0
M  V30 7463 C 704.641 -5.03287 -3.10574 0
M  V30 7464 C 704.003 -6.28055 -3.18945 0
M  V30 7465 H 700.102 -0.385097 -0.680606 0
M  V30 7466 H 702.686 -1.44187 -1.30836 0
M  V30 7467 H 700.857 -0.919102 -3.77369 0
M  V30 7468 H 702.589 -1.14136 -3.88272 0
M  V30 7469 H 699.344 -3.13317 -3.55147 0
M  V30 7470 H 699.768 -5.75421 -3.56679 0
M  V30 7471 H 704.41 -2.89094 -3.0852 0
M  V30 7472 H 702.128 -7.33219 -3.3973 0
M  V30 7473 H 705.714 -4.99047 -2.9907 0
M  V30 7474 H 704.594 -7.18299 -3.14668 0
M  V30 7475 N 702.098 1.27442 -0.927168 0
M  V30 7476 C 703.061 2.2512 -0.430525 0
M  V30 7477 C 704.061 1.54357 0.450619 0
M  V30 7478 O 705.251 1.72371 0.251774 0
M  V30 7479 C 702.383 3.38763 0.381144 0
M  V30 7480 H 703.576 2.70569 -1.29354 0
M  V30 7481 H 701.129 1.39355 -0.707806 0
M  V30 7482 H 701.864 2.98695 1.263 0
M  V30 7483 H 701.649 3.91298 -0.250618 0
M  V30 7484 H 703.139 4.11364 0.719012 0
M  V30 7485 N 703.576 0.692616 1.41565 0
M  V30 7486 C 704.853 0.150496 1.9502 0
M  V30 7487 C 705.233 -1.33881 1.63215 0
M  V30 7488 O 704.581 -2.08378 0.937598 0
M  V30 7489 C 704.791 0.438636 3.46233 0
M  V30 7490 C 706.139 0.364777 4.2303 0
M  V30 7491 O 707.163 0.373383 3.54238 0
M  V30 7492 O 706.022 0.32234 5.45549 0
M  V30 7493 H 703.116 0.0132454 0.826894 0
M  V30 7494 H 705.662 0.768574 1.51298 0
M  V30 7495 H 704.434 1.46962 3.62654 0
M  V30 7496 H 704.057 -0.210562 3.97042 0
M  V30 7497 N 705.054 -1.51416 0.437162 0
M  V30 7498 C 706.3 -2.02386 -0.129555 0
M  V30 7499 C 706.633 -1.32071 -1.42376 0
M  V30 7500 O 705.908 -0.43559 -1.8956 0
M  V30 7501 C 706.191 -3.5841 -0.348487 0
M  V30 7502 C 706.044 -4.39341 0.964352 0
M  V30 7503 C 707.363 -4.25654 -1.11834 0
M  V30 7504 H 704.482 -0.735587 -0.0456109 0
M  V30 7505 H 707.124 -1.81055 0.576124 0
M  V30 7506 H 705.274 -3.76716 -0.949592 0
M  V30 7507 H 706.946 -4.32685 1.59942 0
M  V30 7508 H 705.189 -4.04432 1.56898 0
M  V30 7509 H 705.86 -5.4667 0.765212 0
M  V30 7510 H 708.336 -4.11617 -0.609165 0
M  V30 7511 H 707.212 -5.34704 -1.24029 0
M  V30 7512 H 707.473 -3.86502 -2.14636 0
M  V30 7513 N 706.532 -0.168513 -1.56696 0
M  V30 7514 C 707.781 0.477233 -1.95973 0
M  V30 7515 C 708.094 1.64578 -1.05704 0
M  V30 7516 O 709.3 2.35758 -1.3465 0
M  V30 7517 C 707.756 0.900413 -3.48455 0
M  V30 7518 C 707.364 -0.242382 -4.47344 0
M  V30 7519 C 709.108 1.51474 -3.96555 0
M  V30 7520 C 707.015 0.200272 -5.91061 0
M  V30 7521 H 705.945 0.182061 -0.73169 0
M  V30 7522 H 708.596 -0.256297 -1.81701 0
M  V30 7523 H 706.978 1.68984 -3.58135 0
M  V30 7524 H 708.152 -1.01967 -4.49377 0
M  V30 7525 H 706.467 -0.766484 -4.09285 0
M  V30 7526 H 709.064 1.85792 -5.01384 0
M  V30 7527 H 709.407 2.41163 -3.39332 0
M  V30 7528 H 709.94 0.789802 -3.89881 0
M  V30 7529 H 706.679 -0.661775 -6.52151 0
M  V30 7530 H 706.199 0.942979 -5.92341 0
M  V30 7531 H 707.878 0.645088 -6.43776 0
M  V30 7532 N 708.01 1.57248 0.105221 0
M  V30 7533 C 708.94 2.04374 1.12931 0
M  V30 7534 C 709.921 0.93074 1.42377 0
M  V30 7535 O 711.106 1.20136 1.52581 0
M  V30 7536 C 708.236 2.45967 2.45189 0
M  V30 7537 C 707.19 3.60838 2.30174 0
M  V30 7538 C 706.516 3.88374 3.67518 0
M  V30 7539 C 707.816 4.92084 1.75073 0
M  V30 7540 H 709.51 2.9018 0.737287 0
M  V30 7541 H 707.056 1.39601 0.353211 0
M  V30 7542 H 709.009 2.77542 3.17094 0
M  V30 7543 H 707.733 1.57148 2.86308 0
M  V30 7544 H 706.392 3.29493 1.60716 0
M  V30 7545 H 706.04 2.96739 4.06147 0
M  V30 7546 H 705.74 4.65703 3.58321 0
M  V30 7547 H 707.264 4.22415 4.40906 0
M  V30 7548 H 708.678 5.22106 2.36809 0
M  V30 7549 H 707.075 5.73507 1.76662 0
M  V30 7550 H 708.145 4.79684 0.709347 0
M  V30 7551 N 709.488 -0.375779 1.53054 0
M  V30 7552 C 710.899 -0.95309 1.6054 0
M  V30 7553 C 711.25 -1.90575 0.466446 0
M  V30 7554 O 710.375 -2.12507 -0.408609 0
M  V30 7555 C 710.97 -1.73537 2.90982 0
M  V30 7556 C 709.529 -2.26218 3.00836 0
M  V30 7557 C 708.676 -1.07157 2.55759 0
M  V30 7558 H 711.627 -0.154895 1.57942 0
M  V30 7559 H 711.648 -2.59574 2.78211 0
M  V30 7560 H 711.16 -1.04176 3.73857 0
M  V30 7561 H 709.261 -2.98852 2.22527 0
M  V30 7562 H 709.374 -2.54799 4.05727 0
M  V30 7563 H 707.738 -1.43553 2.10391 0
M  V30 7564 H 708.521 -0.393099 3.41042 0
M  V30 7565 N 710.966 -1.44241 -0.634997 0
M  V30 7566 C 711.876 -1.53293 -1.77591 0
M  V30 7567 C 712.892 -0.418831 -1.68884 0
M  V30 7568 O 714.068 -0.675619 -1.8973 0
M  V30 7569 C 711.133 -1.47075 -3.13958 0
M  V30 7570 C 710.194 -2.69304 -3.34326 0
M  V30 7571 C 709.427 -2.63374 -4.64187 0
M  V30 7572 O 709.65 -1.69161 -5.44739 0
M  V30 7573 O 708.584 -3.54166 -4.86673 0
M  V30 7574 H 712.41 -2.49673 -1.72908 0
M  V30 7575 H 709.995 -1.26445 -0.795745 0
M  V30 7576 H 711.877 -1.46117 -3.95257 0
M  V30 7577 H 710.552 -0.538373 -3.19192 0
M  V30 7578 H 709.459 -2.75831 -2.52721 0
M  V30 7579 H 710.792 -3.61576 -3.33951 0
M  V30 7580 N 712.444 0.87505 -1.31075 0
M  V30 7581 C 713.407 1.96333 -1.18263 0
M  V30 7582 C 714.407 1.60416 -0.111106 0
M  V30 7583 O 715.597 1.7044 -0.359987 0
M  V30 7584 C 712.729 3.31036 -0.81414 0
M  V30 7585 H 713.922 2.09125 -2.14958 0
M  V30 7586 H 711.475 1.06271 -1.14614 0
M  V30 7587 H 712.21 3.23944 0.151875 0
M  V30 7588 H 711.995 3.58476 -1.58862 0
M  V30 7589 H 713.485 4.10842 -0.748249 0
M  V30 7590 N 713.922 1.13953 1.08869 0
M  V30 7591 C 715.15 0.92817 1.84912 0
M  V30 7592 C 715.565 -0.523197 1.81406 0
M  V30 7593 O 714.922 -1.36237 1.21432 0
M  V30 7594 C 714.973 1.41509 3.32652 0
M  V30 7595 O 714.694 2.80959 3.36145 0
M  V30 7596 C 716.195 1.243 4.25517 0
M  V30 7597 H 713.415 0.330612 0.583898 0
M  V30 7598 H 715.959 1.51349 1.37527 0
M  V30 7599 H 714.114 0.872648 3.77444 0
M  V30 7600 H 714.528 3.02704 4.28335 0
M  V30 7601 H 716.002 1.63237 5.27312 0
M  V30 7602 H 716.479 0.18532 4.38809 0
M  V30 7603 H 717.085 1.77375 3.86546 0
M  V30 7604 N 715.4 -1.26948 0.933913 0
M  V30 7605 C 716.63 -1.97898 0.593279 0
M  V30 7606 C 717.038 -1.69806 -0.834412 0
M  V30 7607 O 716.381 -0.958704 -1.56699 0
M  V30 7608 C 716.443 -3.51657 0.746825 0
M  V30 7609 C 716.107 -4.03384 2.14779 0
M  V30 7610 C 717.104 -4.15682 3.12257 0
M  V30 7611 C 714.789 -4.37577 2.46641 0
M  V30 7612 C 716.783 -4.61455 4.39702 0
M  V30 7613 C 714.47 -4.8304 3.7432 0
M  V30 7614 C 715.468 -4.94939 4.70664 0
M  V30 7615 O 715.156 -5.39403 5.96071 0
M  V30 7616 H 714.888 -0.63814 0.223055 0
M  V30 7617 H 717.442 -1.62608 1.2549 0
M  V30 7618 H 715.672 -3.8669 0.0280889 0
M  V30 7619 H 717.361 -4.03821 0.410328 0
M  V30 7620 H 718.127 -3.89519 2.88964 0
M  V30 7621 H 714.006 -4.27554 1.72391 0
M  V30 7622 H 717.55 -4.70658 5.14905 0
M  V30 7623 H 713.447 -5.08646 3.97429 0
M  V30 7624 H 714.215 -5.57641 5.99148 0
M  V30 7625 N 716.879 -0.700114 -1.41195 0
M  V30 7626 C 717.809 -0.0521132 -2.33442 0
M  V30 7627 C 718.79 0.76228 -1.52063 0
M  V30 7628 O 719.975 0.714336 -1.80585 0
M  V30 7629 C 717.105 0.881693 -3.35922 0
M  V30 7630 C 716.059 0.174062 -4.27646 0
M  V30 7631 C 715.385 1.22254 -5.20536 0
M  V30 7632 C 716.685 -0.962396 -5.13357 0
M  V30 7633 H 718.379 -0.822574 -2.87879 0
M  V30 7634 H 715.925 -0.397011 -1.38419 0
M  V30 7635 H 717.878 1.34429 -3.99383 0
M  V30 7636 H 716.602 1.68387 -2.79845 0
M  V30 7637 H 715.261 -0.268551 -3.65615 0
M  V30 7638 H 714.909 2.01736 -4.60773 0
M  V30 7639 H 714.609 0.754038 -5.82742 0
M  V30 7640 H 716.133 1.68555 -5.86874 0
M  V30 7641 H 717.547 -0.579875 -5.7036 0
M  V30 7642 H 715.944 -1.35828 -5.84526 0
M  V30 7643 H 717.014 -1.80003 -4.50252 0
M  V30 7644 N 718.357 1.51182 -0.445186 0
M  V30 7645 C 719.267 2.31692 0.368255 0
M  V30 7646 C 720.283 1.40942 1.02036 0
M  V30 7647 O 721.459 1.74011 1.01401 0
M  V30 7648 C 718.524 3.14903 1.45041 0
M  V30 7649 C 717.585 4.21442 0.817615 0
M  V30 7650 C 716.818 5.00677 1.8482 0
M  V30 7651 O 717.041 4.80644 3.07145 0
M  V30 7652 O 715.975 5.84559 1.43438 0
M  V30 7653 H 719.801 3.0232 -0.289219 0
M  V30 7654 H 717.386 1.47951 -0.207555 0
M  V30 7655 H 719.268 3.66612 2.07783 0
M  V30 7656 H 717.943 2.47031 2.09182 0
M  V30 7657 H 716.85 3.73791 0.151931 0
M  V30 7658 H 718.183 4.9171 0.219564 0
M  V30 7659 N 719.835 0.176821 1.56605 0
M  V30 7660 C 721.251 -0.179278 1.5859 0
M  V30 7661 C 721.451 -1.62433 1.19238 0
M  V30 7662 O 720.507 -2.35665 0.906552 0
M  V30 7663 C 721.82 0.106524 3.00511 0
M  V30 7664 C 723.368 0.0451731 3.12967 0
M  V30 7665 C 723.843 0.304038 4.5699 0
M  V30 7666 N 725.334 0.252008 4.62514 0
M  V30 7667 C 726.069 0.426404 5.71812 0
M  V30 7668 N 725.565 0.660155 6.89648 0
M  V30 7669 N 727.358 0.361926 5.60934 0
M  V30 7670 H 719.509 1.12001 1.8047 0
M  V30 7671 H 721.772 0.445679 0.836704 0
M  V30 7672 H 721.478 1.10778 3.33798 0
M  V30 7673 H 721.352 -0.599337 3.72408 0
M  V30 7674 H 723.739 -0.946662 2.79504 0
M  V30 7675 H 723.82 0.78383 2.43495 0
M  V30 7676 H 723.464 1.29311 4.91163 0
M  V30 7677 H 723.394 -0.455294 5.24628 0
M  V30 7678 H 725.885 0.0772102 3.77821 0
M  V30 7679 H 726.198 0.782529 7.68828 0
M  V30 7680 H 724.543 0.696835 6.91498 0
M  V30 7681 H 727.734 0.17986 4.67754 0
M  V30 7682 H 727.907 0.501263 6.46058 0
M  V30 7683 N 721.313 -1.57302 -0.09688 0
M  V30 7684 C 722.543 -1.89926 -0.813114 0
M  V30 7685 C 722.951 -0.76852 -1.72888 0
M  V30 7686 O 722.294 0.268549 -1.81726 0
M  V30 7687 C 722.356 -3.17787 -1.68082 0
M  V30 7688 C 722.02 -4.4729 -0.937061 0
M  V30 7689 C 723.017 -5.1921 -0.267687 0
M  V30 7690 C 720.702 -4.93957 -0.911671 0
M  V30 7691 C 722.696 -6.36034 0.417129 0
M  V30 7692 C 720.383 -6.10693 -0.223068 0
M  V30 7693 C 721.381 -6.8158 0.440155 0
M  V30 7694 O 721.069 -7.96092 1.11772 0
M  V30 7695 H 720.801 -0.632783 -0.237828 0
M  V30 7696 H 723.355 -2.05248 -0.0790818 0
M  V30 7697 H 721.585 -2.98607 -2.45705 0
M  V30 7698 H 723.274 -3.36257 -2.27346 0
M  V30 7699 H 724.04 -4.84198 -0.278774 0
M  V30 7700 H 719.919 -4.38671 -1.41734 0
M  V30 7701 H 723.463 -6.91301 0.93537 0
M  V30 7702 H 719.36 -6.45159 -0.209821 0
M  V30 7703 H 720.128 -8.12064 1.02443 0
M  V30 7704 N 722.791 0.367657 -1.53252 0
M  V30 7705 C 724.068 1.12606 -1.59935 0
M  V30 7706 C 724.448 2.07167 -0.405606 0
M  V30 7707 O 723.796 2.20364 0.604323 0
M  V30 7708 C 724.006 1.86699 -2.94863 0
M  V30 7709 C 725.354 2.41306 -3.49366 0
M  V30 7710 O 726.378 1.96828 -2.96879 0
M  V30 7711 O 725.237 3.2261 -4.41118 0
M  V30 7712 H 722.331 0.516438 -0.645926 0
M  V30 7713 H 724.877 0.371088 -1.65593 0
M  V30 7714 H 723.649 1.17674 -3.73187 0
M  V30 7715 H 723.272 2.6911 -2.92687 0
M  V30 7716 N 724.269 1.44576 0.627338 0
M  V30 7717 C 725.546 1.38033 1.38586 0
M  V30 7718 C 725.926 0.0409468 2.1106 0
M  V30 7719 O 725.274 -0.976582 2.0658 0
M  V30 7720 C 725.484 2.58102 2.34913 0
M  V30 7721 C 726.832 3.02332 2.98129 0
M  V30 7722 O 727.856 2.58334 2.45238 0
M  V30 7723 O 726.715 3.78628 3.94085 0
M  V30 7724 H 723.809 0.546801 0.620434 0
M  V30 7725 H 726.355 1.56672 0.652077 0
M  V30 7726 H 725.127 3.4719 1.80485 0
M  V30 7727 H 724.75 2.41696 3.15703 0
M  V30 7728 N 725.747 -0.868086 1.31537 0
M  V30 7729 C 726.994 -1.62127 1.2133 0
M  V30 7730 C 727.322 -1.93158 -0.2281 0
M  V30 7731 O 726.577 -1.5632 -1.1774 0
M  V30 7732 C 726.876 -2.95889 2.0046 0
M  V30 7733 C 726.542 -2.84343 3.49943 0
M  V30 7734 C 725.204 -2.80901 3.90702 0
M  V30 7735 C 727.556 -2.71243 4.45058 0
M  V30 7736 C 724.884 -2.6222 5.24841 0
M  V30 7737 C 727.236 -2.54098 5.79325 0
M  V30 7738 C 725.9 -2.4904 6.19302 0
M  V30 7739 H 725.17 -0.593265 0.443979 0
M  V30 7740 H 727.817 -1.00803 1.62822 0
M  V30 7741 H 726.122 -3.61259 1.51655 0
M  V30 7742 H 727.819 -3.53161 1.89942 0
M  V30 7743 H 724.409 -2.8784 3.17563 0
M  V30 7744 H 728.593 -2.72956 4.14498 0
M  V30 7745 H 723.849 -2.56731 5.54887 0
M  V30 7746 H 728.023 -2.42938 6.52652 0
M  V30 7747 H 725.65 -2.34324 7.23185 0
M  V30 7748 N 727.225 -1.14528 -1.08264 0
M  V30 7749 C 728.471 -0.91576 -1.80947 0
M  V30 7750 C 728.804 0.55623 -1.86064 0
M  V30 7751 O 728.079 1.41207 -1.33756 0
M  V30 7752 C 728.362 -1.51917 -3.26486 0
M  V30 7753 C 728.215 -3.06111 -3.2957 0
M  V30 7754 C 729.534 -1.19724 -4.23502 0
M  V30 7755 H 726.653 -0.334113 -0.656915 0
M  V30 7756 H 729.295 -1.41547 -1.26746 0
M  V30 7757 H 727.445 -1.0942 -3.72773 0
M  V30 7758 H 729.117 -3.57448 -2.91597 0
M  V30 7759 H 727.36 -3.40483 -2.688 0
M  V30 7760 H 728.031 -3.43438 -4.32151 0
M  V30 7761 H 730.507 -1.56467 -3.85561 0
M  V30 7762 H 729.383 -1.64575 -5.23647 0
M  V30 7763 H 729.644 -0.112771 -4.41956 0
M  V30 7764 N 728.703 1.26451 -0.940633 0
M  V30 7765 C 729.633 2.28773 -0.467479 0
M  V30 7766 C 730.614 1.63218 0.478955 0
M  V30 7767 O 731.799 1.90427 0.380929 0
M  V30 7768 C 728.929 3.46259 0.268656 0
M  V30 7769 C 727.883 4.23898 -0.591171 0
M  V30 7770 C 727.209 5.33993 0.274891 0
M  V30 7771 C 728.509 4.87974 -1.86223 0
M  V30 7772 H 730.203 2.68601 -1.32265 0
M  V30 7773 H 727.749 1.29123 -0.637436 0
M  V30 7774 H 729.702 4.16951 0.610696 0
M  V30 7775 H 728.426 3.05383 1.15796 0
M  V30 7776 H 727.085 3.54969 -0.916098 0
M  V30 7777 H 726.733 4.89358 1.16353 0
M  V30 7778 H 726.433 5.86849 -0.297006 0
M  V30 7779 H 727.957 6.07523 0.612213 0
M  V30 7780 H 729.371 5.50883 -1.58747 0
M  V30 7781 H 727.768 5.50945 -2.37866 0
M  V30 7782 H 728.838 4.10945 -2.57394 0
M  V30 7783 N 730.181 0.707592 1.40822 0
M  V30 7784 C 731.427 0.244031 2.01326 0
M  V30 7785 C 731.76 -1.15722 1.55955 0
M  V30 7786 O 731.035 -1.78347 0.776044 0
M  V30 7787 C 731.318 0.315128 3.58718 0
M  V30 7788 C 731.171 1.75419 4.14184 0
M  V30 7789 C 732.49 -0.318251 4.38948 0
M  V30 7790 H 729.609 0.0901471 0.731466 0
M  V30 7791 H 732.251 0.898584 1.67408 0
M  V30 7792 H 730.401 -0.242176 3.87744 0
M  V30 7793 H 732.073 2.36626 3.95987 0
M  V30 7794 H 730.316 2.28449 3.68773 0
M  V30 7795 H 730.987 1.75538 5.23345 0
M  V30 7796 H 733.463 0.156514 4.15806 0
M  V30 7797 H 732.339 -0.238019 5.48384 0
M  V30 7798 H 732.6 -1.40067 4.19325 0
M  V30 7799 N 731.66 -1.50943 0.453197 0
M  V30 7800 C 732.623 -2.26684 -0.338705 0
M  V30 7801 C 733.623 -1.30748 -0.936032 0
M  V30 7802 O 734.813 -1.54327 -0.808002 0
M  V30 7803 C 731.945 -3.07063 -1.48071 0
M  V30 7804 H 733.138 -2.98131 0.325289 0
M  V30 7805 H 730.691 -1.54926 0.206771 0
M  V30 7806 H 731.426 -2.4007 -2.18029 0
M  V30 7807 H 731.211 -3.77545 -1.0584 0
M  V30 7808 H 732.701 -3.64393 -2.0398 0
M  V30 7809 N 733.138 -0.185124 -1.56509 0
M  V30 7810 C 734.088 0.752315 -2.15231 0
M  V30 7811 C 735.072 1.18327 -1.0903 0
M  V30 7812 O 736.264 1.14333 -1.35119 0
M  V30 7813 C 733.393 1.97583 -2.80742 0
M  V30 7814 C 732.479 1.56623 -3.94119 0
M  V30 7815 N 732.87 0.867008 -4.98314 0
M  V30 7816 C 731.168 1.85626 -4.05535 0
M  V30 7817 C 731.869 0.663228 -5.77907 0
M  V30 7818 N 730.845 1.20891 -5.29987 0
M  V30 7819 H 734.647 0.209267 -2.93154 0
M  V30 7820 H 732.161 0.0150444 -1.62393 0
M  V30 7821 H 734.158 2.65779 -3.21197 0
M  V30 7822 H 732.818 2.52369 -2.04303 0
M  V30 7823 H 733.829 0.52355 -5.15247 0
M  V30 7824 H 730.506 2.41992 -3.40215 0
M  V30 7825 H 731.896 0.109273 -6.71811 0
M  V30 7826 N 734.616 1.57351 0.0885366 0
M  V30 7827 C 735.563 2.02523 1.10693 0
M  V30 7828 C 736.533 0.902736 1.39427 0
M  V30 7829 O 737.718 1.16921 1.50779 0
M  V30 7830 C 734.858 2.46013 2.42016 0
M  V30 7831 C 733.971 3.7181 2.19957 0
M  V30 7832 C 733.106 4.04152 3.44724 0
M  V30 7833 C 732.145 5.2304 3.17956 0
M  V30 7834 N 731.282 5.51102 4.35007 0
M  V30 7835 H 736.122 2.89302 0.714742 0
M  V30 7836 H 733.659 1.43084 0.341378 0
M  V30 7837 H 735.617 2.69274 3.18665 0
M  V30 7838 H 734.247 1.62235 2.79069 0
M  V30 7839 H 733.299 3.55987 1.34079 0
M  V30 7840 H 734.611 4.58604 1.96173 0
M  V30 7841 H 733.765 4.28225 4.29777 0
M  V30 7842 H 732.504 3.15893 3.71568 0
M  V30 7843 H 731.509 4.98781 2.31296 0
M  V30 7844 H 732.734 6.12902 2.92451 0
M  V30 7845 H 730.68 4.65802 4.61914 0
M  V30 7846 H 730.597 6.3228 4.14437 0
M  V30 7847 H 731.865 5.79714 5.21106 0
M  V30 7848 N 736.094 -0.359525 1.53444 0
M  V30 7849 C 737.322 -1.12198 1.73837 0
M  V30 7850 C 737.737 -1.82854 0.470107 0
M  V30 7851 O 737.094 -1.73781 -0.557349 0
M  V30 7852 C 737.145 -2.14769 2.90786 0
M  V30 7853 O 736.866 -1.46989 4.12706 0
M  V30 7854 C 738.367 -3.03514 3.231 0
M  V30 7855 H 735.587 -0.33524 0.581253 0
M  V30 7856 H 738.131 -0.416598 2.00212 0
M  V30 7857 H 736.286 -2.80896 2.66788 0
M  V30 7858 H 736.7 -2.15378 4.78239 0
M  V30 7859 H 738.174 -3.71453 4.08322 0
M  V30 7860 H 738.651 -3.68658 2.38721 0
M  V30 7861 H 739.257 -2.42996 3.49046 0
M  V30 7862 N 737.572 -1.44907 -0.619662 0
M  V30 7863 C 738.983 -1.42905 -1.20146 0
M  V30 7864 C 739.334 -0.150341 -1.95623 0
M  V30 7865 O 738.459 0.748732 -2.03034 0
M  V30 7866 C 739.054 -2.58889 -2.18545 0
M  V30 7867 C 737.613 -2.60046 -2.72127 0
M  V30 7868 C 736.76 -2.3493 -1.4732 0
M  V30 7869 H 739.711 -1.53321 -0.409666 0
M  V30 7870 H 739.732 -2.32298 -3.0136 0
M  V30 7871 H 739.244 -3.51941 -1.63583 0
M  V30 7872 H 737.345 -1.70968 -3.3106 0
M  V30 7873 H 737.458 -3.58893 -3.17384 0
M  V30 7874 H 735.822 -1.84248 -1.75855 0
M  V30 7875 H 736.605 -3.3011 -0.942442 0
M  V30 7876 N 739.05 0.861098 -1.31996 0
M  V30 7877 C 740.297 1.61481 -1.22188 0
M  V30 7878 C 740.625 1.93276 0.217853 0
M  V30 7879 O 739.88 1.56942 1.16909 0
M  V30 7880 C 740.179 2.94822 -2.02027 0
M  V30 7881 C 739.845 2.82483 -3.51446 0
M  V30 7882 C 738.507 2.78825 -3.92186 0
M  V30 7883 C 740.859 2.68878 -4.46491 0
M  V30 7884 C 738.187 2.59433 -5.26224 0
M  V30 7885 C 740.539 2.51022 -5.80664 0
M  V30 7886 C 739.203 2.45753 -6.20614 0
M  V30 7887 H 738.473 0.590902 -0.447119 0
M  V30 7888 H 741.12 0.999376 -1.63355 0
M  V30 7889 H 739.425 3.6045 -1.53569 0
M  V30 7890 H 741.122 3.52149 -1.91812 0
M  V30 7891 H 737.712 2.86152 -3.19085 0
M  V30 7892 H 741.896 2.70754 -4.1594 0
M  V30 7893 H 737.152 2.53784 -5.5624 0
M  V30 7894 H 741.326 2.39473 -6.53931 0
M  V30 7895 H 738.953 2.30485 -7.24417 0
M  V30 7896 N 740.528 1.15101 1.07655 0
M  V30 7897 C 741.777 0.918528 1.79572 0
M  V30 7898 C 742.09 -0.555922 1.87534 0
M  V30 7899 O 743.296 -0.905893 2.55941 0
M  V30 7900 C 741.752 1.59394 3.22679 0
M  V30 7901 C 741.36 3.1052 3.22927 0
M  V30 7902 C 743.104 1.44289 3.99225 0
M  V30 7903 C 741.011 3.70862 4.60668 0
M  V30 7904 H 739.941 0.340006 0.672987 0
M  V30 7905 H 742.592 1.38079 1.20857 0
M  V30 7906 H 740.974 1.05936 3.81567 0
M  V30 7907 H 742.148 3.70708 2.737 0
M  V30 7908 H 740.463 3.25351 2.59876 0
M  V30 7909 H 743.06 1.86766 5.01022 0
M  V30 7910 H 743.403 0.389975 4.14469 0
M  V30 7911 H 743.936 1.94826 3.46825 0
M  V30 7912 H 740.675 4.7604 4.50628 0
M  V30 7913 H 740.195 3.15456 5.10145 0
M  V30 7914 H 741.874 3.71607 5.29639 0
M  V30 7915 N 742.006 -1.2595 0.947325 0
M  V30 7916 C 742.938 -2.25336 0.41906 0
M  V30 7917 C 743.951 -1.56135 -0.461051 0
M  V30 7918 O 745.14 -1.76438 -0.270505 0
M  V30 7919 C 742.24 -3.36334 -0.416233 0
M  V30 7920 C 741.413 -4.35088 0.449162 0
M  V30 7921 C 740.472 -5.25185 -0.326716 0
M  V30 7922 O 739.498 -5.68548 0.272374 0
M  V30 7923 N 740.7 -5.57388 -1.6217 0
M  V30 7924 H 743.465 -2.71298 1.27348 0
M  V30 7925 H 741.026 -1.39781 0.81688 0
M  V30 7926 H 743.018 -3.93564 -0.942826 0
M  V30 7927 H 741.588 -2.89819 -1.17148 0
M  V30 7928 H 740.808 -3.76841 1.15692 0
M  V30 7929 H 742.096 -4.98056 1.04008 0
M  V30 7930 H 741.494 -5.2405 -2.13046 0
M  V30 7931 H 740.051 -6.17234 -2.0944 0
M  V30 7932 N 743.484 -0.715051 -1.40445 0
M  V30 7933 C 744.414 -0.0768699 -2.33373 0
M  V30 7934 C 745.395 0.746109 -1.52863 0
M  V30 7935 O 746.58 0.695142 -1.81332 0
M  V30 7936 C 743.71 0.846014 -3.36838 0
M  V30 7937 C 742.664 0.128694 -4.27806 0
M  V30 7938 C 741.99 1.16726 -5.21804 0
M  V30 7939 C 743.29 -1.01679 -5.12307 0
M  V30 7940 H 744.984 -0.853061 -2.8699 0
M  V30 7941 H 742.53 -0.41167 -1.3799 0
M  V30 7942 H 744.483 1.30185 -4.00786 0
M  V30 7943 H 743.207 1.6541 -2.81615 0
M  V30 7944 H 741.866 -0.307314 -3.6531 0
M  V30 7945 H 741.514 1.96838 -4.62887 0
M  V30 7946 H 741.214 0.692188 -5.83509 0
M  V30 7947 H 742.738 1.62321 -5.88629 0
M  V30 7948 H 744.152 -0.640337 -5.69713 0
M  V30 7949 H 742.549 -1.4202 -5.83053 0
M  V30 7950 H 743.619 -1.84769 -4.48317 0
M  V30 7951 N 744.962 1.50701 -0.461195 0
M  V30 7952 C 746.378 1.59187 -0.114786 0
M  V30 7953 C 746.578 1.4702 1.37794 0
M  V30 7954 O 745.634 1.32361 2.15027 0
M  V30 7955 C 746.947 2.93453 -0.656167 0
M  V30 7956 C 748.495 3.06824 -0.618715 0
M  V30 7957 C 748.97 4.4365 -1.13747 0
M  V30 7958 N 750.461 4.50035 -1.09646 0
M  V30 7959 C 751.196 5.54278 -1.46846 0
M  V30 7960 N 750.692 6.65822 -1.91448 0
M  V30 7961 N 752.485 5.44767 -1.38512 0
M  V30 7962 H 744.636 1.56853 -1.43216 0
M  V30 7963 H 746.899 0.740712 -0.59165 0
M  V30 7964 H 746.605 3.07802 -1.7015 0
M  V30 7965 H 746.479 3.77082 -0.0942261 0
M  V30 7966 H 748.866 2.92129 0.417685 0
M  V30 7967 H 748.947 2.24976 -1.21734 0
M  V30 7968 H 748.591 4.59093 -2.17245 0
M  V30 7969 H 748.521 5.24074 -0.515153 0
M  V30 7970 H 751.012 3.69988 -0.769217 0
M  V30 7971 H 751.325 7.41413 -2.18007 0
M  V30 7972 H 749.67 6.66968 -1.95393 0
M  V30 7973 H 752.861 4.56511 -1.03516 0
M  V30 7974 H 753.034 6.25889 -1.6783 0
M  V30 7975 N 746.441 0.193421 1.56409 0
M  V30 7976 C 747.669 -0.451438 2.01915 0
M  V30 7977 C 748.084 -1.55306 1.07357 0
M  V30 7978 O 747.441 -1.82333 0.0781512 0
M  V30 7979 C 747.492 -1.00931 3.47124 0
M  V30 7980 O 747.213 0.0483623 4.38073 0
M  V30 7981 C 748.714 -1.73021 4.0814 0
M  V30 7982 H 745.934 -0.113495 0.661332 0
M  V30 7983 H 748.478 0.301636 2.02263 0
M  V30 7984 H 746.633 -1.71277 3.47481 0
M  V30 7985 H 747.047 -0.366644 5.23217 0
M  V30 7986 H 748.521 -2.07289 5.11601 0
M  V30 7987 H 748.998 -2.6333 3.51502 0
M  V30 7988 H 749.604 -1.07264 4.11551 0
M  V30 7989 N 747.919 -1.57396 -0.0801906 0
M  V30 7990 C 749.33 -1.75642 -0.633002 0
M  V30 7991 C 749.681 -0.817708 -1.78348 0
M  V30 7992 O 748.806 0.000233743 -2.164 0
M  V30 7993 C 749.401 -3.18502 -1.15507 0
M  V30 7994 C 747.96 -3.38121 -1.65381 0
M  V30 7995 C 747.107 -2.71386 -0.569661 0
M  V30 7996 H 750.058 -1.58027 0.145949 0
M  V30 7997 H 750.079 -3.22198 -2.02408 0
M  V30 7998 H 749.591 -3.86799 -0.317515 0
M  V30 7999 H 747.692 -2.74926 -2.51488 0
M  V30 8000 H 747.805 -4.46521 -1.73654 0
M  V30 8001 H 746.169 -2.33702 -1.0127 0
M  V30 8002 H 746.952 -3.42332 0.257561 0
M  V30 8003 N 749.397 0.351382 -1.53633 0
M  V30 8004 C 750.36 1.41403 -1.80383 0
M  V30 8005 C 751.36 1.45963 -0.674635 0
M  V30 8006 O 752.55 1.46476 -0.942895 0
M  V30 8007 C 749.682 2.80401 -1.93876 0
M  V30 8008 H 750.875 1.18951 -2.75301 0
M  V30 8009 H 748.428 0.58533 -1.44926 0
M  V30 8010 H 749.163 3.08147 -1.01074 0
M  V30 8011 H 748.948 2.78488 -2.7602 0
M  V30 8012 H 750.438 3.57329 -2.16116 0
M  V30 8013 N 750.875 1.45233 0.611969 0
M  V30 8014 C 751.825 1.49997 1.71711 0
M  V30 8015 C 752.809 0.363689 1.56736 0
M  V30 8016 O 754.001 0.610261 1.66147 0
M  V30 8017 C 751.13 1.46537 3.10454 0
M  V30 8018 C 750.216 2.65351 3.30831 0
M  V30 8019 N 750.607 3.90485 3.21489 0
M  V30 8020 C 748.905 2.60955 3.61688 0
M  V30 8021 C 749.606 4.69758 3.43078 0
M  V30 8022 N 748.582 4.01141 3.66861 0
M  V30 8023 H 752.384 2.44574 1.62975 0
M  V30 8024 H 749.898 1.40464 0.815082 0
M  V30 8025 H 751.895 1.48035 3.89732 0
M  V30 8026 H 750.555 0.530139 3.20343 0
M  V30 8027 H 751.566 4.22171 2.99987 0
M  V30 8028 H 748.243 1.76319 3.78441 0
M  V30 8029 H 749.633 5.7877 3.41285 0
M  V30 8030 N 752.353 -0.854086 1.3245 0
M  V30 8031 C 753.263 -1.99503 1.23434 0
M  V30 8032 C 754.279 -1.73371 0.147828 0
M  V30 8033 O 755.455 -1.97998 0.368609 0
M  V30 8034 C 752.52 -3.33192 0.958328 0
M  V30 8035 C 751.581 -3.72542 2.13333 0
M  V30 8036 C 750.814 -4.99852 1.8704 0
M  V30 8037 O 751.037 -5.64573 0.813239 0
M  V30 8038 O 749.971 -5.36345 2.73161 0
M  V30 8039 H 753.797 -2.10046 2.1935 0
M  V30 8040 H 751.382 -0.984823 1.12346 0
M  V30 8041 H 753.264 -4.13327 0.820918 0
M  V30 8042 H 751.939 -3.23687 0.0293299 0
M  V30 8043 H 750.846 -2.92981 2.32622 0
M  V30 8044 H 752.179 -3.86694 3.04514 0
M  V30 8045 N 753.831 -1.1567 -1.07043 0
M  V30 8046 C 755.242 -0.942408 -1.61169 0
M  V30 8047 C 755.593 0.515537 -1.89306 0
M  V30 8048 O 754.718 1.38726 -1.66084 0
M  V30 8049 C 755.313 -1.70431 -2.92812 0
M  V30 8050 C 753.872 -1.53521 -3.43669 0
M  V30 8051 C 753.019 -1.7179 -2.17678 0
M  V30 8052 H 755.97 -1.3065 -0.9009 0
M  V30 8053 H 755.991 -1.17566 -3.61882 0
M  V30 8054 H 755.503 -2.76538 -2.72302 0
M  V30 8055 H 753.604 -0.498224 -3.69254 0
M  V30 8056 H 753.717 -2.31422 -4.19501 0
M  V30 8057 H 752.081 -1.14468 -2.27529 0
M  V30 8058 H 752.864 -2.79269 -1.99659 0
M  V30 8059 N 755.309 1.25446 -0.953992 0
M  V30 8060 C 756.239 2.28264 -0.491717 0
M  V30 8061 C 757.22 1.63717 0.461617 0
M  V30 8062 O 758.405 1.90821 0.36071 0
M  V30 8063 C 755.535 3.46525 0.231915 0
M  V30 8064 C 754.489 4.23247 -0.636098 0
M  V30 8065 C 753.815 5.34254 0.218238 0
M  V30 8066 C 755.115 4.85971 -1.91389 0
M  V30 8067 H 756.809 2.67183 -1.35106 0
M  V30 8068 H 754.355 1.2844 -0.651095 0
M  V30 8069 H 756.308 4.17576 0.566439 0
M  V30 8070 H 755.032 3.06594 1.12551 0
M  V30 8071 H 753.691 3.53978 -0.953696 0
M  V30 8072 H 753.339 4.90564 1.11156 0
M  V30 8073 H 753.039 5.86501 -0.359232 0
M  V30 8074 H 754.563 6.08138 0.547743 0
M  V30 8075 H 755.977 5.49168 -1.64581 0
M  V30 8076 H 754.374 5.48391 -2.43696 0
M  V30 8077 H 755.444 4.08192 -2.61738 0
M  V30 8078 N 756.787 0.722489 1.40064 0
M  V30 8079 C 758.034 0.264979 2.00759 0
M  V30 8080 C 758.362 -1.14395 1.57302 0
M  V30 8081 O 757.617 -1.79165 0.787298 0
M  V30 8082 C 757.916 0.300682 3.56133 0
M  V30 8083 C 757.582 1.66087 4.19197 0
M  V30 8084 C 756.244 2.03319 4.36136 0
M  V30 8085 C 758.596 2.55452 4.54306 0
M  V30 8086 C 755.924 3.29448 4.8547 0
M  V30 8087 C 758.276 3.8094 5.05042 0
M  V30 8088 C 756.94 4.1828 5.2019 0
M  V30 8089 H 756.21 0.0969625 0.734629 0
M  V30 8090 H 758.857 0.926877 1.67575 0
M  V30 8091 H 757.162 -0.44479 3.89267 0
M  V30 8092 H 758.859 -0.0712542 4.00937 0
M  V30 8093 H 755.449 1.36137 4.06405 0
M  V30 8094 H 759.633 2.27961 4.40849 0
M  V30 8095 H 754.889 3.58338 4.95382 0
M  V30 8096 H 759.063 4.50351 5.31184 0
M  V30 8097 H 756.69 5.16081 5.58179 0
M  V30 8098 N 758.265 -1.50454 0.469181 0
M  V30 8099 C 759.542 -1.9504 -0.147955 0
M  V30 8100 C 759.922 -1.40946 -1.57154 0
M  V30 8101 O 759.27 -0.609663 -2.20217 0
M  V30 8102 C 759.48 -3.48875 -0.0932198 0
M  V30 8103 C 760.828 -4.23655 -0.283056 0
M  V30 8104 O 761.852 -3.55795 -0.169892 0
M  V30 8105 O 760.711 -5.44102 -0.511396 0
M  V30 8106 H 757.805 -0.819283 -0.11271 0
M  V30 8107 H 760.351 -1.6123 0.529446 0
M  V30 8108 H 759.123 -3.80791 0.900784 0
M  V30 8109 H 758.746 -3.89217 -0.812161 0
M  V30 8110 N 759.743 -0.201713 -1.56304 0
M  V30 8111 C 760.971 0.440723 -2.02152 0
M  V30 8112 C 761.386 1.54735 -1.08179 0
M  V30 8113 O 760.743 1.82289 -0.0878196 0
M  V30 8114 C 760.794 0.990884 -3.47655 0
M  V30 8115 O 760.515 -0.0715937 -4.38041 0
M  V30 8116 C 762.016 1.70854 -4.09052 0
M  V30 8117 H 759.236 0.109987 -0.661924 0
M  V30 8118 H 761.78 -0.312358 -2.021 0
M  V30 8119 H 759.935 1.69432 -3.48384 0
M  V30 8120 H 760.349 0.338892 -5.23404 0
M  V30 8121 H 761.823 2.04572 -5.12693 0
M  V30 8122 H 762.3 2.61462 -3.52894 0
M  V30 8123 H 762.906 1.0508 -4.12114 0
M  V30 8124 N 761.222 1.57436 0.0718424 0
M  V30 8125 C 762.169 2.03686 1.08539 0
M  V30 8126 C 763.139 0.917474 1.38462 0
M  V30 8127 O 764.324 1.18513 1.4953 0
M  V30 8128 C 761.464 2.48566 2.39393 0
M  V30 8129 C 760.577 3.74122 2.16001 0
M  V30 8130 C 759.712 4.07786 3.40418 0
M  V30 8131 C 758.751 5.26383 3.1239 0
M  V30 8132 N 757.888 5.55685 4.29138 0
M  V30 8133 H 762.728 2.90043 0.684018 0
M  V30 8134 H 760.265 1.43438 0.326183 0
M  V30 8135 H 762.223 2.72639 3.15791 0
M  V30 8136 H 760.853 1.65186 2.77333 0
M  V30 8137 H 759.905 3.57389 1.30296 0
M  V30 8138 H 761.217 4.60659 1.91298 0
M  V30 8139 H 760.371 4.32759 4.25211 0
M  V30 8140 H 759.11 3.19817 3.68197 0
M  V30 8141 H 758.115 5.01206 2.25993 0
M  V30 8142 H 759.34 6.1597 2.85934 0
M  V30 8143 H 757.286 4.70675 4.56948 0
M  V30 8144 H 757.203 6.3664 4.07708 0
M  V30 8145 H 758.471 5.85209 5.14928 0
M  V30 8146 N 762.7 -0.34323 1.53817 0
M  V30 8147 C 764.111 -0.918823 1.62525 0
M  V30 8148 C 764.462 -1.89542 0.506765 0
M  V30 8149 O 763.587 -2.13326 -0.363441 0
M  V30 8150 C 764.182 -1.67326 2.94597 0
M  V30 8151 C 762.741 -2.19786 3.05567 0
M  V30 8152 C 761.888 -1.01708 2.57974 0
M  V30 8153 H 764.839 -0.121358 1.58235 0
M  V30 8154 H 764.86 -2.53615 2.83654 0
M  V30 8155 H 764.372 -0.962223 3.75983 0
M  V30 8156 H 762.473 -2.94065 2.28816 0
M  V30 8157 H 762.586 -2.46135 4.1104 0
M  V30 8158 H 760.95 -1.39058 2.13389 0
M  V30 8159 H 761.733 -0.320671 3.41799 0
M  V30 8160 N 764.178 -1.45556 -0.604258 0
M  V30 8161 C 765.426 -1.4945 -1.36048 0
M  V30 8162 C 765.747 -0.138933 -1.94504 0
M  V30 8163 O 765.017 0.832097 -1.7735 0
M  V30 8164 H 763.597 -0.550381 -0.505064 0
M  V30 8165 H 766.259 -1.81535 -0.709308 0
M  V30 8166 H 765.355 -2.23519 -2.17821 0
M  V30 8167 N 765.656 0.84705 -1.32902 0
M  V30 8168 C 766.902 1.60389 -1.25088 0
M  V30 8169 C 767.257 1.91521 0.183723 0
M  V30 8170 O 766.55 1.55197 1.12359 0
M  V30 8171 C 766.744 2.92663 -2.05142 0
M  V30 8172 C 766.573 2.74449 -3.56241 0
M  V30 8173 C 765.343 2.72434 -4.25567 0
M  V30 8174 C 767.541 2.47666 -4.5074 0
M  V30 8175 N 765.523 2.45512 -5.62669 0
M  V30 8176 C 766.894 2.30219 -5.75673 0
M  V30 8177 C 768.949 2.33196 -4.39914 0
M  V30 8178 C 767.652 1.99772 -6.91002 0
M  V30 8179 C 769.678 2.0414 -5.5505 0
M  V30 8180 C 769.04 1.875 -6.78987 0
M  V30 8181 H 765.139 0.590296 -0.512908 0
M  V30 8182 H 767.723 0.995058 -1.67352 0
M  V30 8183 H 765.894 3.51511 -1.65211 0
M  V30 8184 H 767.626 3.5777 -1.89163 0
M  V30 8185 H 764.381 2.85647 -3.7776 0
M  V30 8186 H 764.805 2.34958 -6.3492 0
M  V30 8187 H 769.447 2.44777 -3.44738 0
M  V30 8188 H 767.165 1.86928 -7.86183 0
M  V30 8189 H 770.751 1.93711 -5.48605 0
M  V30 8190 H 769.631 1.65339 -7.66572 0
M  V30 8191 N 767.134 1.16236 1.06428 0
M  V30 8192 C 768.38 0.954417 1.79617 0
M  V30 8193 C 768.735 -0.512411 1.85451 0
M  V30 8194 O 768.028 -1.37523 1.33409 0
M  V30 8195 C 768.222 1.51396 3.2375 0
M  V30 8196 C 768.051 3.03367 3.31962 0
M  V30 8197 C 766.821 3.71996 3.41975 0
M  V30 8198 C 769.019 4.01075 3.21937 0
M  V30 8199 N 767.001 5.11688 3.39187 0
M  V30 8200 C 768.372 5.27142 3.26376 0
M  V30 8201 C 770.427 3.92917 3.05812 0
M  V30 8202 C 769.13 6.46 3.16348 0
M  V30 8203 C 771.156 5.11344 2.97121 0
M  V30 8204 C 770.518 6.36291 3.02181 0
M  V30 8205 H 766.617 0.403007 0.670156 0
M  V30 8206 H 769.201 1.47605 1.26968 0
M  V30 8207 H 767.372 1.01883 3.74799 0
M  V30 8208 H 769.104 1.2439 3.85109 0
M  V30 8209 H 765.859 3.22623 3.46715 0
M  V30 8210 H 766.283 5.84676 3.41297 0
M  V30 8211 H 770.925 2.97172 3.00746 0
M  V30 8212 H 768.643 7.41968 3.2017 0
M  V30 8213 H 772.229 5.06801 2.85734 0
M  V30 8214 H 771.109 7.26389 2.95513 0
M  V30 8215 N 768.612 -1.24939 0.960631 0
M  V30 8216 C 769.861 -1.92118 0.614298 0
M  V30 8217 C 770.174 -1.75998 -0.853474 0
M  V30 8218 O 771.38 -2.37804 -1.31003 0
M  V30 8219 C 769.836 -3.44303 1.04801 0
M  V30 8220 C 769.444 -3.69123 2.53875 0
M  V30 8221 C 771.188 -4.17375 0.774497 0
M  V30 8222 C 769.095 -5.14843 2.91016 0
M  V30 8223 H 768.025 -0.719319 0.226045 0
M  V30 8224 H 770.676 -1.41701 1.16589 0
M  V30 8225 H 769.058 -3.93715 0.42479 0
M  V30 8226 H 770.232 -3.30339 3.21267 0
M  V30 8227 H 768.547 -3.09323 2.78762 0
M  V30 8228 H 771.144 -5.24723 1.02808 0
M  V30 8229 H 771.487 -4.15294 -0.289192 0
M  V30 8230 H 772.02 -3.7389 1.35835 0
M  V30 8231 H 768.759 -5.2204 3.96427 0
M  V30 8232 H 768.279 -5.54652 2.28302 0
M  V30 8233 H 769.958 -5.83017 2.80535 0
M  V30 8234 N 770.09 -0.729906 -1.39679 0
M  V30 8235 C 771.053 -0.0951668 -2.29002 0
M  V30 8236 C 772.053 0.672471 -1.46063 0
M  V30 8237 O 773.243 0.502245 -1.66803 0
M  V30 8238 C 770.375 0.874631 -3.29489 0
M  V30 8239 H 771.568 -0.882062 -2.86635 0
M  V30 8240 H 769.121 -0.495424 -1.4824 0
M  V30 8241 H 769.856 1.68807 -2.76902 0
M  V30 8242 H 769.641 0.326893 -3.90735 0
M  V30 8243 H 771.131 1.31548 -3.96339 0
M  V30 8244 N 771.568 1.50203 -0.477153 0
M  V30 8245 C 772.984 1.59056 -0.131663 0
M  V30 8246 C 773.184 1.48473 1.36227 0
M  V30 8247 O 772.24 1.34635 2.13611 0
M  V30 8248 C 773.553 2.92741 -0.687254 0
M  V30 8249 C 775.101 3.0615 -0.651223 0
M  V30 8250 C 775.576 4.42419 -1.18446 0
M  V30 8251 N 777.067 4.48847 -1.14413 0
M  V30 8252 C 777.802 5.52689 -1.52717 0
M  V30 8253 N 777.298 6.63754 -1.98499 0
M  V30 8254 N 779.091 5.43267 -1.44282 0
M  V30 8255 H 771.242 1.55325 -1.44872 0
M  V30 8256 H 773.505 0.734395 -0.599473 0
M  V30 8257 H 773.211 3.0598 -1.73405 0
M  V30 8258 H 773.085 3.76961 -0.134215 0
M  V30 8259 H 775.472 2.92556 0.386677 0
M  V30 8260 H 775.553 2.23673 -1.24114 0
M  V30 8261 H 775.197 4.56763 -2.22103 0
M  V30 8262 H 775.127 5.23498 -0.570709 0
M  V30 8263 H 777.618 3.69152 -0.808416 0
M  V30 8264 H 777.931 7.39059 -2.25859 0
M  V30 8265 H 776.276 6.64858 -2.02456 0
M  V30 8266 H 779.467 4.55387 -1.08352 0
M  V30 8267 H 779.64 6.24074 -1.74459 0
M  V30 8268 N 773.046 0.209999 1.56195 0
M  V30 8269 C 773.956 -0.716459 2.23392 0
M  V30 8270 C 774.972 -1.22291 1.23778 0
M  V30 8271 O 776.148 -1.26694 1.56558 0
M  V30 8272 C 773.213 -1.91261 2.89172 0
M  V30 8273 C 772.274 -1.44927 4.04097 0
M  V30 8274 C 771.507 -2.5884 4.66731 0
M  V30 8275 O 771.73 -3.76693 4.2832 0
M  V30 8276 O 770.664 -2.30701 5.55932 0
M  V30 8277 H 774.49 -0.174089 3.03201 0
M  V30 8278 H 772.075 -0.0199505 1.49387 0
M  V30 8279 H 773.957 -2.6114 3.30733 0
M  V30 8280 H 772.632 -2.4433 2.12331 0
M  V30 8281 H 771.539 -0.718839 3.67129 0
M  V30 8282 H 772.872 -0.965084 4.82646 0
M  V30 8283 N 774.524 -1.57472 -0.0634922 0
M  V30 8284 C 775.454 -2.07297 -1.07473 0
M  V30 8285 C 776.435 -0.968162 -1.39859 0
M  V30 8286 O 777.62 -1.24139 -1.49343 0
M  V30 8287 C 774.75 -2.52381 -2.38581 0
M  V30 8288 C 773.704 -3.66813 -2.20526 0
M  V30 8289 C 773.03 -3.97982 -3.57092 0
M  V30 8290 C 774.33 -4.96553 -1.61965 0
M  V30 8291 H 776.024 -2.92033 -0.660092 0
M  V30 8292 H 773.57 -1.40488 -0.316074 0
M  V30 8293 H 775.523 -2.85852 -3.09624 0
M  V30 8294 H 774.247 -1.64684 -2.8204 0
M  V30 8295 H 772.906 -3.33639 -1.51924 0
M  V30 8296 H 772.554 -3.07403 -3.98136 0
M  V30 8297 H 772.254 -4.7504 -3.45848 0
M  V30 8298 H 773.778 -4.33956 -4.29552 0
M  V30 8299 H 775.192 -5.28201 -2.22883 0
M  V30 8300 H 773.589 -5.7799 -1.61394 0
M  V30 8301 H 774.659 -4.81396 -0.581918 0
M  V30 8302 N 776.003 0.335068 -1.53997 0
M  V30 8303 C 777.251 1.07223 -1.71312 0
M  V30 8304 C 777.572 1.88911 -0.483486 0
M  V30 8305 O 776.842 1.89344 0.50257 0
M  V30 8306 H 775.422 0.398846 -0.63161 0
M  V30 8307 H 778.084 0.374288 -1.91272 0
M  V30 8308 H 777.18 1.7448 -2.58772 0
M  V30 8309 N 777.481 1.45874 0.596531 0
M  V30 8310 C 778.411 1.5824 1.71705 0
M  V30 8311 C 779.392 0.433366 1.64487 0
M  V30 8312 O 780.577 0.657895 1.82717 0
M  V30 8313 C 777.707 1.55927 3.10329 0
M  V30 8314 C 776.661 2.69659 3.32367 0
M  V30 8315 C 775.987 2.52403 4.71377 0
M  V30 8316 C 777.287 4.11591 3.21544 0
M  V30 8317 H 778.981 2.52035 1.61613 0
M  V30 8318 H 776.527 1.21297 0.776082 0
M  V30 8319 H 778.48 1.63173 3.88526 0
M  V30 8320 H 777.204 0.586674 3.21288 0
M  V30 8321 H 775.863 2.61859 2.56564 0
M  V30 8322 H 775.511 1.53258 4.79083 0
M  V30 8323 H 775.211 3.28679 4.87077 0
M  V30 8324 H 776.735 2.6152 5.5176 0
M  V30 8325 H 778.149 4.20576 3.89601 0
M  V30 8326 H 776.546 4.88344 3.4877 0
M  V30 8327 H 777.616 4.32719 2.1882 0
M  V30 8328 N 778.959 -0.83999 1.33349 0
M  V30 8329 C 780.375 -1.13049 1.12659 0
M  V30 8330 C 780.575 -2.01328 -0.0832613 0
M  V30 8331 O 779.631 -2.40669 -0.763856 0
M  V30 8332 C 780.944 -1.79366 2.41347 0
M  V30 8333 C 782.492 -1.91937 2.47243 0
M  V30 8334 C 782.967 -2.6167 3.75889 0
M  V30 8335 N 784.458 -2.69184 3.76954 0
M  V30 8336 C 785.193 -3.23827 4.73206 0
M  V30 8337 N 784.689 -3.79166 5.79832 0
M  V30 8338 N 786.482 -3.22068 4.60683 0
M  V30 8339 H 778.633 -0.252432 2.10895 0
M  V30 8340 H 780.896 -0.174501 0.931801 0
M  V30 8341 H 780.602 -1.2196 3.29877 0
M  V30 8342 H 780.476 -2.79396 2.53412 0
M  V30 8343 H 782.863 -2.48498 1.59163 0
M  V30 8344 H 782.944 -0.908604 2.39119 0
M  V30 8345 H 782.588 -2.05769 4.64351 0
M  V30 8346 H 782.518 -3.63217 3.81289 0
M  V30 8347 H 785.009 -2.2994 2.99893 0
M  V30 8348 H 785.322 -4.19061 6.49313 0
M  V30 8349 H 783.667 -3.77457 5.83568 0
M  V30 8350 H 786.858 -2.78092 3.7654 0
M  V30 8351 H 787.031 -3.64351 5.35866 0
M  V30 8352 N 780.437 -1.16799 -1.0581 0
M  V30 8353 C 781.367 -0.902241 -2.15364 0
M  V30 8354 C 782.348 0.153351 -1.69407 0
M  V30 8355 O 783.533 0.00442032 -1.94199 0
M  V30 8356 C 780.663 -0.407911 -3.44896 0
M  V30 8357 C 779.617 -1.40197 -4.04387 0
M  V30 8358 C 778.943 -0.765848 -5.29187 0
M  V30 8359 C 780.243 -2.77316 -4.42598 0
M  V30 8360 H 781.937 -1.81841 -2.37853 0
M  V30 8361 H 779.483 -0.875731 -1.14311 0
M  V30 8362 H 781.436 -0.20945 -4.20879 0
M  V30 8363 H 780.16 0.54378 -3.22041 0
M  V30 8364 H 778.819 -1.58707 -3.30466 0
M  V30 8365 H 778.467 0.192482 -5.02632 0
M  V30 8366 H 778.167 -1.42939 -5.69949 0
M  V30 8367 H 779.691 -0.577519 -6.07863 0
M  V30 8368 H 781.105 -2.62561 -5.09642 0
M  V30 8369 H 779.502 -3.4019 -4.94359 0
M  V30 8370 H 780.572 -3.32199 -3.53231 0
M  V30 8371 N 781.915 1.24427 -0.967243 0
M  V30 8372 C 783.163 1.92107 -0.627638 0
M  V30 8373 C 783.484 1.75991 0.83978 0
M  V30 8374 O 782.754 1.13118 1.59941 0
M  V30 8375 H 781.334 0.710986 -0.229145 0
M  V30 8376 H 783.996 1.51331 -1.22821 0
M  V30 8377 H 783.092 2.99791 -0.867844 0
M  V30 8378 N 783.393 0.737304 1.3929 0
M  V30 8379 C 784.323 0.113988 2.33222 0
M  V30 8380 C 785.304 -0.721695 1.54031 0
M  V30 8381 O 786.489 -0.666206 1.82415 0
M  V30 8382 C 783.619 -0.792319 3.38141 0
M  V30 8383 C 782.573 -0.0606178 4.27957 0
M  V30 8384 C 781.899 -1.08409 5.23595 0
M  V30 8385 C 783.199 1.09817 5.10625 0
M  V30 8386 H 784.893 0.898611 2.85596 0
M  V30 8387 H 782.439 0.433571 1.37318 0
M  V30 8388 H 784.392 -1.23793 4.02807 0
M  V30 8389 H 783.116 -1.60908 2.84211 0
M  V30 8390 H 781.775 0.365393 3.64775 0
M  V30 8391 H 781.423 -1.89449 4.6596 0
M  V30 8392 H 781.123 -0.599269 5.84536 0
M  V30 8393 H 782.647 -1.52936 5.91137 0
M  V30 8394 H 784.061 0.730892 5.68622 0
M  V30 8395 H 782.458 1.51278 5.80719 0
M  V30 8396 H 783.528 1.91878 4.45321 0
M  V30 8397 N 784.871 -1.49948 0.485112 0
M  V30 8398 C 785.781 -2.32587 -0.306697 0
M  V30 8399 C 786.797 -1.43598 -0.982632 0
M  V30 8400 O 787.973 -1.76638 -0.967519 0
M  V30 8401 C 785.038 -3.18638 -1.3664 0
M  V30 8402 C 784.099 -4.23462 -0.705589 0
M  V30 8403 C 783.332 -5.05401 -1.7148 0
M  V30 8404 O 783.555 -4.88618 -2.94293 0
M  V30 8405 O 782.489 -5.88157 -1.27889 0
M  V30 8406 H 786.315 -3.01447 0.369272 0
M  V30 8407 H 783.9 -1.47349 0.246709 0
M  V30 8408 H 785.782 -3.71992 -1.9799 0
M  V30 8409 H 784.457 -2.52491 -2.02559 0
M  V30 8410 H 783.364 -3.74063 -0.0527733 0
M  V30 8411 H 784.697 -4.92119 -0.0891187 0
M  V30 8412 N 786.349 -0.21828 -1.56081 0
M  V30 8413 C 787.281 0.725447 -2.17416 0
M  V30 8414 C 788.294 1.15995 -1.14233 0
M  V30 8415 O 789.483 1.09166 -1.41227 0
M  V30 8416 C 786.583 1.99401 -2.7403 0
M  V30 8417 C 785.756 1.7156 -4.02351 0
M  V30 8418 C 784.815 2.8309 -4.43561 0
M  V30 8419 O 783.841 2.51701 -5.10525 0
M  V30 8420 N 785.043 4.11972 -4.08973 0
M  V30 8421 H 787.808 0.200801 -2.99027 0
M  V30 8422 H 785.369 -0.0371514 -1.61857 0
M  V30 8423 H 787.361 2.73198 -2.98571 0
M  V30 8424 H 785.931 2.42923 -1.96742 0
M  V30 8425 H 785.151 0.814233 -3.85699 0
M  V30 8426 H 786.439 1.50385 -4.86068 0
M  V30 8427 H 785.837 4.40319 -3.55156 0
M  V30 8428 H 784.394 4.82323 -4.38415 0
M  V30 8429 N 787.827 1.57504 0.0551401 0
M  V30 8430 C 789.057 1.92015 0.762472 0
M  V30 8431 C 789.465 0.814088 1.7079 0
M  V30 8432 O 788.808 -0.220273 1.82375 0
M  V30 8433 C 788.87 3.22132 1.59598 0
M  V30 8434 C 788.534 4.49617 0.818141 0
M  V30 8435 C 789.531 5.19738 0.129933 0
M  V30 8436 C 787.216 4.96201 0.780387 0
M  V30 8437 C 789.21 6.34704 -0.585616 0
M  V30 8438 C 786.897 6.11069 0.0610756 0
M  V30 8439 C 787.895 6.80174 -0.62071 0
M  V30 8440 O 787.583 7.92849 -1.3284 0
M  V30 8441 H 787.315 0.638866 0.220967 0
M  V30 8442 H 789.869 2.05385 0.0246362 0
M  V30 8443 H 788.099 3.05016 2.37701 0
M  V30 8444 H 789.788 3.42166 2.18351 0
M  V30 8445 H 790.554 4.84767 0.150299 0
M  V30 8446 H 786.433 4.42275 1.30054 0
M  V30 8447 H 789.977 6.88578 -1.11833 0
M  V30 8448 H 785.874 6.45488 0.0386945 0
M  V30 8449 H 786.642 8.09062 -1.23938 0
M  V30 8450 N 789.305 -0.326896 1.54172 0
M  V30 8451 C 790.552 -1.06523 1.72218 0
M  V30 8452 C 790.88 -1.88119 0.494114 0
M  V30 8453 O 790.135 -1.8855 -0.524147 0
M  V30 8454 C 790.434 -2.0208 2.94785 0
M  V30 8455 C 790.1 -1.36665 4.2969 0
M  V30 8456 C 788.762 -1.18556 4.66367 0
M  V30 8457 C 791.114 -0.896868 5.13425 0
M  V30 8458 C 788.442 -0.521113 5.84381 0
M  V30 8459 C 790.794 -0.246261 6.3212 0
M  V30 8460 C 789.458 -0.052987 6.67479 0
M  V30 8461 H 788.728 -0.389796 0.63019 0
M  V30 8462 H 791.375 -0.342725 1.88408 0
M  V30 8463 H 789.68 -2.8077 2.73268 0
M  V30 8464 H 791.377 -2.59231 3.05941 0
M  V30 8465 H 787.967 -1.51762 4.00832 0
M  V30 8466 H 792.151 -1.02458 4.85609 0
M  V30 8467 H 787.407 -0.36014 6.10338 0
M  V30 8468 H 791.581 0.125775 6.96286 0
M  V30 8469 H 789.208 0.463903 7.58783 0
M  V30 8470 N 790.784 -1.46188 -0.588786 0
M  V30 8471 C 792.195 -1.45421 -1.17088 0
M  V30 8472 C 792.546 -0.191801 -1.9526 0
M  V30 8473 O 791.671 0.705497 -2.04577 0
M  V30 8474 C 792.266 -2.63467 -2.13004 0
M  V30 8475 C 790.825 -2.6576 -2.6655 0
M  V30 8476 C 789.972 -2.38002 -1.42304 0
M  V30 8477 H 792.923 -1.54156 -0.377052 0
M  V30 8478 H 792.944 -2.38638 -2.96365 0
M  V30 8479 H 792.456 -3.55331 -1.56081 0
M  V30 8480 H 790.557 -1.77952 -3.27359 0
M  V30 8481 H 790.67 -3.65545 -3.09699 0
M  V30 8482 H 789.034 -1.87936 -1.71907 0
M  V30 8483 H 789.817 -3.32035 -0.872209 0
M  V30 8484 N 792.262 0.832906 -1.33792 0
M  V30 8485 C 793.508 1.59053 -1.26782 0
M  V30 8486 C 793.863 1.91705 0.163399 0
M  V30 8487 O 793.156 1.5638 1.10706 0
M  V30 8488 C 793.35 2.9047 -2.08235 0
M  V30 8489 C 793.179 2.70656 -3.59132 0
M  V30 8490 C 791.949 2.67905 -4.28433 0
M  V30 8491 C 794.147 2.42871 -4.53341 0
M  V30 8492 N 792.129 2.39531 -5.65242 0
M  V30 8493 C 793.5 2.24101 -5.78082 0
M  V30 8494 C 795.555 2.28517 -4.42362 0
M  V30 8495 C 794.258 1.92432 -6.93082 0
M  V30 8496 C 796.284 1.98242 -5.57184 0
M  V30 8497 C 795.646 1.80288 -6.80937 0
M  V30 8498 H 791.745 0.584823 -0.51914 0
M  V30 8499 H 794.329 0.977252 -1.68398 0
M  V30 8500 H 792.5 3.49739 -1.6893 0
M  V30 8501 H 794.232 3.55744 -1.92947 0
M  V30 8502 H 790.987 2.81624 -3.80768 0
M  V30 8503 H 791.411 2.28211 -6.37377 0
M  V30 8504 H 796.053 2.41107 -3.47314 0
M  V30 8505 H 793.771 1.78579 -7.88121 0
M  V30 8506 H 797.357 1.87882 -5.50628 0
M  V30 8507 H 796.237 1.57199 -7.68283 0
M  V30 8508 N 793.74 1.17359 1.05189 0
M  V30 8509 C 794.687 0.890325 2.12936 0
M  V30 8510 C 795.657 -0.165779 1.65271 0
M  V30 8511 O 796.842 -0.0285672 1.90779 0
M  V30 8512 C 793.982 0.409793 3.42658 0
M  V30 8513 C 793.095 1.53002 4.03998 0
M  V30 8514 C 792.23 1.00336 5.21638 0
M  V30 8515 C 791.269 2.09903 5.74984 0
M  V30 8516 N 790.406 1.58714 6.83926 0
M  V30 8517 H 795.246 1.81299 2.36505 0
M  V30 8518 H 792.783 0.904249 1.16025 0
M  V30 8519 H 794.741 0.112743 4.17048 0
M  V30 8520 H 793.371 -0.475915 3.19272 0
M  V30 8521 H 792.423 1.9428 3.27047 0
M  V30 8522 H 793.735 2.3564 4.39631 0
M  V30 8523 H 792.889 0.660158 6.03098 0
M  V30 8524 H 791.628 0.14642 4.8748 0
M  V30 8525 H 790.633 2.45081 4.92154 0
M  V30 8526 H 791.858 2.96013 6.1119 0
M  V30 8527 H 789.804 0.752915 6.51665 0
M  V30 8528 H 789.721 2.34959 7.18561 0
M  V30 8529 H 790.989 1.27287 7.69037 0
M  V30 8530 N 795.218 -1.23913 0.973828 0
M  V30 8531 C 796.446 -1.96195 0.656891 0
M  V30 8532 C 796.861 -1.72166 -0.774876 0
M  V30 8533 O 796.218 -1.0091 -1.52064 0
M  V30 8534 C 796.269 -3.49342 0.929638 0
M  V30 8535 O 795.99 -3.72553 2.30512 0
M  V30 8536 C 797.491 -4.38833 0.627739 0
M  V30 8537 H 794.711 -0.624841 0.244572 0
M  V30 8538 H 797.255 -1.57579 1.30343 0
M  V30 8539 H 795.41 -3.85999 0.329216 0
M  V30 8540 H 795.824 -4.66893 2.3898 0
M  V30 8541 H 797.298 -5.45117 0.868991 0
M  V30 8542 H 797.775 -4.37009 -0.438104 0
M  V30 8543 H 798.381 -4.07773 1.20834 0
M  V30 8544 N 796.696 -0.74468 -1.38897 0
M  V30 8545 C 797.945 -0.293716 -1.9955 0
M  V30 8546 C 798.258 1.12831 -1.59777 0
M  V30 8547 O 799.464 1.67929 -2.13336 0
M  V30 8548 C 797.92 -0.474188 -3.56762 0
M  V30 8549 C 797.528 -1.90472 -4.05493 0
M  V30 8550 C 799.272 -0.0854875 -4.24414 0
M  V30 8551 C 797.179 -2.03423 -5.55314 0
M  V30 8552 H 796.109 -0.106066 -0.746502 0
M  V30 8553 H 798.76 -0.919948 -1.58774 0
M  V30 8554 H 797.142 0.221092 -3.95382 0
M  V30 8555 H 798.316 -2.63274 -3.78184 0
M  V30 8556 H 796.631 -2.24752 -3.50536 0
M  V30 8557 H 799.228 -0.161133 -5.34457 0
M  V30 8558 H 799.571 0.96066 -4.05064 0
M  V30 8559 H 800.104 -0.732286 -3.91002 0
M  V30 8560 H 796.843 -3.0626 -5.79556 0
M  V30 8561 H 796.363 -1.3507 -5.84394 0
M  V30 8562 H 798.042 -1.81996 -6.20876 0
M  V30 8563 N 798.174 1.49689 -0.493057 0
M  V30 8564 C 799.084 2.32746 0.294358 0
M  V30 8565 C 800.1 1.44117 0.975003 0
M  V30 8566 O 801.276 1.77149 0.958138 0
M  V30 8567 C 798.341 3.19358 1.34949 0
M  V30 8568 C 797.402 4.2383 0.683122 0
M  V30 8569 C 796.635 5.06303 1.68798 0
M  V30 8570 O 796.858 4.90172 2.91698 0
M  V30 8571 O 795.792 5.88826 1.24768 0
M  V30 8572 H 799.618 3.01247 -0.385254 0
M  V30 8573 H 797.203 1.47216 -0.254519 0
M  V30 8574 H 799.085 3.73037 1.96014 0
M  V30 8575 H 797.76 2.53561 2.01217 0
M  V30 8576 H 796.667 3.74086 0.0329351 0
M  V30 8577 H 798 4.9216 0.0630192 0
M  V30 8578 N 799.652 0.226554 1.55963 0
M  V30 8579 C 800.562 -0.692725 2.24139 0
M  V30 8580 C 801.578 -1.20971 1.25068 0
M  V30 8581 O 802.754 -1.25027 1.57893 0
M  V30 8582 C 799.819 -1.88183 2.91184 0
M  V30 8583 C 798.88 -1.40633 4.05612 0
M  V30 8584 C 798.113 -2.53875 4.6945 0
M  V30 8585 O 798.336 -3.72129 4.32292 0
M  V30 8586 O 797.27 -2.24792 5.58348 0
M  V30 8587 H 801.096 -0.141921 3.03368 0
M  V30 8588 H 798.681 -0.0041049 1.49399 0
M  V30 8589 H 800.563 -2.57617 3.33484 0
M  V30 8590 H 799.238 -2.42064 2.14911 0
M  V30 8591 H 798.145 -0.67986 3.67871 0
M  V30 8592 H 799.478 -0.913838 4.83642 0
M  V30 8593 N 801.13 -1.57531 -0.0467866 0
M  V30 8594 C 802.36 -1.92417 -0.752279 0
M  V30 8595 C 802.768 -0.823134 -1.70356 0
M  V30 8596 O 802.111 0.210598 -1.82489 0
M  V30 8597 C 802.173 -3.22974 -1.57887 0
M  V30 8598 C 801.837 -4.50045 -0.794285 0
M  V30 8599 C 802.834 -5.19799 -0.102368 0
M  V30 8600 C 800.519 -4.96608 -0.754061 0
M  V30 8601 C 802.513 -6.34385 0.619267 0
M  V30 8602 C 800.2 -6.11093 -0.0286682 0
M  V30 8603 C 801.198 -6.79835 0.656772 0
M  V30 8604 O 800.886 -7.92133 1.37042 0
M  V30 8605 H 800.618 -0.640029 -0.217576 0
M  V30 8606 H 803.172 -2.05395 -0.0137438 0
M  V30 8607 H 801.402 -3.06273 -2.3608 0
M  V30 8608 H 803.091 -3.43319 -2.16533 0
M  V30 8609 H 803.857 -4.8484 -0.124589 0
M  V30 8610 H 799.736 -4.42958 -1.27706 0
M  V30 8611 H 803.28 -6.87975 1.15483 0
M  V30 8612 H 799.177 -6.455 -0.00446214 0
M  V30 8613 H 799.945 -8.08394 1.28227 0
M  V30 8614 N 802.608 0.318715 -1.54344 0
M  V30 8615 C 803.538 1.39751 -1.87061 0
M  V30 8616 C 804.519 1.53741 -0.727848 0
M  V30 8617 O 805.704 1.67541 -0.982016 0
M  V30 8618 C 802.834 2.76446 -2.10226 0
M  V30 8619 C 801.788 2.77239 -3.26071 0
M  V30 8620 C 801.114 4.17056 -3.34617 0
M  V30 8621 C 802.414 2.40555 -4.63606 0
M  V30 8622 H 804.108 1.12619 -2.77412 0
M  V30 8623 H 801.654 0.540318 -1.33479 0
M  V30 8624 H 803.607 3.51985 -2.31699 0
M  V30 8625 H 802.331 3.05066 -1.16629 0
M  V30 8626 H 800.99 2.04155 -3.04493 0
M  V30 8627 H 800.638 4.42824 -2.3857 0
M  V30 8628 H 800.338 4.18492 -4.12478 0
M  V30 8629 H 801.862 4.94401 -3.5833 0
M  V30 8630 H 803.276 3.05808 -4.84927 0
M  V30 8631 H 801.673 2.53234 -5.44052 0
M  V30 8632 H 802.743 1.35698 -4.65526 0
M  V30 8633 N 804.086 1.46499 0.581025 0
M  V30 8634 C 804.996 1.59778 1.71779 0
M  V30 8635 C 806.012 0.481223 1.67213 0
M  V30 8636 O 807.188 0.74557 1.87091 0
M  V30 8637 C 804.253 1.58626 3.08283 0
M  V30 8638 C 803.314 2.81527 3.241 0
M  V30 8639 C 802.547 2.80421 4.54092 0
M  V30 8640 O 802.77 1.89262 5.38085 0
M  V30 8641 O 801.704 3.71984 4.73193 0
M  V30 8642 H 805.53 2.55918 1.63523 0
M  V30 8643 H 803.115 1.29311 0.748267 0
M  V30 8644 H 804.997 1.60686 3.89561 0
M  V30 8645 H 803.672 0.656467 3.16973 0
M  V30 8646 H 802.579 2.85021 2.42309 0
M  V30 8647 H 803.912 3.73721 3.20302 0
M  V30 8648 N 805.565 -0.825799 1.34232 0
M  V30 8649 C 806.793 -1.61363 1.29497 0
M  V30 8650 C 807.208 -1.88341 -0.131536 0
M  V30 8651 O 806.565 -1.47279 -1.07773 0
M  V30 8652 C 806.616 -2.95623 2.08061 0
M  V30 8653 O 806.337 -2.69824 3.45147 0
M  V30 8654 C 807.838 -3.90032 2.10688 0
M  V30 8655 H 805.058 -0.501676 0.445603 0
M  V30 8656 H 807.602 -1.02767 1.76803 0
M  V30 8657 H 805.757 -3.50785 1.64404 0
M  V30 8658 H 806.171 -3.55412 3.85723 0
M  V30 8659 H 807.645 -4.81411 2.70087 0
M  V30 8660 H 808.122 -4.25188 1.10052 0
M  V30 8661 H 808.728 -3.40807 2.54422 0
M  V30 8662 N 807.043 -1.17915 -1.04565 0
M  V30 8663 C 808.459 -0.927761 -1.29864 0
M  V30 8664 C 808.659 0.409536 -1.97294 0
M  V30 8665 O 807.715 1.14505 -2.25044 0
M  V30 8666 C 809.028 -2.08967 -2.16225 0
M  V30 8667 C 810.576 -2.12741 -2.29587 0
M  V30 8668 C 811.051 -3.28335 -3.19312 0
M  V30 8669 N 812.542 -3.28164 -3.26898 0
M  V30 8670 C 813.277 -4.14249 -3.96466 0
M  V30 8671 N 812.773 -5.10457 -4.68407 0
M  V30 8672 N 814.566 -4.02179 -3.92694 0
M  V30 8673 H 806.717 -2.03983 -0.592011 0
M  V30 8674 H 808.98 -0.891023 -0.323701 0
M  V30 8675 H 808.686 -3.05654 -1.73979 0
M  V30 8676 H 808.56 -2.04606 -3.16885 0
M  V30 8677 H 810.947 -1.16636 -2.71072 0
M  V30 8678 H 811.028 -2.21162 -1.28535 0
M  V30 8679 H 810.672 -4.2471 -2.78539 0
M  V30 8680 H 810.602 -3.17151 -4.20384 0
M  V30 8681 H 813.093 -2.58511 -2.75646 0
M  V30 8682 H 813.406 -5.72526 -5.1907 0
M  V30 8683 H 811.751 -5.14422 -4.67328 0
M  V30 8684 H 814.942 -3.26308 -3.3562 0
M  V30 8685 H 815.115 -4.69486 -4.4664 0
M  V30 8686 N 808.521 1.23394 -0.980386 0
M  V30 8687 C 809.451 2.2717 -0.540024 0
M  V30 8688 C 810.432 1.64659 0.426787 0
M  V30 8689 O 811.617 1.91543 0.320153 0
M  V30 8690 C 808.747 3.46939 0.15836 0
M  V30 8691 C 807.701 4.21802 -0.725732 0
M  V30 8692 C 807.027 5.34597 0.104866 0
M  V30 8693 C 808.327 4.81802 -2.01654 0
M  V30 8694 H 810.021 2.64257 -1.40743 0
M  V30 8695 H 807.567 1.2703 -0.678193 0
M  V30 8696 H 809.52 4.18683 0.477737 0
M  V30 8697 H 808.244 3.08912 1.06022 0
M  V30 8698 H 806.903 3.51875 -1.02857 0
M  V30 8699 H 806.551 4.92812 1.00726 0
M  V30 8700 H 806.251 5.85607 -0.483557 0
M  V30 8701 H 807.775 6.09163 0.418624 0
M  V30 8702 H 809.189 5.45554 -1.76193 0
M  V30 8703 H 807.586 5.43098 -2.55273 0
M  V30 8704 H 808.656 4.02549 -2.70338 0
M  V30 8705 N 809.999 0.752036 1.385 0
M  V30 8706 C 810.931 0.0835089 2.29048 0
M  V30 8707 C 811.944 -0.685402 1.47669 0
M  V30 8708 O 813.133 -0.526748 1.70551 0
M  V30 8709 C 810.233 -0.905772 3.26572 0
M  V30 8710 C 809.406 -0.194828 4.36966 0
M  V30 8711 C 808.465 -1.09464 5.14688 0
M  V30 8712 O 807.491 -0.565743 5.66381 0
M  V30 8713 N 808.693 -2.42287 5.2752 0
M  V30 8714 H 811.458 0.861142 2.87062 0
M  V30 8715 H 809.019 0.602689 1.50264 0
M  V30 8716 H 811.011 -1.51072 3.75446 0
M  V30 8717 H 809.581 -1.58449 2.69467 0
M  V30 8718 H 808.801 0.590812 3.89747 0
M  V30 8719 H 810.089 0.297189 5.07931 0
M  V30 8720 H 809.487 -2.87715 4.8707 0
M  V30 8721 H 808.044 -2.97836 5.79773 0
M  V30 8722 N 811.477 -1.49425 0.500989 0
M  V30 8723 C 812.702 -2.07356 -0.0425154 0
M  V30 8724 C 813.127 -1.35887 -1.30063 0
M  V30 8725 O 812.485 -0.41561 -1.76472 0
M  V30 8726 C 812.533 -3.59518 -0.279188 0
M  V30 8727 O 811.637 -3.89542 -1.3539 0
M  V30 8728 H 810.978 -0.663482 0.0262207 0
M  V30 8729 H 813.508 -1.92231 0.700607 0
M  V30 8730 H 813.518 -4.04791 -0.5107 0
M  V30 8731 H 812.193 -4.10946 0.640009 0
M  V30 8732 H 810.77 -3.56079 -1.10734 0
M  V30 8733 N 812.955 -0.234822 -1.55841 0
M  V30 8734 C 813.885 0.664217 -2.23854 0
M  V30 8735 C 814.866 1.19076 -1.2147 0
M  V30 8736 O 816.051 1.23232 -1.50091 0
M  V30 8737 C 813.181 1.86666 -2.9287 0
M  V30 8738 C 812.135 1.47341 -4.01839 0
M  V30 8739 C 811.461 2.75571 -4.58219 0
M  V30 8740 C 812.761 0.653479 -5.18196 0
M  V30 8741 H 814.455 0.0971213 -2.99242 0
M  V30 8742 H 812.001 0.0452724 -1.43929 0
M  V30 8743 H 813.954 2.50116 -3.39146 0
M  V30 8744 H 812.678 2.45894 -2.1495 0
M  V30 8745 H 811.337 0.862314 -3.56314 0
M  V30 8746 H 810.985 3.32971 -3.77014 0
M  V30 8747 H 810.685 2.49987 -5.31771 0
M  V30 8748 H 812.209 3.39939 -5.07221 0
M  V30 8749 H 813.623 1.19198 -5.60771 0
M  V30 8750 H 812.02 0.494188 -5.98062 0
M  V30 8751 H 813.09 -0.337004 -4.83728 0
M  V30 8752 N 814.433 1.57553 0.0384317 0
M  V30 8753 C 815.681 1.88468 0.729672 0
M  V30 8754 C 816.002 0.831302 1.76393 0
M  V30 8755 O 815.272 -0.13622 1.95426 0
M  V30 8756 H 813.852 0.695529 0.272485 0
M  V30 8757 H 816.514 1.94899 0.0066032 0
M  V30 8758 H 815.61 2.8705 1.22511 0
M  V30 8759 N 815.911 -0.310526 1.54511 0
M  V30 8760 C 816.841 -1.38757 1.878 0
M  V30 8761 C 817.822 -1.53353 0.735991 0
M  V30 8762 O 819.007 -1.67018 0.990887 0
M  V30 8763 C 816.137 -2.75327 2.11689 0
M  V30 8764 C 815.091 -2.75506 3.27537 0
M  V30 8765 C 814.417 -4.15275 3.36824 0
M  V30 8766 C 815.717 -2.38093 4.64875 0
M  V30 8767 H 817.411 -1.11146 2.78005 0
M  V30 8768 H 814.957 -0.533232 1.33763 0
M  V30 8769 H 816.91 -3.50752 2.33562 0
M  V30 8770 H 815.634 -3.04443 1.18245 0
M  V30 8771 H 814.293 -2.02538 3.05572 0
M  V30 8772 H 813.941 -4.41553 2.40915 0
M  V30 8773 H 813.641 -4.16299 4.14692 0
M  V30 8774 H 815.165 -4.92493 3.60947 0
M  V30 8775 H 816.579 -3.03232 4.86542 0
M  V30 8776 H 814.976 -2.50345 5.45387 0
M  V30 8777 H 816.046 -1.33227 4.66239 0
M  V30 8778 N 817.389 -1.46805 -0.573248 0
M  V30 8779 C 818.666 -1.43082 -1.33368 0
M  V30 8780 C 819.046 -0.119252 -2.10763 0
M  V30 8781 O 818.394 0.899239 -2.10062 0
M  V30 8782 C 818.604 -2.66643 -2.25172 0
M  V30 8783 C 819.952 -3.13188 -2.86702 0
M  V30 8784 O 820.976 -2.67258 -2.35482 0
M  V30 8785 O 819.835 -3.92994 -3.79761 0
M  V30 8786 H 816.929 -0.569451 -0.599712 0
M  V30 8787 H 819.475 -1.58984 -0.59348 0
M  V30 8788 H 818.247 -3.53649 -1.67475 0
M  V30 8789 H 817.87 -2.53247 -3.06516 0
M  V30 8790 N 818.867 0.818669 -1.34668 0
M  V30 8791 C 819.797 1.94468 -1.29245 0
M  V30 8792 C 820.778 1.69257 -0.169101 0
M  V30 8793 O 821.963 1.90794 -0.362143 0
M  V30 8794 C 819.093 3.31001 -1.05145 0
M  V30 8795 C 818.047 3.70663 -2.13992 0
M  V30 8796 C 817.373 5.05226 -1.75074 0
M  V30 8797 C 818.673 3.82312 -3.55858 0
M  V30 8798 H 820.367 1.99263 -2.2346 0
M  V30 8799 H 817.913 0.957304 -1.07572 0
M  V30 8800 H 819.866 4.09364 -0.999949 0
M  V30 8801 H 818.59 3.26517 -0.0737312 0
M  V30 8802 H 817.249 2.94578 -2.18219 0
M  V30 8803 H 816.897 4.97233 -0.759518 0
M  V30 8804 H 816.597 5.32734 -2.47928 0
M  V30 8805 H 818.121 5.86042 -1.71427 0
M  V30 8806 H 819.535 4.50935 -3.5402 0
M  V30 8807 H 817.932 4.21278 -4.2737 0
M  V30 8808 H 819.002 2.84193 -3.9289 0
M  V30 8809 N 820.346 1.18468 1.03938 0
M  V30 8810 C 821.256 0.927889 2.1547 0
M  V30 8811 C 822.272 -0.108447 1.73662 0
M  V30 8812 O 823.448 0.0737636 2.01265 0
M  V30 8813 C 820.513 0.458494 3.43655 0
M  V30 8814 C 819.574 1.56295 3.99838 0
M  V30 8815 C 818.807 1.11586 5.21904 0
M  V30 8816 O 819.03 -0.0249057 5.70395 0
M  V30 8817 O 817.964 1.91412 5.70653 0
M  V30 8818 H 821.79 1.86116 2.39989 0
M  V30 8819 H 819.375 0.966607 1.13917 0
M  V30 8820 H 821.257 0.204861 4.20902 0
M  V30 8821 H 819.932 -0.446464 3.20606 0
M  V30 8822 H 818.839 1.87061 3.23974 0
M  V30 8823 H 820.172 2.44408 4.2723 0
M  V30 8824 N 821.824 -1.22873 0.986916 0
M  V30 8825 C 823.052 -1.95487 0.677663 0
M  V30 8826 C 823.467 -1.72978 -0.756572 0
M  V30 8827 O 822.824 -1.02517 -1.50985 0
M  V30 8828 C 822.875 -3.48337 0.966638 0
M  V30 8829 O 822.596 -3.70087 2.34451 0
M  V30 8830 C 824.097 -4.38142 0.674248 0
M  V30 8831 H 821.317 -0.622211 0.251185 0
M  V30 8832 H 823.861 -1.56187 1.32007 0
M  V30 8833 H 822.016 -3.85628 0.370137 0
M  V30 8834 H 822.43 -4.64332 2.43918 0
M  V30 8835 H 823.904 -5.44165 0.926759 0
M  V30 8836 H 824.381 -4.3745 -0.391728 0
M  V30 8837 H 824.987 -4.06469 1.25152 0
M  V30 8838 N 823.302 -0.75937 -1.38099 0
M  V30 8839 C 824.235 -0.0838362 -2.28046 0
M  V30 8840 C 825.213 0.722229 -1.4568 0
M  V30 8841 O 826.397 0.699629 -1.75036 0
M  V30 8842 C 823.524 0.887916 -3.26854 0
M  V30 8843 C 822.57 0.167374 -4.26171 0
M  V30 8844 S 823.403 -1.13592 -5.23314 0
M  V30 8845 C 824.559 -0.167385 -6.25676 0
M  V30 8846 H 824.792 -0.846564 -2.84992 0
M  V30 8847 H 822.325 -0.552206 -1.44188 0
M  V30 8848 H 824.283 1.44322 -3.84293 0
M  V30 8849 H 822.944 1.62366 -2.68879 0
M  V30 8850 H 822.137 0.903567 -4.95834 0
M  V30 8851 H 821.739 -0.316572 -3.72658 0
M  V30 8852 H 824.031 0.664598 -6.74232 0
M  V30 8853 H 824.974 -0.831836 -7.03197 0
M  V30 8854 H 825.382 0.21589 -5.64087 0
M  V30 8855 N 824.78 1.49157 -0.508906 0
M  V30 8856 C 825.727 2.2927 0.265288 0
M  V30 8857 C 826.697 1.3603 0.953162 0
M  V30 8858 O 827.882 1.64989 0.958291 0
M  V30 8859 C 825.022 3.18897 1.31904 0
M  V30 8860 C 824.135 4.27201 0.642144 0
M  V30 8861 C 823.27 5.04033 1.67701 0
M  V30 8862 C 822.309 6.04165 0.982422 0
M  V30 8863 N 821.446 6.74133 1.96186 0
M  V30 8864 H 826.286 2.94967 -0.424107 0
M  V30 8865 H 823.823 1.45431 -0.220991 0
M  V30 8866 H 825.781 3.69242 1.94206 0
M  V30 8867 H 824.411 2.55168 1.97709 0
M  V30 8868 H 823.463 3.80283 -0.0943395 0
M  V30 8869 H 824.775 4.98708 0.0957507 0
M  V30 8870 H 823.929 5.58287 2.37487 0
M  V30 8871 H 822.668 4.32317 2.25728 0
M  V30 8872 H 821.673 5.49135 0.270378 0
M  V30 8873 H 822.898 6.7787 0.408554 0
M  V30 8874 H 820.844 6.05183 2.53159 0
M  V30 8875 H 820.761 7.41643 1.46634 0
M  V30 8876 H 822.029 7.32987 2.65236 0
M  V30 8877 N 826.258 0.243083 1.55714 0
M  V30 8878 C 827.506 -0.381964 1.98458 0
M  V30 8879 C 827.827 -1.58745 1.13247 0
M  V30 8880 O 827.097 -1.94723 0.214384 0
M  V30 8881 H 825.677 -0.144114 0.732967 0
M  V30 8882 H 828.339 0.340985 1.91894 0
M  V30 8883 H 827.435 -0.693702 3.04293 0
M  V30 8884 N 827.736 -1.57571 -0.0300757 0
M  V30 8885 C 828.669 -2.01874 -1.06406 0
M  V30 8886 C 829.647 -0.902901 -1.35227 0
M  V30 8887 O 830.831 -1.16865 -1.47901 0
M  V30 8888 C 827.958 -2.39093 -2.39901 0
M  V30 8889 C 827.004 -3.61108 -2.26943 0
M  V30 8890 S 827.837 -5.10287 -1.62382 0
M  V30 8891 C 828.993 -5.50747 -2.97369 0
M  V30 8892 H 829.226 -2.89261 -0.686703 0
M  V30 8893 H 826.759 -1.52523 -0.240017 0
M  V30 8894 H 828.717 -2.61207 -3.16672 0
M  V30 8895 H 827.378 -1.52159 -2.74784 0
M  V30 8896 H 826.571 -3.84803 -3.25489 0
M  V30 8897 H 826.173 -3.3884 -1.58314 0
M  V30 8898 H 828.465 -5.51369 -3.93698 0
M  V30 8899 H 829.408 -6.51071 -2.78409 0
M  V30 8900 H 829.816 -4.7825 -2.99895 0
M  V30 8901 N 829.214 0.302327 -1.54673 0
M  V30 8902 C 830.462 1.03565 -1.73547 0
M  V30 8903 C 830.783 1.87843 -0.523448 0
M  V30 8904 O 830.053 1.90367 0.462295 0
M  V30 8905 H 828.633 0.385358 -0.639928 0
M  V30 8906 H 831.295 0.333632 -1.92023 0
M  V30 8907 H 830.391 1.68952 -2.62415 0
M  V30 8908 N 830.692 1.47107 0.565454 0
M  V30 8909 C 831.92 1.56909 1.3486 0
M  V30 8910 C 832.335 0.216312 1.87557 0
M  V30 8911 O 831.692 -0.789168 1.64555 0
M  V30 8912 C 831.743 2.58776 2.52423 0
M  V30 8913 O 831.464 3.888 2.01906 0
M  V30 8914 C 832.965 2.78683 3.44747 0
M  V30 8915 H 830.185 0.530096 0.411387 0
M  V30 8916 H 832.729 1.92658 0.685782 0
M  V30 8917 H 830.884 2.25983 3.1466 0
M  V30 8918 H 831.298 4.44393 2.78595 0
M  V30 8919 H 832.772 3.53842 4.23674 0
M  V30 8920 H 833.249 1.86208 3.97773 0
M  V30 8921 H 833.855 3.12641 2.88333 0
M  V30 8922 N 832.17 -0.811516 1.35101 0
M  V30 8923 C 833.1 -1.9378 1.30275 0
M  V30 8924 C 834.081 -1.69165 0.178075 0
M  V30 8925 O 835.266 -1.90599 0.372256 0
M  V30 8926 C 832.396 -3.30439 1.06899 0
M  V30 8927 C 831.35 -3.69523 2.15955 0
M  V30 8928 C 830.676 -5.0429 1.77751 0
M  V30 8929 C 831.976 -3.80419 3.57881 0
M  V30 8930 H 833.67 -1.98075 2.24514 0
M  V30 8931 H 831.216 -0.951586 1.08078 0
M  V30 8932 H 833.169 -4.08828 1.02164 0
M  V30 8933 H 831.893 -3.26473 0.0910462 0
M  V30 8934 H 830.552 -2.93416 2.19778 0
M  V30 8935 H 830.2 -4.96823 0.785876 0
M  V30 8936 H 829.9 -5.31411 2.5075 0
M  V30 8937 H 831.424 -5.85125 1.74533 0
M  V30 8938 H 832.838 -4.49051 3.56407 0
M  V30 8939 H 831.235 -4.19005 4.29598 0
M  V30 8940 H 832.305 -2.82105 3.94391 0
M  V30 8941 N 833.648 -1.19017 -1.03309 0
M  V30 8942 C 834.894 -0.991681 -1.769 0
M  V30 8943 C 835.227 0.476813 -1.88255 0
M  V30 8944 O 834.502 1.35407 -1.39625 0
M  V30 8945 C 834.785 -1.65627 -3.19749 0
M  V30 8946 C 834.638 -3.19813 -3.1629 0
M  V30 8947 C 835.957 -1.37579 -4.18043 0
M  V30 8948 H 833.076 -0.361674 -0.642153 0
M  V30 8949 H 835.718 -1.46795 -1.20628 0
M  V30 8950 H 833.868 -1.25132 -3.67796 0
M  V30 8951 H 835.54 -3.69494 -2.76174 0
M  V30 8952 H 833.783 -3.51578 -2.54117 0
M  V30 8953 H 834.454 -3.61457 -4.17196 0
M  V30 8954 H 836.93 -1.72679 -3.78578 0
M  V30 8955 H 835.806 -1.86636 -5.16196 0
M  V30 8956 H 836.067 -0.300118 -4.4108 0
M  V30 8957 N 835.127 1.22348 -0.993418 0
M  V30 8958 C 836.059 2.23626 -0.502404 0
M  V30 8959 C 837.072 1.57739 0.402784 0
M  V30 8960 O 838.261 1.77321 0.204835 0
M  V30 8961 C 835.361 3.37647 0.291118 0
M  V30 8962 C 834.534 4.33121 -0.610332 0
M  V30 8963 C 833.593 5.26035 0.131572 0
M  V30 8964 O 832.619 5.67145 -0.483199 0
M  V30 8965 N 833.821 5.63023 1.41371 0
M  V30 8966 H 836.586 2.66385 -1.37329 0
M  V30 8967 H 834.147 1.36653 -0.868196 0
M  V30 8968 H 836.139 3.96792 0.796107 0
M  V30 8969 H 834.709 2.93967 1.0631 0
M  V30 8970 H 833.929 3.72287 -1.29598 0
M  V30 8971 H 835.217 4.93853 -1.22422 0
M  V30 8972 H 834.615 5.31596 1.93449 0
M  V30 8973 H 833.172 6.24582 1.86388 0
M  V30 8974 N 836.605 0.766683 1.37694 0
M  V30 8975 C 838.021 0.445739 1.53249 0
M  V30 8976 C 838.221 -1.03935 1.72626 0
M  V30 8977 O 837.277 -1.82525 1.74473 0
M  V30 8978 C 838.59 1.2564 2.73194 0
M  V30 8979 C 840.138 1.24779 2.87053 0
M  V30 8980 C 840.613 2.04169 4.09974 0
M  V30 8981 N 842.104 2.01497 4.17077 0
M  V30 8982 C 842.839 2.5971 5.11212 0
M  V30 8983 N 842.335 3.26691 6.10938 0
M  V30 8984 N 844.128 2.49568 5.03659 0
M  V30 8985 H 836.279 1.72899 1.23368 0
M  V30 8986 H 838.542 0.733701 0.600322 0
M  V30 8987 H 838.248 2.30859 2.65324 0
M  V30 8988 H 838.122 0.882133 3.6674 0
M  V30 8989 H 840.509 0.203603 2.94397 0
M  V30 8990 H 840.59 1.66166 1.9448 0
M  V30 8991 H 840.234 3.08606 4.03392 0
M  V30 8992 H 840.164 1.60167 5.01651 0
M  V30 8993 H 842.655 1.52728 3.45662 0
M  V30 8994 H 842.968 3.68497 6.79286 0
M  V30 8995 H 841.313 3.30789 6.11231 0
M  V30 8996 H 844.504 1.96859 4.24693 0
M  V30 8997 H 844.677 2.95231 5.76839 0
M  V30 8998 N 838.083 -1.48885 0.516809 0
M  V30 8999 C 839.331 -2.02088 -0.0220166 0
M  V30 9000 C 839.652 -1.39735 -1.36011 0
M  V30 9001 O 838.922 -0.558119 -1.87781 0
M  V30 9002 H 837.502 -0.746917 -0.0111255 0
M  V30 9003 H 840.164 -1.8274 0.677647 0
M  V30 9004 H 839.26 -3.11786 -0.140067 0
M  V30 9005 N 839.561 -0.251338 -1.55583 0
M  V30 9006 C 840.508 0.646337 -2.21565 0
M  V30 9007 C 841.478 1.16796 -1.18102 0
M  V30 9008 O 842.663 1.22162 -1.46564 0
M  V30 9009 C 839.803 1.83557 -2.92234 0
M  V30 9010 C 838.916 1.35006 -4.10363 0
M  V30 9011 C 838.051 2.4992 -4.68736 0
M  V30 9012 C 837.09 1.98253 -5.79105 0
M  V30 9013 N 836.227 3.06551 -6.31642 0
M  V30 9014 H 841.067 0.0769881 -2.97901 0
M  V30 9015 H 838.604 0.026238 -1.47077 0
M  V30 9016 H 840.562 2.53425 -3.31408 0
M  V30 9017 H 839.192 2.37733 -2.18364 0
M  V30 9018 H 838.244 0.545274 -3.76472 0
M  V30 9019 H 839.556 0.931435 -4.90026 0
M  V30 9020 H 838.71 3.27823 -5.10507 0
M  V30 9021 H 837.449 2.95086 -3.88298 0
M  V30 9022 H 836.454 1.18822 -5.36807 0
M  V30 9023 H 837.679 1.54051 -6.61396 0
M  V30 9024 H 835.625 3.51143 -5.54107 0
M  V30 9025 H 835.542 2.69033 -7.06511 0
M  V30 9026 H 836.81 3.84499 -6.78071 0
M  V30 9027 N 841.039 1.57585 0.0217189 0
M  V30 9028 C 842.45 1.7787 0.567377 0
M  V30 9029 C 842.801 0.883337 1.7519 0
M  V30 9030 O 841.926 0.0800819 2.16252 0
M  V30 9031 C 842.521 3.2257 1.03606 0
M  V30 9032 C 841.08 3.44026 1.52718 0
M  V30 9033 C 840.227 2.73313 0.468545 0
M  V30 9034 H 843.178 1.57377 -0.2045 0
M  V30 9035 H 843.199 3.29488 1.9031 0
M  V30 9036 H 842.711 3.87711 0.173739 0
M  V30 9037 H 840.812 2.8407 2.41111 0
M  V30 9038 H 840.925 4.52659 1.56962 0
M  V30 9039 H 839.289 2.37299 0.925263 0
M  V30 9040 H 840.072 3.41141 -0.384438 0
M  V30 9041 N 842.517 -0.29412 1.54831 0
M  V30 9042 C 843.763 -1.02602 1.75626 0
M  V30 9043 C 844.118 -1.84689 0.539232 0
M  V30 9044 O 843.411 -1.85788 -0.468322 0
M  V30 9045 C 843.605 -1.95782 2.99006 0
M  V30 9046 C 843.434 -1.22861 4.32591 0
M  V30 9047 C 842.204 -0.95294 4.96233 0
M  V30 9048 C 844.402 -0.629592 5.10432 0
M  V30 9049 N 842.384 -0.194728 6.13591 0
M  V30 9050 C 843.755 -0.00449586 6.2 0
M  V30 9051 C 845.81 -0.535327 4.95014 0
M  V30 9052 C 844.513 0.705754 7.15829 0
M  V30 9053 C 846.539 0.161284 5.9118 0
M  V30 9054 C 845.901 0.775203 7.00121 0
M  V30 9055 H 842 -0.358143 0.695167 0
M  V30 9056 H 844.584 -0.303896 1.92314 0
M  V30 9057 H 842.755 -2.65238 2.83731 0
M  V30 9058 H 844.487 -2.62175 3.08296 0
M  V30 9059 H 841.242 -1.25285 4.56728 0
M  V30 9060 H 841.666 0.171093 6.76784 0
M  V30 9061 H 846.308 -0.995662 4.10909 0
M  V30 9062 H 844.026 1.17784 7.9947 0
M  V30 9063 H 847.612 0.234256 5.81328 0
M  V30 9064 H 846.492 1.30566 7.73254 0
M  V30 9065 N 843.995 -1.47404 -0.557645 0
M  V30 9066 C 844.925 -1.62736 -1.67449 0
M  V30 9067 C 845.906 -0.476824 -1.6328 0
M  V30 9068 O 847.091 -0.706108 -1.80908 0
M  V30 9069 C 844.221 -1.641 -3.06086 0
M  V30 9070 C 843.175 -2.78377 -3.25101 0
M  V30 9071 C 842.501 -2.64812 -4.6452 0
M  V30 9072 C 843.801 -4.19971 -3.10518 0
M  V30 9073 H 845.495 -2.56232 -1.54873 0
M  V30 9074 H 843.041 -1.23312 -0.743649 0
M  V30 9075 H 844.994 -1.73417 -3.84063 0
M  V30 9076 H 843.718 -0.671652 -3.19619 0
M  V30 9077 H 842.377 -2.6857 -2.49531 0
M  V30 9078 H 842.025 -1.65906 -4.74852 0
M  V30 9079 H 841.725 -3.41477 -4.78191 0
M  V30 9080 H 843.249 -2.76057 -5.44633 0
M  V30 9081 H 844.663 -4.30757 -3.78313 0
M  V30 9082 H 843.06 -4.97419 -3.35699 0
M  V30 9083 H 844.13 -4.38369 -2.0727 0
M  V30 9084 N 845.473 0.80434 -1.35529 0
M  V30 9085 C 846.383 1.94784 -1.30753 0
M  V30 9086 C 847.399 1.72703 -0.212071 0
M  V30 9087 O 848.575 1.96494 -0.441841 0
M  V30 9088 C 845.64 3.29406 -1.08133 0
M  V30 9089 C 844.701 3.64367 -2.27013 0
M  V30 9090 C 843.934 4.92566 -2.05463 0
M  V30 9091 O 844.157 5.61166 -1.02222 0
M  V30 9092 O 843.091 5.25838 -2.92879 0
M  V30 9093 H 846.917 2.01761 -2.26994 0
M  V30 9094 H 844.502 0.942448 -1.15924 0
M  V30 9095 H 846.384 4.09995 -0.973756 0
M  V30 9096 H 845.059 3.23355 -0.149444 0
M  V30 9097 H 843.966 2.84146 -2.43335 0
M  V30 9098 H 845.299 3.75125 -3.18656 0
M  V30 9099 N 846.951 1.19563 1.02676 0
M  V30 9100 C 848.228 0.908857 1.73203 0
M  V30 9101 C 848.608 -0.584928 2.02834 0
M  V30 9102 O 847.956 -1.54372 1.68469 0
M  V30 9103 C 848.166 1.77105 3.00724 0
M  V30 9104 C 849.514 2.00667 3.7419 0
M  V30 9105 O 850.538 1.74274 3.10656 0
M  V30 9106 O 849.397 2.4518 4.88415 0
M  V30 9107 H 846.491 0.338909 0.754367 0
M  V30 9108 H 849.037 1.30387 1.08616 0
M  V30 9109 H 847.809 2.78303 2.7507 0
M  V30 9110 H 847.432 1.37546 3.73051 0
M  V30 9111 N 848.429 -1.21819 0.999893 0
M  V30 9112 C 849.675 -1.91325 0.690373 0
M  V30 9113 C 850.03 -1.76323 -0.769929 0
M  V30 9114 O 849.323 -1.12585 -1.55033 0
M  V30 9115 C 849.517 -3.4193 1.04012 0
M  V30 9116 C 849.346 -3.71585 2.53287 0
M  V30 9117 C 848.116 -3.91219 3.19806 0
M  V30 9118 C 850.314 -3.75502 3.5143 0
M  V30 9119 N 848.296 -4.08246 4.58485 0
M  V30 9120 C 849.667 -3.97753 4.75597 0
M  V30 9121 C 851.722 -3.58383 3.45638 0
M  V30 9122 C 850.425 -4.04662 5.94677 0
M  V30 9123 C 852.451 -3.66555 4.64103 0
M  V30 9124 C 851.813 -3.89263 5.87072 0
M  V30 9125 H 847.912 -0.720484 0.304018 0
M  V30 9126 H 850.496 -1.46595 1.28133 0
M  V30 9127 H 848.667 -3.85452 0.477671 0
M  V30 9128 H 850.399 -3.98846 0.685864 0
M  V30 9129 H 847.154 -3.88917 2.7026 0
M  V30 9130 H 847.578 -4.20673 5.30437 0
M  V30 9131 H 852.22 -3.39807 2.51576 0
M  V30 9132 H 849.938 -4.22039 6.89136 0
M  V30 9133 H 853.524 -3.54639 4.61218 0
M  V30 9134 H 852.404 -3.95424 6.77207 0
M  V30 9135 N 849.908 -0.773975 -1.37286 0
M  V30 9136 C 850.818 -0.162571 -2.34036 0
M  V30 9137 C 851.834 0.677022 -1.60289 0
M  V30 9138 O 853.01 0.596423 -1.92366 0
M  V30 9139 C 850.075 0.70457 -3.39465 0
M  V30 9140 C 849.136 -0.151738 -4.29032 0
M  V30 9141 C 848.369 0.674111 -5.29426 0
M  V30 9142 O 848.592 1.91107 -5.37433 0
M  V30 9143 O 847.526 0.0821398 -6.01844 0
M  V30 9144 H 851.352 -0.962119 -2.88057 0
M  V30 9145 H 848.937 -0.53517 -1.39486 0
M  V30 9146 H 850.819 1.19954 -4.03967 0
M  V30 9147 H 849.494 1.48227 -2.87768 0
M  V30 9148 H 848.401 -0.693118 -3.67623 0
M  V30 9149 H 849.734 -0.892575 -4.84039 0
M  V30 9150 N 851.386 1.48609 -0.524698 0
M  V30 9151 C 852.333 2.29539 0.240956 0
M  V30 9152 C 853.303 1.37033 0.938681 0
M  V30 9153 O 854.488 1.65996 0.940737 0
M  V30 9154 C 851.628 3.20278 1.28514 0
M  V30 9155 C 850.741 4.27858 0.596798 0
M  V30 9156 C 849.876 5.05784 1.62346 0
M  V30 9157 C 848.915 6.05173 0.918287 0
M  V30 9158 N 848.052 6.76176 1.89025 0
M  V30 9159 H 852.892 2.945 -0.455368 0
M  V30 9160 H 850.429 1.45188 -0.236403 0
M  V30 9161 H 852.387 3.71281 1.90279 0
M  V30 9162 H 851.017 2.57251 1.94992 0
M  V30 9163 H 850.069 3.80162 -0.134668 0
M  V30 9164 H 851.381 4.98782 0.0428506 0
M  V30 9165 H 850.535 5.60775 2.31553 0
M  V30 9166 H 849.274 4.34687 2.2113 0
M  V30 9167 H 848.279 5.49391 0.21212 0
M  V30 9168 H 849.504 6.78265 0.336633 0
M  V30 9169 H 847.45 6.07834 2.46726 0
M  V30 9170 H 847.367 7.43157 1.3876 0
M  V30 9171 H 848.635 7.35759 2.57446 0
M  V30 9172 N 852.864 0.259585 1.55447 0
M  V30 9173 C 853.774 -0.645026 2.25558 0
M  V30 9174 C 854.79 -1.18291 1.27606 0
M  V30 9175 O 855.966 -1.21649 1.6051 0
M  V30 9176 C 853.031 -1.81964 2.9511 0
M  V30 9177 C 852.092 -1.31997 4.08504 0
M  V30 9178 C 851.325 -2.43861 4.74729 0
M  V30 9179 O 851.548 -3.62876 4.40088 0
M  V30 9180 O 850.482 -2.12898 5.6299 0
M  V30 9181 H 854.308 -0.0775399 3.03601 0
M  V30 9182 H 851.893 0.0275859 1.49375 0
M  V30 9183 H 853.775 -2.50485 3.38873 0
M  V30 9184 H 852.45 -2.37451 2.19997 0
M  V30 9185 H 851.357 -0.601676 3.6923 0
M  V30 9186 H 852.69 -0.811045 4.85472 0
M  V30 9187 N 854.342 -1.57594 -0.0133615 0
M  V30 9188 C 855.59 -1.89605 -0.699596 0
M  V30 9189 C 855.911 -0.85926 -1.75048 0
M  V30 9190 O 855.181 0.105112 -1.95618 0
M  V30 9191 H 853.761 -0.699776 -0.261385 0
M  V30 9192 H 856.423 -1.94885 0.0244044 0
M  V30 9193 H 855.519 -2.88962 -1.17928 0
M  V30 9194 N 855.82 0.285905 -1.54985 0
M  V30 9195 C 857.236 0.632405 -1.46536 0
M  V30 9196 C 857.436 1.90074 -0.668888 0
M  V30 9197 O 856.492 2.51839 -0.182586 0
M  V30 9198 C 857.805 0.771361 -2.90638 0
M  V30 9199 C 859.353 0.866262 -3.00774 0
M  V30 9200 C 859.828 1.0371 -4.46103 0
M  V30 9201 N 861.319 1.10294 -4.49877 0
M  V30 9202 C 862.054 1.25369 -5.59527 0
M  V30 9203 N 861.55 1.37246 -6.7907 0
M  V30 9204 N 863.343 1.28377 -5.47244 0
M  V30 9205 H 855.494 -0.547226 -2.0523 0
M  V30 9206 H 857.757 -0.183298 -0.930111 0
M  V30 9207 H 857.463 -0.0899485 -3.51585 0
M  V30 9208 H 857.337 1.65569 -3.3892 0
M  V30 9209 H 859.724 1.71805 -2.39931 0
M  V30 9210 H 859.805 -0.0424049 -2.55765 0
M  V30 9211 H 859.449 0.190021 -5.07544 0
M  V30 9212 H 859.379 1.96022 -4.88757 0
M  V30 9213 H 861.87 1.02407 -3.6376 0
M  V30 9214 H 862.183 1.48546 -7.58389 0
M  V30 9215 H 860.528 1.34274 -6.81906 0
M  V30 9216 H 863.719 1.1872 -4.52795 0
M  V30 9217 H 863.892 1.39782 -6.32744 0
M  V30 9218 N 857.298 1.47698 0.54982 0
M  V30 9219 C 858.228 1.63622 1.66583 0
M  V30 9220 C 859.209 0.485477 1.63025 0
M  V30 9221 O 860.394 0.715692 1.80531 0
M  V30 9222 C 857.524 1.65721 3.05211 0
M  V30 9223 C 856.478 2.80097 3.2362 0
M  V30 9224 C 855.804 2.67272 4.63109 0
M  V30 9225 C 857.104 4.21612 3.08286 0
M  V30 9226 H 858.798 2.57049 1.53512 0
M  V30 9227 H 856.344 1.23705 0.737099 0
M  V30 9228 H 858.297 1.75451 3.83138 0
M  V30 9229 H 857.021 0.688593 3.19258 0
M  V30 9230 H 855.68 2.69889 2.48104 0
M  V30 9231 H 855.328 1.68422 4.73965 0
M  V30 9232 H 855.028 3.44008 4.76374 0
M  V30 9233 H 856.552 2.78942 5.43161 0
M  V30 9234 H 857.966 4.32758 3.76024 0
M  V30 9235 H 856.363 4.99193 3.33057 0
M  V30 9236 H 857.433 4.39462 2.04942 0
M  V30 9237 N 858.776 -0.797141 1.35954 0
M  V30 9238 C 860.187 -1.37179 1.26644 0
M  V30 9239 C 860.538 -1.9596 -0.0971046 0
M  V30 9240 O 859.663 -1.91994 -0.998355 0
M  V30 9241 C 860.258 -2.49395 2.2932 0
M  V30 9242 C 858.817 -3.02697 2.23722 0
M  V30 9243 C 857.964 -1.75721 2.14517 0
M  V30 9244 H 860.915 -0.599407 1.46945 0
M  V30 9245 H 860.936 -3.28204 1.92515 0
M  V30 9246 H 860.448 -2.06584 3.2855 0
M  V30 9247 H 858.549 -3.49948 1.27934 0
M  V30 9248 H 858.662 -3.60036 3.16087 0
M  V30 9249 H 857.026 -1.97649 1.60646 0
M  V30 9250 H 857.809 -1.35049 3.15621 0
M  V30 9251 N 860.254 -1.20106 -1.0204 0
M  V30 9252 C 861.501 -1.00889 -1.75578 0
M  V30 9253 C 861.829 0.459415 -1.88996 0
M  V30 9254 O 861.084 1.35735 -1.40977 0
M  V30 9255 C 861.383 -1.63308 -3.17908 0
M  V30 9256 C 861.049 -3.13091 -3.24476 0
M  V30 9257 C 859.711 -3.53968 -3.25976 0
M  V30 9258 C 862.063 -4.09093 -3.22944 0
M  V30 9259 C 859.391 -4.89381 -3.2361 0
M  V30 9260 C 861.743 -5.44447 -3.22119 0
M  V30 9261 C 860.407 -5.84742 -3.2192 0
M  V30 9262 H 859.677 -0.36918 -0.642485 0
M  V30 9263 H 862.324 -1.49475 -1.19706 0
M  V30 9264 H 860.629 -1.06974 -3.76914 0
M  V30 9265 H 862.326 -1.45958 -3.73493 0
M  V30 9266 H 858.916 -2.80526 -3.24042 0
M  V30 9267 H 863.1 -3.78549 -3.20958 0
M  V30 9268 H 858.356 -5.1987 -3.21785 0
M  V30 9269 H 862.53 -6.18584 -3.19885 0
M  V30 9270 H 860.157 -6.89642 -3.19841 0
M  V30 9271 N 861.732 1.21287 -1.00634 0
M  V30 9272 C 862.98 1.90013 -0.688438 0
M  V30 9273 C 863.301 1.78573 0.783365 0
M  V30 9274 O 862.571 1.1815 1.56261 0
M  V30 9275 H 861.151 0.703336 -0.251648 0
M  V30 9276 H 863.813 1.47346 -1.27574 0
M  V30 9277 H 862.909 2.96879 -0.962781 0
M  V30 9278 N 863.21 0.781244 1.36873 0
M  V30 9279 C 864.438 0.361566 2.03716 0
M  V30 9280 C 864.853 -1.01937 1.58916 0
M  V30 9281 O 864.21 -1.65237 0.774783 0
M  V30 9282 C 864.261 0.406391 3.59208 0
M  V30 9283 O 863.982 1.73286 4.02372 0
M  V30 9284 C 865.483 -0.0236894 4.43294 0
M  V30 9285 H 862.703 0.150133 0.653988 0
M  V30 9286 H 865.247 1.05781 1.75016 0
M  V30 9287 H 863.402 -0.241364 3.86647 0
M  V30 9288 H 863.816 1.67804 4.96933 0
M  V30 9289 H 865.29 0.0588205 5.51969 0
M  V30 9290 H 865.767 -1.07529 4.25833 0
M  V30 9291 H 866.373 0.59624 4.211 0
M  V30 9292 N 864.689 -1.48329 0.532571 0
M  V30 9293 C 865.652 -2.2816 -0.218069 0
M  V30 9294 C 866.652 -1.35526 -0.865409 0
M  V30 9295 O 867.842 -1.58394 -0.725061 0
M  V30 9296 C 864.974 -3.1448 -1.31586 0
M  V30 9297 H 866.167 -2.95987 0.482865 0
M  V30 9298 H 863.72 -1.53612 0.288603 0
M  V30 9299 H 864.455 -2.5129 -2.04997 0
M  V30 9300 H 864.24 -3.82625 -0.856779 0
M  V30 9301 H 865.73 -3.74693 -1.84377 0
M  V30 9302 N 866.167 -0.267825 -1.55308 0
M  V30 9303 C 867.392 0.357487 -2.04296 0
M  V30 9304 C 867.817 1.49222 -1.14518 0
M  V30 9305 O 867.175 1.80741 -0.142292 0
M  V30 9306 C 867.223 0.822899 -3.51085 0
M  V30 9307 O 866.327 1.93078 -3.6441 0
M  V30 9308 H 865.668 0.075025 -0.659748 0
M  V30 9309 H 868.198 -0.399996 -2.00652 0
M  V30 9310 H 868.208 1.12059 -3.92309 0
M  V30 9311 H 866.883 -0.0073562 -4.15899 0
M  V30 9312 H 865.46 1.63618 -3.35087 0
M  V30 9313 N 867.645 1.57599 0.00500368 0
M  V30 9314 C 868.893 1.89973 0.68953 0
M  V30 9315 C 869.214 0.868531 1.7459 0
M  V30 9316 O 868.484 -0.0947367 1.95671 0
M  V30 9317 H 867.064 0.701153 0.25767 0
M  V30 9318 H 869.726 1.94869 -0.0347392 0
M  V30 9319 H 868.822 2.89584 1.16394 0
M  V30 9320 N 869.123 -0.277682 1.55134 0
M  V30 9321 C 870.07 -1.34313 1.87693 0
M  V30 9322 C 871.04 -1.49298 0.727973 0
M  V30 9323 O 872.225 -1.6378 0.978807 0
M  V30 9324 C 869.365 -2.69922 2.15026 0
M  V30 9325 C 868.478 -2.63197 3.42565 0
M  V30 9326 C 867.613 -3.90955 3.59622 0
M  V30 9327 C 866.652 -3.78722 4.8087 0
M  V30 9328 N 865.789 -4.98303 4.94609 0
M  V30 9329 H 870.629 -1.05847 2.78569 0
M  V30 9330 H 868.166 -0.511469 1.37922 0
M  V30 9331 H 870.124 -3.48817 2.28872 0
M  V30 9332 H 868.754 -2.966 1.2739 0
M  V30 9333 H 867.806 -1.76038 3.37216 0
M  V30 9334 H 869.118 -2.50056 4.31594 0
M  V30 9335 H 868.272 -4.78291 3.7326 0
M  V30 9336 H 867.011 -4.06957 2.6877 0
M  V30 9337 H 866.016 -2.89769 4.67241 0
M  V30 9338 H 867.241 -3.64242 5.73153 0
M  V30 9339 H 865.187 -5.14725 4.06687 0
M  V30 9340 H 865.104 -4.87675 5.77676 0
M  V30 9341 H 866.372 -5.87225 5.12628 0
M  V30 9342 N 870.601 -1.47988 -0.541979 0
M  V30 9343 C 871.85 -1.5465 -1.29485 0
M  V30 9344 C 872.163 -0.220041 -1.94358 0
M  V30 9345 O 873.369 -0.164792 -2.70999 0
M  V30 9346 C 871.825 -2.72685 -2.34885 0
M  V30 9347 C 871.433 -4.11923 -1.76134 0
M  V30 9348 C 873.177 -2.88651 -3.11257 0
M  V30 9349 C 871.084 -5.21237 -2.79404 0
M  V30 9350 H 870.014 -0.575688 -0.486928 0
M  V30 9351 H 872.665 -1.74296 -0.573853 0
M  V30 9352 H 871.047 -2.46448 -3.09966 0
M  V30 9353 H 872.221 -4.48128 -1.07322 0
M  V30 9354 H 870.536 -4.00972 -1.12295 0
M  V30 9355 H 873.133 -3.67487 -3.88404 0
M  V30 9356 H 873.476 -1.97658 -3.66384 0
M  V30 9357 H 874.009 -3.14731 -2.43288 0
M  V30 9358 H 870.748 -6.14156 -2.29113 0
M  V30 9359 H 870.268 -4.89533 -3.4658 0
M  V30 9360 H 871.947 -5.48839 -3.42615 0
M  V30 9361 N 872.079 0.78992 -1.36375 0
M  V30 9362 C 872.989 1.93386 -1.32812 0
M  V30 9363 C 874.005 1.72468 -0.230377 0
M  V30 9364 O 875.181 1.96014 -0.462657 0
M  V30 9365 C 872.246 3.2824 -1.11621 0
M  V30 9366 C 871.307 3.61939 -2.30865 0
M  V30 9367 C 870.54 4.90359 -2.10675 0
M  V30 9368 O 870.763 5.6005 -1.08168 0
M  V30 9369 O 869.697 5.22702 -2.9844 0
M  V30 9370 H 873.523 1.99342 -2.29121 0
M  V30 9371 H 871.108 0.9301 -1.16917 0
M  V30 9372 H 872.99 4.08939 -1.01719 0
M  V30 9373 H 871.665 3.23178 -0.183732 0
M  V30 9374 H 870.572 2.81549 -2.46335 0
M  V30 9375 H 871.905 3.71725 -3.22617 0
M  V30 9376 N 873.557 1.20646 1.01402 0
M  V30 9377 C 874.487 0.98155 2.11867 0
M  V30 9378 C 875.468 -0.0903712 1.6986 0
M  V30 9379 O 876.653 0.0676586 1.94082 0
M  V30 9380 C 873.783 0.535636 3.43145 0
M  V30 9381 C 872.737 1.55109 3.98905 0
M  V30 9382 C 872.063 0.961725 5.2598 0
M  V30 9383 C 873.363 2.93552 4.32001 0
M  V30 9384 H 875.057 1.90544 2.3094 0
M  V30 9385 H 872.603 0.917554 1.10982 0
M  V30 9386 H 874.556 0.365512 4.19812 0
M  V30 9387 H 873.28 -0.423882 3.23838 0
M  V30 9388 H 871.939 1.70862 3.24348 0
M  V30 9389 H 871.587 -0.00580108 5.03 0
M  V30 9390 H 871.287 1.63993 5.64252 0
M  V30 9391 H 872.811 0.802726 6.053 0
M  V30 9392 H 874.225 2.81295 4.99546 0
M  V30 9393 H 872.622 3.58303 4.81393 0
M  V30 9394 H 873.692 3.4508 3.40658 0
M  V30 9395 N 875.035 -1.20752 1.01276 0
M  V30 9396 C 876.265 -1.93725 0.717934 0
M  V30 9397 C 876.673 -1.74769 -0.724732 0
M  V30 9398 O 876.016 -1.05642 -1.50285 0
M  V30 9399 C 876.078 -3.46196 0.968954 0
M  V30 9400 C 875.742 -3.88909 2.39998 0
M  V30 9401 C 876.739 -3.94982 3.38061 0
M  V30 9402 C 874.424 -4.21006 2.7397 0
M  V30 9403 C 876.418 -4.32558 4.68159 0
M  V30 9404 C 874.105 -4.58257 4.04282 0
M  V30 9405 C 875.103 -4.64004 5.01187 0
M  V30 9406 O 874.791 -5.00403 6.29168 0
M  V30 9407 H 874.523 -0.622663 0.263186 0
M  V30 9408 H 877.077 -1.54299 1.35577 0
M  V30 9409 H 875.307 -3.85728 0.273952 0
M  V30 9410 H 876.996 -4.00394 0.666312 0
M  V30 9411 H 877.762 -3.70353 3.13151 0
M  V30 9412 H 873.641 -4.15725 1.99233 0
M  V30 9413 H 877.185 -4.36959 5.43795 0
M  V30 9414 H 873.082 -4.82341 4.28973 0
M  V30 9415 H 873.85 -5.18409 6.33399 0
M  V30 9416 N 876.513 -0.788492 -1.36457 0
M  V30 9417 C 877.753 -0.365855 -2.01099 0
M  V30 9418 C 878.117 1.04262 -1.61225 0
M  V30 9419 O 879.318 1.56628 -2.18451 0
M  V30 9420 C 877.589 -0.523344 -3.53548 0
M  V30 9421 S 879.148 -0.188448 -4.38395 0
M  V30 9422 H 875.966 -0.139832 -0.697114 0
M  V30 9423 H 878.568 -1.02678 -1.66365 0
M  V30 9424 H 877.272 -1.54874 -3.80055 0
M  V30 9425 H 876.803 0.153547 -3.931 0
M  V30 9426 H 878.818 1.0103 -4.85806 0
M  V30 9427 N 877.991 1.48044 -0.54043 0
M  V30 9428 C 878.923 2.2779 0.253854 0
M  V30 9429 C 879.936 1.35999 0.894883 0
M  V30 9430 O 881.125 1.60963 0.771563 0
M  V30 9431 C 878.225 3.09724 1.37566 0
M  V30 9432 C 877.398 4.29364 0.83459 0
M  V30 9433 C 876.457 4.93026 1.83881 0
M  V30 9434 O 875.483 5.51927 1.39159 0
M  V30 9435 N 876.685 4.86207 3.17149 0
M  V30 9436 H 879.45 2.96597 -0.430125 0
M  V30 9437 H 877.011 1.57487 -0.375423 0
M  V30 9438 H 879.003 3.49181 2.04584 0
M  V30 9439 H 877.573 2.43269 1.96314 0
M  V30 9440 H 876.793 3.94198 -0.0118878 0
M  V30 9441 H 878.081 5.06787 0.452155 0
M  V30 9442 H 877.479 4.39523 3.56141 0
M  V30 9443 H 876.036 5.29733 3.79771 0
M  V30 9444 N 879.47 0.276058 1.55163 0
M  V30 9445 C 880.886 -0.0780579 1.59409 0
M  V30 9446 C 881.086 -1.54521 1.29327 0
M  V30 9447 O 880.142 -2.29422 1.05459 0
M  V30 9448 C 881.455 0.297422 2.99225 0
M  V30 9449 C 883.003 0.244117 3.12047 0
M  V30 9450 C 883.478 0.594051 4.54131 0
M  V30 9451 N 884.969 0.54564 4.59975 0
M  V30 9452 C 885.704 0.789192 5.67943 0
M  V30 9453 N 885.2 1.09741 6.84053 0
M  V30 9454 N 886.993 0.717926 5.57496 0
M  V30 9455 H 879.144 1.23251 1.72982 0
M  V30 9456 H 881.407 0.497988 0.806667 0
M  V30 9457 H 881.113 1.31782 3.26077 0
M  V30 9458 H 880.987 -0.361286 3.75466 0
M  V30 9459 H 883.374 -0.766992 2.84958 0
M  V30 9460 H 883.455 0.937097 2.38017 0
M  V30 9461 H 883.099 1.60285 4.81945 0
M  V30 9462 H 883.029 -0.120728 5.26462 0
M  V30 9463 H 885.52 0.317334 3.76565 0
M  V30 9464 H 885.833 1.26989 7.62295 0
M  V30 9465 H 884.178 1.13519 6.85666 0
M  V30 9466 H 887.369 0.47697 4.65664 0
M  V30 9467 H 887.542 0.911118 6.41563 0
M  V30 9468 N 880.948 -1.576 0.00335426 0
M  V30 9469 C 882.195 -1.90713 -0.680791 0
M  V30 9470 C 882.523 -0.877263 -1.73592 0
M  V30 9471 O 881.778 0.117497 -1.95347 0
M  V30 9472 C 882.077 -3.3058 -1.35837 0
M  V30 9473 C 881.743 -4.48786 -0.436111 0
M  V30 9474 C 880.405 -4.80855 -0.182195 0
M  V30 9475 C 882.757 -5.20821 0.198677 0
M  V30 9476 C 880.085 -5.8233 0.714747 0
M  V30 9477 C 882.437 -6.23252 1.08351 0
M  V30 9478 C 881.101 -6.53776 1.34658 0
M  V30 9479 H 880.371 -0.697869 -0.249119 0
M  V30 9480 H 883.018 -1.91407 0.0596011 0
M  V30 9481 H 881.323 -3.26026 -2.17289 0
M  V30 9482 H 883.02 -3.53462 -1.89383 0
M  V30 9483 H 879.61 -4.23731 -0.644186 0
M  V30 9484 H 883.794 -4.96298 0.0155259 0
M  V30 9485 H 879.05 -6.04339 0.926529 0
M  V30 9486 H 883.224 -6.78199 1.58172 0
M  V30 9487 H 880.851 -7.32225 2.04328 0
M  V30 9488 N 882.426 0.269451 -1.5528 0
M  V30 9489 C 883.373 1.33316 -1.88403 0
M  V30 9490 C 884.343 1.48909 -0.735881 0
M  V30 9491 O 885.528 1.63259 -0.987479 0
M  V30 9492 C 882.668 2.68778 -2.16454 0
M  V30 9493 C 881.781 2.61377 -3.43956 0
M  V30 9494 C 880.916 3.89042 -3.6169 0
M  V30 9495 C 879.955 3.76166 -4.82872 0
M  V30 9496 N 879.092 4.95673 -4.97245 0
M  V30 9497 H 883.932 1.04368 -2.79126 0
M  V30 9498 H 881.469 0.504147 -1.38191 0
M  V30 9499 H 883.427 3.47599 -2.30719 0
M  V30 9500 H 882.057 2.9592 -1.28961 0
M  V30 9501 H 881.109 1.74247 -3.38145 0
M  V30 9502 H 882.421 2.47764 -4.32914 0
M  V30 9503 H 881.575 4.76304 -3.75791 0
M  V30 9504 H 880.314 4.05526 -2.70924 0
M  V30 9505 H 879.319 2.87287 -4.68771 0
M  V30 9506 H 880.544 3.61198 -5.75077 0
M  V30 9507 H 878.49 5.12561 -4.09411 0
M  V30 9508 H 878.407 4.84605 -5.80254 0
M  V30 9509 H 879.675 5.84498 -5.15735 0
M  V30 9510 N 883.904 1.48273 0.534124 0
M  V30 9511 C 884.814 1.65162 1.66609 0
M  V30 9512 C 885.83 0.534177 1.65598 0
M  V30 9513 O 887.006 0.804715 1.84625 0
M  V30 9514 C 884.071 1.68354 3.03081 0
M  V30 9515 C 883.132 2.91696 3.1498 0
M  V30 9516 C 882.365 2.94725 4.44941 0
M  V30 9517 O 882.588 2.06285 5.31792 0
M  V30 9518 O 881.522 3.8685 4.61119 0
M  V30 9519 H 885.348 2.60991 1.55298 0
M  V30 9520 H 882.933 1.31626 0.706749 0
M  V30 9521 H 884.815 1.72998 3.84252 0
M  V30 9522 H 883.49 0.756978 3.14725 0
M  V30 9523 H 882.397 2.92586 2.33119 0
M  V30 9524 H 883.73 3.83722 3.0825 0
M  V30 9525 N 885.382 -0.782676 1.36792 0
M  V30 9526 C 886.345 -1.8772 1.31507 0
M  V30 9527 C 887.345 -1.59269 0.221349 0
M  V30 9528 O 888.535 -1.67555 0.476544 0
M  V30 9529 C 885.667 -3.24641 1.04025 0
M  V30 9530 H 886.86 -1.9382 2.28853 0
M  V30 9531 H 884.413 -0.981226 1.21662 0
M  V30 9532 H 885.148 -3.24221 0.0716439 0
M  V30 9533 H 884.933 -3.46681 1.8318 0
M  V30 9534 H 886.423 -4.04711 1.02949 0
M  V30 9535 N 886.86 -1.21182 -1.00761 0
M  V30 9536 C 888.108 -1.02543 -1.74153 0
M  V30 9537 C 888.429 0.442372 -1.89916 0
M  V30 9538 O 887.699 1.31927 -1.44818 0
M  V30 9539 H 886.279 -0.37644 -0.645214 0
M  V30 9540 H 888.941 -1.52446 -1.21434 0
M  V30 9541 H 888.037 -1.49122 -2.7417 0
M  V30 9542 N 888.338 1.20213 -1.01915 0
M  V30 9543 C 889.288 2.20957 -0.562327 0
M  V30 9544 C 890.272 1.56258 0.383704 0
M  V30 9545 O 891.464 1.75794 0.206255 0
M  V30 9546 C 888.593 3.43167 0.0954035 0
M  V30 9547 C 887.679 4.15028 -0.872487 0
M  V30 9548 N 888.07 4.63231 -2.03103 0
M  V30 9549 C 886.368 4.4057 -0.69385 0
M  V30 9550 C 887.069 5.18307 -2.64069 0
M  V30 9551 N 886.045 5.08522 -1.9211 0
M  V30 9552 H 889.847 2.55894 -1.44553 0
M  V30 9553 H 887.361 1.36178 -0.884831 0
M  V30 9554 H 889.358 4.14569 0.440232 0
M  V30 9555 H 888.018 3.09734 0.974413 0
M  V30 9556 H 889.029 4.58365 -2.41086 0
M  V30 9557 H 885.706 4.17276 0.136889 0
M  V30 9558 H 887.096 5.65961 -3.6213 0
M  V30 9559 N 889.816 0.795718 1.36037 0
M  V30 9560 C 890.748 0.156336 2.28666 0
M  V30 9561 C 891.761 -0.638075 1.49775 0
M  V30 9562 O 892.95 -0.472222 1.7214 0
M  V30 9563 C 890.05 -0.801417 3.29288 0
M  V30 9564 C 889.223 -0.0557118 4.37365 0
M  V30 9565 C 888.282 -0.930338 5.1791 0
M  V30 9566 O 887.308 -0.385266 5.67895 0
M  V30 9567 N 888.51 -2.25382 5.34961 0
M  V30 9568 H 891.275 0.952033 2.84177 0
M  V30 9569 H 888.836 0.650189 1.48271 0
M  V30 9570 H 890.828 -1.39051 3.80062 0
M  V30 9571 H 889.398 -1.49796 2.74372 0
M  V30 9572 H 888.618 0.714508 3.87671 0
M  V30 9573 H 889.906 0.458633 5.06729 0
M  V30 9574 H 889.304 -2.72073 4.95977 0
M  V30 9575 H 887.861 -2.79241 5.88955 0
M  V30 9576 N 891.294 -1.47756 0.548274 0
M  V30 9577 C 892.705 -1.8636 0.112547 0
M  V30 9578 C 893.056 -1.45589 -1.31523 0
M  V30 9579 O 892.181 -0.854874 -1.98799 0
M  V30 9580 C 892.776 -3.38224 0.197473 0
M  V30 9581 C 891.335 -3.75954 -0.183163 0
M  V30 9582 C 890.482 -2.7181 0.549059 0
M  V30 9583 H 893.433 -1.394 0.758506 0
M  V30 9584 H 893.454 -3.75957 -0.586217 0
M  V30 9585 H 892.966 -3.67868 1.23673 0
M  V30 9586 H 891.067 -3.51926 -1.22387 0
M  V30 9587 H 891.18 -4.78801 0.169178 0
M  V30 9588 H 889.544 -2.54699 -0.00682862 0
M  V30 9589 H 890.327 -3.04296 1.5893 0
M  V30 9590 N 892.772 -0.284283 -1.55015 0
M  V30 9591 C 893.702 0.592663 -2.25853 0
M  V30 9592 C 894.683 1.15151 -1.25197 0
M  V30 9593 O 895.868 1.18395 -1.53936 0
M  V30 9594 C 892.998 1.77254 -2.98661 0
M  V30 9595 C 891.952 1.34482 -4.06323 0
M  V30 9596 C 891.278 2.60853 -4.66754 0
M  V30 9597 C 892.578 0.488288 -5.20013 0
M  V30 9598 H 894.272 0.00187041 -2.994 0
M  V30 9599 H 891.818 -0.000540402 -1.44 0
M  V30 9600 H 893.771 2.39199 -3.46932 0
M  V30 9601 H 892.495 2.38931 -2.22664 0
M  V30 9602 H 891.154 0.748519 -3.58877 0
M  V30 9603 H 890.802 3.20808 -3.87416 0
M  V30 9604 H 890.502 2.32942 -5.39455 0
M  V30 9605 H 892.026 3.23631 -5.1778 0
M  V30 9606 H 893.44 1.01298 -5.6428 0
M  V30 9607 H 891.837 0.303669 -5.99331 0
M  V30 9608 H 892.907 -0.490727 -4.8241 0
M  V30 9609 N 894.251 1.57596 -0.0117121 0
M  V30 9610 C 895.662 1.79033 0.529521 0
M  V30 9611 C 896.013 0.920299 1.73277 0
M  V30 9612 O 895.138 0.125934 2.16033 0
M  V30 9613 C 895.733 3.24695 0.967405 0
M  V30 9614 C 894.292 3.47188 1.45387 0
M  V30 9615 C 893.439 2.74245 0.410466 0
M  V30 9616 H 896.39 1.56908 -0.237836 0
M  V30 9617 H 896.411 3.33451 1.83278 0
M  V30 9618 H 895.923 3.87992 0.0914605 0
M  V30 9619 H 894.024 2.89121 2.35032 0
M  V30 9620 H 894.137 4.55886 1.47325 0
M  V30 9621 H 892.501 2.39209 0.874721 0
M  V30 9622 H 893.284 3.40248 -0.456713 0
M  V30 9623 N 895.729 -0.261212 1.5542 0
M  V30 9624 C 896.975 -0.992699 1.76843 0
M  V30 9625 C 897.308 -1.8551 0.574428 0
M  V30 9626 O 896.583 -1.89739 -0.427713 0
M  V30 9627 C 896.866 -1.86532 3.08022 0
M  V30 9628 C 896.719 -1.03206 4.378 0
M  V30 9629 C 898.038 -2.85036 3.35324 0
M  V30 9630 H 895.157 -0.359473 0.643388 0
M  V30 9631 H 897.799 -0.264214 1.88154 0
M  V30 9632 H 895.949 -2.48644 2.9851 0
M  V30 9633 H 897.621 -0.430743 4.59285 0
M  V30 9634 H 895.864 -0.335911 4.32497 0
M  V30 9635 H 896.535 -1.6761 5.25938 0
M  V30 9636 H 899.011 -2.3306 3.44706 0
M  V30 9637 H 897.887 -3.43226 4.28354 0
M  V30 9638 H 898.148 -3.60768 2.55537 0
M  V30 9639 N 897.207 -1.48554 -0.526253 0
M  V30 9640 C 898.454 -1.56761 -1.28188 0
M  V30 9641 C 898.782 -0.24315 -1.92974 0
M  V30 9642 O 898.037 0.766883 -1.80048 0
M  V30 9643 C 898.336 -2.65739 -2.38993 0
M  V30 9644 C 898.002 -4.08057 -1.91834 0
M  V30 9645 C 896.664 -4.46792 -1.78691 0
M  V30 9646 C 899.016 -4.9723 -1.56242 0
M  V30 9647 C 896.344 -5.72501 -1.28296 0
M  V30 9648 C 898.696 -6.23432 -1.07309 0
M  V30 9649 C 897.36 -6.6102 -0.927853 0
M  V30 9650 H 896.63 -0.573631 -0.469072 0
M  V30 9651 H 899.277 -1.82287 -0.586842 0
M  V30 9652 H 897.582 -2.34088 -3.14181 0
M  V30 9653 H 899.279 -2.69304 -2.97113 0
M  V30 9654 H 895.869 -3.77469 -2.03016 0
M  V30 9655 H 900.053 -4.67979 -1.65255 0
M  V30 9656 H 895.309 -6.00345 -1.15742 0
M  V30 9657 H 899.483 -6.91923 -0.788412 0
M  V30 9658 H 897.11 -7.58314 -0.535162 0
M  V30 9659 N 898.685 0.775411 -1.37205 0
M  V30 9660 C 899.913 1.56446 -1.35397 0
M  V30 9661 C 900.328 1.887 0.0615437 0
M  V30 9662 O 899.685 1.51178 1.02233 0
M  V30 9663 C 899.736 2.87697 -2.18889 0
M  V30 9664 O 899.457 2.56828 -3.54924 0
M  V30 9665 C 900.958 3.81944 -2.25019 0
M  V30 9666 H 898.178 0.484792 -0.463916 0
M  V30 9667 H 900.722 0.961346 -1.80495 0
M  V30 9668 H 898.877 3.44442 -1.7731 0
M  V30 9669 H 899.291 3.40851 -3.98649 0
M  V30 9670 H 900.765 4.71055 -2.87769 0
M  V30 9671 H 901.242 4.20811 -1.25757 0
M  V30 9672 H 901.848 3.3113 -2.66895 0
M  V30 9673 N 900.163 1.21714 1.00117 0
M  V30 9674 C 901.574 1.03477 1.55401 0
M  V30 9675 C 901.925 -0.40429 1.91989 0
M  V30 9676 O 901.05 -1.28807 1.7389 0
M  V30 9677 C 901.645 1.87213 2.82377 0
M  V30 9678 C 900.204 1.73297 3.34133 0
M  V30 9679 C 899.351 1.84189 2.07291 0
M  V30 9680 H 902.302 1.3568 0.823195 0
M  V30 9681 H 902.323 1.38465 3.54412 0
M  V30 9682 H 901.835 2.91944 2.55715 0
M  V30 9683 H 899.936 0.712662 3.65721 0
M  V30 9684 H 900.049 2.55486 4.05294 0
M  V30 9685 H 898.413 1.27538 2.20468 0
M  V30 9686 H 899.196 2.90435 1.83037 0
M  V30 9687 N 901.641 -1.19671 1.02551 0
M  V30 9688 C 903.052 -1.70964 0.750208 0
M  V30 9689 C 903.403 -1.82095 -0.730461 0
M  V30 9690 O 902.528 -1.48974 -1.56958 0
M  V30 9691 C 903.123 -3.10516 1.35518 0
M  V30 9692 C 901.682 -3.59083 1.12854 0
M  V30 9693 C 900.829 -2.36041 1.45534 0
M  V30 9694 H 903.78 -1.04559 1.19386 0
M  V30 9695 H 903.801 -3.73028 0.750378 0
M  V30 9696 H 903.313 -3.02383 2.43282 0
M  V30 9697 H 901.414 -3.72536 0.0689627 0
M  V30 9698 H 901.527 -4.43395 1.81488 0
M  V30 9699 H 899.891 -2.39214 0.87458 0
M  V30 9700 H 900.674 -2.3054 2.54374 0
M  V30 9701 N 903.119 -0.802921 -1.35613 0
M  V30 9702 C 904.029 -0.212177 -2.33639 0
M  V30 9703 C 905.045 0.642871 -1.61689 0
M  V30 9704 O 906.221 0.555485 -1.93588 0
M  V30 9705 C 903.286 0.632406 -3.40883 0
M  V30 9706 C 902.347 -0.242708 -4.28613 0
M  V30 9707 C 901.58 0.56166 -5.30736 0
M  V30 9708 O 901.803 1.79664 -5.41366 0
M  V30 9709 O 900.737 -0.0455387 -6.01883 0
M  V30 9710 H 904.563 -1.023 -2.85952 0
M  V30 9711 H 902.148 -0.564636 -1.38319 0
M  V30 9712 H 904.03 1.11358 -4.0642 0
M  V30 9713 H 902.705 1.42089 -2.90848 0
M  V30 9714 H 901.612 -0.77094 -3.6607 0
M  V30 9715 H 902.945 -0.995046 -4.82037 0
M  V30 9716 N 904.597 1.47463 -0.556102 0
M  V30 9717 C 905.507 2.33785 0.195378 0
M  V30 9718 C 906.523 1.48123 0.913 0
M  V30 9719 O 907.699 1.81053 0.882141 0
M  V30 9720 C 904.764 3.24795 1.21282 0
M  V30 9721 C 903.825 4.26346 0.502747 0
M  V30 9722 C 903.058 5.13007 1.47172 0
M  V30 9723 O 903.281 5.02103 2.70646 0
M  V30 9724 O 902.215 5.93588 0.996814 0
M  V30 9725 H 906.041 2.99341 -0.512676 0
M  V30 9726 H 903.626 1.46004 -0.31673 0
M  V30 9727 H 905.508 3.81015 1.80016 0
M  V30 9728 H 904.183 2.61868 1.90282 0
M  V30 9729 H 903.09 3.73889 -0.125757 0
M  V30 9730 H 904.423 4.91984 -0.145779 0
M  V30 9731 N 906.075 0.2925 1.54862 0
M  V30 9732 C 907.486 -0.201841 1.85606 0
M  V30 9733 C 907.837 -1.54093 1.21449 0
M  V30 9734 O 906.962 -2.10327 0.509079 0
M  V30 9735 C 907.557 -0.373011 3.3674 0
M  V30 9736 C 906.116 -0.811574 3.67547 0
M  V30 9737 C 905.263 0.0850583 2.7717 0
M  V30 9738 H 908.214 0.513774 1.50153 0
M  V30 9739 H 908.235 -1.20892 3.60785 0
M  V30 9740 H 907.747 0.601751 3.83407 0
M  V30 9741 H 905.848 -1.79719 3.26392 0
M  V30 9742 H 905.961 -0.636853 4.74848 0
M  V30 9743 H 904.325 -0.434224 2.50971 0
M  V30 9744 H 905.108 1.05602 3.26654 0
M  V30 9745 N 907.553 -1.57587 0.0200696 0
M  V30 9746 C 908.964 -1.79312 -0.520019 0
M  V30 9747 C 909.315 -0.929475 -1.72787 0
M  V30 9748 O 908.44 -0.137389 -2.15963 0
M  V30 9749 C 909.035 -3.25203 -0.950172 0
M  V30 9750 C 907.594 -3.47954 -1.43543 0
M  V30 9751 C 906.741 -2.74459 -0.395917 0
M  V30 9752 H 909.692 -1.56779 0.246153 0
M  V30 9753 H 909.713 -3.34418 -1.81508 0
M  V30 9754 H 909.225 -3.88035 -0.070883 0
M  V30 9755 H 907.326 -2.90363 -2.33495 0
M  V30 9756 H 907.439 -4.56661 -1.44905 0
M  V30 9757 H 905.803 -2.39669 -0.862022 0
M  V30 9758 H 906.586 -3.40001 0.47475 0
M  V30 9759 N 909.032 0.252966 -1.55557 0
M  V30 9760 C 909.942 1.33472 -1.92931 0
M  V30 9761 C 910.958 1.52983 -0.828985 0
M  V30 9762 O 912.134 1.66723 -1.12984 0
M  V30 9763 C 909.199 2.6704 -2.21112 0
M  V30 9764 C 908.26 2.56103 -3.44542 0
M  V30 9765 C 907.493 3.83302 -3.71369 0
M  V30 9766 O 907.716 4.84907 -3.00368 0
M  V30 9767 O 906.65 3.823 -4.64898 0
M  V30 9768 H 910.476 1.04768 -2.85057 0
M  V30 9769 H 908.061 0.453208 -1.4236 0
M  V30 9770 H 909.943 3.45981 -2.40572 0
M  V30 9771 H 908.618 2.95489 -1.32166 0
M  V30 9772 H 907.525 1.7547 -3.30396 0
M  V30 9773 H 908.858 2.32601 -4.33772 0
M  V30 9774 N 910.51 1.48831 0.518367 0
M  V30 9775 C 911.758 1.57128 1.27103 0
M  V30 9776 C 912.079 0.252098 1.93364 0
M  V30 9777 O 911.349 -0.727281 1.819 0
M  V30 9778 H 909.929 0.578891 0.472116 0
M  V30 9779 H 912.591 1.85361 0.602262 0
M  V30 9780 H 911.687 2.35838 2.04418 0
M  V30 9781 N 911.988 -0.768124 1.37614 0
M  V30 9782 C 913.235 -1.5268 1.33022 0
M  V30 9783 C 913.563 -1.94318 -0.0841918 0
M  V30 9784 O 912.818 -1.64623 -1.0582 0
M  V30 9785 C 913.117 -2.80204 2.21856 0
M  V30 9786 C 912.783 -2.57602 3.7007 0
M  V30 9787 C 911.445 -2.51146 4.10462 0
M  V30 9788 C 913.797 -2.37482 4.63952 0
M  V30 9789 C 911.125 -2.22566 5.42846 0
M  V30 9790 C 913.477 -2.10425 5.96577 0
M  V30 9791 C 912.141 -2.02416 6.36069 0
M  V30 9792 H 911.411 -0.558697 0.486763 0
M  V30 9793 H 914.058 -0.88447 1.69851 0
M  V30 9794 H 912.363 -3.49014 1.78034 0
M  V30 9795 H 914.06 -3.38099 2.15615 0
M  V30 9796 H 910.65 -2.63491 3.38039 0
M  V30 9797 H 914.834 -2.41457 4.33604 0
M  V30 9798 H 910.09 -2.14863 5.72402 0
M  V30 9799 H 914.264 -1.93857 6.68874 0
M  V30 9800 H 911.891 -1.80034 7.38574 0
M  V30 9801 N 913.466 -1.22244 -0.994698 0
M  V30 9802 C 914.696 -1.07062 -1.76695 0
M  V30 9803 C 915.104 0.381895 -1.85306 0
M  V30 9804 O 914.447 1.27648 -1.32105 0
M  V30 9805 C 914.509 -1.60487 -3.2169 0
M  V30 9806 C 914.173 -3.09079 -3.36629 0
M  V30 9807 C 915.17 -4.06526 -3.24088 0
M  V30 9808 C 912.855 -3.48497 -3.61739 0
M  V30 9809 C 914.849 -5.41377 -3.36437 0
M  V30 9810 C 912.536 -4.83498 -3.73729 0
M  V30 9811 C 913.534 -5.79747 -3.61086 0
M  V30 9812 O 913.222 -7.12297 -3.72678 0
M  V30 9813 H 912.954 -0.375963 -0.561807 0
M  V30 9814 H 915.508 -1.62259 -1.25941 0
M  V30 9815 H 913.738 -0.996957 -3.73628 0
M  V30 9816 H 915.427 -1.40994 -3.80625 0
M  V30 9817 H 916.193 -3.77415 -3.04602 0
M  V30 9818 H 912.072 -2.74106 -3.70657 0
M  V30 9819 H 915.616 -6.16485 -3.26485 0
M  V30 9820 H 911.513 -5.1229 -3.92721 0
M  V30 9821 H 912.281 -7.1985 -3.89562 0
M  V30 9822 N 914.944 1.19125 -1.03184 0
M  V30 9823 C 916.36 1.40909 -0.749447 0
M  V30 9824 C 916.56 1.9022 0.664729 0
M  V30 9825 O 915.616 2.08085 1.43028 0
M  V30 9826 C 916.929 2.41761 -1.78807 0
M  V30 9827 C 918.477 2.55503 -1.80796 0
M  V30 9828 C 918.952 3.59612 -2.83626 0
M  V30 9829 N 920.443 3.6711 -2.82461 0
M  V30 9830 C 921.178 4.47366 -3.5868 0
M  V30 9831 N 920.674 5.31302 -4.44623 0
M  V30 9832 N 922.467 4.42044 -3.47208 0
M  V30 9833 H 914.618 0.854399 -1.94458 0
M  V30 9834 H 916.881 0.437753 -0.840878 0
M  V30 9835 H 916.587 2.12559 -2.80199 0
M  V30 9836 H 916.461 3.40981 -1.61283 0
M  V30 9837 H 918.848 2.84027 -0.800803 0
M  V30 9838 H 918.929 1.56427 -2.02396 0
M  V30 9839 H 918.573 3.3183 -3.84515 0
M  V30 9840 H 918.503 4.58345 -2.59283 0
M  V30 9841 H 920.994 3.07166 -2.2013 0
M  V30 9842 H 921.307 5.89667 -4.99512 0
M  V30 9843 H 919.652 5.30753 -4.48694 0
M  V30 9844 H 922.843 3.75513 -2.79477 0
M  V30 9845 H 923.016 5.0435 -4.06859 0
M  V30 9846 N 916.422 0.810101 1.35185 0
M  V30 9847 C 917.352 0.237453 2.32289 0
M  V30 9848 C 918.333 -0.639032 1.5764 0
M  V30 9849 O 919.518 -0.568575 1.8569 0
M  V30 9850 C 916.648 -0.611964 3.41866 0
M  V30 9851 C 915.602 0.166318 4.27677 0
M  V30 9852 C 914.928 -0.805024 5.28605 0
M  V30 9853 C 916.228 1.36729 5.04086 0
M  V30 9854 H 917.922 1.04874 2.80432 0
M  V30 9855 H 915.468 0.505751 1.34826 0
M  V30 9856 H 917.421 -1.02267 4.08802 0
M  V30 9857 H 916.145 -1.45617 2.92341 0
M  V30 9858 H 914.804 0.558238 3.62325 0
M  V30 9859 H 914.452 -1.64483 4.75347 0
M  V30 9860 H 914.152 -0.288577 5.86891 0
M  V30 9861 H 915.676 -1.21386 5.98413 0
M  V30 9862 H 917.09 1.03128 5.63948 0
M  V30 9863 H 915.487 1.81848 5.71884 0
M  V30 9864 H 916.557 2.15214 4.34524 0
M  V30 9865 N 917.9 -1.47166 0.563914 0
M  V30 9866 C 918.83 -2.32894 -0.168148 0
M  V30 9867 C 919.811 -1.44202 -0.902214 0
M  V30 9868 O 920.996 -1.73048 -0.881365 0
M  V30 9869 C 918.126 -3.26116 -1.19439 0
M  V30 9870 C 917.08 -4.24101 -0.576363 0
M  V30 9871 C 916.406 -5.06696 -1.70772 0
M  V30 9872 C 917.706 -5.20142 0.47425 0
M  V30 9873 H 919.4 -2.9435 0.547573 0
M  V30 9874 H 916.946 -1.41545 0.264778 0
M  V30 9875 H 918.899 -3.84935 -1.71474 0
M  V30 9876 H 917.623 -2.62728 -1.94014 0
M  V30 9877 H 916.282 -3.66519 -0.0772534 0
M  V30 9878 H 915.93 -4.39707 -2.44268 0
M  V30 9879 H 915.63 -5.7304 -1.29994 0
M  V30 9880 H 917.154 -5.68375 -2.2312 0
M  V30 9881 H 918.568 -5.73286 0.0397035 0
M  V30 9882 H 916.965 -5.94726 0.801287 0
M  V30 9883 H 918.035 -4.65214 1.36764 0
M  V30 9884 N 919.378 -0.300708 -1.54705 0
M  V30 9885 C 920.608 0.310819 -2.04249 0
M  V30 9886 C 921.016 1.4809 -1.17754 0
M  V30 9887 O 920.359 1.82654 -0.195779 0
M  V30 9888 C 920.421 0.83014 -3.49784 0
M  V30 9889 C 920.085 -0.214628 -4.56496 0
M  V30 9890 C 921.082 -1.04298 -5.09331 0
M  V30 9891 C 918.767 -0.356242 -5.01035 0
M  V30 9892 C 920.761 -1.99889 -6.05246 0
M  V30 9893 C 918.448 -1.3156 -5.96771 0
M  V30 9894 C 919.446 -2.1354 -6.4876 0
M  V30 9895 O 919.134 -3.07849 -7.4262 0
M  V30 9896 H 918.866 0.0715341 -0.672204 0
M  V30 9897 H 921.42 -0.438179 -2.00672 0
M  V30 9898 H 919.65 1.62966 -3.50684 0
M  V30 9899 H 921.339 1.35752 -3.82526 0
M  V30 9900 H 922.105 -0.944439 -4.75716 0
M  V30 9901 H 917.984 0.271916 -4.60197 0
M  V30 9902 H 921.528 -2.63917 -6.45751 0
M  V30 9903 H 917.425 -1.41486 -6.29803 0
M  V30 9904 H 918.193 -3.02824 -7.60421 0
M  V30 9905 N 920.856 1.57574 -0.0284266 0
M  V30 9906 C 922.104 1.91393 0.649079 0
M  V30 9907 C 922.425 0.905368 1.72708 0
M  V30 9908 O 921.695 -0.0532107 1.95828 0
M  V30 9909 H 920.275 0.70646 0.24274 0
M  V30 9910 H 922.937 1.94752 -0.076066 0
M  V30 9911 H 922.033 2.91988 1.10226 0
M  V30 9912 N 922.334 -0.244713 1.55689 0
M  V30 9913 C 923.75 -0.593331 1.48161 0
M  V30 9914 C 923.95 -1.88234 0.719047 0
M  V30 9915 O 923.006 -2.51266 0.249292 0
M  V30 9916 C 924.319 -0.694032 2.92581 0
M  V30 9917 C 925.867 -0.786213 3.02965 0
M  V30 9918 C 926.342 -0.918457 4.48696 0
M  V30 9919 N 927.833 -0.983272 4.52643 0
M  V30 9920 C 928.568 -1.1049 5.62654 0
M  V30 9921 N 928.064 -1.19193 6.8247 0
M  V30 9922 N 929.857 -1.13823 5.50455 0
M  V30 9923 H 922.008 0.601446 2.03707 0
M  V30 9924 H 924.271 0.207894 0.924924 0
M  V30 9925 H 923.977 0.183133 3.51223 0
M  V30 9926 H 923.851 -1.56525 3.4319 0
M  V30 9927 H 926.238 -1.65383 2.44402 0
M  V30 9928 H 926.319 0.110202 2.55563 0
M  V30 9929 H 925.963 -0.0553881 5.0787 0
M  V30 9930 H 925.893 -1.82994 4.93782 0
M  V30 9931 H 928.384 -0.927269 3.66347 0
M  V30 9932 H 928.697 -1.28387 7.62061 0
M  V30 9933 H 927.042 -1.16147 6.85226 0
M  V30 9934 H 930.233 -1.06673 4.55783 0
M  V30 9935 H 930.406 -1.22957 6.36228 0
M  V30 9936 N 923.813 -1.49104 -0.510467 0
M  V30 9937 C 925.038 -1.62068 -1.29417 0
M  V30 9938 C 925.463 -0.288432 -1.85875 0
M  V30 9939 O 924.821 0.742667 -1.65391 0
M  V30 9940 C 924.869 -2.68506 -2.40701 0
M  V30 9941 O 923.973 -2.27021 -3.4429 0
M  V30 9942 H 923.314 -0.542778 -0.382476 0
M  V30 9943 H 925.844 -1.95228 -0.612154 0
M  V30 9944 H 925.854 -2.90383 -2.86604 0
M  V30 9945 H 924.529 -3.65216 -1.98973 0
M  V30 9946 H 923.106 -2.15436 -3.04371 0
M  V30 9947 N 925.291 0.760815 -1.38019 0
M  V30 9948 C 926.702 1.33773 -1.30237 0
M  V30 9949 C 927.053 1.96148 0.0451153 0
M  V30 9950 O 926.178 1.94574 0.9471 0
M  V30 9951 C 926.773 2.43227 -2.35851 0
M  V30 9952 C 925.332 2.96659 -2.31669 0
M  V30 9953 C 924.479 1.69972 -2.191 0
M  V30 9954 H 927.43 0.560237 -1.48482 0
M  V30 9955 H 927.451 3.22985 -2.01149 0
M  V30 9956 H 926.963 1.978 -3.33911 0
M  V30 9957 H 925.064 3.46433 -1.37167 0
M  V30 9958 H 925.177 3.51529 -3.25521 0
M  V30 9959 H 923.541 1.9332 -1.65829 0
M  V30 9960 H 924.324 1.26633 -3.19091 0
M  V30 9961 N 926.769 1.22769 0.988202 0
M  V30 9962 C 928.015 1.05665 1.73097 0
M  V30 9963 C 928.348 -0.406615 1.89895 0
M  V30 9964 O 927.623 -1.30132 1.44554 0
M  V30 9965 C 927.906 1.77381 3.13382 0
M  V30 9966 C 927.759 3.31332 3.04203 0
M  V30 9967 C 929.078 1.52999 4.12649 0
M  V30 9968 H 926.197 0.385258 0.628288 0
M  V30 9969 H 928.839 1.51171 1.15097 0
M  V30 9970 H 926.989 1.38696 3.62899 0
M  V30 9971 H 928.661 3.79489 2.6227 0
M  V30 9972 H 926.904 3.60767 2.40894 0
M  V30 9973 H 927.575 3.76692 4.03493 0
M  V30 9974 H 930.051 1.86611 3.71908 0
M  V30 9975 H 928.927 2.05666 5.08913 0
M  V30 9976 H 929.188 0.463615 4.39662 0
M  V30 9977 N 928.247 -1.18576 1.03814 0
M  V30 9978 C 929.197 -2.20034 0.597409 0
M  V30 9979 C 930.181 -1.56849 -0.358796 0
M  V30 9980 O 931.373 -1.761 -0.178262 0
M  V30 9981 C 928.502 -3.43276 -0.0407965 0
M  V30 9982 C 927.588 -4.13588 0.938404 0
M  V30 9983 N 927.979 -4.59941 2.10447 0
M  V30 9984 C 926.277 -4.3941 0.763853 0
M  V30 9985 C 926.978 -5.1404 2.72282 0
M  V30 9986 N 925.954 -5.05401 2.00176 0
M  V30 9987 H 929.756 -2.53562 1.48606 0
M  V30 9988 H 927.27 -1.34753 0.906384 0
M  V30 9989 H 929.267 -4.15217 -0.374222 0
M  V30 9990 H 927.927 -3.11245 -0.925014 0
M  V30 9991 H 928.938 -4.54471 2.48347 0
M  V30 9992 H 925.615 -4.1744 -0.0704869 0
M  V30 9993 H 927.005 -5.60128 3.71088 0
M  V30 9994 N 929.725 -0.817259 -1.34754 0
M  V30 9995 C 930.953 -0.415451 -2.02686 0
M  V30 9996 C 931.368 0.97688 -1.61563 0
M  V30 9997 O 930.725 1.63125 -0.818321 0
M  V30 9998 C 930.776 -0.501486 -3.58005 0
M  V30 9999 O 930.497 -1.83893 -3.97637 0
M  V30 10000 C 931.998 -0.0938504 -4.43201 0
M  V30 10001 H 929.218 -0.16742 -0.649778 0
M  V30 10002 H 931.762 -1.10384 -1.7215 0
M  V30 10003 H 929.917 0.138766 -3.87151 0
M  V30 10004 H 930.331 -1.8092 -4.92309 0
M  V30 10005 H 931.805 -0.205145 -5.51619 0
M  V30 10006 H 932.282 0.962011 -4.28535 0
M  V30 10007 H 932.888 -0.707677 -4.19371 0
M  V30 10008 N 931.203 1.46865 -0.571711 0
M  V30 10009 C 932.45 2.0243 -0.0531071 0
M  V30 10010 C 932.778 1.44446 1.30252 0
M  V30 10011 O 932.033 0.595182 1.8643 0
M  V30 10012 C 932.332 3.57323 0.0742311 0
M  V30 10013 C 931.998 4.34295 -1.21237 0
M  V30 10014 C 930.66 4.55044 -1.56489 0
M  V30 10015 C 933.012 4.78577 -2.0643 0
M  V30 10016 C 930.34 5.17325 -2.76752 0
M  V30 10017 C 932.692 5.42186 -3.25909 0
M  V30 10018 C 931.356 5.61165 -3.61456 0
M  V30 10019 H 930.626 0.740745 -0.0194333 0
M  V30 10020 H 933.273 1.76366 -0.74614 0
M  V30 10021 H 931.578 3.82461 0.850325 0
M  V30 10022 H 933.275 3.97982 0.491077 0
M  V30 10023 H 929.865 4.18435 -0.927922 0
M  V30 10024 H 934.049 4.62313 -1.80501 0
M  V30 10025 H 929.305 5.30211 -3.04444 0
M  V30 10026 H 933.479 5.75459 -3.92198 0
M  V30 10027 H 931.106 6.09195 -4.54737 0
M  V30 10028 N 932.681 0.308908 1.54543 0
M  V30 10029 C 933.644 -0.550857 2.22482 0
M  V30 10030 C 934.644 -1.0551 1.21344 0
M  V30 10031 O 935.834 -0.949866 1.46025 0
M  V30 10032 C 932.966 -1.76354 2.9174 0
M  V30 10033 H 934.159 0.0428395 2.99869 0
M  V30 10034 H 931.712 0.059825 1.56185 0
M  V30 10035 H 932.447 -2.39686 2.18451 0
M  V30 10036 H 932.232 -1.40954 3.65889 0
M  V30 10037 H 933.722 -2.37417 3.43545 0
M  V30 10038 N 934.159 -1.57557 0.0367827 0
M  V30 10039 C 935.575 -1.56366 -0.31967 0
M  V30 10040 C 935.775 -1.04313 -1.72398 0
M  V30 10041 O 934.831 -0.693278 -2.42796 0
M  V30 10042 C 936.144 -3.00267 -0.161274 0
M  V30 10043 C 937.692 -3.12128 -0.233464 0
M  V30 10044 C 938.167 -4.57882 -0.103767 0
M  V30 10045 N 939.658 -4.62922 -0.160506 0
M  V30 10046 C 940.393 -5.73338 -0.0840493 0
M  V30 10047 N 939.889 -6.92786 0.043933 0
M  V30 10048 N 941.682 -5.61929 -0.138592 0
M  V30 10049 H 933.833 -1.8972 0.954996 0
M  V30 10050 H 936.096 -0.87304 0.369467 0
M  V30 10051 H 935.802 -3.42331 0.80639 0
M  V30 10052 H 935.676 -3.65599 -0.928304 0
M  V30 10053 H 938.063 -2.69972 -1.19159 0
M  V30 10054 H 938.144 -2.49503 0.564075 0
M  V30 10055 H 937.788 -5.0072 0.850973 0
M  V30 10056 H 937.718 -5.18496 -0.920268 0
M  V30 10057 H 940.209 -3.7701 -0.259257 0
M  V30 10058 H 940.522 -7.72741 0.095372 0
M  V30 10059 H 938.867 -6.94955 0.0788211 0
M  V30 10060 H 942.058 -4.67499 -0.237031 0
M  V30 10061 H 942.231 -6.47956 -0.075546 0
M  V30 10062 N 935.637 0.236453 -1.55816 0
M  V30 10063 C 936.865 0.980295 -1.82203 0
M  V30 10064 C 937.28 1.7854 -0.613926 0
M  V30 10065 O 936.637 1.77661 0.417491 0
M  V30 10066 C 936.688 1.90982 -3.06933 0
M  V30 10067 O 936.409 1.13728 -4.23081 0
M  V30 10068 C 937.91 2.76879 -3.46198 0
M  V30 10069 H 935.13 0.28799 -0.606055 0
M  V30 10070 H 937.674 0.256182 -2.02889 0
M  V30 10071 H 935.829 2.58808 -2.88266 0
M  V30 10072 H 936.243 1.76694 -4.93842 0
M  V30 10073 H 937.717 3.37831 -4.36548 0
M  V30 10074 H 938.194 3.48522 -2.67262 0
M  V30 10075 H 938.8 2.1449 -3.67252 0
M  V30 10076 N 937.115 1.49373 0.502552 0
M  V30 10077 C 938.047 1.62045 1.62093 0
M  V30 10078 C 939.06 0.503221 1.54827 0
M  V30 10079 O 940.249 0.775208 1.60788 0
M  V30 10080 C 937.349 1.55971 3.00876 0
M  V30 10081 C 936.522 2.832 3.33341 0
M  V30 10082 C 935.581 2.702 4.51529 0
M  V30 10083 O 934.607 3.44132 4.53389 0
M  V30 10084 N 935.809 1.81642 5.5135 0
M  V30 10085 H 938.574 2.58501 1.51649 0
M  V30 10086 H 936.135 1.46442 0.690396 0
M  V30 10087 H 938.127 1.4493 3.77859 0
M  V30 10088 H 936.697 0.673795 3.05252 0
M  V30 10089 H 935.917 3.08604 2.4527 0
M  V30 10090 H 937.205 3.67551 3.51829 0
M  V30 10091 H 936.603 1.20829 5.52645 0
M  V30 10092 H 935.16 1.76524 6.27441 0
M  V30 10093 N 938.594 -0.753485 1.38421 0
M  V30 10094 C 939.542 -1.8886 1.35774 0
M  V30 10095 C 940.536 -1.67639 0.243608 0
M  V30 10096 O 941.742 -1.75206 0.412649 0
M  V30 10097 H 938.117 -0.62137 0.42356 0
M  V30 10098 H 940.088 -1.88209 2.3156 0
M  V30 10099 C 938.837 -3.26344 1.19979 0
M  V30 10100 H 938.16 -3.43259 2.04971 0
M  V30 10101 H 939.6 -4.06015 1.22181 0
M  V30 10102 C 938.059 -3.36771 -0.0932867 0
M  V30 10103 O 938.589 -3.8718 -1.07027 0
M  V30 10104 N 936.795 -2.90212 -0.150154 0
M  V30 10105 H 936.342 -2.4938 0.645562 0
M  V30 10106 H 936.3 -2.97569 -1.0149 0
M  V30 10107 N 940.072 -1.23292 -0.981677 0
M  V30 10108 C 941.02 -1.0104 -2.09508 0
M  V30 10109 C 942.014 0.0501977 -1.69326 0
M  V30 10110 O 943.22 -0.103197 -1.79704 0
M  V30 10111 H 939.595 -0.309629 -0.685298 0
M  V30 10112 H 941.566 -1.95493 -2.25444 0
M  V30 10113 C 940.315 -0.616885 -3.42184 0
M  V30 10114 H 939.638 -1.4247 -3.73554 0
M  V30 10115 H 941.078 -0.500688 -4.21033 0
M  V30 10116 C 939.537 0.674721 -3.30074 0
M  V30 10117 O 940.067 1.72421 -3.62814 0
M  V30 10118 N 938.273 0.650151 -2.83234 0
M  V30 10119 H 937.82 -0.204225 -2.56789 0
M  V30 10120 H 937.778 1.51458 -2.75514 0
M  V30 10121 N 941.55 1.18024 -1.04442 0
M  V30 10122 C 942.796 1.88631 -0.760907 0
M  V30 10123 C 943.151 1.79059 0.703957 0
M  V30 10124 O 942.444 1.18261 1.50748 0
M  V30 10125 C 942.638 3.37834 -1.16631 0
M  V30 10126 C 942.467 3.61929 -2.66904 0
M  V30 10127 C 941.237 3.7908 -3.34105 0
M  V30 10128 C 943.435 3.622 -3.65124 0
M  V30 10129 N 941.417 3.90949 -4.73321 0
M  V30 10130 C 942.788 3.79827 -4.90032 0
M  V30 10131 C 944.843 3.45308 -3.58701 0
M  V30 10132 C 943.546 3.82312 -6.09287 0
M  V30 10133 C 945.572 3.49078 -4.77387 0
M  V30 10134 C 944.934 3.67206 -6.01115 0
M  V30 10135 H 941.033 0.708704 -0.330549 0
M  V30 10136 H 943.617 1.41739 -1.33485 0
M  V30 10137 H 941.788 3.83413 -0.6204 0
M  V30 10138 H 943.52 3.96026 -0.83342 0
M  V30 10139 H 940.275 3.78619 -2.84508 0
M  V30 10140 H 940.699 4.00696 -5.45685 0
M  V30 10141 H 945.341 3.30236 -2.64015 0
M  V30 10142 H 943.059 3.96171 -7.04325 0
M  V30 10143 H 946.645 3.37277 -4.74063 0
M  V30 10144 H 945.525 3.70017 -6.91417 0
M  V30 10145 N 943.028 0.824394 1.34319 0
M  V30 10146 C 944.274 0.413779 1.98534 0
M  V30 10147 C 944.607 -1.02089 1.65201 0
M  V30 10148 O 943.882 -1.71129 0.924402 0
M  V30 10149 C 944.165 0.61801 3.54757 0
M  V30 10150 C 944.018 2.0989 3.97827 0
M  V30 10151 C 945.337 0.0549041 4.40066 0
M  V30 10152 H 942.456 0.151815 0.721194 0
M  V30 10153 H 945.098 1.03723 1.5919 0
M  V30 10154 H 943.248 0.0873107 3.88402 0
M  V30 10155 H 944.92 2.69335 3.74508 0
M  V30 10156 H 943.163 2.58881 3.48085 0
M  V30 10157 H 943.834 2.1926 5.06586 0
M  V30 10158 H 946.31 0.508348 4.12983 0
M  V30 10159 H 945.186 0.227595 5.48428 0
M  V30 10160 H 945.447 -1.04025 4.29687 0
M  V30 10161 N 944.506 -1.46559 0.579492 0
M  V30 10162 C 945.436 -2.33059 -0.143437 0
M  V30 10163 C 946.417 -1.4515 -0.886868 0
M  V30 10164 O 947.602 -1.73973 -0.862961 0
M  V30 10165 C 944.732 -3.27364 -1.15973 0
M  V30 10166 C 943.686 -4.24689 -0.531348 0
M  V30 10167 C 943.012 -5.08479 -1.65388 0
M  V30 10168 C 944.312 -5.1961 0.529391 0
M  V30 10169 H 946.006 -2.93753 0.578762 0
M  V30 10170 H 943.552 -1.41256 0.279775 0
M  V30 10171 H 945.505 -3.86732 -1.67382 0
M  V30 10172 H 944.229 -2.64771 -1.91217 0
M  V30 10173 H 942.888 -3.6658 -0.0383749 0
M  V30 10174 H 942.536 -4.42273 -2.3959 0
M  V30 10175 H 942.236 -5.74387 -1.23909 0
M  V30 10176 H 943.76 -5.70709 -2.17079 0
M  V30 10177 H 945.174 -5.73212 0.100506 0
M  V30 10178 H 943.571 -5.93843 0.86432 0
M  V30 10179 H 944.641 -4.63737 1.4169 0
M  V30 10180 N 945.984 -0.3171 -1.54377 0
M  V30 10181 C 946.917 0.594178 -2.20329 0
M  V30 10182 C 947.895 1.12067 -1.17812 0
M  V30 10183 O 949.079 1.18588 -1.46524 0
M  V30 10184 C 946.206 1.81463 -2.85987 0
M  V30 10185 C 945.252 1.41996 -4.02168 0
M  V30 10186 S 946.085 0.462159 -5.33502 0
M  V30 10187 C 947.241 1.69004 -6.02651 0
M  V30 10188 H 947.474 0.0339261 -2.97281 0
M  V30 10189 H 945.007 -0.101196 -1.54068 0
M  V30 10190 H 946.965 2.51494 -3.2444 0
M  V30 10191 H 945.626 2.34606 -2.08851 0
M  V30 10192 H 944.819 2.32921 -4.4695 0
M  V30 10193 H 944.421 0.799423 -3.65356 0
M  V30 10194 H 946.713 2.62839 -6.24437 0
M  V30 10195 H 947.656 1.28451 -6.96352 0
M  V30 10196 H 948.064 1.87408 -5.32483 0
M  V30 10197 N 947.462 1.57535 -0.0451378 0
M  V30 10198 C 948.372 2.14653 0.946646 0
M  V30 10199 C 949.388 1.10279 1.3459 0
M  V30 10200 O 950.564 1.42417 1.42405 0
M  V30 10201 C 947.629 2.67533 2.20515 0
M  V30 10202 C 946.69 3.86682 1.86481 0
M  V30 10203 C 945.923 4.37031 3.06332 0
M  V30 10204 O 946.146 3.86481 4.1951 0
M  V30 10205 O 945.08 5.28691 2.87697 0
M  V30 10206 H 948.906 2.99706 0.49091 0
M  V30 10207 H 946.491 1.48355 0.17641 0
M  V30 10208 H 948.373 3.01542 2.94365 0
M  V30 10209 H 947.048 1.85554 2.65238 0
M  V30 10210 H 945.955 3.57573 1.09966 0
M  V30 10211 H 947.288 4.69873 1.46562 0
M  V30 10212 N 948.94 -0.228186 1.55939 0
M  V30 10213 C 949.873 -1.30971 1.86874 0
M  V30 10214 C 950.851 -1.45517 0.725496 0
M  V30 10215 O 952.035 -1.61436 0.973181 0
M  V30 10216 C 949.162 -2.68089 2.06992 0
M  V30 10217 C 948.208 -2.70594 3.29669 0
M  V30 10218 S 949.041 -2.25325 4.85787 0
M  V30 10219 C 950.197 -3.64331 5.08934 0
M  V30 10220 H 950.43 -1.04536 2.78315 0
M  V30 10221 H 947.963 -0.430103 1.48288 0
M  V30 10222 H 949.921 -3.47033 2.19267 0
M  V30 10223 H 948.582 -2.91752 1.16359 0
M  V30 10224 H 947.775 -3.71338 3.4077 0
M  V30 10225 H 947.377 -1.99708 3.16216 0
M  V30 10226 H 949.669 -4.59972 4.97425 0
M  V30 10227 H 950.612 -3.58151 6.10847 0
M  V30 10228 H 951.02 -3.57711 4.36695 0
M  V30 10229 N 950.418 -1.49637 -0.494624 0
M  V30 10230 C 951.695 -1.4995 -1.25596 0
M  V30 10231 C 952.075 -0.230805 -2.09834 0
M  V30 10232 O 951.423 0.786625 -2.14533 0
M  V30 10233 C 951.633 -2.78204 -2.10721 0
M  V30 10234 C 952.981 -3.27946 -2.69698 0
M  V30 10235 O 954.005 -2.79365 -2.20984 0
M  V30 10236 O 952.864 -4.12571 -3.58395 0
M  V30 10237 H 949.958 -0.60044 -0.568684 0
M  V30 10238 H 952.504 -1.61906 -0.508371 0
M  V30 10239 H 951.276 -3.62029 -1.48494 0
M  V30 10240 H 950.899 -2.69139 -2.92661 0
M  V30 10241 N 951.896 0.746133 -1.38819 0
M  V30 10242 C 953.307 1.32384 -1.31648 0
M  V30 10243 C 953.658 1.96185 0.0243086 0
M  V30 10244 O 952.783 1.95567 0.92641 0
M  V30 10245 C 953.378 2.40712 -2.38418 0
M  V30 10246 C 951.937 2.94185 -2.34803 0
M  V30 10247 C 951.084 1.67639 -2.20891 0
M  V30 10248 H 954.035 0.544457 -1.49068 0
M  V30 10249 H 954.056 3.20833 -2.04564 0
M  V30 10250 H 953.568 1.94247 -3.3599 0
M  V30 10251 H 951.669 3.44959 -1.40834 0
M  V30 10252 H 951.782 3.48057 -3.29231 0
M  V30 10253 H 950.146 1.9155 -1.67871 0
M  V30 10254 H 950.929 1.23242 -3.20416 0
M  V30 10255 N 953.375 1.23811 0.975125 0
M  V30 10256 C 954.285 1.0408 2.10249 0
M  V30 10257 C 955.301 -0.0162404 1.73992 0
M  V30 10258 O 956.477 0.180346 2.00591 0
M  V30 10259 C 953.542 0.640013 3.40741 0
M  V30 10260 C 952.603 1.7727 3.90991 0
M  V30 10261 C 951.836 1.39094 5.15256 0
M  V30 10262 O 952.059 0.277483 5.69725 0
M  V30 10263 O 950.993 2.21392 5.59704 0
M  V30 10264 H 954.819 1.98575 2.29786 0
M  V30 10265 H 952.404 1.02563 1.08633 0
M  V30 10266 H 954.286 0.427684 4.19224 0
M  V30 10267 H 952.961 -0.27589 3.22522 0
M  V30 10268 H 951.868 2.03971 3.13602 0
M  V30 10269 H 953.201 2.66711 4.13674 0
M  V30 10270 N 954.853 -1.17469 1.05066 0
M  V30 10271 C 955.801 -2.23495 0.644418 0
M  V30 10272 C 956.795 -1.66081 -0.333685 0
M  V30 10273 O 958.001 -1.78887 -0.199886 0
M  V30 10274 H 954.376 -0.727546 0.190214 0
M  V30 10275 H 956.347 -2.55058 1.5488 0
M  V30 10276 C 955.096 -3.47684 0.0338051 0
M  V30 10277 H 954.419 -3.92167 0.777513 0
M  V30 10278 H 955.859 -4.23464 -0.213086 0
M  V30 10279 C 954.318 -3.14067 -1.21915 0
M  V30 10280 O 954.848 -3.28728 -2.3087 0
M  V30 10281 N 953.054 -2.68304 -1.11631 0
M  V30 10282 H 952.601 -2.56574 -0.229673 0
M  V30 10283 H 952.559 -2.46184 -1.95553 0
M  V30 10284 N 956.331 -0.831506 -1.3388 0
M  V30 10285 C 957.241 -0.261688 -2.33136 0
M  V30 10286 C 958.257 0.608429 -1.63016 0
M  V30 10287 O 959.433 0.514297 -1.94723 0
M  V30 10288 C 956.498 0.559957 -3.42148 0
M  V30 10289 C 955.559 -0.333569 -4.28002 0
M  V30 10290 C 954.792 0.448956 -5.31808 0
M  V30 10291 O 955.015 1.6814 -5.45055 0
M  V30 10292 O 953.949 -0.173197 -6.01651 0
M  V30 10293 H 957.775 -1.08343 -2.83717 0
M  V30 10294 H 955.36 -0.593849 -1.3709 0
M  V30 10295 H 957.242 1.02712 -4.08691 0
M  V30 10296 H 955.917 1.35888 -2.93796 0
M  V30 10297 H 954.824 -0.848416 -3.64352 0
M  V30 10298 H 956.157 -1.09707 -4.79818 0
M  V30 10299 N 957.809 1.4625 -0.587256 0
M  V30 10300 C 959.055 2.02662 -0.0746851 0
M  V30 10301 C 959.388 1.45723 1.28368 0
M  V30 10302 O 958.663 0.624062 1.84216 0
M  V30 10303 C 958.946 3.60097 -0.0138109 0
M  V30 10304 C 958.799 4.27412 -1.4014 0
M  V30 10305 C 960.118 4.34744 0.684491 0
M  V30 10306 H 957.237 0.736444 -0.0286144 0
M  V30 10307 H 959.879 1.74341 -0.755328 0
M  V30 10308 H 958.029 3.84357 0.56583 0
M  V30 10309 H 959.701 4.14401 -2.02656 0
M  V30 10310 H 957.944 3.86598 -1.96785 0
M  V30 10311 H 958.615 5.362 -1.31124 0
M  V30 10312 H 961.091 4.15657 0.192023 0
M  V30 10313 H 959.967 5.44468 0.696127 0
M  V30 10314 H 960.228 4.06132 1.74669 0
M  V30 10315 N 959.287 0.325282 1.54207 0
M  V30 10316 C 960.533 -0.269944 2.01601 0
M  V30 10317 C 960.888 -1.49643 1.20933 0
M  V30 10318 O 960.181 -1.89486 0.283838 0
M  V30 10319 C 960.375 -0.654292 3.5136 0
M  V30 10320 C 960.204 0.533397 4.46525 0
M  V30 10321 C 958.974 1.03304 4.94628 0
M  V30 10322 C 961.172 1.38613 4.95269 0
M  V30 10323 N 959.154 2.18495 5.73701 0
M  V30 10324 C 960.525 2.38519 5.72284 0
M  V30 10325 C 962.58 1.41369 4.77409 0
M  V30 10326 C 961.283 3.40988 6.3334 0
M  V30 10327 C 963.309 2.4271 5.39301 0
M  V30 10328 C 962.671 3.41343 6.16169 0
M  V30 10329 H 958.77 -0.0625778 0.779492 0
M  V30 10330 H 961.354 0.460711 1.89171 0
M  V30 10331 H 959.525 -1.35408 3.64032 0
M  V30 10332 H 961.257 -1.23114 3.85519 0
M  V30 10333 H 958.012 0.604045 4.69732 0
M  V30 10334 H 958.436 2.76605 6.17915 0
M  V30 10335 H 963.078 0.664796 4.17541 0
M  V30 10336 H 960.796 4.16784 6.92327 0
M  V30 10337 H 964.382 2.45647 5.27398 0
M  V30 10338 H 963.262 4.18476 6.6321 0
M  V30 10339 N 960.765 -1.57509 0.0534917 0
M  V30 10340 C 962.014 -1.91959 -0.619244 0
M  V30 10341 C 962.327 -0.933882 -1.71866 0
M  V30 10342 O 963.533 -1.17052 -2.44972 0
M  V30 10343 C 961.989 -3.40938 -1.15278 0
M  V30 10344 C 961.597 -4.47919 -0.085348 0
M  V30 10345 C 963.341 -3.84419 -1.80063 0
M  V30 10346 C 961.248 -5.88014 -0.631897 0
M  V30 10347 H 960.178 -0.71642 -0.235072 0
M  V30 10348 H 962.829 -1.83089 0.122758 0
M  V30 10349 H 961.211 -3.44821 -1.94717 0
M  V30 10350 H 962.385 -4.55629 0.688374 0
M  V30 10351 H 960.7 -4.13793 0.465178 0
M  V30 10352 H 963.297 -4.86457 -2.21954 0
M  V30 10353 H 963.64 -3.20791 -2.65328 0
M  V30 10354 H 964.173 -3.83062 -1.07275 0
M  V30 10355 H 960.912 -6.55244 0.183175 0
M  V30 10356 H 960.432 -5.83861 -1.37355 0
M  V30 10357 H 962.111 -6.37336 -1.11407 0
M  V30 10358 N 962.243 0.219913 -1.56058 0
M  V30 10359 C 963.193 1.27606 -1.88946 0
M  V30 10360 C 964.177 1.42209 -0.752691 0
M  V30 10361 O 965.369 1.44996 -1.01514 0
M  V30 10362 C 962.498 2.62614 -2.21108 0
M  V30 10363 C 961.584 2.51906 -3.4118 0
M  V30 10364 N 961.975 2.10851 -4.59756 0
M  V30 10365 C 960.273 2.82861 -3.44827 0
M  V30 10366 C 960.974 2.11434 -5.41914 0
M  V30 10367 N 959.95 2.51985 -4.81669 0
M  V30 10368 H 963.752 0.94957 -2.78137 0
M  V30 10369 H 961.266 0.428468 -1.56646 0
M  V30 10370 H 963.263 3.38869 -2.42844 0
M  V30 10371 H 961.923 2.96108 -1.3323 0
M  V30 10372 H 962.934 1.81956 -4.84884 0
M  V30 10373 H 959.611 3.20716 -2.67297 0
M  V30 10374 H 961.001 1.81803 -6.46836 0
M  V30 10375 N 963.721 1.49897 0.486681 0
M  V30 10376 C 964.668 1.67619 1.58658 0
M  V30 10377 C 965.638 0.517537 1.57831 0
M  V30 10378 O 966.823 0.746272 1.756 0
M  V30 10379 C 963.963 1.762 2.96728 0
M  V30 10380 C 963.076 3.03465 3.07462 0
M  V30 10381 C 962.211 3.02937 4.36351 0
M  V30 10382 C 961.25 4.24721 4.4077 0
M  V30 10383 N 960.387 4.22021 5.61108 0
M  V30 10384 H 965.227 2.61528 1.42853 0
M  V30 10385 H 962.764 1.29657 0.694807 0
M  V30 10386 H 964.722 1.79156 3.76774 0
M  V30 10387 H 963.352 0.857452 3.11203 0
M  V30 10388 H 962.404 3.10054 2.20387 0
M  V30 10389 H 963.716 3.93454 3.06586 0
M  V30 10390 H 962.87 3.04536 5.24731 0
M  V30 10391 H 961.609 2.10751 4.39813 0
M  V30 10392 H 960.614 4.23352 3.5079 0
M  V30 10393 H 961.839 5.18116 4.39013 0
M  V30 10394 H 959.785 3.3268 5.65385 0
M  V30 10395 H 959.702 5.05761 5.61909 0
M  V30 10396 H 960.97 4.27743 6.51656 0
M  V30 10397 N 965.199 -0.738761 1.39212 0
M  V30 10398 C 966.109 -1.88324 1.39897 0
M  V30 10399 C 967.125 -1.71494 0.294229 0
M  V30 10400 O 968.301 -1.94162 0.535087 0
M  V30 10401 C 965.366 -3.23871 1.23726 0
M  V30 10402 C 964.427 -3.53121 2.44139 0
M  V30 10403 C 963.66 -4.82202 2.2873 0
M  V30 10404 O 963.883 -5.55649 1.28879 0
M  V30 10405 O 962.817 -5.11265 3.17634 0
M  V30 10406 H 966.643 -1.90701 2.36362 0
M  V30 10407 H 964.228 -0.886067 1.20288 0
M  V30 10408 H 966.11 -4.04882 1.16826 0
M  V30 10409 H 964.785 -3.22274 0.303551 0
M  V30 10410 H 963.692 -2.72212 2.56615 0
M  V30 10411 H 965.025 -3.59495 3.36191 0
M  V30 10412 N 966.677 -1.24326 -0.968545 0
M  V30 10413 C 967.587 -1.05194 -2.09694 0
M  V30 10414 C 968.603 0.00701291 -1.73999 0
M  V30 10415 O 969.779 -0.190981 -2.00492 0
M  V30 10416 C 966.844 -0.658075 -3.40397 0
M  V30 10417 C 965.905 -1.79341 -3.90045 0
M  V30 10418 C 965.138 -1.41824 -5.14511 0
M  V30 10419 O 965.361 -0.307693 -5.69569 0
M  V30 10420 O 964.295 -2.24358 -5.58522 0
M  V30 10421 H 968.121 -1.99791 -2.2873 0
M  V30 10422 H 965.706 -1.03138 -1.08088 0
M  V30 10423 H 967.588 -0.449911 -4.18991 0
M  V30 10424 H 966.263 0.258782 -3.22664 0
M  V30 10425 H 965.17 -2.05632 -3.12516 0
M  V30 10426 H 966.503 -2.68901 -4.12254 0
M  V30 10427 N 968.156 1.1691 -1.05688 0
M  V30 10428 C 969.119 2.19297 -0.666433 0
M  V30 10429 C 970.119 1.5826 0.284674 0
M  V30 10430 O 971.309 1.74068 0.0678757 0
M  V30 10431 C 968.441 3.40894 0.0203656 0
M  V30 10432 H 969.634 2.55354 -1.57272 0
M  V30 10433 H 967.187 1.31078 -0.851359 0
M  V30 10434 H 967.922 3.10388 0.939686 0
M  V30 10435 H 967.707 3.86446 -0.663464 0
M  V30 10436 H 969.197 4.16664 0.279475 0
M  V30 10437 N 969.634 0.838594 1.33437 0
M  V30 10438 C 970.581 0.269609 2.2922 0
M  V30 10439 C 971.551 -0.614429 1.54318 0
M  V30 10440 O 972.736 -0.552756 1.82618 0
M  V30 10441 C 969.876 -0.549527 3.40697 0
M  V30 10442 C 968.989 0.358502 4.3051 0
M  V30 10443 C 968.124 -0.471709 5.29101 0
M  V30 10444 C 967.163 0.434728 6.10554 0
M  V30 10445 N 966.3 -0.357339 7.0119 0
M  V30 10446 H 971.14 1.09172 2.77282 0
M  V30 10447 H 968.677 0.549832 1.36438 0
M  V30 10448 H 970.635 -1.03992 4.04032 0
M  V30 10449 H 969.265 -1.33661 2.93828 0
M  V30 10450 H 968.317 0.967204 3.67899 0
M  V30 10451 H 969.629 1.05483 4.87519 0
M  V30 10452 H 968.783 -1.02594 5.97963 0
M  V30 10453 H 967.522 -1.20147 4.72669 0
M  V30 10454 H 966.527 1.00097 5.40611 0
M  V30 10455 H 967.752 1.16285 6.6907 0
M  V30 10456 H 965.698 -1.07049 6.47207 0
M  V30 10457 H 965.615 0.280277 7.5548 0
M  V30 10458 H 966.883 -0.893814 7.74359 0
M  V30 10459 N 971.112 -1.45937 0.595003 0
M  V30 10460 C 972.528 -1.57507 0.257641 0
M  V30 10461 C 972.728 -1.58829 -1.23998 0
M  V30 10462 O 971.784 -1.51183 -2.02237 0
M  V30 10463 C 973.097 -2.86354 0.917708 0
M  V30 10464 C 974.645 -3.00007 0.892446 0
M  V30 10465 C 975.12 -4.31607 1.53229 0
M  V30 10466 N 976.611 -4.38336 1.49719 0
M  V30 10467 C 977.346 -5.38805 1.96154 0
M  V30 10468 N 976.842 -6.45882 2.50617 0
M  V30 10469 N 978.635 -5.30084 1.86997 0
M  V30 10470 H 970.786 -1.43322 1.56756 0
M  V30 10471 H 973.049 -0.684436 0.655936 0
M  V30 10472 H 972.755 -2.91233 1.97171 0
M  V30 10473 H 972.629 -3.74703 0.433344 0
M  V30 10474 H 975.016 -2.94703 -0.152975 0
M  V30 10475 H 975.097 -2.13103 1.41495 0
M  V30 10476 H 974.741 -4.3767 2.57697 0
M  V30 10477 H 974.671 -5.17308 0.984903 0
M  V30 10478 H 977.162 -3.6156 1.09921 0
M  V30 10479 H 977.475 -7.18774 2.83874 0
M  V30 10480 H 975.82 -6.46668 2.54649 0
M  V30 10481 H 979.011 -4.45337 1.44196 0
M  V30 10482 H 979.184 -6.08237 2.23499 0
M  V30 10483 N 972.59 -0.333456 -1.54032 0
M  V30 10484 C 973.52 0.52051 -2.27625 0
M  V30 10485 C 974.501 1.1111 -1.28797 0
M  V30 10486 O 975.686 1.13438 -1.57625 0
M  V30 10487 C 972.816 1.67663 -3.04149 0
M  V30 10488 C 971.77 1.21487 -4.10396 0
M  V30 10489 C 971.096 2.45872 -4.74817 0
M  V30 10490 C 972.396 0.322603 -5.21303 0
M  V30 10491 H 974.09 -0.0933823 -2.99254 0
M  V30 10492 H 971.636 -0.0463526 -1.43925 0
M  V30 10493 H 973.589 2.28041 -3.54366 0
M  V30 10494 H 972.313 2.31727 -2.30153 0
M  V30 10495 H 970.972 0.633966 -3.61077 0
M  V30 10496 H 970.62 3.0832 -3.97426 0
M  V30 10497 H 970.32 2.15662 -5.46593 0
M  V30 10498 H 971.844 3.06994 -5.27814 0
M  V30 10499 H 973.258 0.832942 -5.67217 0
M  V30 10500 H 971.655 0.112843 -5.99994 0
M  V30 10501 H 972.725 -0.643954 -4.80605 0
M  V30 10502 N 974.068 1.57479 -0.061844 0
M  V30 10503 C 975.316 1.92727 0.608336 0
M  V30 10504 C 975.637 0.941799 1.70749 0
M  V30 10505 O 974.907 -0.0116608 1.95897 0
M  V30 10506 H 973.487 0.71145 0.2277 0
M  V30 10507 H 976.149 1.94546 -0.117359 0
M  V30 10508 H 975.245 2.9426 1.04007 0
M  V30 10509 N 975.546 -0.211634 1.56173 0
M  V30 10510 C 976.476 -1.26533 1.96244 0
M  V30 10511 C 977.457 -1.48362 0.832028 0
M  V30 10512 O 978.642 -1.60378 1.0951 0
M  V30 10513 C 975.772 -2.61307 2.2877 0
M  V30 10514 C 974.726 -2.54119 3.44395 0
M  V30 10515 C 974.052 -3.93014 3.62552 0
M  V30 10516 C 975.352 -2.08046 4.79076 0
M  V30 10517 H 977.046 -0.932407 2.84511 0
M  V30 10518 H 974.592 -0.447084 1.36884 0
M  V30 10519 H 976.545 -3.35188 2.55396 0
M  V30 10520 H 975.269 -2.96307 1.37367 0
M  V30 10521 H 973.928 -1.82694 3.17834 0
M  V30 10522 H 973.576 -4.25338 2.68508 0
M  V30 10523 H 973.276 -3.89083 4.40327 0
M  V30 10524 H 974.8 -4.68542 3.91537 0
M  V30 10525 H 976.214 -2.71676 5.04842 0
M  V30 10526 H 974.611 -2.15154 5.60204 0
M  V30 10527 H 975.681 -1.03306 4.73768 0
M  V30 10528 N 977.024 -1.50153 -0.478725 0
M  V30 10529 C 977.971 -1.68458 -1.57767 0
M  V30 10530 C 978.941 -0.5259 -1.57555 0
M  V30 10531 O 980.126 -0.755574 -1.75202 0
M  V30 10532 C 977.266 -1.77772 -2.95789 0
M  V30 10533 C 976.379 -3.05092 -3.05848 0
M  V30 10534 C 975.514 -3.05247 -4.34739 0
M  V30 10535 C 974.553 -4.27053 -4.38512 0
M  V30 10536 N 973.69 -4.24991 -5.58862 0
M  V30 10537 H 978.53 -2.62282 -1.41464 0
M  V30 10538 H 976.067 -1.30023 -0.687921 0
M  V30 10539 H 978.025 -1.81152 -3.75819 0
M  V30 10540 H 976.655 -0.873944 -3.10744 0
M  V30 10541 H 975.707 -3.11219 -2.1874 0
M  V30 10542 H 977.019 -3.95075 -3.04495 0
M  V30 10543 H 976.173 -3.07314 -5.23109 0
M  V30 10544 H 974.912 -2.13081 -4.38689 0
M  V30 10545 H 973.917 -4.25206 -3.4854 0
M  V30 10546 H 975.142 -5.20437 -4.36259 0
M  V30 10547 H 973.088 -3.35674 -5.63612 0
M  V30 10548 H 973.005 -5.08734 -5.59219 0
M  V30 10549 H 974.273 -4.31193 -6.49379 0
M  V30 10550 N 978.502 0.731368 -1.39602 0
M  V30 10551 C 979.412 1.87579 -1.40894 0
M  V30 10552 C 980.428 1.71336 -0.303319 0
M  V30 10553 O 981.604 1.93875 -0.545377 0
M  V30 10554 C 978.669 3.23211 -1.25442 0
M  V30 10555 C 977.73 3.51822 -2.46008 0
M  V30 10556 C 976.963 4.80982 -2.31284 0
M  V30 10557 O 977.186 5.54958 -1.31824 0
M  V30 10558 O 976.12 5.09574 -3.20341 0
M  V30 10559 H 979.946 1.89444 -2.3737 0
M  V30 10560 H 977.531 0.879675 -1.20756 0
M  V30 10561 H 979.413 4.04257 -1.18972 0
M  V30 10562 H 978.088 3.22108 -0.320637 0
M  V30 10563 H 976.995 2.70847 -2.58055 0
M  V30 10564 H 978.328 3.57707 -3.38093 0
M  V30 10565 N 979.98 1.24838 0.961938 0
M  V30 10566 C 981.228 1.08936 1.70227 0
M  V30 10567 C 981.549 -0.371582 1.91427 0
M  V30 10568 O 980.819 -1.26461 1.49614 0
M  V30 10569 H 979.399 0.400128 0.630799 0
M  V30 10570 H 982.061 1.56848 1.15692 0
M  V30 10571 H 981.157 1.59195 2.68446 0
M  V30 10572 N 981.458 -1.16348 1.06306 0
M  V30 10573 C 982.735 -1.829 0.69331 0
M  V30 10574 C 983.115 -1.94298 -0.82531 0
M  V30 10575 O 982.463 -1.48619 -1.73565 0
M  V30 10576 C 982.673 -3.1989 1.3954 0
M  V30 10577 C 984.021 -3.95662 1.54068 0
M  V30 10578 O 985.045 -3.29408 1.35532 0
M  V30 10579 O 983.904 -5.14422 1.84479 0
M  V30 10580 H 980.998 -0.789738 0.245445 0
M  V30 10581 H 983.544 -1.23549 1.16334 0
M  V30 10582 H 982.316 -3.06629 2.43093 0
M  V30 10583 H 981.939 -3.86918 0.915453 0
M  V30 10584 N 982.937 -0.845659 -1.3299 0
M  V30 10585 C 984.167 -0.457686 -2.01467 0
M  V30 10586 C 984.575 0.947664 -1.63756 0
M  V30 10587 O 983.918 1.62841 -0.850213 0
M  V30 10588 C 983.98 -0.506589 -3.55913 0
M  V30 10589 C 983.644 -1.86924 -4.17023 0
M  V30 10590 C 984.641 -2.83344 -4.35904 0
M  V30 10591 C 982.326 -2.16394 -4.53298 0
M  V30 10592 C 984.32 -4.07391 -4.90216 0
M  V30 10593 C 982.007 -3.40695 -5.07316 0
M  V30 10594 C 983.005 -4.3601 -5.25722 0
M  V30 10595 O 982.693 -5.58112 -5.7859 0
M  V30 10596 H 982.425 -0.179258 -0.651799 0
M  V30 10597 H 984.979 -1.14172 -1.70745 0
M  V30 10598 H 983.209 0.234253 -3.8599 0
M  V30 10599 H 984.898 -0.135487 -4.05674 0
M  V30 10600 H 985.664 -2.61879 -4.08221 0
M  V30 10601 H 981.543 -1.42994 -4.38262 0
M  V30 10602 H 985.087 -4.81796 -5.04498 0
M  V30 10603 H 980.984 -3.62014 -5.3443 0
M  V30 10604 H 981.752 -5.59946 -5.96995 0
M  V30 10605 N 984.415 1.45619 -0.602734 0
M  V30 10606 C 985.661 2.02572 -0.0961759 0
M  V30 10607 C 985.994 1.47076 1.26815 0
M  V30 10608 O 985.269 0.643566 1.83544 0
M  V30 10609 C 985.552 3.60062 -0.0520032 0
M  V30 10610 C 985.405 4.25901 -1.44665 0
M  V30 10611 C 986.724 4.35446 0.638342 0
M  V30 10612 H 983.843 0.736099 -0.0364238 0
M  V30 10613 H 986.485 1.7353 -0.773776 0
M  V30 10614 H 984.635 3.84936 0.525032 0
M  V30 10615 H 986.307 4.12228 -2.0704 0
M  V30 10616 H 984.55 3.84489 -2.00874 0
M  V30 10617 H 985.221 5.34779 -1.36803 0
M  V30 10618 H 987.697 4.15837 0.147926 0
M  V30 10619 H 986.573 5.45176 0.63834 0
M  V30 10620 H 986.834 4.07962 1.70351 0
M  V30 10621 N 985.893 0.34162 1.53853 0
M  V30 10622 C 986.826 -0.559051 2.21246 0
M  V30 10623 C 987.804 -1.10179 1.1958 0
M  V30 10624 O 988.988 -1.16242 1.48392 0
M  V30 10625 C 986.115 -1.7689 2.88838 0
M  V30 10626 C 985.161 -1.3558 4.04377 0
M  V30 10627 S 985.994 -0.377225 5.3417 0
M  V30 10628 C 987.15 -1.59395 6.05264 0
M  V30 10629 H 987.383 0.013373 2.97297 0
M  V30 10630 H 984.916 0.125694 1.53888 0
M  V30 10631 H 986.874 -2.463 3.284 0
M  V30 10632 H 985.535 -2.31254 2.12557 0
M  V30 10633 H 984.728 -2.25781 4.50599 0
M  V30 10634 H 984.33 -0.741197 3.66582 0
M  V30 10635 H 986.622 -2.52872 6.2854 0
M  V30 10636 H 987.565 -1.17356 6.98307 0
M  V30 10637 H 987.973 -1.78913 5.35397 0
M  V30 10638 N 987.371 -1.57444 0.0701946 0
M  V30 10639 C 988.301 -2.15659 -0.895176 0
M  V30 10640 C 989.282 -1.08321 -1.31151 0
M  V30 10641 O 990.467 -1.36349 -1.38284 0
M  V30 10642 C 987.597 -2.71693 -2.16334 0
M  V30 10643 C 986.551 -3.84183 -1.88645 0
M  V30 10644 C 985.877 -4.26814 -3.22078 0
M  V30 10645 C 987.177 -5.08493 -1.19299 0
M  V30 10646 H 988.871 -2.96576 -0.410217 0
M  V30 10647 H 986.417 -1.42662 -0.195872 0
M  V30 10648 H 988.37 -3.11064 -2.84284 0
M  V30 10649 H 987.094 -1.87994 -2.67069 0
M  V30 10650 H 985.753 -3.45314 -1.23101 0
M  V30 10651 H 985.401 -3.40039 -3.70651 0
M  V30 10652 H 985.101 -5.02642 -3.04344 0
M  V30 10653 H 986.625 -4.68799 -3.91228 0
M  V30 10654 H 988.039 -5.4519 -1.77316 0
M  V30 10655 H 986.436 -5.89588 -1.11828 0
M  V30 10656 H 987.506 -4.84595 -0.171839 0
M  V30 10657 N 988.849 0.203349 -1.56283 0
M  V30 10658 C 990.095 0.926381 -1.80405 0
M  V30 10659 C 990.428 1.8325 -0.642883 0
M  V30 10660 O 989.703 1.91196 0.356998 0
M  V30 10661 C 989.986 1.74972 -3.14733 0
M  V30 10662 C 989.839 0.868866 -4.41328 0
M  V30 10663 C 991.158 2.72394 -3.45672 0
M  V30 10664 H 988.277 0.335346 -0.656286 0
M  V30 10665 H 990.919 0.1942 -1.89005 0
M  V30 10666 H 989.069 2.37394 -3.07533 0
M  V30 10667 H 990.741 0.259986 -4.60567 0
M  V30 10668 H 988.984 0.175161 -4.33446 0
M  V30 10669 H 989.655 1.47975 -5.31796 0
M  V30 10670 H 992.131 2.20105 -3.53119 0
M  V30 10671 H 991.007 3.27091 -4.40798 0
M  V30 10672 H 991.268 3.51035 -2.6875 0
M  V30 10673 N 990.327 1.50405 0.470755 0
M  V30 10674 C 991.275 1.6982 1.58946 0
M  V30 10675 C 992.269 0.56407 1.59733 0
M  V30 10676 O 993.475 0.744576 1.63878 0
M  V30 10677 H 989.85 0.536016 0.527438 0
M  V30 10678 H 991.821 2.63662 1.39732 0
M  V30 10679 C 990.57 1.80986 2.96883 0
M  V30 10680 H 989.893 2.67645 2.96996 0
M  V30 10681 H 991.333 1.98596 3.74614 0
M  V30 10682 C 989.792 0.561551 3.32187 0
M  V30 10683 O 990.322 -0.299136 4.00585 0
M  V30 10684 N 988.528 0.415476 2.87615 0
M  V30 10685 H 988.075 1.11691 2.32127 0
M  V30 10686 H 988.033 -0.418592 3.11601 0
M  V30 10687 N 991.805 -0.723954 1.39988 0
M  V30 10688 C 992.737 -1.84859 1.35498 0
M  V30 10689 C 993.75 -1.60681 0.261812 0
M  V30 10690 O 994.939 -1.7071 0.521566 0
M  V30 10691 C 992.039 -3.21103 1.08381 0
M  V30 10692 C 991.212 -3.72546 2.2919 0
M  V30 10693 C 990.271 -4.8738 1.9836 0
M  V30 10694 O 989.297 -5.00467 2.71149 0
M  V30 10695 N 990.499 -5.72566 0.956461 0
M  V30 10696 H 993.264 -1.89212 2.3242 0
M  V30 10697 H 990.825 -0.905152 1.34233 0
M  V30 10698 H 992.817 -3.9551 0.857564 0
M  V30 10699 H 991.387 -3.1195 0.201549 0
M  V30 10700 H 990.607 -2.89365 2.67697 0
M  V30 10701 H 991.895 -4.03652 3.09746 0
M  V30 10702 H 991.293 -5.64595 0.353444 0
M  V30 10703 H 989.85 -6.46993 0.790118 0
M  V30 10704 N 993.283 -1.25346 -0.955304 0
M  V30 10705 C 994.56 -1.00829 -1.67609 0
M  V30 10706 C 994.94 0.465675 -2.059 0
M  V30 10707 O 994.288 1.44287 -1.77182 0
M  V30 10708 C 994.498 -1.94337 -2.89886 0
M  V30 10709 C 995.846 -2.22142 -3.61854 0
M  V30 10710 O 996.87 -1.9209 -2.99967 0
M  V30 10711 O 995.729 -2.73239 -4.73289 0
M  V30 10712 H 992.823 -0.382314 -0.733325 0
M  V30 10713 H 995.369 -1.36498 -1.00829 0
M  V30 10714 H 994.141 -2.93867 -2.58376 0
M  V30 10715 H 993.764 -1.59062 -3.64397 0
M  V30 10716 N 994.761 1.15782 -1.06922 0
M  V30 10717 C 996.009 1.86097 -0.788192 0
M  V30 10718 C 996.33 1.82475 0.687606 0
M  V30 10719 O 995.6 1.26266 1.49778 0
M  V30 10720 H 994.18 0.689008 -0.288577 0
M  V30 10721 H 996.842 1.40377 -1.35205 0
M  V30 10722 H 995.938 2.91358 -1.1188 0
M  V30 10723 N 996.239 0.8527 1.3254 0
M  V30 10724 C 997.485 0.455798 1.97612 0
M  V30 10725 C 997.818 -0.985616 1.6733 0
M  V30 10726 O 997.093 -1.69129 0.960493 0
M  V30 10727 C 997.376 0.69312 3.53366 0
M  V30 10728 C 997.229 2.18281 3.93285 0
M  V30 10729 C 998.548 0.148236 4.3985 0
M  V30 10730 H 995.667 0.167078 0.717812 0
M  V30 10731 H 998.309 1.07076 1.56954 0
M  V30 10732 H 996.459 0.169677 3.88129 0
M  V30 10733 H 998.131 2.77218 3.68711 0
M  V30 10734 H 996.374 2.66206 3.42515 0
M  V30 10735 H 997.045 2.29957 5.01821 0
M  V30 10736 H 999.521 0.595834 4.11812 0
M  V30 10737 H 998.397 0.343873 5.47822 0
M  V30 10738 H 998.658 -0.948872 4.31797 0
M  V30 10739 N 997.718 -1.45297 0.610449 0
M  V30 10740 C 998.665 -2.30553 -0.106718 0
M  V30 10741 C 999.635 -1.42272 -0.85719 0
M  V30 10742 O 1000.82 -1.71199 -0.842357 0
M  V30 10743 C 997.96 -3.27226 -1.09623 0
M  V30 10744 C 997.073 -4.3061 -0.346329 0
M  V30 10745 C 996.208 -5.14389 -1.32581 0
M  V30 10746 C 995.247 -6.09497 -0.563892 0
M  V30 10747 N 994.384 -6.86047 -1.4928 0
M  V30 10748 H 999.224 -2.91344 0.626296 0
M  V30 10749 H 996.761 -1.43563 0.32065 0
M  V30 10750 H 998.719 -3.81744 -1.68308 0
M  V30 10751 H 997.349 -2.68182 -1.79662 0
M  V30 10752 H 996.401 -3.7873 0.356084 0
M  V30 10753 H 997.713 -4.98183 0.248026 0
M  V30 10754 H 996.867 -5.73321 -1.98464 0
M  V30 10755 H 995.606 -4.4684 -1.9541 0
M  V30 10756 H 994.611 -5.49693 0.108551 0
M  V30 10757 H 995.836 -6.79074 0.0593872 0
M  V30 10758 H 993.782 -6.21185 -2.10868 0
M  V30 10759 H 993.699 -7.49983 -0.951953 0
M  V30 10760 H 994.967 -7.49518 -2.14112 0
M  V30 10761 N 999.196 -0.349774 -1.5367 0
M  V30 10762 C 1000.11 0.512421 -2.28935 0
M  V30 10763 C 1001.12 1.1065 -1.34286 0
M  V30 10764 O 1002.3 1.12084 -1.67329 0
M  V30 10765 C 999.363 1.64449 -3.05217 0
M  V30 10766 C 998.424 1.07956 -4.15505 0
M  V30 10767 C 997.657 2.15768 -4.88139 0
M  V30 10768 O 997.88 3.366 -4.60496 0
M  V30 10769 O 996.814 1.79712 -5.74445 0
M  V30 10770 H 1000.64 -0.0996001 -3.03537 0
M  V30 10771 H 998.225 -0.114629 -1.4896 0
M  V30 10772 H 1000.11 2.30302 -3.52901 0
M  V30 10773 H 998.782 2.24221 -2.33467 0
M  V30 10774 H 997.689 0.385381 -3.7211 0
M  V30 10775 H 999.022 0.526621 -4.89375 0
M  V30 10776 N 1000.67 1.57404 -0.0785433 0
M  V30 10777 C 1001.92 1.93361 0.58786 0
M  V30 10778 C 1002.24 0.959856 1.6974 0
M  V30 10779 O 1001.51 0.0091173 1.95898 0
M  V30 10780 H 1000.09 0.713825 0.220141 0
M  V30 10781 H 1002.75 1.94411 -0.137986 0
M  V30 10782 H 1001.85 2.95346 1.00881 0
M  V30 10783 N 1002.15 -0.195058 1.56388 0
M  V30 10784 C 1003.56 -0.75973 1.70543 0
M  V30 10785 C 1003.91 -1.83849 0.685118 0
M  V30 10786 O 1003.04 -2.15819 -0.158457 0
M  V30 10787 C 1003.63 -1.38485 3.09204 0
M  V30 10788 C 1002.19 -1.89661 3.25124 0
M  V30 10789 C 1001.34 -0.766563 2.66494 0
M  V30 10790 H 1004.29 0.0300148 1.58672 0
M  V30 10791 H 1004.31 -2.25424 3.06536 0
M  V30 10792 H 1003.82 -0.599479 3.83442 0
M  V30 10793 H 1001.92 -2.70917 2.55802 0
M  V30 10794 H 1002.04 -2.05837 4.32629 0
M  V30 10795 H 1000.4 -1.18086 2.25672 0
M  V30 10796 H 1001.18 0.00657102 3.43299 0
M  V30 10797 N 1003.63 -1.50653 -0.462772 0
M  V30 10798 C 1004.88 -1.62297 -1.21603 0
M  V30 10799 C 1005.21 -0.326191 -1.91441 0
M  V30 10800 O 1004.48 0.67284 -1.82491 0
M  V30 10801 C 1004.77 -2.80901 -2.25315 0
M  V30 10802 C 1004.62 -4.20484 -1.59728 0
M  V30 10803 C 1005.94 -2.95049 -3.26549 0
M  V30 10804 H 1003.06 -0.590691 -0.440741 0
M  V30 10805 H 1005.7 -1.83064 -0.508675 0
M  V30 10806 H 1003.85 -2.63325 -2.85643 0
M  V30 10807 H 1005.52 -4.49669 -1.02932 0
M  V30 10808 H 1003.76 -4.24357 -0.900181 0
M  V30 10809 H 1004.44 -4.99416 -2.35133 0
M  V30 10810 H 1006.91 -3.11166 -2.76251 0
M  V30 10811 H 1005.79 -3.79645 -3.96435 0
M  V30 10812 H 1006.05 -2.06019 -3.91163 0
M  V30 10813 N 1005.11 0.71652 -1.4037 0
M  V30 10814 C 1006.52 1.02447 -1.22379 0
M  V30 10815 C 1006.72 2.0126 -0.0983394 0
M  V30 10816 O 1005.78 2.46569 0.544071 0
M  V30 10817 C 1007.09 1.56909 -2.56515 0
M  V30 10818 C 1008.64 1.68898 -2.6352 0
M  V30 10819 C 1009.12 2.26765 -3.97922 0
M  V30 10820 N 1010.61 2.34152 -3.99658 0
M  V30 10821 C 1011.34 2.79907 -5.00439 0
M  V30 10822 N 1010.84 3.25422 -6.11615 0
M  V30 10823 N 1012.63 2.79283 -4.87809 0
M  V30 10824 H 1004.78 0.0615306 -2.12311 0
M  V30 10825 H 1007.05 0.0898994 -0.943728 0
M  V30 10826 H 1006.75 0.917649 -3.39517 0
M  V30 10827 H 1006.63 2.55446 -2.77538 0
M  V30 10828 H 1009.01 2.33159 -1.8089 0
M  V30 10829 H 1009.09 0.689626 -2.46329 0
M  V30 10830 H 1008.74 1.63126 -4.80991 0
M  V30 10831 H 1008.67 3.27413 -4.12442 0
M  V30 10832 H 1011.16 2.02006 -3.19378 0
M  V30 10833 H 1011.47 3.58899 -6.84406 0
M  V30 10834 H 1009.82 3.23383 -6.15181 0
M  V30 10835 H 1013.01 2.43061 -4.00049 0
M  V30 10836 H 1013.18 3.14626 -5.66493 0
M  V30 10837 N 1006.59 1.25851 0.948643 0
M  V30 10838 C 1007.83 1.11119 1.69648 0
M  V30 10839 C 1008.17 -0.345995 1.91093 0
M  V30 10840 O 1007.44 -1.25467 1.48621 0
M  V30 10841 C 1007.72 1.87261 3.0758 0
M  V30 10842 C 1007.58 3.40842 2.93507 0
M  V30 10843 C 1008.9 1.6605 4.07573 0
M  V30 10844 H 1006.01 0.405052 0.615713 0
M  V30 10845 H 1008.66 1.54756 1.10229 0
M  V30 10846 H 1006.81 1.50172 3.58303 0
M  V30 10847 H 1008.48 3.87641 2.50064 0
M  V30 10848 H 1006.72 3.68248 2.29294 0
M  V30 10849 H 1007.39 3.89339 3.91305 0
M  V30 10850 H 1009.87 1.98348 3.65783 0
M  V30 10851 H 1008.74 2.21753 5.02113 0
M  V30 10852 H 1009.01 0.603256 4.37965 0
M  V30 10853 N 1008.06 -1.15214 1.07534 0
M  V30 10854 C 1009.01 -2.20013 0.697337 0
M  V30 10855 C 1009.98 -1.6314 -0.312168 0
M  V30 10856 O 1011.17 -1.89768 -0.198196 0
M  V30 10857 C 1008.31 -3.44945 0.103293 0
M  V30 10858 C 1007.42 -4.16009 1.1645 0
M  V30 10859 C 1006.55 -5.28496 0.535261 0
M  V30 10860 C 1005.59 -5.9138 1.57912 0
M  V30 10861 N 1004.73 -6.95335 0.972332 0
M  V30 10862 H 1009.57 -2.51698 1.59538 0
M  V30 10863 H 1007.11 -1.2361 0.797431 0
M  V30 10864 H 1009.07 -4.16397 -0.258766 0
M  V30 10865 H 1007.7 -3.13772 -0.758096 0
M  V30 10866 H 1006.75 -3.43035 1.64411 0
M  V30 10867 H 1008.06 -4.58853 1.9559 0
M  V30 10868 H 1007.21 -6.06579 0.120942 0
M  V30 10869 H 1005.95 -4.8685 -0.287889 0
M  V30 10870 H 1004.96 -5.12008 2.0032 0
M  V30 10871 H 1006.18 -6.35103 2.40459 0
M  V30 10872 H 1004.13 -6.55779 0.170119 0
M  V30 10873 H 1004.05 -7.36616 1.70095 0
M  V30 10874 H 1005.31 -7.77312 0.583577 0
M  V30 10875 N 1009.54 -0.859717 -1.32086 0
M  V30 10876 C 1010.95 -0.519529 -1.79326 0
M  V30 10877 C 1011.3 0.96295 -1.70944 0
M  V30 10878 O 1010.43 1.75139 -1.27104 0
M  V30 10879 C 1011.02 -0.936267 -3.25606 0
M  V30 10880 C 1009.58 -0.647899 -3.70782 0
M  V30 10881 C 1008.73 -1.13323 -2.53087 0
M  V30 10882 H 1011.68 -1.04643 -1.19312 0
M  V30 10883 H 1011.7 -0.254714 -3.79646 0
M  V30 10884 H 1011.21 -2.01527 -3.31675 0
M  V30 10885 H 1009.32 0.420172 -3.70223 0
M  V30 10886 H 1009.43 -1.21774 -4.63366 0
M  V30 10887 H 1007.79 -0.553325 -2.48617 0
M  V30 10888 H 1008.58 -2.21945 -2.61907 0
M  V30 10889 N 1011.02 1.44971 -0.618145 0
M  V30 10890 C 1012.25 2.06527 -0.124165 0
M  V30 10891 C 1012.66 1.46097 1.19588 0
M  V30 10892 O 1012.02 0.57901 1.73071 0
M  V30 10893 C 1012.07 3.61498 0.0106701 0
M  V30 10894 O 1011.79 4.19675 -1.25716 0
M  V30 10895 C 1013.29 4.40061 0.534872 0
M  V30 10896 H 1010.51 0.666941 -0.0736935 0
M  V30 10897 H 1013.06 1.8605 -0.848871 0
M  V30 10898 H 1011.21 3.81282 0.685752 0
M  V30 10899 H 1011.63 5.12972 -1.09362 0
M  V30 10900 H 1013.1 5.48963 0.57827 0
M  V30 10901 H 1013.58 4.10587 1.55931 0
M  V30 10902 H 1014.18 4.25167 -0.10652 0
M  V30 10903 N 1012.5 0.357919 1.53482 0
M  V30 10904 C 1013.46 -0.479797 2.24122 0
M  V30 10905 C 1014.46 -1.01596 1.24639 0
M  V30 10906 O 1015.65 -0.902928 1.48973 0
M  V30 10907 C 1012.78 -1.66983 2.97203 0
M  V30 10908 H 1013.98 0.138219 2.99581 0
M  V30 10909 H 1011.53 0.109484 1.55916 0
M  V30 10910 H 1012.26 -2.32615 2.25966 0
M  V30 10911 H 1012.05 -1.29242 3.70188 0
M  V30 10912 H 1013.54 -2.26367 3.50924 0
M  V30 10913 N 1013.98 -1.5736 0.0868897 0
M  V30 10914 C 1015.39 -1.57304 -0.269762 0
M  V30 10915 C 1015.59 -1.09745 -1.68992 0
M  V30 10916 O 1014.65 -0.77017 -2.40468 0
M  V30 10917 C 1015.96 -3.00628 -0.0656646 0
M  V30 10918 C 1017.51 -3.12713 -0.134045 0
M  V30 10919 C 1017.98 -4.57981 0.0419569 0
M  V30 10920 N 1019.48 -4.63198 -0.0131501 0
M  V30 10921 C 1020.21 -5.73316 0.0983964 0
M  V30 10922 N 1019.71 -6.92296 0.264315 0
M  V30 10923 N 1021.5 -5.62086 0.0402517 0
M  V30 10924 H 1013.65 -1.86585 1.01487 0
M  V30 10925 H 1015.91 -0.860843 0.397055 0
M  V30 10926 H 1015.62 -3.39592 0.914891 0
M  V30 10927 H 1015.49 -3.68367 -0.811522 0
M  V30 10928 H 1017.88 -2.73627 -1.1051 0
M  V30 10929 H 1017.96 -2.47582 0.643167 0
M  V30 10930 H 1017.61 -4.9776 1.00984 0
M  V30 10931 H 1017.54 -5.21162 -0.754847 0
M  V30 10932 H 1020.03 -3.77644 -0.139183 0
M  V30 10933 H 1020.34 -7.72047 0.341165 0
M  V30 10934 H 1018.68 -6.94353 0.299876 0
M  V30 10935 H 1021.88 -4.68017 -0.0881801 0
M  V30 10936 H 1022.05 -6.47868 0.130635 0
M  V30 10937 N 1015.45 0.186762 -1.56489 0
M  V30 10938 C 1016.7 0.904077 -1.80303 0
M  V30 10939 C 1017.02 1.84073 -0.661538 0
M  V30 10940 O 1018.22 2.59928 -0.784197 0
M  V30 10941 C 1016.68 1.65806 -3.19432 0
M  V30 10942 C 1016.29 0.765807 -4.41406 0
M  V30 10943 C 1018.03 2.36451 -3.52549 0
M  V30 10944 C 1015.94 1.51913 -5.71556 0
M  V30 10945 H 1014.87 0.34133 -0.672317 0
M  V30 10946 H 1017.52 0.157218 -1.82825 0
M  V30 10947 H 1015.9 2.44911 -3.11183 0
M  V30 10948 H 1017.07 0.0128225 -4.60798 0
M  V30 10949 H 1015.39 0.169772 -4.16054 0
M  V30 10950 H 1017.99 2.93378 -4.47027 0
M  V30 10951 H 1018.33 3.11044 -2.7669 0
M  V30 10952 H 1018.86 1.64305 -3.62283 0
M  V30 10953 H 1015.6 0.815829 -6.50403 0
M  V30 10954 H 1015.12 2.24583 -5.56168 0
M  V30 10955 H 1016.8 2.07073 -6.12968 0
M  V30 10956 N 1016.93 1.50896 0.454776 0
M  V30 10957 C 1018.35 1.38684 0.78987 0
M  V30 10958 C 1018.55 0.455587 1.96282 0
M  V30 10959 O 1017.6 -0.0957503 2.52318 0
M  V30 10960 C 1018.92 2.80381 1.08661 0
M  V30 10961 C 1020.47 2.8941 1.19209 0
M  V30 10962 C 1020.94 4.31976 1.52187 0
M  V30 10963 N 1022.43 4.35002 1.59146 0
M  V30 10964 C 1023.17 5.42326 1.862 0
M  V30 10965 N 1022.66 6.59835 2.11164 0
M  V30 10966 N 1024.46 5.29786 1.87838 0
M  V30 10967 H 1016.61 2.10006 -0.317981 0
M  V30 10968 H 1018.87 0.944636 -0.0797969 0
M  V30 10969 H 1018.58 3.50438 0.297626 0
M  V30 10970 H 1018.45 3.18634 2.01872 0
M  V30 10971 H 1020.84 2.19561 1.97173 0
M  V30 10972 H 1020.92 2.54677 0.239401 0
M  V30 10973 H 1020.56 5.02368 0.747576 0
M  V30 10974 H 1020.49 4.64208 2.48633 0
M  V30 10975 H 1022.98 3.50276 1.41828 0
M  V30 10976 H 1023.3 7.37428 2.31128 0
M  V30 10977 H 1021.64 6.62981 2.08522 0
M  V30 10978 H 1024.83 4.36974 1.67843 0
M  V30 10979 H 1025 6.13511 2.08585 0
M  V30 10980 N 1018.41 -0.709066 1.40748 0
M  V30 10981 C 1019.36 -1.82312 1.4153 0
M  V30 10982 C 1020.33 -1.63868 0.271392 0
M  V30 10983 O 1021.51 -1.8491 0.470431 0
M  V30 10984 C 1018.65 -3.2008 1.29006 0
M  V30 10985 C 1017.77 -3.50051 2.53156 0
M  V30 10986 C 1016.9 -4.7736 2.33025 0
M  V30 10987 C 1015.94 -5.00255 3.52719 0
M  V30 10988 N 1015.08 -6.18782 3.31743 0
M  V30 10989 H 1019.92 -1.80978 2.36751 0
M  V30 10990 H 1017.45 -0.883975 1.17577 0
M  V30 10991 H 1019.41 -3.99645 1.19749 0
M  V30 10992 H 1018.04 -3.20626 0.374014 0
M  V30 10993 H 1017.09 -2.64993 2.72916 0
M  V30 10994 H 1018.41 -3.62877 3.42231 0
M  V30 10995 H 1017.56 -5.64954 2.21159 0
M  V30 10996 H 1016.3 -4.66756 1.41386 0
M  V30 10997 H 1015.3 -4.11114 3.65055 0
M  V30 10998 H 1016.53 -5.12728 4.45295 0
M  V30 10999 H 1014.47 -6.09416 2.42791 0
M  V30 11000 H 1014.39 -6.32313 4.14386 0
M  V30 11001 H 1015.66 -7.09146 3.23623 0
M  V30 11002 N 1019.89 -1.26353 -0.941956 0
M  V30 11003 C 1021.17 -1.02601 -1.6653 0
M  V30 11004 C 1021.55 0.44381 -2.06382 0
M  V30 11005 O 1020.89 1.42399 -1.78703 0
M  V30 11006 C 1021.1 -1.97401 -2.87809 0
M  V30 11007 C 1022.45 -2.25967 -3.59478 0
M  V30 11008 O 1023.48 -1.95261 -2.97912 0
M  V30 11009 O 1022.34 -2.78244 -4.70364 0
M  V30 11010 H 1019.43 -0.39007 -0.729228 0
M  V30 11011 H 1021.98 -1.37559 -0.993754 0
M  V30 11012 H 1020.75 -2.9659 -2.55245 0
M  V30 11013 H 1020.37 -1.62918 -3.62689 0
M  V30 11014 N 1021.37 1.14642 -1.08144 0
M  V30 11015 C 1022.61 1.87277 -0.818953 0
M  V30 11016 C 1022.97 1.80896 0.643482 0
M  V30 11017 O 1024.17 2.4864 1.02135 0
M  V30 11018 C 1022.44 3.32006 -1.32314 0
M  V30 11019 S 1024 4.22284 -1.19256 0
M  V30 11020 H 1020.82 0.646204 -0.29655 0
M  V30 11021 H 1023.42 1.38261 -1.38217 0
M  V30 11022 H 1022.13 3.34197 -2.38203 0
M  V30 11023 H 1021.66 3.86078 -0.75548 0
M  V30 11024 H 1023.67 4.96016 -0.135143 0
M  V30 11025 N 1022.85 0.866709 1.31628 0
M  V30 11026 C 1024.09 0.476731 1.97117 0
M  V30 11027 C 1024.42 -0.967813 1.68366 0
M  V30 11028 O 1023.7 -1.68101 0.978377 0
M  V30 11029 C 1023.98 0.730561 3.52611 0
M  V30 11030 C 1023.84 2.2244 3.90948 0
M  V30 11031 C 1025.15 0.19488 4.39668 0
M  V30 11032 H 1022.27 0.174682 0.715999 0
M  V30 11033 H 1024.92 1.08735 1.5581 0
M  V30 11034 H 1023.07 0.210834 3.87927 0
M  V30 11035 H 1024.74 2.81113 3.6575 0
M  V30 11036 H 1022.98 2.69824 3.39673 0
M  V30 11037 H 1023.65 2.35266 4.99353 0
M  V30 11038 H 1026.13 0.639478 4.11157 0
M  V30 11039 H 1025 0.401958 5.47426 0
M  V30 11040 H 1025.26 -0.90302 4.32779 0
M  V30 11041 N 1024.32 -1.44642 0.625825 0
M  V30 11042 C 1025.55 -2.06159 0.13492 0
M  V30 11043 C 1025.96 -1.46801 -1.19357 0
M  V30 11044 O 1025.3 -0.583345 -1.74192 0
M  V30 11045 C 1025.37 -3.5945 -0.0598481 0
M  V30 11046 C 1025.03 -4.41244 1.18965 0
M  V30 11047 C 1026.03 -4.75064 2.11212 0
M  V30 11048 C 1023.71 -4.81705 1.42359 0
M  V30 11049 C 1025.71 -5.48221 3.25165 0
M  V30 11050 C 1023.39 -5.54612 2.5661 0
M  V30 11051 C 1024.39 -5.87789 3.4784 0
M  V30 11052 O 1024.08 -6.59213 4.60101 0
M  V30 11053 H 1023.81 -0.671888 0.0744464 0
M  V30 11054 H 1026.37 -1.86586 0.858775 0
M  V30 11055 H 1024.6 -3.77493 -0.838792 0
M  V30 11056 H 1026.28 -4.02751 -0.504639 0
M  V30 11057 H 1027.05 -4.44348 1.94371 0
M  V30 11058 H 1022.93 -4.55305 0.722401 0
M  V30 11059 H 1026.47 -5.74035 3.96396 0
M  V30 11060 H 1022.37 -5.84743 2.73396 0
M  V30 11061 H 1023.14 -6.77678 4.59015 0
M  V30 11062 N 1025.8 -0.366053 -1.5329 0
M  V30 11063 C 1027.05 0.224614 -2.00445 0
M  V30 11064 C 1027.36 1.49829 -1.2574 0
M  V30 11065 O 1028.57 2.16759 -1.63487 0
M  V30 11066 C 1027.03 0.450818 -3.57065 0
M  V30 11067 C 1026.63 -0.808257 -4.40649 0
M  V30 11068 C 1028.38 0.999116 -4.12575 0
M  V30 11069 C 1026.28 -0.551612 -5.88822 0
M  V30 11070 H 1025.21 0.0877114 -0.748881 0
M  V30 11071 H 1027.87 -0.484866 -1.76978 0
M  V30 11072 H 1026.25 1.22157 -3.76688 0
M  V30 11073 H 1027.42 -1.58184 -4.32798 0
M  V30 11074 H 1025.74 -1.27981 -3.96245 0
M  V30 11075 H 1028.33 1.20646 -5.20911 0
M  V30 11076 H 1028.68 1.96139 -3.67199 0
M  V30 11077 H 1029.21 0.288518 -3.96752 0
M  V30 11078 H 1025.95 -1.48423 -6.38475 0
M  V30 11079 H 1025.47 0.183462 -5.99519 0
M  V30 11080 H 1027.15 -0.177307 -6.46757 0
M  V30 11081 N 1027.28 1.57312 -0.0952337 0
M  V30 11082 C 1028.53 1.94646 0.569284 0
M  V30 11083 C 1028.86 0.977152 1.67825 0
M  V30 11084 O 1028.13 0.0102318 1.94497 0
M  V30 11085 C 1028.42 3.42098 1.12433 0
M  V30 11086 C 1028.27 4.49795 0.0204016 0
M  V30 11087 C 1029.59 3.90866 2.02266 0
M  V30 11088 H 1026.71 0.707779 0.205469 0
M  V30 11089 H 1029.35 1.89274 -0.16597 0
M  V30 11090 H 1027.5 3.46807 1.75092 0
M  V30 11091 H 1029.17 4.57198 -0.613845 0
M  V30 11092 H 1027.41 4.28964 -0.645965 0
M  V30 11093 H 1028.09 5.50166 0.449579 0
M  V30 11094 H 1030.56 3.88311 1.49512 0
M  V30 11095 H 1029.44 4.94604 2.38029 0
M  V30 11096 H 1029.7 3.30167 2.9401 0
M  V30 11097 N 1028.76 -0.17846 1.56586 0
M  V30 11098 C 1029.71 -1.22552 1.92263 0
M  V30 11099 C 1030.69 -1.40163 0.790131 0
M  V30 11100 O 1031.88 -1.42254 1.05322 0
M  V30 11101 C 1029.01 -2.5666 2.27993 0
M  V30 11102 C 1028.1 -2.42772 3.47739 0
M  V30 11103 N 1028.49 -1.98588 4.65185 0
M  V30 11104 C 1026.79 -2.73619 3.52205 0
M  V30 11105 C 1027.49 -1.96991 5.47329 0
M  V30 11106 N 1026.46 -2.39126 4.8818 0
M  V30 11107 H 1030.27 -0.875493 2.80557 0
M  V30 11108 H 1027.78 -0.386785 1.57727 0
M  V30 11109 H 1029.78 -3.32312 2.51743 0
M  V30 11110 H 1028.44 -2.92472 1.41034 0
M  V30 11111 H 1029.45 -1.69036 4.89538 0
M  V30 11112 H 1026.13 -3.13516 2.75706 0
M  V30 11113 H 1027.52 -1.64589 6.51429 0
M  V30 11114 N 1030.24 -1.51135 -0.446768 0
M  V30 11115 C 1031.48 -1.63013 -1.19461 0
M  V30 11116 C 1031.8 -0.344067 -1.91941 0
M  V30 11117 O 1031.07 0.639666 -1.85162 0
M  V30 11118 H 1029.65 -0.600757 -0.443959 0
M  V30 11119 H 1032.32 -1.88024 -0.513137 0
M  V30 11120 H 1031.41 -2.45322 -1.92933 0
M  V30 11121 N 1031.71 0.701592 -1.41122 0
M  V30 11122 C 1032.96 1.4616 -1.40155 0
M  V30 11123 C 1033.29 1.94498 -0.00861553 0
M  V30 11124 O 1032.54 1.69484 0.978452 0
M  V30 11125 C 1032.84 2.693 -2.34973 0
M  V30 11126 C 1032.51 2.39652 -3.81939 0
M  V30 11127 C 1031.17 2.31277 -4.21977 0
M  V30 11128 C 1033.52 2.15076 -4.74755 0
M  V30 11129 C 1030.85 1.96413 -5.52846 0
M  V30 11130 C 1033.2 1.81722 -6.05937 0
M  V30 11131 C 1031.87 1.71838 -6.45002 0
M  V30 11132 H 1031.14 0.534837 -0.512865 0
M  V30 11133 H 1033.78 0.802425 -1.73878 0
M  V30 11134 H 1032.09 3.40123 -1.94484 0
M  V30 11135 H 1033.79 3.27427 -2.31501 0
M  V30 11136 H 1030.38 2.47063 -3.50226 0
M  V30 11137 H 1034.56 2.20495 -4.4463 0
M  V30 11138 H 1029.82 1.87308 -5.82001 0
M  V30 11139 H 1033.99 1.61723 -6.77362 0
M  V30 11140 H 1031.62 1.44591 -7.46323 0
M  V30 11141 N 1033.19 1.2685 0.935242 0
M  V30 11142 C 1034.44 1.12522 1.67878 0
M  V30 11143 C 1034.76 -0.330894 1.92172 0
M  V30 11144 O 1034.03 -1.23259 1.52263 0
M  V30 11145 H 1032.61 0.413418 0.622169 0
M  V30 11146 H 1035.27 1.59267 1.12339 0
M  V30 11147 H 1034.37 1.64853 2.65009 0
M  V30 11148 N 1034.67 -1.14067 1.0875 0
M  V30 11149 C 1035.62 -2.17302 0.690195 0
M  V30 11150 C 1036.6 -1.58229 -0.291948 0
M  V30 11151 O 1037.8 -1.76698 -0.103411 0
M  V30 11152 C 1034.93 -3.4314 0.104835 0
M  V30 11153 C 1034.01 -4.09235 1.11298 0
M  V30 11154 N 1034.4 -4.50601 2.29765 0
M  V30 11155 C 1032.7 -4.35775 0.949535 0
M  V30 11156 C 1033.4 -5.02029 2.93839 0
M  V30 11157 N 1032.38 -4.96457 2.21431 0
M  V30 11158 H 1036.18 -2.47031 1.59226 0
M  V30 11159 H 1033.69 -1.30788 0.962722 0
M  V30 11160 H 1035.69 -4.16431 -0.197777 0
M  V30 11161 H 1034.35 -3.14888 -0.792172 0
M  V30 11162 H 1035.36 -4.43529 2.67399 0
M  V30 11163 H 1032.04 -4.17364 0.106627 0
M  V30 11164 H 1033.43 -5.43885 3.94511 0
M  V30 11165 N 1036.15 -0.873678 -1.31166 0
M  V30 11166 C 1037.1 -0.330288 -2.28424 0
M  V30 11167 C 1038.07 0.573299 -1.55893 0
M  V30 11168 O 1039.25 0.504143 -1.84019 0
M  V30 11169 C 1036.39 0.459004 -3.42034 0
M  V30 11170 C 1035.5 -0.472519 -4.29408 0
M  V30 11171 C 1034.64 0.331261 -5.30166 0
M  V30 11172 C 1033.68 -0.596453 -6.09187 0
M  V30 11173 N 1032.81 0.171305 -7.01891 0
M  V30 11174 H 1037.65 -1.16485 -2.7429 0
M  V30 11175 H 1035.19 -0.585813 -1.34932 0
M  V30 11176 H 1037.15 0.932432 -4.06647 0
M  V30 11177 H 1035.78 1.25824 -2.97268 0
M  V30 11178 H 1034.83 -1.06441 -3.65205 0
M  V30 11179 H 1036.14 -1.18372 -4.84551 0
M  V30 11180 H 1035.3 0.867038 -6.00473 0
M  V30 11181 H 1034.04 1.07573 -4.75688 0
M  V30 11182 H 1033.04 -1.14395 -5.37767 0
M  V30 11183 H 1034.27 -1.33983 -6.65752 0
M  V30 11184 H 1032.21 0.89852 -6.49817 0
M  V30 11185 H 1032.13 -0.480481 -7.54472 0
M  V30 11186 H 1033.4 0.688192 -7.76456 0
M  V30 11187 N 1037.63 1.44308 -0.633487 0
M  V30 11188 C 1038.59 2.2912 0.060376 0
M  V30 11189 C 1039.59 1.41166 0.769992 0
M  V30 11190 O 1040.78 1.63012 0.614224 0
M  V30 11191 C 1037.91 3.22798 1.0961 0
M  V30 11192 H 1039.1 2.91958 -0.685617 0
M  V30 11193 H 1036.66 1.51259 -0.393738 0
M  V30 11194 H 1037.39 2.64815 1.87199 0
M  V30 11195 H 1037.18 3.87618 0.591161 0
M  V30 11196 H 1038.67 3.86504 1.58127 0
M  V30 11197 N 1039.1 0.374177 1.53094 0
M  V30 11198 C 1040.52 -0.103172 1.86415 0
M  V30 11199 C 1040.87 -1.47439 1.29446 0
M  V30 11200 O 1039.99 -2.07333 0.619853 0
M  V30 11201 C 1040.59 -0.193988 3.38244 0
M  V30 11202 C 1039.15 -0.615605 3.71332 0
M  V30 11203 C 1038.29 0.23186 2.76329 0
M  V30 11204 H 1041.24 0.592644 1.47219 0
M  V30 11205 H 1041.26 -1.01597 3.66686 0
M  V30 11206 H 1040.78 0.80414 3.79678 0
M  V30 11207 H 1038.88 -1.62165 3.3546 0
M  V30 11208 H 1038.99 -0.38425 4.77557 0
M  V30 11209 H 1037.35 -0.300579 2.5292 0
M  V30 11210 H 1038.14 1.22769 3.20597 0
M  V30 11211 N 1040.58 -1.57259 0.103575 0
M  V30 11212 C 1041.51 -2.17509 -0.84923 0
M  V30 11213 C 1042.49 -1.11079 -1.28824 0
M  V30 11214 O 1043.68 -1.39252 -1.35361 0
M  V30 11215 C 1040.81 -2.76221 -2.10522 0
M  V30 11216 C 1039.76 -3.88098 -1.80454 0
M  V30 11217 C 1039.09 -4.33549 -3.12952 0
M  V30 11218 C 1040.39 -5.10909 -1.08486 0
M  V30 11219 H 1042.08 -2.9738 -0.347217 0
M  V30 11220 H 1039.63 -1.43045 -0.165568 0
M  V30 11221 H 1041.58 -3.17024 -2.77621 0
M  V30 11222 H 1040.31 -1.93617 -2.63021 0
M  V30 11223 H 1038.96 -3.47847 -1.15749 0
M  V30 11224 H 1038.61 -3.47825 -3.63355 0
M  V30 11225 H 1038.31 -5.08984 -2.93614 0
M  V30 11226 H 1039.84 -4.76992 -3.81196 0
M  V30 11227 H 1041.25 -5.48828 -1.65711 0
M  V30 11228 H 1039.65 -5.91828 -0.992973 0
M  V30 11229 H 1040.72 -4.84851 -0.0690108 0
M  V30 11230 N 1042.06 0.170153 -1.56679 0
M  V30 11231 C 1042.99 1.23945 -1.91606 0
M  V30 11232 C 1043.97 1.42725 -0.779004 0
M  V30 11233 O 1045.16 1.57712 -1.03243 0
M  V30 11234 C 1042.28 2.60222 -2.168 0
M  V30 11235 C 1041.33 2.58172 -3.39484 0
M  V30 11236 S 1042.16 2.0714 -4.93815 0
M  V30 11237 C 1043.32 3.45192 -5.22105 0
M  V30 11238 H 1043.55 0.941345 -2.82004 0
M  V30 11239 H 1041.08 0.374771 -1.49783 0
M  V30 11240 H 1043.04 3.38656 -2.31996 0
M  V30 11241 H 1041.7 2.87232 -1.27107 0
M  V30 11242 H 1040.9 3.58435 -3.54317 0
M  V30 11243 H 1040.5 1.87834 -3.2341 0
M  V30 11244 H 1042.79 4.41194 -5.14154 0
M  V30 11245 H 1043.73 3.35233 -6.23718 0
M  V30 11246 H 1044.14 3.41257 -4.49671 0
M  V30 11247 N 1043.54 1.5137 0.438746 0
M  V30 11248 C 1044.95 1.39514 0.775116 0
M  V30 11249 C 1045.15 0.47638 1.95788 0
M  V30 11250 O 1044.21 -0.0689832 2.52406 0
M  V30 11251 C 1045.52 2.81517 1.05681 0
M  V30 11252 C 1047.07 2.90658 1.16133 0
M  V30 11253 C 1047.55 4.33566 1.47597 0
M  V30 11254 N 1049.04 4.36665 1.54524 0
M  V30 11255 C 1049.77 5.4427 1.80438 0
M  V30 11256 N 1049.27 6.62037 2.04154 0
M  V30 11257 N 1051.06 5.31749 1.82208 0
M  V30 11258 H 1043.21 2.09657 -0.340237 0
M  V30 11259 H 1045.48 0.943736 -0.0898115 0
M  V30 11260 H 1045.18 3.50734 0.260441 0
M  V30 11261 H 1045.06 3.20757 1.98481 0
M  V30 11262 H 1047.44 2.2164 1.94833 0
M  V30 11263 H 1047.52 2.54917 0.212376 0
M  V30 11264 H 1047.17 5.03133 0.694251 0
M  V30 11265 H 1047.1 4.66819 2.43696 0
M  V30 11266 H 1049.59 3.51761 1.38105 0
M  V30 11267 H 1049.9 7.39838 2.23293 0
M  V30 11268 H 1048.25 6.65155 2.01479 0
M  V30 11269 H 1051.44 4.3873 1.63198 0
M  V30 11270 H 1051.61 6.15689 2.02067 0
M  V30 11271 N 1045.02 -0.694098 1.41492 0
M  V30 11272 C 1045.95 -1.82042 1.46229 0
M  V30 11273 C 1046.93 -1.67047 0.320803 0
M  V30 11274 O 1048.11 -1.86758 0.53245 0
M  V30 11275 C 1045.24 -3.2019 1.34519 0
M  V30 11276 C 1044.2 -3.49892 2.46495 0
M  V30 11277 C 1043.52 -4.87411 2.1985 0
M  V30 11278 C 1044.82 -3.4872 3.88834 0
M  V30 11279 H 1046.52 -1.78335 2.40493 0
M  V30 11280 H 1044.06 -0.856566 1.15754 0
M  V30 11281 H 1046.02 -3.98699 1.36445 0
M  V30 11282 H 1044.74 -3.24527 0.367406 0
M  V30 11283 H 1043.4 -2.73734 2.43854 0
M  V30 11284 H 1043.05 -4.88375 1.20411 0
M  V30 11285 H 1042.75 -5.08248 2.94885 0
M  V30 11286 H 1044.27 -5.68228 2.23494 0
M  V30 11287 H 1045.68 -4.1723 3.93182 0
M  V30 11288 H 1044.08 -3.81089 4.63564 0
M  V30 11289 H 1045.15 -2.47665 4.16881 0
M  V30 11290 N 1046.49 -1.27344 -0.928501 0
M  V30 11291 C 1047.46 -1.10043 -2.01055 0
M  V30 11292 C 1048.46 -0.0446793 -1.60738 0
M  V30 11293 O 1049.65 -0.289202 -1.71783 0
M  V30 11294 C 1046.78 -0.676559 -3.34119 0
M  V30 11295 H 1047.97 -2.06126 -2.17835 0
M  V30 11296 H 1045.53 -1.10121 -1.10919 0
M  V30 11297 H 1046.26 0.285697 -3.23039 0
M  V30 11298 H 1046.05 -1.43903 -3.64739 0
M  V30 11299 H 1047.54 -0.577725 -4.13584 0
M  V30 11300 N 1047.97 1.13488 -1.09353 0
M  V30 11301 C 1048.92 2.16933 -0.701709 0
M  V30 11302 C 1049.91 1.58382 0.283553 0
M  V30 11303 O 1051.1 1.7675 0.0940391 0
M  V30 11304 C 1048.23 3.43079 -0.123031 0
M  V30 11305 C 1047.31 4.08639 -1.13466 0
M  V30 11306 N 1047.7 4.49377 -2.32152 0
M  V30 11307 C 1046 4.35265 -0.972632 0
M  V30 11308 C 1046.7 5.00464 -2.96497 0
M  V30 11309 N 1045.68 4.95275 -2.24061 0
M  V30 11310 H 1049.48 2.46183 -1.60534 0
M  V30 11311 H 1047 1.30275 -0.969644 0
M  V30 11312 H 1048.99 4.1653 0.17569 0
M  V30 11313 H 1047.65 3.15304 0.775461 0
M  V30 11314 H 1048.66 4.42105 -2.69748 0
M  V30 11315 H 1045.34 4.17301 -0.12876 0
M  V30 11316 H 1046.73 5.41785 -3.9739 0
M  V30 11317 N 1049.45 0.880621 1.30701 0
M  V30 11318 C 1050.7 0.495894 1.95922 0
M  V30 11319 C 1051.02 -0.957214 1.69889 0
M  V30 11320 O 1050.29 -1.67245 1.0201 0
M  V30 11321 H 1048.87 0.180394 0.724891 0
M  V30 11322 H 1051.53 1.12274 1.59313 0
M  V30 11323 H 1050.63 0.662508 3.04987 0
M  V30 11324 N 1050.93 -1.4397 0.641131 0
M  V30 11325 C 1052.35 -1.56607 0.30762 0
M  V30 11326 C 1052.55 -1.62694 -1.18882 0
M  V30 11327 O 1051.6 -1.57541 -1.97325 0
M  V30 11328 C 1052.91 -2.83289 1.00834 0
M  V30 11329 C 1054.46 -2.97016 0.98744 0
M  V30 11330 C 1054.94 -4.26514 1.66882 0
M  V30 11331 N 1056.43 -4.33351 1.63589 0
M  V30 11332 C 1057.16 -5.32292 2.13196 0
M  V30 11333 N 1056.66 -6.37582 2.71038 0
M  V30 11334 N 1058.45 -5.23866 2.03766 0
M  V30 11335 H 1050.6 -1.38262 1.61237 0
M  V30 11336 H 1052.87 -0.663221 0.677378 0
M  V30 11337 H 1052.57 -2.84812 2.06337 0
M  V30 11338 H 1052.45 -3.73134 0.552333 0
M  V30 11339 H 1054.83 -2.95041 -0.0591395 0
M  V30 11340 H 1054.91 -2.08493 1.48203 0
M  V30 11341 H 1054.56 -4.2925 2.71491 0
M  V30 11342 H 1054.49 -5.13912 1.14898 0
M  V30 11343 H 1056.98 -3.5788 1.21368 0
M  V30 11344 H 1057.29 -7.09378 3.06597 0
M  V30 11345 H 1055.64 -6.38239 2.75093 0
M  V30 11346 H 1058.83 -4.40524 1.58291 0
M  V30 11347 H 1059 -6.00819 2.42737 0
M  V30 11348 N 1052.41 -0.382291 -1.52893 0
M  V30 11349 C 1053.66 0.201734 -2.01091 0
M  V30 11350 C 1053.98 1.47905 -1.2708 0
M  V30 11351 O 1053.25 1.92002 -0.38883 0
M  V30 11352 H 1051.83 0.0775373 -0.742965 0
M  V30 11353 H 1054.49 -0.512369 -1.88045 0
M  V30 11354 H 1053.58 0.416919 -3.09303 0
M  V30 11355 N 1053.89 1.57202 -0.111913 0
M  V30 11356 C 1054.85 2.13778 0.826534 0
M  V30 11357 C 1055.85 1.07097 1.19945 0
M  V30 11358 O 1057.04 1.32906 1.12613 0
M  V30 11359 C 1054.17 2.6722 2.11675 0
M  V30 11360 H 1055.36 2.98023 0.334975 0
M  V30 11361 H 1052.92 1.55696 0.137256 0
M  V30 11362 H 1053.65 1.86542 2.65278 0
M  V30 11363 H 1053.44 3.45235 1.8589 0
M  V30 11364 H 1054.93 3.10926 2.78774 0
M  V30 11365 N 1055.36 -0.161842 1.56767 0
M  V30 11366 C 1056.59 -0.896274 1.87034 0
M  V30 11367 C 1057.01 -1.74617 0.699314 0
M  V30 11368 O 1056.37 -1.77861 -0.351435 0
M  V30 11369 C 1056.42 -1.74105 3.15784 0
M  V30 11370 O 1055.52 -2.84372 2.98674 0
M  V30 11371 H 1054.86 -0.250523 0.614926 0
M  V30 11372 H 1057.39 -0.157127 2.03996 0
M  V30 11373 H 1057.4 -2.13907 3.4743 0
M  V30 11374 H 1056.08 -1.11684 4.00624 0
M  V30 11375 H 1054.66 -2.48084 2.78404 0
M  V30 11376 N 1056.84 -1.516 -0.430713 0
M  V30 11377 C 1058.12 -1.55142 -1.19123 0
M  V30 11378 C 1058.5 -0.319596 -2.08667 0
M  V30 11379 O 1057.85 0.694927 -2.17676 0
M  V30 11380 C 1058.06 -2.86891 -1.98732 0
M  V30 11381 C 1059.4 -3.39089 -2.55546 0
M  V30 11382 O 1060.43 -2.88486 -2.08936 0
M  V30 11383 O 1059.29 -4.27401 -3.40574 0
M  V30 11384 H 1056.38 -0.624019 -0.542705 0
M  V30 11385 H 1058.93 -1.63917 -0.439244 0
M  V30 11386 H 1057.7 -3.68002 -1.33005 0
M  V30 11387 H 1057.32 -2.81309 -2.80982 0
M  V30 11388 N 1058.32 0.686584 -1.41858 0
M  V30 11389 C 1059.27 1.82167 -1.4463 0
M  V30 11390 C 1060.26 1.66286 -0.323313 0
M  V30 11391 O 1061.47 1.73038 -0.495773 0
M  V30 11392 H 1057.84 0.600454 -0.452724 0
M  V30 11393 H 1059.81 1.76947 -2.40276 0
M  V30 11394 C 1058.56 3.20248 -1.35412 0
M  V30 11395 H 1057.89 3.33089 -2.21115 0
M  V30 11396 H 1059.33 3.99723 -1.41413 0
M  V30 11397 C 1057.78 3.36832 -0.0674972 0
M  V30 11398 O 1058.31 3.91845 0.884325 0
M  V30 11399 N 1056.52 2.90598 0.011519 0
M  V30 11400 H 1056.07 2.46016 -0.76381 0
M  V30 11401 H 1056.03 3.02072 0.871774 0
M  V30 11402 N 1059.8 1.27835 0.921735 0
M  V30 11403 C 1061.03 1.17182 1.70153 0
M  V30 11404 C 1061.44 -0.273207 1.87217 0
M  V30 11405 O 1060.78 -1.19729 1.39322 0
M  V30 11406 C 1060.84 1.78969 3.11786 0
M  V30 11407 C 1060.5 3.28179 3.18037 0
M  V30 11408 C 1061.5 4.24729 2.99835 0
M  V30 11409 C 1059.19 3.68995 3.40805 0
M  V30 11410 C 1061.18 5.60071 3.04301 0
M  V30 11411 C 1058.87 5.04465 3.44904 0
M  V30 11412 C 1059.87 5.99813 3.2667 0
M  V30 11413 O 1059.55 7.32813 3.30515 0
M  V30 11414 H 1059.29 0.408079 0.538932 0
M  V30 11415 H 1061.84 1.69326 1.16266 0
M  V30 11416 H 1060.07 1.2131 3.6718 0
M  V30 11417 H 1061.76 1.62946 3.71757 0
M  V30 11418 H 1062.52 3.94533 2.8208 0
M  V30 11419 H 1058.4 2.9525 3.54045 0
M  V30 11420 H 1061.95 6.34471 2.89987 0
M  V30 11421 H 1057.84 5.34315 3.62185 0
M  V30 11422 H 1058.61 7.41338 3.4693 0
M  V30 11423 N 1061.28 -1.12907 1.09954 0
M  V30 11424 C 1062.21 -2.20585 0.765799 0
M  V30 11425 C 1063.19 -1.68117 -0.258989 0
M  V30 11426 O 1064.37 -1.93792 -0.125853 0
M  V30 11427 C 1061.5 -3.46772 0.191435 0
M  V30 11428 C 1060.46 -4.12363 1.14635 0
M  V30 11429 C 1059.78 -5.3294 0.433426 0
M  V30 11430 C 1061.08 -4.59073 2.49096 0
M  V30 11431 H 1062.78 -2.48759 1.66612 0
M  V30 11432 H 1060.32 -1.19563 0.802534 0
M  V30 11433 H 1062.27 -4.21365 -0.0541535 0
M  V30 11434 H 1061 -3.18011 -0.744101 0
M  V30 11435 H 1059.66 -3.39744 1.37731 0
M  V30 11436 H 1059.31 -5.00444 -0.506422 0
M  V30 11437 H 1059.01 -5.77772 1.07018 0
M  V30 11438 H 1060.53 -6.10284 0.196267 0
M  V30 11439 H 1061.94 -5.25063 2.30177 0
M  V30 11440 H 1060.34 -5.14665 3.0861 0
M  V30 11441 H 1061.41 -3.73313 3.0946 0
M  V30 11442 N 1062.75 -0.88754 -1.30232 0
M  V30 11443 C 1063.69 -0.313488 -2.27046 0
M  V30 11444 C 1064.7 0.533383 -1.53814 0
M  V30 11445 O 1065.89 0.352516 -1.74984 0
M  V30 11446 C 1062.99 0.572674 -3.34026 0
M  V30 11447 C 1062.16 -0.245712 -4.36709 0
M  V30 11448 C 1061.22 0.57135 -5.23089 0
M  V30 11449 O 1060.25 -0.00685948 -5.692 0
M  V30 11450 N 1061.45 1.87994 -5.49216 0
M  V30 11451 H 1064.21 -1.14553 -2.76943 0
M  V30 11452 H 1061.77 -0.750785 -1.43439 0
M  V30 11453 H 1063.77 1.12539 -3.88738 0
M  V30 11454 H 1062.34 1.3054 -2.84039 0
M  V30 11455 H 1061.56 -0.979869 -3.81827 0
M  V30 11456 H 1062.84 -0.806618 -5.02366 0
M  V30 11457 H 1062.24 2.3726 -5.13541 0
M  V30 11458 H 1060.8 2.38005 -6.06792 0
M  V30 11459 N 1064.23 1.43628 -0.648757 0
M  V30 11460 C 1065.46 2.06217 -0.167945 0
M  V30 11461 C 1065.88 1.486 1.16462 0
M  V30 11462 O 1065.23 0.61559 1.71804 0
M  V30 11463 C 1065.28 3.6144 -0.0660114 0
M  V30 11464 O 1065 4.16914 -1.34589 0
M  V30 11465 C 1066.51 4.41097 0.441408 0
M  V30 11466 H 1063.73 0.665228 -0.0878237 0
M  V30 11467 H 1066.27 1.84207 -0.888144 0
M  V30 11468 H 1064.42 3.82651 0.604722 0
M  V30 11469 H 1064.84 5.10537 -1.20218 0
M  V30 11470 H 1066.31 5.50066 0.461697 0
M  V30 11471 H 1066.79 4.13803 1.47187 0
M  V30 11472 H 1067.4 4.24845 -0.19668 0
M  V30 11473 N 1065.71 0.390394 1.52688 0
M  V30 11474 C 1067.13 0.0404028 1.59549 0
M  V30 11475 C 1067.33 -1.44503 1.40432 0
M  V30 11476 O 1066.38 -2.20968 1.22187 0
M  V30 11477 C 1067.7 0.518561 2.96195 0
M  V30 11478 C 1069.24 0.474913 3.09376 0
M  V30 11479 C 1069.72 0.929278 4.48473 0
M  V30 11480 N 1071.21 0.885335 4.5466 0
M  V30 11481 C 1071.94 1.2083 5.60524 0
M  V30 11482 N 1071.44 1.6018 6.74028 0
M  V30 11483 N 1073.23 1.12949 5.50635 0
M  V30 11484 H 1065.38 1.35743 1.63363 0
M  V30 11485 H 1067.65 0.556453 0.767505 0
M  V30 11486 H 1067.35 1.55606 3.15404 0
M  V30 11487 H 1067.23 -0.081779 3.77111 0
M  V30 11488 H 1069.61 -0.553503 2.89863 0
M  V30 11489 H 1069.7 1.11107 2.3041 0
M  V30 11490 H 1069.34 1.95593 4.68728 0
M  V30 11491 H 1069.27 0.270121 5.25907 0
M  V30 11492 H 1071.76 0.595787 3.73174 0
M  V30 11493 H 1072.07 1.83184 7.50775 0
M  V30 11494 H 1070.42 1.64067 6.75357 0
M  V30 11495 H 1073.61 0.821074 4.60843 0
M  V30 11496 H 1073.78 1.3845 6.33037 0
M  V30 11497 N 1067.19 -1.57141 0.120249 0
M  V30 11498 C 1068.42 -1.993 -0.544346 0
M  V30 11499 C 1068.83 -0.998858 -1.60684 0
M  V30 11500 O 1068.17 0.0162197 -1.83693 0
M  V30 11501 C 1068.23 -3.37874 -1.22808 0
M  V30 11502 C 1067.9 -4.55924 -0.313374 0
M  V30 11503 C 1068.89 -5.17962 0.448501 0
M  V30 11504 C 1066.58 -5.018 -0.224082 0
M  V30 11505 C 1068.57 -6.24264 1.28739 0
M  V30 11506 C 1066.26 -6.07963 0.618437 0
M  V30 11507 C 1067.26 -6.69061 1.3728 0
M  V30 11508 O 1066.94 -7.73173 2.20133 0
M  V30 11509 H 1066.68 -0.659466 -0.148596 0
M  V30 11510 H 1069.23 -2.04387 0.203779 0
M  V30 11511 H 1067.46 -3.29545 -2.02329 0
M  V30 11512 H 1069.15 -3.64314 -1.7897 0
M  V30 11513 H 1069.92 -4.83434 0.389395 0
M  V30 11514 H 1065.79 -4.53989 -0.80094 0
M  V30 11515 H 1069.34 -6.71883 1.87667 0
M  V30 11516 H 1065.24 -6.4192 0.678932 0
M  V30 11517 H 1066 -7.90276 2.13088 0
M  V30 11518 N 1068.67 0.153526 -1.5685 0
M  V30 11519 C 1069.61 1.18973 -1.97773 0
M  V30 11520 C 1070.58 1.43041 -0.844311 0
M  V30 11521 O 1071.77 1.55484 -1.10586 0
M  V30 11522 C 1068.91 2.51981 -2.35795 0
M  V30 11523 C 1068.02 2.35143 -3.62397 0
M  V30 11524 C 1067.16 3.61141 -3.89552 0
M  V30 11525 C 1066.2 3.39311 -5.09445 0
M  V30 11526 N 1065.33 4.57423 -5.32643 0
M  V30 11527 H 1070.17 0.833758 -2.86099 0
M  V30 11528 H 1067.71 0.400252 -1.4155 0
M  V30 11529 H 1069.67 3.29527 -2.55867 0
M  V30 11530 H 1068.3 2.85539 -1.50557 0
M  V30 11531 H 1067.35 1.48684 -3.50139 0
M  V30 11532 H 1068.66 2.14969 -4.501 0
M  V30 11533 H 1067.82 4.47117 -4.10087 0
M  V30 11534 H 1066.55 3.84312 -3.00259 0
M  V30 11535 H 1065.56 2.51723 -4.8879 0
M  V30 11536 H 1066.78 3.17545 -6.00285 0
M  V30 11537 H 1064.73 4.8078 -4.46303 0
M  V30 11538 H 1064.65 4.40228 -6.14602 0
M  V30 11539 H 1065.92 5.44632 -5.57671 0
M  V30 11540 N 1070.14 1.51827 0.422667 0
M  V30 11541 C 1071.07 1.77152 1.52117 0
M  V30 11542 C 1072.06 0.621895 1.58324 0
M  V30 11543 O 1073.24 0.866118 1.73816 0
M  V30 11544 C 1070.37 1.90991 2.90068 0
M  V30 11545 C 1069.32 3.06516 2.98717 0
M  V30 11546 C 1068.65 3.05559 4.38791 0
M  V30 11547 C 1069.95 4.46223 2.71445 0
M  V30 11548 H 1071.64 2.69135 1.31175 0
M  V30 11549 H 1069.19 1.29507 0.629607 0
M  V30 11550 H 1071.14 2.07291 3.6689 0
M  V30 11551 H 1069.87 0.956688 3.12274 0
M  V30 11552 H 1068.53 2.89945 2.24338 0
M  V30 11553 H 1068.17 2.07985 4.57986 0
M  V30 11554 H 1067.87 3.83144 4.45505 0
M  V30 11555 H 1069.4 3.23971 5.17566 0
M  V30 11556 H 1070.81 4.63069 3.37994 0
M  V30 11557 H 1069.21 5.25623 2.89552 0
M  V30 11558 H 1070.28 4.5525 1.6696 0
M  V30 11559 N 1071.62 -0.679052 1.4222 0
M  V30 11560 C 1072.9 -1.43473 1.32947 0
M  V30 11561 C 1073.28 -2.11071 -0.0351689 0
M  V30 11562 O 1072.63 -2.02925 -1.05042 0
M  V30 11563 C 1072.84 -2.44065 2.49466 0
M  V30 11564 C 1074.19 -3.08834 2.91387 0
M  V30 11565 O 1075.21 -2.54392 2.49325 0
M  V30 11566 O 1074.07 -4.07478 3.64175 0
M  V30 11567 H 1071.16 -0.639743 0.524078 0
M  V30 11568 H 1073.71 -0.708134 1.54219 0
M  V30 11569 H 1072.48 -1.92884 3.40457 0
M  V30 11570 H 1072.1 -3.24212 2.30158 0
M  V30 11571 N 1073.1 -1.28322 -0.914942 0
M  V30 11572 C 1074.51 -1.13937 -1.47903 0
M  V30 11573 C 1074.86 0.271072 -1.94318 0
M  V30 11574 O 1073.99 1.16522 -1.8235 0
M  V30 11575 C 1074.58 -2.06221 -2.68809 0
M  V30 11576 C 1073.14 -1.95903 -3.21402 0
M  V30 11577 C 1072.29 -1.98031 -1.94111 0
M  V30 11578 H 1075.24 -1.41029 -0.727772 0
M  V30 11579 H 1075.26 -1.6255 -3.44031 0
M  V30 11580 H 1074.77 -3.08866 -2.34997 0
M  V30 11581 H 1072.87 -0.962907 -3.59943 0
M  V30 11582 H 1072.99 -2.82799 -3.86732 0
M  V30 11583 H 1071.35 -1.42423 -2.11158 0
M  V30 11584 H 1072.13 -3.02354 -1.62595 0
M  V30 11585 N 1074.58 1.12322 -1.10551 0
M  V30 11586 C 1075.83 1.83216 -0.84349 0
M  V30 11587 C 1076.14 1.85075 0.632992 0
M  V30 11588 O 1077.35 2.51976 1.01095 0
M  V30 11589 C 1075.8 3.28994 -1.45915 0
M  V30 11590 C 1075.41 3.3549 -2.96901 0
M  V30 11591 C 1077.15 4.0485 -1.27657 0
M  V30 11592 C 1075.06 4.7561 -3.51496 0
M  V30 11593 H 1073.99 0.686471 -0.311887 0
M  V30 11594 H 1076.64 1.26463 -1.32964 0
M  V30 11595 H 1075.02 3.85621 -0.900678 0
M  V30 11596 H 1076.2 2.88795 -3.59074 0
M  V30 11597 H 1074.51 2.73107 -3.14327 0
M  V30 11598 H 1077.11 5.08316 -1.65889 0
M  V30 11599 H 1077.45 4.15727 -0.218258 0
M  V30 11600 H 1077.99 3.54584 -1.80318 0
M  V30 11601 H 1074.73 4.69927 -4.56999 0
M  V30 11602 H 1074.25 5.22753 -2.94091 0
M  V30 11603 H 1075.92 5.44552 -3.49388 0
M  V30 11604 N 1076.06 0.894434 1.2976 0
M  V30 11605 C 1077.28 0.5322 2.00455 0
M  V30 11606 C 1077.71 -0.874427 1.66539 0
M  V30 11607 O 1077.06 -1.58113 0.887129 0
M  V30 11608 C 1077.11 0.725264 3.53231 0
M  V30 11609 O 1076.22 -0.224612 4.11788 0
M  V30 11610 H 1075.56 0.208562 0.630395 0
M  V30 11611 H 1078.09 1.20458 1.65382 0
M  V30 11612 H 1078.1 0.627889 4.0314 0
M  V30 11613 H 1076.77 1.75079 3.77253 0
M  V30 11614 H 1075.35 -0.0801361 3.72814 0
M  V30 11615 N 1077.53 -1.43282 0.656365 0
M  V30 11616 C 1078.78 -2.01378 0.170702 0
M  V30 11617 C 1079.1 -1.52063 -1.22073 0
M  V30 11618 O 1078.37 -0.73456 -1.81607 0
M  V30 11619 H 1076.95 -0.744577 0.0601168 0
M  V30 11620 H 1079.62 -1.75449 0.848739 0
M  V30 11621 H 1078.71 -3.11701 0.157745 0
M  V30 11622 N 1079.01 -0.398486 -1.52479 0
M  V30 11623 C 1080.26 0.180394 -2.01293 0
M  V30 11624 C 1080.58 1.46548 -1.28641 0
M  V30 11625 O 1079.85 1.91579 -0.409173 0
M  V30 11626 H 1078.43 0.0696528 -0.743746 0
M  V30 11627 H 1081.09 -0.532285 -1.87491 0
M  V30 11628 H 1080.19 0.38409 -3.09728 0
M  V30 11629 N 1080.49 1.57075 -0.12858 0
M  V30 11630 C 1081.45 2.14643 0.803813 0
M  V30 11631 C 1082.45 1.08363 1.18803 0
M  V30 11632 O 1083.64 1.34093 1.11197 0
M  V30 11633 C 1080.78 2.6945 2.08829 0
M  V30 11634 H 1081.97 2.98362 0.303347 0
M  V30 11635 H 1079.52 1.55833 0.120735 0
M  V30 11636 H 1080.26 1.89345 2.63285 0
M  V30 11637 H 1080.04 3.47187 1.82218 0
M  V30 11638 H 1081.53 3.13865 2.7546 0
M  V30 11639 N 1081.97 -0.145205 1.5693 0
M  V30 11640 C 1083.22 -0.855822 1.83085 0
M  V30 11641 C 1083.54 -1.81625 0.709747 0
M  V30 11642 O 1082.81 -1.94052 -0.268456 0
M  V30 11643 H 1081.39 -0.319032 0.675446 0
M  V30 11644 H 1084.05 -0.138781 1.94405 0
M  V30 11645 H 1083.15 -1.41698 2.78079 0
M  V30 11646 N 1083.45 -1.52049 -0.414609 0
M  V30 11647 C 1084.38 -1.77956 -1.51175 0
M  V30 11648 C 1085.36 -0.630282 -1.57992 0
M  V30 11649 O 1086.54 -0.875324 -1.73354 0
M  V30 11650 C 1083.67 -1.92527 -2.89051 0
M  V30 11651 C 1082.63 -3.08096 -2.97087 0
M  V30 11652 C 1081.95 -3.07882 -4.37164 0
M  V30 11653 C 1083.25 -4.47656 -2.69075 0
M  V30 11654 H 1084.95 -2.69827 -1.29746 0
M  V30 11655 H 1082.49 -1.29839 -0.62273 0
M  V30 11656 H 1084.45 -2.09234 -3.65786 0
M  V30 11657 H 1083.17 -0.973235 -3.11762 0
M  V30 11658 H 1081.83 -2.91131 -2.22797 0
M  V30 11659 H 1081.48 -2.10411 -4.56877 0
M  V30 11660 H 1081.18 -3.85501 -4.43467 0
M  V30 11661 H 1082.7 -3.26712 -5.15841 0
M  V30 11662 H 1084.12 -4.64855 -3.35534 0
M  V30 11663 H 1082.51 -5.27151 -2.8676 0
M  V30 11664 H 1083.58 -4.56129 -1.64544 0
M  V30 11665 N 1084.93 0.6715 -1.42579 0
M  V30 11666 C 1086.34 0.985019 -1.25577 0
M  V30 11667 C 1086.54 2.00845 -0.162319 0
M  V30 11668 O 1085.6 2.48175 0.465352 0
M  V30 11669 C 1086.91 1.48668 -2.61377 0
M  V30 11670 C 1088.46 1.60429 -2.68759 0
M  V30 11671 C 1088.93 2.13991 -4.04935 0
M  V30 11672 N 1090.42 2.21319 -4.06906 0
M  V30 11673 C 1091.16 2.63845 -5.09091 0
M  V30 11674 N 1090.66 3.05799 -6.21658 0
M  V30 11675 N 1092.45 2.63623 -4.96447 0
M  V30 11676 H 1084.6 -0.00604561 -2.12399 0
M  V30 11677 H 1086.86 0.0598299 -0.94611 0
M  V30 11678 H 1086.57 0.80917 -3.42265 0
M  V30 11679 H 1086.44 2.46487 -2.85524 0
M  V30 11680 H 1088.83 2.27286 -1.88216 0
M  V30 11681 H 1088.91 0.610909 -2.48398 0
M  V30 11682 H 1088.55 1.47741 -4.85937 0
M  V30 11683 H 1088.48 3.14126 -4.2265 0
M  V30 11684 H 1090.98 1.91743 -3.25643 0
M  V30 11685 H 1091.29 3.36944 -6.95477 0
M  V30 11686 H 1089.63 3.03648 -6.25158 0
M  V30 11687 H 1092.82 2.30211 -4.07579 0
M  V30 11688 H 1093 2.96444 -5.76216 0
M  V30 11689 N 1086.4 1.28806 0.908124 0
M  V30 11690 C 1087.65 1.1646 1.66027 0
M  V30 11691 C 1087.98 -0.285025 1.92097 0
M  V30 11692 O 1087.26 -1.20675 1.52538 0
M  V30 11693 C 1087.54 1.96951 3.01467 0
M  V30 11694 C 1087.39 3.50007 2.82515 0
M  V30 11695 C 1088.71 1.78932 4.02084 0
M  V30 11696 H 1085.83 0.424435 0.602515 0
M  V30 11697 H 1088.47 1.58185 1.0525 0
M  V30 11698 H 1086.62 1.61495 3.53344 0
M  V30 11699 H 1088.3 3.95401 2.37605 0
M  V30 11700 H 1086.54 3.75356 2.17463 0
M  V30 11701 H 1087.21 4.01591 3.7872 0
M  V30 11702 H 1089.69 2.09885 3.59287 0
M  V30 11703 H 1088.56 2.37615 4.94803 0
M  V30 11704 H 1088.82 0.742286 4.35824 0
M  V30 11705 N 1087.88 -1.11734 1.11145 0
M  V30 11706 C 1088.83 -2.19765 0.761982 0
M  V30 11707 C 1089.82 -1.67616 -0.24518 0
M  V30 11708 O 1091.03 -1.79695 -0.104781 0
M  V30 11709 H 1087.4 -0.71644 0.228513 0
M  V30 11710 H 1089.38 -2.4649 1.68183 0
M  V30 11711 C 1088.12 -3.47016 0.218057 0
M  V30 11712 H 1087.45 -3.87494 0.984299 0
M  V30 11713 H 1088.89 -4.23998 0.0116825 0
M  V30 11714 C 1087.35 -3.20088 -1.05096 0
M  V30 11715 O 1087.88 -3.40503 -2.1312 0
M  V30 11716 N 1086.08 -2.73844 -0.972523 0
M  V30 11717 H 1085.63 -2.57431 -0.0933459 0
M  V30 11718 H 1085.59 -2.56204 -1.82228 0
M  V30 11719 N 1089.36 -0.901303 -1.29284 0
M  V30 11720 C 1090.61 -0.528043 -1.95494 0
M  V30 11721 C 1090.93 0.92597 -1.71044 0
M  V30 11722 O 1090.19 1.67185 -1.01723 0
M  V30 11723 C 1090.49 -0.768828 -3.49033 0
M  V30 11724 C 1090.15 -2.20045 -3.93562 0
M  V30 11725 C 1088.82 -2.59189 -4.05431 0
M  V30 11726 C 1091.17 -3.13266 -4.1655 0
M  V30 11727 C 1088.5 -3.90733 -4.37658 0
M  V30 11728 C 1090.85 -4.4436 -4.50252 0
M  V30 11729 C 1089.51 -4.83375 -4.60331 0
M  V30 11730 H 1088.78 -0.193225 -0.715364 0
M  V30 11731 H 1091.43 -1.14027 -1.53851 0
M  V30 11732 H 1089.73 -0.0736997 -3.91731 0
M  V30 11733 H 1091.43 -0.459384 -3.9836 0
M  V30 11734 H 1088.02 -1.88666 -3.84842 0
M  V30 11735 H 1092.21 -2.84237 -4.06845 0
M  V30 11736 H 1087.46 -4.2068 -4.43665 0
M  V30 11737 H 1091.64 -5.16618 -4.66989 0
M  V30 11738 H 1089.26 -5.8534 -4.85058 0
M  V30 11739 N 1090.84 1.42931 -0.663954 0
M  V30 11740 C 1092.08 2.01982 -0.182007 0
M  V30 11741 C 1092.42 1.52323 1.20463 0
M  V30 11742 O 1091.69 0.720834 1.80649 0
M  V30 11743 C 1091.97 3.59518 -0.204671 0
M  V30 11744 C 1091.83 4.19382 -1.62599 0
M  V30 11745 C 1093.15 4.37762 0.45308 0
M  V30 11746 H 1090.27 0.733892 -0.0676115 0
M  V30 11747 H 1092.91 1.70092 -0.84668 0
M  V30 11748 H 1091.06 3.86816 0.361295 0
M  V30 11749 H 1092.73 4.03076 -2.24337 0
M  V30 11750 H 1090.97 3.75623 -2.17001 0
M  V30 11751 H 1091.64 5.28496 -1.59362 0
M  V30 11752 H 1094.12 4.1609 -0.0285774 0
M  V30 11753 H 1093 5.47392 0.406538 0
M  V30 11754 H 1093.26 4.1482 1.52895 0
M  V30 11755 N 1092.32 0.406567 1.52266 0
M  V30 11756 C 1093.73 0.0573228 1.59497 0
M  V30 11757 C 1093.93 -1.43005 1.41957 0
M  V30 11758 O 1092.99 -2.19659 1.24523 0
M  V30 11759 C 1094.3 0.549947 2.95628 0
M  V30 11760 C 1095.85 0.5077 3.08855 0
M  V30 11761 C 1096.32 0.976792 4.47463 0
M  V30 11762 N 1097.81 0.933508 4.53696 0
M  V30 11763 C 1098.55 1.26769 5.59211 0
M  V30 11764 N 1098.05 1.6732 6.72292 0
M  V30 11765 N 1099.84 1.18782 5.49406 0
M  V30 11766 H 1091.99 1.37468 1.61914 0
M  V30 11767 H 1094.25 0.564562 0.76156 0
M  V30 11768 H 1093.96 1.58943 3.13736 0
M  V30 11769 H 1093.83 -0.0417767 3.77177 0
M  V30 11770 H 1096.22 -0.522728 2.90433 0
M  V30 11771 H 1096.3 1.13545 2.29219 0
M  V30 11772 H 1095.94 2.00554 4.66627 0
M  V30 11773 H 1095.87 0.325885 5.25591 0
M  V30 11774 H 1098.37 0.635333 3.72521 0
M  V30 11775 H 1098.68 1.91137 7.4879 0
M  V30 11776 H 1097.02 1.71221 6.73579 0
M  V30 11777 H 1100.21 0.869906 4.59946 0
M  V30 11778 H 1100.39 1.45157 6.31533 0
M  V30 11779 N 1093.79 -1.57004 0.136909 0
M  V30 11780 C 1094.72 -2.19262 -0.802902 0
M  V30 11781 C 1095.71 -1.13786 -1.26439 0
M  V30 11782 O 1096.89 -1.42091 -1.32377 0
M  V30 11783 C 1094.02 -2.80624 -2.04615 0
M  V30 11784 C 1092.97 -3.91839 -1.72181 0
M  V30 11785 C 1092.3 -4.4009 -3.03686 0
M  V30 11786 C 1093.6 -5.13095 -0.976249 0
M  V30 11787 H 1095.29 -2.98049 -0.28406 0
M  V30 11788 H 1092.84 -1.43364 -0.135189 0
M  V30 11789 H 1094.79 -3.22842 -2.70834 0
M  V30 11790 H 1093.52 -1.99153 -2.58855 0
M  V30 11791 H 1092.18 -3.50224 -1.08344 0
M  V30 11792 H 1091.82 -3.55454 -3.55896 0
M  V30 11793 H 1091.52 -5.15098 -2.82751 0
M  V30 11794 H 1093.05 -4.84971 -3.70993 0
M  V30 11795 H 1094.46 -5.5222 -1.54033 0
M  V30 11796 H 1092.86 -5.93801 -0.867214 0
M  V30 11797 H 1093.93 -4.84888 0.0338488 0
M  V30 11798 N 1095.27 0.136881 -1.57004 0
M  V30 11799 C 1096.18 1.18793 -2.023 0
M  V30 11800 C 1097.2 1.46412 -0.94018 0
M  V30 11801 O 1098.37 1.57883 -1.2504 0
M  V30 11802 C 1095.44 2.49903 -2.40311 0
M  V30 11803 C 1094.5 2.29841 -3.6259 0
M  V30 11804 C 1093.73 3.54699 -3.98779 0
M  V30 11805 O 1093.96 4.61291 -3.3551 0
M  V30 11806 O 1092.89 3.46761 -4.91976 0
M  V30 11807 H 1096.72 0.833345 -2.92043 0
M  V30 11808 H 1094.3 0.346361 -1.4533 0
M  V30 11809 H 1096.18 3.27183 -2.65574 0
M  V30 11810 H 1094.86 2.84872 -1.5372 0
M  V30 11811 H 1093.77 1.50478 -3.42501 0
M  V30 11812 H 1095.1 1.99784 -4.4983 0
M  V30 11813 N 1096.75 1.52266 0.40654 0
M  V30 11814 C 1097.7 1.75794 1.4955 0
M  V30 11815 C 1098.67 0.600472 1.54866 0
M  V30 11816 O 1099.85 0.838305 1.71397 0
M  V30 11817 C 1096.99 1.91682 2.86971 0
M  V30 11818 C 1096.11 3.19337 2.90943 0
M  V30 11819 C 1095.24 3.25641 4.1968 0
M  V30 11820 C 1094.28 4.47488 4.17637 0
M  V30 11821 N 1093.42 4.51171 5.37949 0
M  V30 11822 H 1098.26 2.68733 1.28789 0
M  V30 11823 H 1095.79 1.33157 0.625102 0
M  V30 11824 H 1097.75 1.98877 3.66748 0
M  V30 11825 H 1096.38 1.02121 3.06221 0
M  V30 11826 H 1095.43 3.21301 2.03642 0
M  V30 11827 H 1096.75 4.09153 2.85299 0
M  V30 11828 H 1095.9 3.31922 5.07851 0
M  V30 11829 H 1094.64 2.33769 4.28023 0
M  V30 11830 H 1093.64 4.41351 3.27856 0
M  V30 11831 H 1094.87 5.40659 4.10932 0
M  V30 11832 H 1092.81 3.62182 5.46955 0
M  V30 11833 H 1092.73 5.34835 5.3431 0
M  V30 11834 H 1094 4.61685 6.28066 0
M  V30 11835 N 1098.23 -0.663929 1.42933 0
M  V30 11836 C 1099.19 -1.75899 1.46943 0
M  V30 11837 C 1100.19 -1.5682 0.355535 0
M  V30 11838 O 1101.38 -1.62914 0.616833 0
M  V30 11839 C 1098.51 -3.14657 1.31164 0
M  V30 11840 H 1099.71 -1.73727 2.44456 0
M  V30 11841 H 1097.26 -0.874587 1.2954 0
M  V30 11842 H 1097.99 -3.22447 0.346165 0
M  V30 11843 H 1097.78 -3.29909 2.11902 0
M  V30 11844 H 1099.27 -3.9453 1.36878 0
M  V30 11845 N 1099.71 -1.29285 -0.901281 0
M  V30 11846 C 1100.62 -1.16161 -2.03823 0
M  V30 11847 C 1101.63 -0.0852298 -1.73791 0
M  V30 11848 O 1102.81 -0.29699 -1.99198 0
M  V30 11849 C 1099.87 -0.837586 -3.3643 0
M  V30 11850 C 1098.93 -1.99764 -3.7999 0
M  V30 11851 C 1098.17 -1.68898 -5.0627 0
M  V30 11852 O 1098.39 -0.609177 -5.67138 0
M  V30 11853 O 1097.32 -2.53648 -5.45845 0
M  V30 11854 H 1101.15 -2.11635 -2.17817 0
M  V30 11855 H 1098.74 -1.08722 -1.02468 0
M  V30 11856 H 1100.62 -0.671376 -4.16017 0
M  V30 11857 H 1099.29 0.0873811 -3.23582 0
M  V30 11858 H 1098.2 -2.21908 -3.01177 0
M  V30 11859 H 1099.53 -2.90376 -3.9742 0
M  V30 11860 N 1101.18 1.11143 -1.11736 0
M  V30 11861 C 1102.6 1.34962 -0.851905 0
M  V30 11862 C 1102.8 1.94627 0.521797 0
M  V30 11863 O 1101.86 2.18121 1.27198 0
M  V30 11864 C 1103.17 2.27832 -1.96248 0
M  V30 11865 C 1104.72 2.41388 -1.9925 0
M  V30 11866 C 1105.19 3.37582 -3.09519 0
M  V30 11867 N 1106.68 3.45147 -3.08914 0
M  V30 11868 C 1107.42 4.19527 -3.90876 0
M  V30 11869 N 1106.91 4.96858 -4.82809 0
M  V30 11870 N 1108.71 4.15071 -3.79042 0
M  V30 11871 H 1100.86 0.707801 -2.0026 0
M  V30 11872 H 1103.12 0.374172 -0.871033 0
M  V30 11873 H 1102.83 1.91189 -2.95194 0
M  V30 11874 H 1102.7 3.28078 -1.86132 0
M  V30 11875 H 1105.09 2.77304 -1.00928 0
M  V30 11876 H 1105.17 1.40983 -2.13442 0
M  V30 11877 H 1104.81 3.02393 -4.0807 0
M  V30 11878 H 1104.74 4.37849 -2.92568 0
M  V30 11879 H 1107.23 2.89991 -2.42309 0
M  V30 11880 H 1107.55 5.5099 -5.41876 0
M  V30 11881 H 1105.89 4.96008 -4.86828 0
M  V30 11882 H 1109.08 3.53748 -3.06562 0
M  V30 11883 H 1109.26 4.72781 -4.4315 0
M  V30 11884 N 1102.66 0.908147 1.28804 0
M  V30 11885 C 1104.07 0.585727 1.77274 0
M  V30 11886 C 1104.42 -0.898842 1.744 0
M  V30 11887 O 1103.55 -1.70301 1.33516 0
M  V30 11888 C 1104.14 1.05647 3.21907 0
M  V30 11889 C 1102.7 0.785066 3.68122 0
M  V30 11890 C 1101.85 1.22638 2.48707 0
M  V30 11891 H 1104.8 1.09 1.15346 0
M  V30 11892 H 1104.82 0.395442 3.7844 0
M  V30 11893 H 1104.33 2.13698 3.23967 0
M  V30 11894 H 1102.44 -0.282477 3.71528 0
M  V30 11895 H 1102.55 1.38888 4.58527 0
M  V30 11896 H 1100.91 0.645217 2.46392 0
M  V30 11897 H 1101.7 2.31512 2.5349 0
M  V30 11898 N 1104.14 -1.42577 0.671525 0
M  V30 11899 C 1105.56 -1.5592 0.340769 0
M  V30 11900 C 1105.76 -1.65179 -1.15405 0
M  V30 11901 O 1104.81 -1.61691 -1.93939 0
M  V30 11902 C 1106.13 -2.81087 1.06821 0
M  V30 11903 C 1107.67 -2.94855 1.05022 0
M  V30 11904 C 1108.15 -4.22878 1.75892 0
M  V30 11905 N 1109.64 -4.29783 1.72744 0
M  V30 11906 C 1110.37 -5.2765 2.24439 0
M  V30 11907 N 1109.87 -6.31689 2.84501 0
M  V30 11908 N 1111.66 -5.19426 2.14832 0
M  V30 11909 H 1103.81 -1.34811 1.64133 0
M  V30 11910 H 1106.08 -0.648704 0.691294 0
M  V30 11911 H 1105.78 -2.80371 2.12332 0
M  V30 11912 H 1105.66 -3.71879 0.631356 0
M  V30 11913 H 1108.04 -2.951 0.00345633 0
M  V30 11914 H 1108.13 -2.05303 1.52592 0
M  V30 11915 H 1107.77 -4.23394 2.80535 0
M  V30 11916 H 1107.7 -5.1136 1.25773 0
M  V30 11917 H 1110.19 -3.55225 1.28932 0
M  V30 11918 H 1110.5 -7.02715 3.21575 0
M  V30 11919 H 1108.85 -6.3226 2.88569 0
M  V30 11920 H 1112.04 -4.37067 1.676 0
M  V30 11921 H 1112.21 -5.95535 2.55426 0
M  V30 11922 N 1105.62 -0.414636 -1.52048 0
M  V30 11923 C 1106.55 0.399119 -2.30064 0
M  V30 11924 C 1107.53 1.04126 -1.34506 0
M  V30 11925 O 1108.71 1.04923 -1.63416 0
M  V30 11926 C 1105.84 1.51305 -3.12608 0
M  V30 11927 C 1104.8 0.995621 -4.16259 0
M  V30 11928 C 1104.12 2.20357 -4.87183 0
M  V30 11929 C 1105.42 0.0458178 -5.2228 0
M  V30 11930 H 1107.12 -0.251879 -2.98339 0
M  V30 11931 H 1104.66 -0.122579 -1.43477 0
M  V30 11932 H 1106.62 2.08936 -3.65956 0
M  V30 11933 H 1105.34 2.19201 -2.42113 0
M  V30 11934 H 1104 0.441676 -3.6393 0
M  V30 11935 H 1103.65 2.8682 -4.13211 0
M  V30 11936 H 1103.35 1.86385 -5.57256 0
M  V30 11937 H 1104.87 2.78584 -5.43345 0
M  V30 11938 H 1106.29 0.531102 -5.70835 0
M  V30 11939 H 1104.68 -0.20536 -5.99749 0
M  V30 11940 H 1105.75 -0.897807 -4.76516 0
M  V30 11941 N 1107.1 1.56929 -0.145233 0
M  V30 11942 C 1108.51 1.82877 0.375884 0
M  V30 11943 C 1108.86 1.06384 1.64854 0
M  V30 11944 O 1107.98 0.30857 2.14189 0
M  V30 11945 C 1108.58 3.31725 0.688744 0
M  V30 11946 C 1107.14 3.58261 1.15439 0
M  V30 11947 C 1106.28 2.76737 0.176565 0
M  V30 11948 H 1109.24 1.54328 -0.36996 0
M  V30 11949 H 1109.26 3.47784 1.54359 0
M  V30 11950 H 1108.77 3.87371 -0.237694 0
M  V30 11951 H 1106.87 3.08 2.09683 0
M  V30 11952 H 1106.98 4.66732 1.08158 0
M  V30 11953 H 1105.35 2.45761 0.668843 0
M  V30 11954 H 1106.13 3.35154 -0.743432 0
M  V30 11955 N 1108.58 -0.128553 1.57075 0
M  V30 11956 C 1109.8 -0.8564 1.88893 0
M  V30 11957 C 1110.23 -1.73095 0.736196 0
M  V30 11958 O 1109.58 -1.78567 -0.313629 0
M  V30 11959 C 1109.63 -1.67368 3.19406 0
M  V30 11960 O 1108.74 -2.77973 3.04639 0
M  V30 11961 H 1108.08 -0.237424 0.620102 0
M  V30 11962 H 1110.61 -0.113821 2.04283 0
M  V30 11963 H 1110.62 -2.0649 3.51889 0
M  V30 11964 H 1109.29 -1.03161 4.02903 0
M  V30 11965 H 1107.87 -2.42123 2.83603 0
M  V30 11966 N 1110.05 -1.5248 -0.398459 0
M  V30 11967 C 1110.98 -1.79549 -1.49279 0
M  V30 11968 C 1111.96 -0.647004 -1.57315 0
M  V30 11969 O 1113.15 -0.893661 -1.72416 0
M  V30 11970 C 1110.28 -1.95582 -2.86993 0
M  V30 11971 C 1109.23 -3.1123 -2.93803 0
M  V30 11972 C 1108.56 -3.12501 -4.33874 0
M  V30 11973 C 1109.86 -4.50485 -2.64312 0
M  V30 11974 H 1111.55 -2.71187 -1.26877 0
M  V30 11975 H 1109.1 -1.30492 -0.608924 0
M  V30 11976 H 1111.05 -2.13102 -3.63546 0
M  V30 11977 H 1109.78 -1.00625 -3.10712 0
M  V30 11978 H 1108.44 -2.93477 -2.19697 0
M  V30 11979 H 1108.08 -2.15245 -4.54619 0
M  V30 11980 H 1107.78 -3.90183 -4.39353 0
M  V30 11981 H 1109.31 -3.32164 -5.12347 0
M  V30 11982 H 1110.72 -4.68387 -3.30585 0
M  V30 11983 H 1109.12 -5.30163 -2.81153 0
M  V30 11984 H 1110.19 -4.57848 -1.59696 0
M  V30 11985 N 1111.53 0.65634 -1.43283 0
M  V30 11986 C 1112.76 1.44408 -1.48168 0
M  V30 11987 C 1113.17 1.88542 -0.0986016 0
M  V30 11988 O 1112.53 1.59298 0.890527 0
M  V30 11989 C 1112.58 2.68111 -2.42484 0
M  V30 11990 O 1112.3 2.25824 -3.75413 0
M  V30 11991 C 1113.8 3.61499 -2.56579 0
M  V30 11992 H 1111.02 0.443731 -0.503333 0
M  V30 11993 H 1113.57 0.804917 -1.87993 0
M  V30 11994 H 1111.72 3.28175 -2.05863 0
M  V30 11995 H 1112.14 3.05839 -4.26102 0
M  V30 11996 H 1113.61 4.44972 -3.26655 0
M  V30 11997 H 1114.09 4.08639 -1.60969 0
M  V30 11998 H 1114.69 3.07319 -2.93998 0
M  V30 11999 N 1113.01 1.29761 0.894412 0
M  V30 12000 C 1114.26 1.17806 1.64214 0
M  V30 12001 C 1114.58 -0.269588 1.93127 0
M  V30 12002 O 1113.85 -1.18352 1.56107 0
M  V30 12003 H 1112.43 0.433002 0.608702 0
M  V30 12004 H 1115.09 1.6276 1.07216 0
M  V30 12005 H 1114.19 1.73201 2.5963 0
M  V30 12006 N 1114.49 -1.10549 1.12324 0
M  V30 12007 C 1115.42 -2.18911 0.812416 0
M  V30 12008 C 1116.4 -1.68628 -0.22327 0
M  V30 12009 O 1117.58 -1.94015 -0.0847184 0
M  V30 12010 C 1114.71 -3.46288 0.264947 0
M  V30 12011 C 1113.67 -4.09838 1.23356 0
M  V30 12012 C 1112.99 -5.31901 0.546374 0
M  V30 12013 C 1114.29 -4.53686 2.58778 0
M  V30 12014 H 1115.99 -2.45169 1.71851 0
M  V30 12015 H 1113.53 -1.17834 0.827715 0
M  V30 12016 H 1115.49 -4.21385 0.0352364 0
M  V30 12017 H 1114.21 -3.19517 -0.676479 0
M  V30 12018 H 1112.87 -3.36746 1.44906 0
M  V30 12019 H 1112.52 -5.01406 -0.400157 0
M  V30 12020 H 1112.22 -5.75372 1.19249 0
M  V30 12021 H 1113.74 -6.09731 0.325673 0
M  V30 12022 H 1115.16 -5.20063 2.41263 0
M  V30 12023 H 1113.55 -5.08003 3.19457 0
M  V30 12024 H 1114.62 -3.66665 3.17309 0
M  V30 12025 N 1115.97 -0.914965 -1.28321 0
M  V30 12026 C 1116.93 -0.409024 -2.25521 0
M  V30 12027 C 1117.93 0.465327 -1.5392 0
M  V30 12028 O 1119.12 0.26821 -1.72123 0
M  V30 12029 C 1116.25 0.413452 -3.38383 0
M  V30 12030 H 1117.44 -1.26767 -2.71791 0
M  V30 12031 H 1115 -0.694477 -1.40024 0
M  V30 12032 H 1115.73 1.29145 -2.97476 0
M  V30 12033 H 1115.52 -0.213268 -3.9152 0
M  V30 12034 H 1117.01 0.758232 -4.10659 0
M  V30 12035 N 1117.44 1.42219 -0.679077 0
M  V30 12036 C 1118.39 2.308 -0.00340316 0
M  V30 12037 C 1119.36 1.462 0.788334 0
M  V30 12038 O 1120.55 1.75023 0.759716 0
M  V30 12039 C 1117.69 3.32084 0.938854 0
M  V30 12040 C 1116.8 4.31772 0.140485 0
M  V30 12041 C 1115.93 5.20128 1.07888 0
M  V30 12042 C 1114.97 6.11493 0.27245 0
M  V30 12043 N 1114.11 6.92388 1.16378 0
M  V30 12044 H 1118.95 2.88024 -0.764587 0
M  V30 12045 H 1116.49 1.41869 -0.38878 0
M  V30 12046 H 1118.44 3.89339 1.49903 0
M  V30 12047 H 1117.07 2.76448 1.66662 0
M  V30 12048 H 1116.13 3.76599 -0.536376 0
M  V30 12049 H 1117.44 4.96432 -0.485433 0
M  V30 12050 H 1116.59 5.82137 1.70884 0
M  V30 12051 H 1115.33 4.55655 1.73868 0
M  V30 12052 H 1114.34 5.48549 -0.370693 0
M  V30 12053 H 1115.56 6.78017 -0.383315 0
M  V30 12054 H 1113.51 6.30538 1.8099 0
M  V30 12055 H 1113.42 7.5367 0.593043 0
M  V30 12056 H 1114.69 7.58879 1.78107 0
M  V30 12057 N 1118.92 0.422693 1.51826 0
M  V30 12058 C 1120.34 0.0742364 1.59427 0
M  V30 12059 C 1120.54 -1.41491 1.43466 0
M  V30 12060 O 1119.59 -2.18326 1.26846 0
M  V30 12061 C 1120.91 0.581272 2.95028 0
M  V30 12062 C 1122.45 0.54043 3.08299 0
M  V30 12063 C 1122.93 1.0242 4.46401 0
M  V30 12064 N 1124.42 0.981576 4.5268 0
M  V30 12065 C 1125.16 1.32693 5.57835 0
M  V30 12066 N 1124.65 1.74441 6.70479 0
M  V30 12067 N 1126.44 1.24603 5.48115 0
M  V30 12068 H 1118.6 1.39178 1.60447 0
M  V30 12069 H 1120.86 0.572607 0.75553 0
M  V30 12070 H 1120.56 1.62261 3.12032 0
M  V30 12071 H 1120.44 -0.00176969 3.772 0
M  V30 12072 H 1122.83 -0.491895 2.90971 0
M  V30 12073 H 1122.91 1.15969 2.28002 0
M  V30 12074 H 1122.55 2.05491 4.64474 0
M  V30 12075 H 1122.48 0.381613 5.25215 0
M  V30 12076 H 1124.97 0.674808 3.71826 0
M  V30 12077 H 1125.28 1.99068 7.46721 0
M  V30 12078 H 1123.63 1.78356 6.71725 0
M  V30 12079 H 1126.82 0.918641 4.58997 0
M  V30 12080 H 1126.99 1.51847 6.29958 0
M  V30 12081 N 1120.4 -1.5685 0.153553 0
M  V30 12082 C 1121.81 -1.83074 -0.36618 0
M  V30 12083 C 1122.16 -1.07257 -1.64288 0
M  V30 12084 O 1121.29 -0.319925 -2.14022 0
M  V30 12085 C 1121.88 -3.32086 -0.671142 0
M  V30 12086 C 1120.44 -3.58868 -1.13537 0
M  V30 12087 C 1119.59 -2.76827 -0.161887 0
M  V30 12088 H 1122.54 -1.54129 0.378139 0
M  V30 12089 H 1122.56 -3.48598 -1.52512 0
M  V30 12090 H 1122.07 -3.8724 0.258234 0
M  V30 12091 H 1120.17 -3.09107 -2.08047 0
M  V30 12092 H 1120.29 -4.67299 -1.05682 0
M  V30 12093 H 1118.65 -2.46112 -0.6558 0
M  V30 12094 H 1119.43 -3.34755 0.761195 0
M  V30 12095 N 1121.88 0.120221 -1.57141 0
M  V30 12096 C 1123.12 0.828222 -1.84788 0
M  V30 12097 C 1123.45 1.79936 -0.738459 0
M  V30 12098 O 1122.71 1.93824 0.270295 0
M  V30 12099 C 1123.01 1.61338 -3.18912 0
M  V30 12100 C 1122.67 0.786637 -4.43985 0
M  V30 12101 C 1121.33 0.558645 -4.77946 0
M  V30 12102 C 1123.69 0.210281 -5.20776 0
M  V30 12103 C 1121.01 -0.255975 -5.86141 0
M  V30 12104 C 1123.37 -0.591523 -6.29828 0
M  V30 12105 C 1122.03 -0.829843 -6.62322 0
M  V30 12106 H 1121.3 0.303068 -0.676188 0
M  V30 12107 H 1123.95 0.0906538 -1.91285 0
M  V30 12108 H 1122.25 2.42182 -3.07986 0
M  V30 12109 H 1123.95 2.16513 -3.37525 0
M  V30 12110 H 1120.54 0.974426 -4.17376 0
M  V30 12111 H 1124.72 0.373641 -4.94892 0
M  V30 12112 H 1119.98 -0.449849 -6.09743 0
M  V30 12113 H 1124.15 -1.04512 -6.88513 0
M  V30 12114 H 1121.78 -1.4629 -7.45992 0
M  V30 12115 N 1123.36 1.52689 0.390367 0
M  V30 12116 C 1124.63 1.58246 1.14968 0
M  V30 12117 C 1125.01 0.374808 2.07746 0
M  V30 12118 O 1124.36 -0.636969 2.19442 0
M  V30 12119 C 1124.57 2.92059 1.91056 0
M  V30 12120 C 1125.92 3.45745 2.46466 0
M  V30 12121 O 1126.94 2.93924 2.01214 0
M  V30 12122 O 1125.8 4.3628 3.29122 0
M  V30 12123 H 1122.9 0.638189 0.52597 0
M  V30 12124 H 1125.44 1.65024 0.39563 0
M  V30 12125 H 1124.21 3.71399 1.23201 0
M  V30 12126 H 1123.84 2.8866 2.73425 0
M  V30 12127 N 1124.83 -0.648732 1.43629 0
M  V30 12128 C 1125.74 -1.79046 1.51591 0
M  V30 12129 C 1126.76 -1.69276 0.402697 0
M  V30 12130 O 1127.94 -1.90366 0.657484 0
M  V30 12131 C 1125 -3.15347 1.44073 0
M  V30 12132 C 1124.06 -3.3688 2.66102 0
M  V30 12133 C 1123.3 -4.66679 2.58933 0
M  V30 12134 O 1123.52 -5.46328 1.63956 0
M  V30 12135 O 1122.45 -4.9003 3.49506 0
M  V30 12136 H 1126.28 -1.75283 2.48011 0
M  V30 12137 H 1123.86 -0.807774 1.2568 0
M  V30 12138 H 1125.75 -3.96633 1.42339 0
M  V30 12139 H 1124.42 -3.19691 0.50789 0
M  V30 12140 H 1123.33 -2.55341 2.73407 0
M  V30 12141 H 1124.66 -3.37386 3.58373 0
M  V30 12142 N 1126.31 -1.30234 -0.887518 0
M  V30 12143 C 1127.73 -1.0851 -1.17037 0
M  V30 12144 C 1127.93 0.155788 -2.00897 0
M  V30 12145 O 1126.98 0.850123 -2.37759 0
M  V30 12146 C 1128.3 -2.34723 -1.87951 0
M  V30 12147 C 1129.85 -2.40163 -2.00726 0
M  V30 12148 C 1130.32 -3.66211 -2.75051 0
M  V30 12149 N 1131.81 -3.67004 -2.82599 0
M  V30 12150 C 1132.55 -4.61224 -3.40676 0
M  V30 12151 N 1132.04 -5.65786 -3.99823 0
M  V30 12152 N 1133.84 -4.48772 -3.38467 0
M  V30 12153 H 1125.99 -2.09847 -0.328297 0
M  V30 12154 H 1128.25 -0.924904 -0.20798 0
M  V30 12155 H 1127.96 -3.25265 -1.33773 0
M  V30 12156 H 1127.83 -2.43175 -2.8835 0
M  V30 12157 H 1130.22 -1.50101 -2.54074 0
M  V30 12158 H 1130.3 -2.35688 -0.994218 0
M  V30 12159 H 1129.94 -4.56631 -2.22376 0
M  V30 12160 H 1129.87 -3.67947 -3.76726 0
M  V30 12161 H 1132.36 -2.91409 -2.40602 0
M  V30 12162 H 1132.68 -6.33783 -4.42197 0
M  V30 12163 H 1131.02 -5.69581 -3.9825 0
M  V30 12164 H 1134.21 -3.6627 -2.91485 0
M  V30 12165 H 1134.38 -5.22382 -3.83433 0
M  V30 12166 N 1127.79 1.09952 -1.12909 0
M  V30 12167 C 1129.21 1.34051 -0.866172 0
M  V30 12168 C 1129.41 1.95169 0.501125 0
M  V30 12169 O 1128.46 2.19458 1.24878 0
M  V30 12170 C 1129.78 2.25738 -1.98653 0
M  V30 12171 C 1131.32 2.39261 -2.01799 0
M  V30 12172 C 1131.8 3.3428 -3.13083 0
M  V30 12173 N 1133.29 3.41851 -3.12558 0
M  V30 12174 C 1134.02 4.15358 -3.95304 0
M  V30 12175 N 1133.52 4.91709 -4.88051 0
M  V30 12176 N 1135.31 4.11027 -3.83423 0
M  V30 12177 H 1127.46 0.686521 -2.00999 0
M  V30 12178 H 1129.73 0.364913 -0.874953 0
M  V30 12179 H 1129.43 1.88048 -2.97205 0
M  V30 12180 H 1129.31 3.26085 -1.89601 0
M  V30 12181 H 1131.69 2.76218 -1.03864 0
M  V30 12182 H 1131.78 1.38712 -2.14925 0
M  V30 12183 H 1131.42 2.98048 -4.11254 0
M  V30 12184 H 1131.35 4.34721 -2.97195 0
M  V30 12185 H 1133.84 2.87405 -2.45371 0
M  V30 12186 H 1134.15 5.45212 -5.47689 0
M  V30 12187 H 1132.5 4.90816 -4.92061 0
M  V30 12188 H 1135.69 3.50477 -3.10296 0
M  V30 12189 H 1135.86 4.68054 -4.4814 0
M  V30 12190 N 1129.27 0.921757 1.27833 0
M  V30 12191 C 1130.2 0.360683 2.25332 0
M  V30 12192 C 1131.18 -0.53961 1.53385 0
M  V30 12193 O 1132.36 -0.48146 1.82248 0
M  V30 12194 C 1129.49 -0.483626 3.35229 0
M  V30 12195 C 1128.54 0.352405 4.25042 0
M  V30 12196 S 1129.37 1.76421 5.05605 0
M  V30 12197 C 1130.53 0.92742 6.18991 0
M  V30 12198 H 1130.76 1.18703 2.72574 0
M  V30 12199 H 1128.29 0.72354 1.36397 0
M  V30 12200 H 1130.25 -0.964914 3.98998 0
M  V30 12201 H 1128.91 -1.28444 2.86637 0
M  V30 12202 H 1128.1 -0.293558 5.03144 0
M  V30 12203 H 1127.71 0.767643 3.66037 0
M  V30 12204 H 1130 0.160698 6.77309 0
M  V30 12205 H 1130.94 1.68126 6.87851 0
M  V30 12206 H 1131.35 0.472056 5.62523 0
M  V30 12207 O 1130.79 -1.38808 0.825501 0
M  V30 12208 H 1131.48 -1.89342 0.408555 0
M  V30 END ATOM
M  V30 BEGIN BOND
M  V30 END BOND
M  V30 END CTAB
M  END
$$$$
