drugbank_target|P00323 Flavodoxin (DB03247)
 OpenBabel12092120243D

  0  0  0     0  0            999 V3000
M  V30 BEGIN CTAB
M  V30 COUNTS 2155 2173 0 0 0
M  V30 BEGIN ATOM
M  V30 1 H -0.908 1.98254 -0.117106 0
M  V30 2 N 0 1.576 0 0
M  V30 3 C 0.933 2.03868 1.02534 0
M  V30 4 C 1.911 0.928543 1.3348 0
M  V30 5 O 3.095 1.19667 1.45644 0
M  V30 6 C 0.222 2.43627 2.35294 0
M  V30 7 C -0.732 3.65373 2.2001 0
M  V30 8 S 0.101 5.13292 1.52614 0
M  V30 9 C 1.257 5.56322 2.86805 0
M  V30 10 H 1.49 2.90518 0.631377 0
M  V30 11 H -0.977 1.52953 0.210867 0
M  V30 12 H 0.981 2.67203 3.11629 0
M  V30 13 H -0.358 1.57376 2.7183 0
M  V30 14 H -1.165 3.90944 3.18086 0
M  V30 15 H -1.563 3.418 1.51819 0
M  V30 16 H 0.729 5.58782 3.83104 0
M  V30 17 H 1.672 6.56266 2.65933 0
M  V30 18 H 2.08 4.83886 2.90714 0
M  V30 19 N 1.4781 -0.272755 1.55222 0
M  V30 20 C 2.8891 -0.84378 1.66545 0
M  V30 21 C 3.2401 -1.87035 0.592641 0
M  V30 22 O 2.3651 -2.14761 -0.265818 0
M  V30 23 C 2.9601 -1.53723 3.01918 0
M  V30 24 C 1.5191 -2.05628 3.15268 0
M  V30 25 C 0.6661 -0.898424 2.62343 0
M  V30 26 H 3.6171 -0.0490998 1.58624 0
M  V30 27 H 3.6381 -2.40421 2.94921 0
M  V30 28 H 3.1501 -0.78983 3.79978 0
M  V30 29 H 1.2511 -2.83329 2.41983 0
M  V30 30 H 1.3641 -2.27142 4.21833 0
M  V30 31 H -0.2719 -1.29186 2.19506 0
M  V30 32 H 0.5111 -0.164528 3.42906 0
M  V30 33 N 2.9562 -1.48159 -0.537278 0
M  V30 34 C 3.9032 -1.62138 -1.64256 0
M  V30 35 C 4.8732 -0.463668 -1.59497 0
M  V30 36 O 6.0582 -0.686241 -1.78032 0
M  V30 37 C 3.1982 -1.66028 -3.02537 0
M  V30 38 C 2.3112 -2.92855 -3.17585 0
M  V30 39 C 1.4462 -2.87952 -4.46382 0
M  V30 40 C 0.4852 -4.09516 -4.54932 0
M  V30 41 N -0.3778 -4.02733 -5.75109 0
M  V30 42 H 4.4622 -2.56529 -1.51647 0
M  V30 43 H 1.9992 -1.27224 -0.738414 0
M  V30 44 H 3.9572 -1.66265 -3.82638 0
M  V30 45 H 2.5872 -0.751331 -3.13934 0
M  V30 46 H 1.6392 -3.02395 -2.30784 0
M  V30 47 H 2.9512 -3.82822 -3.19764 0
M  V30 48 H 2.1052 -2.8655 -5.34765 0
M  V30 49 H 0.8442 -1.95702 -4.46712 0
M  V30 50 H -0.1508 -4.11201 -3.64957 0
M  V30 51 H 1.0742 -5.02917 -4.56346 0
M  V30 52 H -0.9798 -3.13299 -5.76351 0
M  V30 53 H -1.0628 -4.86397 -5.78752 0
M  V30 54 H 0.2052 -4.05379 -6.65799 0
M  V30 55 N 4.4343 0.785586 -1.36625 0
M  V30 56 C 5.3973 1.87999 -1.31107 0
M  V30 57 C 6.3973 1.59316 -0.217959 0
M  V30 58 O 7.5873 1.67656 -0.472977 0
M  V30 59 C 4.7193 3.24861 -1.03334 0
M  V30 60 H 5.9123 1.94307 -2.2844 0
M  V30 61 H 3.4653 0.983813 -1.21453 0
M  V30 62 H 4.2003 3.24235 -0.0647432 0
M  V30 63 H 3.9853 3.4707 -1.82441 0
M  V30 64 H 5.4753 4.04929 -1.02088 0
M  V30 65 N 5.9124 1.20967 1.01018 0
M  V30 66 C 6.8424 0.988272 2.11555 0
M  V30 67 C 7.8234 -0.0849778 1.69888 0
M  V30 68 O 9.0084 0.0738202 1.9406 0
M  V30 69 C 6.1384 0.546528 3.42973 0
M  V30 70 C 5.0924 1.56375 3.9841 0
M  V30 71 C 4.4184 0.97842 5.25672 0
M  V30 72 C 5.7184 2.94922 4.31066 0
M  V30 73 H 7.4124 1.91276 2.30334 0
M  V30 74 H 4.9584 0.921073 1.1069 0
M  V30 75 H 6.9114 0.378839 4.19694 0
M  V30 76 H 5.6354 -0.413598 3.23971 0
M  V30 77 H 4.2944 1.71891 3.23804 0
M  V30 78 H 3.9424 0.0101688 5.02999 0
M  V30 79 H 3.6424 1.65784 5.63728 0
M  V30 80 H 5.1664 0.821939 6.05043 0
M  V30 81 H 6.5804 2.8288 4.9865 0
M  V30 82 H 4.9774 3.5983 4.80253 0
M  V30 83 H 6.0474 3.4616 3.39561 0
M  V30 84 N 7.3905 -1.2043 1.01659 0
M  V30 85 C 8.6395 -1.89118 0.701237 0
M  V30 86 C 8.9525 -1.79705 -0.772358 0
M  V30 87 O 10.1585 -2.43528 -1.20026 0
M  V30 88 C 8.6145 -3.39168 1.20388 0
M  V30 89 C 8.2225 -3.57166 2.70438 0
M  V30 90 C 9.9665 -4.1341 0.963953 0
M  V30 91 C 7.8735 -5.01042 3.14183 0
M  V30 92 H 6.8035 -0.708267 0.2586 0
M  V30 93 H 9.4545 -1.36239 1.22927 0
M  V30 94 H 7.8365 -3.91369 0.603824 0
M  V30 95 H 9.0105 -3.15351 3.35992 0
M  V30 96 H 7.3255 -2.96294 2.92572 0
M  V30 97 H 9.9225 -5.19491 1.26621 0
M  V30 98 H 10.2655 -4.16181 -0.099578 0
M  V30 99 H 10.7985 -3.67309 1.52738 0
M  V30 100 H 7.5375 -5.03426 4.19812 0
M  V30 101 H 7.0575 -5.43668 2.53348 0
M  V30 102 H 8.7365 -5.69623 3.0682 0
M  V30 103 N 8.8686 -0.792821 -1.36206 0
M  V30 104 C 10.1146 -0.36733 -1.99446 0
M  V30 105 C 10.4476 1.05917 -1.62774 0
M  V30 106 O 9.7226 1.7324 -0.88421 0
M  V30 107 C 10.0056 -0.535044 -3.56103 0
M  V30 108 C 9.8586 -2.00548 -4.02617 0
M  V30 109 C 11.1776 0.0478191 -4.40074 0
M  V30 110 H 8.2966 -0.134941 -0.724541 0
M  V30 111 H 10.9386 -0.999794 -1.61568 0
M  V30 112 H 9.0886 0.00336329 -3.885 0
M  V30 113 H 10.7606 -2.60521 -3.80692 0
M  V30 114 H 9.0036 -2.50686 -3.54032 0
M  V30 115 H 9.6746 -2.07377 -5.11565 0
M  V30 116 H 12.1506 -0.411822 -4.14057 0
M  V30 117 H 11.0266 -0.0995336 -5.4881 0
M  V30 118 H 11.2876 1.14025 -4.27142 0
M  V30 119 N 10.3467 1.47872 -0.545128 0
M  V30 120 C 11.5767 2.06589 -0.0210534 0
M  V30 121 C 11.9847 1.39997 1.27269 0
M  V30 122 O 11.3277 0.486421 1.77143 0
M  V30 123 C 11.3897 3.58574 0.257933 0
M  V30 124 C 11.0537 4.47132 -0.944573 0
M  V30 125 C 12.0507 4.85986 -1.84699 0
M  V30 126 C 9.7357 4.88821 -1.15584 0
M  V30 127 C 11.7297 5.65314 -2.94446 0
M  V30 128 C 9.4167 5.67916 -2.25642 0
M  V30 129 C 10.4147 6.06073 -3.14905 0
M  V30 130 O 10.1027 6.83578 -4.23057 0
M  V30 131 H 9.8347 0.674971 -0.0372899 0
M  V30 132 H 12.3887 1.91037 -0.754599 0
M  V30 133 H 10.6187 3.72295 1.04564 0
M  V30 134 H 12.3077 3.99356 0.72592 0
M  V30 135 H 13.0737 4.54388 -1.69577 0
M  V30 136 H 8.9527 4.58595 -0.470279 0
M  V30 137 H 12.4967 5.95016 -3.64145 0
M  V30 138 H 8.3937 5.98927 -2.40742 0
M  V30 139 H 9.1617 7.01954 -4.20954 0
M  V30 140 N 11.8248 0.280983 1.55075 0
M  V30 141 C 13.0728 -0.333455 1.9933 0
M  V30 142 C 13.3938 -1.55937 1.17085 0
M  V30 143 O 12.6638 -1.94143 0.261805 0
M  V30 144 H 11.2438 -0.126197 0.736263 0
M  V30 145 H 13.9058 0.387678 1.91005 0
M  V30 146 H 13.0018 -0.619292 3.05894 0
M  V30 147 N 13.3029 -1.57598 0.00835791 0
M  V30 148 C 14.5279 -1.95617 -0.689103 0
M  V30 149 C 14.9529 -0.883753 -1.66046 0
M  V30 150 O 14.3109 0.157352 -1.80616 0
M  V30 151 C 14.3589 -3.32736 -1.38994 0
M  V30 152 O 13.4629 -3.27631 -2.50463 0
M  V30 153 H 12.8039 -0.638379 -0.182668 0
M  V30 154 H 15.3339 -2.045 0.064036 0
M  V30 155 H 15.3439 -3.68494 -1.75147 0
M  V30 156 H 14.0189 -4.1034 -0.677778 0
M  V30 157 H 12.5959 -3.03561 -2.16576 0
M  V30 158 N 14.781 0.264519 -1.55364 0
M  V30 159 C 16.009 1.013 -1.80405 0
M  V30 160 C 16.424 1.79618 -0.581622 0
M  V30 161 O 15.781 1.76879 0.449468 0
M  V30 162 C 15.832 1.96487 -3.03439 0
M  V30 163 O 15.553 1.21341 -4.20961 0
M  V30 164 C 17.054 2.83079 -3.41147 0
M  V30 165 H 14.274 0.298875 -0.600762 0
M  V30 166 H 16.818 0.292736 -2.02394 0
M  V30 167 H 14.973 2.63965 -2.83551 0
M  V30 168 H 15.387 1.85573 -4.90574 0
M  V30 169 H 16.861 3.4565 -4.30384 0
M  V30 170 H 17.338 3.53286 -2.60932 0
M  V30 171 H 17.944 2.2108 -3.63323 0
M  V30 172 N 16.2591 1.48442 0.529413 0
M  V30 173 C 17.4871 1.60151 1.30994 0
M  V30 174 C 17.9021 0.261985 1.86973 0
M  V30 175 O 17.2591 -0.748805 1.66431 0
M  V30 176 C 17.3101 2.64854 2.46038 0
M  V30 177 O 17.0311 3.93608 1.92365 0
M  V30 178 C 18.5321 2.87007 3.37849 0
M  V30 179 H 15.7521 0.539971 0.398338 0
M  V30 180 H 18.2961 1.94273 0.638597 0
M  V30 181 H 16.4511 2.33589 3.09055 0
M  V30 182 H 16.8651 4.51055 2.67675 0
M  V30 183 H 18.3391 3.64068 4.14919 0
M  V30 184 H 18.8161 1.95852 3.93114 0
M  V30 185 H 19.4221 3.19579 2.80623 0
M  V30 186 N 17.7372 -0.778329 1.37039 0
M  V30 187 C 18.9852 -1.53361 1.31623 0
M  V30 188 C 19.3062 -1.94739 -0.100831 0
M  V30 189 O 18.5762 -1.65797 -1.04347 0
M  V30 190 H 17.1562 -0.568794 0.484234 0
M  V30 191 H 19.8182 -0.926742 1.71457 0
M  V30 192 H 18.9142 -2.43606 1.95096 0
M  V30 193 N 19.2153 -1.21501 -1.00376 0
M  V30 194 C 20.1633 -0.972442 -2.11297 0
M  V30 195 C 21.1573 0.080731 -1.69208 0
M  V30 196 O 22.3633 -0.0707666 -1.79861 0
M  V30 197 H 18.7383 -0.297218 -0.690772 0
M  V30 198 H 20.7093 -1.91394 -2.28934 0
M  V30 199 C 19.4583 -0.555065 -3.43241 0
M  V30 200 H 18.7813 -1.35709 -3.76062 0
M  V30 201 H 20.2213 -0.424664 -4.21868 0
M  V30 202 C 18.6803 0.734147 -3.28804 0
M  V30 203 O 19.2103 1.78937 -3.59645 0
M  V30 204 N 17.4163 0.701133 -2.82015 0
M  V30 205 H 16.9633 -0.157874 -2.57116 0
M  V30 206 H 16.9213 1.56403 -2.72737 0
M  V30 207 N 20.6934 1.19889 -1.02296 0
M  V30 208 C 21.9214 1.9339 -0.735399 0
M  V30 209 C 22.3364 1.75148 0.704887 0
M  V30 210 O 21.6934 1.06954 1.47875 0
M  V30 211 C 21.7444 3.45313 -1.06962 0
M  V30 212 O 21.4654 3.62964 -2.45334 0
M  V30 213 C 22.9664 4.35948 -0.804021 0
M  V30 214 H 20.1864 0.61448 -0.269546 0
M  V30 215 H 22.7304 1.522 -1.36585 0
M  V30 216 H 20.8854 3.84359 -0.484455 0
M  V30 217 H 21.2994 4.56886 -2.57595 0
M  V30 218 H 22.7734 5.41174 -1.0879 0
M  V30 219 H 23.2504 4.3842 0.261691 0
M  V30 220 H 23.8564 4.02574 -1.37164 0
M  V30 221 N 22.1715 0.800033 1.35784 0
M  V30 222 C 23.0815 0.207204 2.33683 0
M  V30 223 C 24.0975 -0.64631 1.61551 0
M  V30 224 O 25.2735 -0.559604 1.93469 0
M  V30 225 C 22.3385 -0.639659 3.40748 0
M  V30 226 C 21.3995 0.233585 4.28664 0
M  V30 227 C 20.6325 -0.572954 5.30616 0
M  V30 228 O 20.8555 -1.80816 5.40982 0
M  V30 229 O 19.7895 0.0327285 6.01891 0
M  V30 230 H 23.6155 1.01692 2.86169 0
M  V30 231 H 21.2005 0.561691 1.38439 0
M  V30 232 H 23.0825 -1.12223 4.06182 0
M  V30 233 H 21.7575 -1.42708 2.90544 0
M  V30 234 H 20.6645 0.763147 3.66233 0
M  V30 235 H 21.9975 0.984784 4.82248 0
M  V30 236 N 23.6496 -1.47581 0.552962 0
M  V30 237 C 24.8796 -2.06575 0.0320091 0
M  V30 238 C 25.2876 -1.4067 -1.26525 0
M  V30 239 O 24.6306 -0.495808 -1.76883 0
M  V30 240 C 24.6926 -3.58705 -0.238913 0
M  V30 241 C 24.3566 -4.46625 0.968272 0
M  V30 242 C 25.3536 -4.85 1.87274 0
M  V30 243 C 23.0386 -4.88201 1.18175 0
M  V30 244 C 25.0326 -5.63745 2.9744 0
M  V30 245 C 22.7196 -5.66712 2.28651 0
M  V30 246 C 23.7176 -6.04394 3.18114 0
M  V30 247 O 23.4056 -6.81324 4.26676 0
M  V30 248 H 23.1376 -0.674763 0.0408689 0
M  V30 249 H 25.6916 -1.90634 0.764719 0
M  V30 250 H 23.9216 -3.72844 -1.02588 0
M  V30 251 H 25.6106 -3.99735 -0.704731 0
M  V30 252 H 26.3766 -4.53482 1.71984 0
M  V30 253 H 22.2556 -4.58339 0.494593 0
M  V30 254 H 25.7996 -5.93077 3.67296 0
M  V30 255 H 21.6966 -5.97642 2.43915 0
M  V30 256 H 22.4646 -6.99712 4.24671 0
M  V30 257 N 25.1277 -0.289203 -1.54924 0
M  V30 258 C 26.3557 0.326463 -2.04308 0
M  V30 259 C 26.7707 1.48413 -1.16701 0
M  V30 260 O 26.1277 1.81507 -0.190087 0
M  V30 261 C 26.1787 0.794014 -3.52672 0
M  V30 262 O 25.8997 -0.317564 -4.36948 0
M  V30 263 C 27.4007 1.47605 -4.18004 0
M  V30 264 H 24.6207 0.0726272 -0.667058 0
M  V30 265 H 27.1647 -0.425401 -2.00026 0
M  V30 266 H 25.3197 1.49593 -3.57352 0
M  V30 267 H 25.7337 0.0443186 -5.24481 0
M  V30 268 H 27.2077 1.75447 -5.23376 0
M  V30 269 H 27.6847 2.41224 -3.67025 0
M  V30 270 H 28.2907 0.81762 -4.17367 0
M  V30 271 N 26.6058 1.57591 -0.0167156 0
M  V30 272 C 27.5688 2.08393 0.954204 0
M  V30 273 C 28.5688 0.996531 1.26198 0
M  V30 274 O 29.7588 1.25858 1.20438 0
M  V30 275 C 26.8908 2.5394 2.27436 0
M  V30 276 H 28.0838 2.95455 0.514451 0
M  V30 277 H 25.6368 1.54582 0.231089 0
M  V30 278 H 26.3718 1.70171 2.76066 0
M  V30 279 H 26.1568 3.33371 2.06412 0
M  V30 280 H 27.6468 2.93512 2.97053 0
M  V30 281 N 28.0839 -0.256276 1.55502 0
M  V30 282 C 28.9939 -1.33882 1.92647 0
M  V30 283 C 30.0099 -1.53159 0.825727 0
M  V30 284 O 31.1859 -1.66963 1.12629 0
M  V30 285 C 28.2509 -2.6751 2.20543 0
M  V30 286 C 27.3119 -2.56836 3.43997 0
M  V30 287 C 26.5449 -3.84092 3.70553 0
M  V30 288 O 26.7679 -4.85545 2.99336 0
M  V30 289 O 25.7019 -3.83288 4.64084 0
M  V30 290 H 29.5279 -1.05374 2.84833 0
M  V30 291 H 27.1129 -0.456237 1.42263 0
M  V30 292 H 28.9949 -3.46492 2.39835 0
M  V30 293 H 27.6699 -2.9577 1.31536 0
M  V30 294 H 26.5769 -1.76172 3.30021 0
M  V30 295 H 27.9099 -2.33523 4.33275 0
M  V30 296 N 29.562 -1.4872 -0.521534 0
M  V30 297 C 30.79 -1.60843 -1.30142 0
M  V30 298 C 31.205 -0.271897 -1.86832 0
M  V30 299 O 30.562 0.739969 -1.66825 0
M  V30 300 C 30.613 -2.66155 -2.4463 0
M  V30 301 O 30.334 -3.94623 -1.90275 0
M  V30 302 C 31.835 -2.88795 -3.36322 0
M  V30 303 H 29.055 -0.542075 -0.395468 0
M  V30 304 H 31.599 -1.94609 -0.628285 0
M  V30 305 H 29.754 -2.35224 -3.07812 0
M  V30 306 H 30.168 -4.52468 -2.65279 0
M  V30 307 H 31.642 -3.66264 -4.12983 0
M  V30 308 H 32.119 -1.97934 -3.9207 0
M  V30 309 H 32.725 -3.21063 -2.78924 0
M  V30 310 N 31.0401 0.771051 -1.3745 0
M  V30 311 C 32.2891 1.52491 -1.3202 0
M  V30 312 C 32.6021 1.9538 0.0927347 0
M  V30 313 O 33.8081 2.70159 0.269503 0
M  V30 314 C 32.2641 2.75366 -2.31736 0
M  V30 315 C 31.8721 2.39573 -3.78562 0
M  V30 316 C 33.6161 3.53307 -2.35318 0
M  V30 317 C 31.5231 3.58954 -4.70007 0
M  V30 318 H 30.4531 0.572506 -0.490666 0
M  V30 319 H 33.1041 0.844474 -1.62914 0
M  V30 320 H 31.4861 3.45303 -1.93861 0
M  V30 321 H 32.6601 1.77415 -4.25277 0
M  V30 322 H 30.9751 1.74805 -3.77932 0
M  V30 323 H 33.5721 4.42039 -3.00842 0
M  V30 324 H 33.9151 3.93217 -1.36698 0
M  V30 325 H 34.4481 2.90367 -2.71904 0
M  V30 326 H 31.1871 3.24125 -5.69757 0
M  V30 327 H 30.7071 4.20214 -4.27996 0
M  V30 328 H 32.3861 4.25758 -4.87175 0
M  V30 329 N 32.5182 1.22032 0.997298 0
M  V30 330 C 33.4812 0.987909 2.06816 0
M  V30 331 C 34.4812 -0.0440084 1.6074 0
M  V30 332 O 35.6712 0.194053 1.73116 0
M  V30 333 C 32.8032 0.49132 3.37341 0
M  V30 334 H 33.9962 1.93803 2.28868 0
M  V30 335 H 31.5492 1.03838 1.16822 0
M  V30 336 H 32.2842 -0.463364 3.20973 0
M  V30 337 H 32.0692 1.23575 3.72118 0
M  V30 338 H 33.5592 0.348824 4.16141 0
M  V30 339 N 33.9963 -1.19345 1.0293 0
M  V30 340 C 35.4123 -1.41069 0.746446 0
M  V30 341 C 35.6123 -1.90078 -0.668776 0
M  V30 342 O 34.6683 -2.0778 -1.4347 0
M  V30 343 C 35.9813 -2.42141 1.78292 0
M  V30 344 C 37.5293 -2.55887 1.80252 0
M  V30 345 C 38.0043 -3.60214 2.8286 0
M  V30 346 N 39.4953 -3.67711 2.81679 0
M  V30 347 C 40.2303 -4.48128 3.57727 0
M  V30 348 N 39.7263 -5.32248 4.43491 0
M  V30 349 N 41.5193 -4.42782 3.46267 0
M  V30 350 H 33.6703 -0.858536 1.94275 0
M  V30 351 H 35.9333 -0.439541 0.839945 0
M  V30 352 H 35.6393 -2.13155 2.79746 0
M  V30 353 H 35.5133 -3.41323 1.60557 0
M  V30 354 H 37.9003 -2.84196 0.794757 0
M  V30 355 H 37.9813 -1.56858 2.02062 0
M  V30 356 H 37.6253 -3.32647 3.83807 0
M  V30 357 H 37.5553 -4.58895 2.58307 0
M  V30 358 H 40.0463 -3.07634 2.19476 0
M  V30 359 H 40.3593 -5.90729 4.98256 0
M  V30 360 H 38.7043 -5.31707 4.47564 0
M  V30 361 H 41.8953 -3.76107 2.78677 0
M  V30 362 H 42.0683 -5.05215 4.05785 0
M  V30 363 N 35.4744 -0.807222 -1.35358 0
M  V30 364 C 36.3844 -0.219594 -2.3357 0
M  V30 365 C 37.4004 0.637734 -1.61892 0
M  V30 366 O 38.5764 0.549336 -1.93763 0
M  V30 367 C 35.6414 0.62158 -3.41083 0
M  V30 368 C 34.7024 -0.256315 -4.28534 0
M  V30 369 C 33.9354 0.544807 -5.30912 0
M  V30 370 O 34.1584 1.77944 -5.41934 0
M  V30 371 O 33.0924 -0.0646478 -6.01865 0
M  V30 372 H 36.9184 -1.03208 -2.85625 0
M  V30 373 H 34.5034 -0.569025 -1.38139 0
M  V30 374 H 36.3854 1.10067 -4.06772 0
M  V30 375 H 35.0604 1.41165 -2.91297 0
M  V30 376 H 33.9674 -0.782559 -3.65823 0
M  V30 377 H 35.3004 -1.01034 -4.81719 0
M  V30 378 N 36.9525 1.47285 -0.560781 0
M  V30 379 C 37.8825 2.32857 0.173105 0
M  V30 380 C 38.8635 1.44009 0.905281 0
M  V30 381 O 40.0485 1.7286 0.885046 0
M  V30 382 C 37.1785 3.25861 1.20133 0
M  V30 383 C 36.1325 4.23978 0.585388 0
M  V30 384 C 35.4585 5.06332 1.7185 0
M  V30 385 C 36.7585 5.20242 -0.463178 0
M  V30 386 H 38.4525 2.94466 -0.541307 0
M  V30 387 H 35.9985 1.41601 -0.261764 0
M  V30 388 H 37.9515 3.84569 1.72293 0
M  V30 389 H 36.6755 2.62315 1.94573 0
M  V30 390 H 35.3345 3.66501 0.085054 0
M  V30 391 H 34.9825 4.39186 2.45203 0
M  V30 392 H 34.6825 5.72762 1.31213 0
M  V30 393 H 36.2065 5.67899 2.24329 0
M  V30 394 H 37.6205 5.73293 -0.027502 0
M  V30 395 H 36.0175 5.94896 -0.788627 0
M  V30 396 H 37.0875 4.65504 -1.35773 0
M  V30 397 N 38.4306 0.297415 1.54768 0
M  V30 398 C 39.3936 -0.567375 2.22066 0
M  V30 399 C 40.3936 -1.06409 1.20556 0
M  V30 400 O 41.5836 -0.960691 1.45315 0
M  V30 401 C 38.7156 -1.78517 2.90421 0
M  V30 402 H 39.9086 0.0205534 2.99893 0
M  V30 403 H 37.4616 0.0482163 1.56226 0
M  V30 404 H 38.1966 -2.41303 2.16664 0
M  V30 405 H 37.9816 -1.43669 3.64831 0
M  V30 406 H 39.4716 -2.39964 3.41771 0
M  V30 407 N 39.9087 -1.5758 0.0250728 0
M  V30 408 C 41.1857 -1.82917 -0.692873 0
M  V30 409 C 41.5657 -0.908137 -1.90568 0
M  V30 410 O 40.9137 0.0372298 -2.2847 0
M  V30 411 C 41.1237 -3.32034 -1.07492 0
M  V30 412 C 42.4717 -3.98406 -1.46826 0
M  V30 413 O 43.4957 -3.36505 -1.16801 0
M  V30 414 O 42.3547 -5.07497 -2.02754 0
M  V30 415 H 39.4487 -0.754079 -0.33955 0
M  V30 416 H 41.9947 -1.69619 0.0524456 0
M  V30 417 H 40.7667 -3.90728 -0.211552 0
M  V30 418 H 40.3897 -3.50424 -1.87854 0
M  V30 419 N 41.3868 0.248026 -1.55636 0
M  V30 420 C 42.3498 1.29044 -1.89421 0
M  V30 421 C 43.3498 1.41134 -0.770581 0
M  V30 422 O 44.5398 1.39854 -1.03858 0
M  V30 423 C 41.6718 2.66831 -2.12165 0
M  V30 424 H 42.8648 1.00305 -2.82629 0
M  V30 425 H 40.4178 0.487265 -1.48511 0
M  V30 426 H 41.1528 3.00711 -1.21422 0
M  V30 427 H 40.9378 2.59438 -2.93997 0
M  V30 428 H 42.4278 3.42103 -2.3949 0
M  V30 429 N 42.8649 1.48995 0.513639 0
M  V30 430 C 44.1129 1.57531 1.26604 0
M  V30 431 C 44.4339 0.258236 1.93283 0
M  V30 432 O 43.7039 -0.721502 1.8213 0
M  V30 433 H 42.2839 0.580387 0.470276 0
M  V30 434 H 44.9459 1.85552 0.596373 0
M  V30 435 H 44.0419 2.36486 2.03669 0
M  V30 436 N 44.343 -0.763751 1.37857 0
M  V30 437 C 45.573 -1.55067 1.3652 0
M  V30 438 C 45.981 -1.89135 -0.0494227 0
M  V30 439 O 45.324 -1.52529 -1.02375 0
M  V30 440 C 45.386 -2.8838 2.14656 0
M  V30 441 C 45.05 -2.76905 3.63555 0
M  V30 442 C 46.047 -2.4739 4.57268 0
M  V30 443 C 43.732 -2.94676 4.06781 0
M  V30 444 C 45.726 -2.35786 5.92186 0
M  V30 445 C 43.413 -2.82692 5.41782 0
M  V30 446 C 44.411 -2.53289 6.34298 0
M  V30 447 O 44.099 -2.41345 7.66817 0
M  V30 448 H 43.831 -0.486776 0.469069 0
M  V30 449 H 46.385 -0.953812 1.81911 0
M  V30 450 H 44.615 -3.50217 1.63967 0
M  V30 451 H 46.304 -3.49828 2.05852 0
M  V30 452 H 47.07 -2.33339 4.2518 0
M  V30 453 H 42.949 -3.16563 3.35126 0
M  V30 454 H 46.493 -2.12757 6.64365 0
M  V30 455 H 42.39 -2.96314 5.7347 0
M  V30 456 H 43.158 -2.56634 7.77226 0
M  V30 457 N 45.8211 -1.22559 -0.990812 0
M  V30 458 C 46.7311 -1.01394 -2.11557 0
M  V30 459 C 47.7471 0.0383962 -1.73958 0
M  V30 460 O 48.9231 -0.154787 -2.00804 0
M  V30 461 C 45.9881 -0.596569 -3.41529 0
M  V30 462 C 45.0491 -1.72276 -3.93217 0
M  V30 463 C 44.2821 -1.32521 -5.16985 0
M  V30 464 O 44.5051 -0.204909 -5.70032 0
M  V30 465 O 43.4391 -2.14247 -5.62478 0
M  V30 466 H 47.2651 -1.95633 -2.32296 0
M  V30 467 H 44.8501 -1.01172 -1.0993 0
M  V30 468 H 46.7321 -0.374263 -4.19735 0
M  V30 469 H 45.4071 0.316939 -3.22145 0
M  V30 470 H 44.3141 -1.99961 -3.16174 0
M  V30 471 H 45.6471 -2.61421 -4.17037 0
M  V30 472 N 47.2992 1.18797 -1.03562 0
M  V30 473 C 48.5452 1.8893 -0.737113 0
M  V30 474 C 48.8782 1.79837 0.732956 0
M  V30 475 O 48.1532 1.19525 1.5344 0
M  V30 476 C 48.4362 3.39607 -1.19745 0
M  V30 477 C 48.2892 3.57537 -2.72924 0
M  V30 478 C 49.6082 4.33069 -0.783526 0
M  V30 479 H 46.7272 0.686057 -0.269249 0
M  V30 480 H 49.3692 1.39797 -1.28673 0
M  V30 481 H 47.5192 3.81583 -0.729855 0
M  V30 482 H 49.1912 3.24688 -3.27682 0
M  V30 483 H 47.4342 3.00363 -3.12993 0
M  V30 484 H 48.1052 4.63238 -3.00191 0
M  V30 485 H 50.5812 3.98846 -1.18581 0
M  V30 486 H 49.4572 5.3707 -1.13343 0
M  V30 487 H 49.7182 4.40986 0.313681 0
M  V30 488 N 48.7773 0.814389 1.34928 0
M  V30 489 C 50.0543 0.321363 1.92942 0
M  V30 490 C 50.4343 -1.19014 1.74353 0
M  V30 491 O 49.7823 -1.99328 1.11716 0
M  V30 492 C 49.9923 0.741323 3.41036 0
M  V30 493 C 51.3403 0.735266 4.18185 0
M  V30 494 O 52.3643 0.68336 3.49584 0
M  V30 495 O 51.2233 0.800703 5.40602 0
M  V30 496 H 48.3173 0.0858893 0.822528 0
M  V30 497 H 50.8633 0.898609 1.43955 0
M  V30 498 H 49.6353 1.78276 3.4833 0
M  V30 499 H 49.2583 0.139307 3.97356 0
M  V30 500 N 50.2554 -1.46986 0.568584 0
M  V30 501 C 51.4804 -2.07335 0.0520528 0
M  V30 502 C 51.9054 -1.41675 -1.23733 0
M  V30 503 O 51.2634 -0.495623 -1.74394 0
M  V30 504 C 51.3114 -3.60417 -0.11501 0
M  V30 505 O 50.4154 -3.95309 -1.17492 0
M  V30 506 H 49.7564 -0.661597 0.0564385 0
M  V30 507 H 52.2864 -1.88837 0.787507 0
M  V30 508 H 52.2964 -4.06698 -0.325644 0
M  V30 509 H 50.9714 -4.07601 0.826675 0
M  V30 510 H 49.5484 -3.60757 -0.943869 0
M  V30 511 N 51.7335 -0.305618 -1.54608 0
M  V30 512 C 53.1495 0.0476228 -1.59529 0
M  V30 513 C 53.3495 1.52025 -1.32252 0
M  V30 514 O 52.4055 2.27368 -1.09818 0
M  V30 515 C 53.7185 -0.354471 -2.98603 0
M  V30 516 C 55.2665 -0.303622 -3.11524 0
M  V30 517 C 55.7415 -0.680608 -4.52915 0
M  V30 518 N 57.2325 -0.63332 -4.5885 0
M  V30 519 C 57.9675 -0.897432 -5.66334 0
M  V30 520 N 57.4635 -1.22775 -6.81834 0
M  V30 521 N 59.2565 -0.824186 -5.56025 0
M  V30 522 H 51.4075 -1.2653 -1.70599 0
M  V30 523 H 53.6705 -0.513291 -0.797017 0
M  V30 524 H 53.3765 -1.3798 -3.23503 0
M  V30 525 H 53.2505 0.289568 -3.76087 0
M  V30 526 H 55.6375 0.712472 -2.8637 0
M  V30 527 H 55.7185 -0.982348 -2.36185 0
M  V30 528 H 55.3625 -1.69453 -4.78799 0
M  V30 529 H 55.2925 0.0202385 -5.26596 0
M  V30 530 H 57.7835 -0.389138 -3.75891 0
M  V30 531 H 58.0965 -1.41513 -7.59733 0
M  V30 532 H 56.4415 -1.26583 -6.83375 0
M  V30 533 H 59.6325 -0.565748 -4.64669 0
M  V30 534 H 59.8055 -1.03338 -6.39707 0
M  V30 535 N 53.2116 1.57565 -0.0334293 0
M  V30 536 C 54.4886 1.83282 0.683163 0
M  V30 537 C 54.8686 0.91823 1.90084 0
M  V30 538 O 54.2166 -0.025113 2.28486 0
M  V30 539 C 54.4266 3.32599 1.0573 0
M  V30 540 C 55.7746 3.99179 1.44711 0
M  V30 541 O 56.7986 3.3712 1.15015 0
M  V30 542 O 55.6576 5.08565 2.0006 0
M  V30 543 H 52.7516 0.755869 0.335546 0
M  V30 544 H 55.2976 1.69589 -0.0614402 0
M  V30 545 H 54.0696 3.90834 0.190828 0
M  V30 546 H 53.6926 3.51415 1.85993 0
M  V30 547 N 54.6897 -0.239769 1.55765 0
M  V30 548 C 55.6527 -1.28038 1.90103 0
M  V30 549 C 56.6527 -1.40723 0.778055 0
M  V30 550 O 57.8427 -1.39301 1.04599 0
M  V30 551 C 54.9747 -2.65702 2.13577 0
M  V30 552 H 56.1677 -0.988048 2.83157 0
M  V30 553 H 53.7207 -0.479382 1.48767 0
M  V30 554 H 54.4557 -3.00063 1.23015 0
M  V30 555 H 54.2407 -2.57875 2.95369 0
M  V30 556 H 55.7307 -3.40828 2.41301 0
M  V30 557 N 56.1678 -1.49265 -0.50573 0
M  V30 558 C 57.1308 -1.65075 -1.59006 0
M  V30 559 C 58.1308 -0.522768 -1.52065 0
M  V30 560 O 59.3208 -0.789117 -1.55302 0
M  V30 561 C 56.4528 -1.64369 -2.98656 0
M  V30 562 H 57.6458 -2.61784 -1.46319 0
M  V30 563 H 55.1988 -1.38226 -0.729616 0
M  V30 564 H 55.9338 -0.692272 -3.16825 0
M  V30 565 H 55.7188 -2.46282 -3.05103 0
M  V30 566 H 57.2088 -1.78674 -3.77446 0
M  V30 567 N 57.6459 0.756429 -1.3826 0
M  V30 568 C 58.8709 1.55077 -1.37717 0
M  V30 569 C 59.2959 1.88073 0.03164 0
M  V30 570 O 58.6539 1.50364 1.01293 0
M  V30 571 C 58.7019 2.8283 -2.23695 0
M  V30 572 O 57.8059 3.77862 -1.6521 0
M  V30 573 H 57.1469 0.469152 -0.469885 0
M  V30 574 H 59.6769 0.935019 -1.81985 0
M  V30 575 H 59.6869 3.31783 -2.37453 0
M  V30 576 H 58.3619 2.58144 -3.2609 0
M  V30 577 H 56.9389 3.36555 -1.60578 0
M  V30 578 N 59.124 1.23083 0.984299 0
M  V30 579 C 60.37 1.06214 1.72761 0
M  V30 580 C 60.703 -0.400584 1.90024 0
M  V30 581 O 59.978 -1.29672 1.44967 0
M  V30 582 C 60.261 1.78375 3.12817 0
M  V30 583 C 60.114 3.32296 3.03149 0
M  V30 584 C 61.433 1.54309 4.12161 0
M  V30 585 H 58.552 0.387251 0.627061 0
M  V30 586 H 61.194 1.51536 1.14616 0
M  V30 587 H 59.344 1.39848 3.62457 0
M  V30 588 H 61.016 3.8032 2.61064 0
M  V30 589 H 59.259 3.6153 2.39747 0
M  V30 590 H 59.93 3.77972 4.02295 0
M  V30 591 H 62.406 1.87791 3.71314 0
M  V30 592 H 61.282 2.07281 5.08258 0
M  V30 593 H 61.543 0.477572 4.39513 0
M  V30 594 N 60.6021 -1.18246 1.0419 0
M  V30 595 C 61.5121 -2.25574 0.644476 0
M  V30 596 C 62.5281 -1.70845 -0.329826 0
M  V30 597 O 63.7041 -2.00554 -0.184443 0
M  V30 598 C 60.7691 -3.46697 0.014877 0
M  V30 599 C 59.8301 -4.16554 1.03834 0
M  V30 600 C 59.0631 -5.31894 0.438692 0
M  V30 601 O 59.2861 -5.65385 -0.754752 0
M  V30 602 O 58.2201 -5.90459 1.168 0
M  V30 603 H 62.0461 -2.61836 1.53869 0
M  V30 604 H 59.6311 -1.25352 0.812854 0
M  V30 605 H 61.5131 -4.20062 -0.335538 0
M  V30 606 H 60.1881 -3.12255 -0.853138 0
M  V30 607 H 59.0951 -3.45251 1.44057 0
M  V30 608 H 60.4281 -4.54998 1.87716 0
M  V30 609 N 62.0802 -0.821533 -1.34494 0
M  V30 610 C 63.0432 -0.247847 -2.27856 0
M  V30 611 C 64.0432 0.573453 -1.50227 0
M  V30 612 O 65.2332 0.389759 -1.69784 0
M  V30 613 C 62.3652 0.652698 -3.34593 0
M  V30 614 H 63.5582 -1.07146 -2.80107 0
M  V30 615 H 61.1112 -0.593291 -1.44602 0
M  V30 616 H 61.8462 1.49943 -2.87555 0
M  V30 617 H 61.6312 0.065292 -3.92046 0
M  V30 618 H 63.1212 1.04793 -4.04238 0
M  V30 619 N 63.5583 1.46682 -0.576371 0
M  V30 620 C 64.8063 2.02013 -0.0594163 0
M  V30 621 C 65.1273 1.45101 1.30271 0
M  V30 622 O 64.3973 0.633317 1.8538 0
M  V30 623 H 62.9773 0.746759 -0.0189745 0
M  V30 624 H 65.6393 1.79862 -0.750717 0
M  V30 625 H 64.7353 3.12097 0.014345 0
M  V30 626 N 65.0364 0.313813 1.54444 0
M  V30 627 C 66.2844 -0.291099 1.99993 0
M  V30 628 C 66.6054 -1.53418 1.20366 0
M  V30 629 O 65.8754 -1.93544 0.302927 0
M  V30 630 H 64.4554 -0.110552 0.738774 0
M  V30 631 H 67.1174 0.428106 1.9014 0
M  V30 632 H 66.2134 -0.554268 3.07139 0
M  V30 633 N 66.5145 -1.57545 0.0417849 0
M  V30 634 C 67.4445 -2.14009 -0.933929 0
M  V30 635 C 68.4255 -1.05938 -1.33083 0
M  V30 636 O 69.6105 -1.33833 -1.40721 0
M  V30 637 C 66.7405 -2.67747 -2.21199 0
M  V30 638 C 65.6945 -3.80718 -1.95544 0
M  V30 639 C 65.0205 -4.20935 -3.29724 0
M  V30 640 C 66.3205 -5.06258 -1.28452 0
M  V30 641 H 68.0145 -2.95788 -0.463645 0
M  V30 642 H 65.5605 -1.42285 -0.221573 0
M  V30 643 H 67.5135 -3.05886 -2.89848 0
M  V30 644 H 66.2375 -1.83147 -2.70416 0
M  V30 645 H 64.8965 -3.43037 -1.2931 0
M  V30 646 H 64.5445 -3.33298 -3.76724 0
M  V30 647 H 64.2445 -4.9707 -3.13361 0
M  V30 648 H 65.7685 -4.61666 -3.9962 0
M  V30 649 H 67.1825 -5.41903 -1.8712 0
M  V30 650 H 65.5795 -5.87475 -1.22445 0
M  V30 651 H 66.6495 -4.84207 -0.259219 0
M  V30 652 N 67.9926 0.231505 -1.5589 0
M  V30 653 C 69.2396 0.957352 -1.78441 0
M  V30 654 C 69.5676 1.84726 -0.60882 0
M  V30 655 O 68.8226 1.91416 0.40725 0
M  V30 656 C 69.1216 1.83577 -3.0665 0
M  V30 657 C 68.7876 1.09993 -4.37278 0
M  V30 658 C 67.4496 0.896629 -4.72773 0
M  V30 659 C 69.8016 0.579558 -5.17968 0
M  V30 660 C 67.1296 0.160896 -5.86479 0
M  V30 661 C 69.4816 -0.142783 -6.32439 0
M  V30 662 C 68.1456 -0.357427 -6.66542 0
M  V30 663 H 67.4156 0.35032 -0.65296 0
M  V30 664 H 70.0626 0.226259 -1.90159 0
M  V30 665 H 68.3676 2.63441 -2.90011 0
M  V30 666 H 70.0646 2.39934 -3.21298 0
M  V30 667 H 66.6546 1.26835 -4.09403 0
M  V30 668 H 70.8386 0.724125 -4.90989 0
M  V30 669 H 66.0946 -0.0157293 -6.11398 0
M  V30 670 H 70.2686 -0.553559 -6.94196 0
M  V30 671 H 67.8956 -0.929466 -7.54497 0
M  V30 672 N 69.4707 1.49531 0.497807 0
M  V30 673 C 70.3807 1.69176 1.62532 0
M  V30 674 C 71.3967 0.5744 1.64246 0
M  V30 675 O 72.5727 0.849497 1.82608 0
M  V30 676 C 69.6377 1.75695 2.98885 0
M  V30 677 C 68.6987 2.9929 3.07773 0
M  V30 678 C 67.9317 3.05488 4.37622 0
M  V30 679 O 68.1547 2.19192 5.26603 0
M  V30 680 O 67.0887 3.9798 4.51548 0
M  V30 681 H 70.9147 2.647 1.48887 0
M  V30 682 H 68.4997 1.3331 0.674441 0
M  V30 683 H 70.3817 1.82317 3.79919 0
M  V30 684 H 69.0567 0.8335 3.12785 0
M  V30 685 H 67.9637 2.98183 2.25915 0
M  V30 686 H 69.2967 3.91125 2.98801 0
M  V30 687 N 70.9488 -0.749086 1.3866 0
M  V30 688 C 72.1968 -1.50535 1.34847 0
M  V30 689 C 72.5178 -1.94909 -0.0595016 0
M  V30 690 O 71.7878 -1.67973 -1.00806 0
M  V30 691 H 70.3678 -0.558395 0.49619 0
M  V30 692 H 73.0298 -0.890165 1.73384 0
M  V30 693 H 72.1258 -2.39413 2.00219 0
M  V30 694 N 72.4269 -1.23603 -0.977757 0
M  V30 695 C 73.6739 -1.06971 -1.71941 0
M  V30 696 C 74.0019 0.393009 -1.90488 0
M  V30 697 O 73.2569 1.30719 -1.4564 0
M  V30 698 C 73.5559 -1.7433 -3.11999 0
M  V30 699 C 73.2219 -3.24252 -3.13323 0
M  V30 700 C 71.8839 -3.65156 -3.13392 0
M  V30 701 C 74.2359 -4.20141 -3.08433 0
M  V30 702 C 71.5639 -5.00403 -3.0629 0
M  V30 703 C 73.9159 -5.55384 -3.02873 0
M  V30 704 C 72.5799 -5.95647 -3.01265 0
M  V30 705 H 71.8499 -0.391433 -0.629175 0
M  V30 706 H 74.4969 -1.53572 -1.14403 0
M  V30 707 H 72.8019 -1.20096 -3.7294 0
M  V30 708 H 74.4989 -1.58936 -3.68158 0
M  V30 709 H 71.0889 -2.91692 -3.14029 0
M  V30 710 H 75.2729 -3.89547 -3.07517 0
M  V30 711 H 70.5289 -5.3081 -3.03399 0
M  V30 712 H 74.7029 -6.29398 -2.98046 0
M  V30 713 H 72.3299 -7.0041 -2.95516 0
M  V30 714 N 73.905 1.17692 -1.04816 0
M  V30 715 C 75.182 1.83768 -0.669963 0
M  V30 716 C 75.562 1.93232 0.849986 0
M  V30 717 O 74.91 1.46397 1.75443 0
M  V30 718 C 75.12 3.21641 -1.35455 0
M  V30 719 C 76.468 3.97592 -1.49017 0
M  V30 720 O 77.492 3.31107 -1.31326 0
M  V30 721 O 76.351 5.16729 -1.77914 0
M  V30 722 H 73.445 0.792799 -0.235368 0
M  V30 723 H 75.991 1.25021 -1.14751 0
M  V30 724 H 74.763 3.097 -2.39168 0
M  V30 725 H 74.386 3.88052 -0.866107 0
M  V30 726 N 75.3831 0.828654 1.34056 0
M  V30 727 C 76.3131 0.269443 2.3194 0
M  V30 728 C 77.2941 -0.617247 1.58506 0
M  V30 729 O 78.4791 -0.542931 1.86456 0
M  V30 730 C 75.6091 -0.564793 3.42677 0
M  V30 731 C 74.5631 0.225241 4.27407 0
M  V30 732 C 73.8891 -0.7321 5.29664 0
M  V30 733 C 75.1891 1.43663 5.02154 0
M  V30 734 H 76.8831 1.08728 2.7896 0
M  V30 735 H 74.4291 0.524283 1.34117 0
M  V30 736 H 76.3821 -0.966233 4.10173 0
M  V30 737 H 75.1061 -1.41574 2.9432 0
M  V30 738 H 73.7651 0.608117 3.61521 0
M  V30 739 H 73.4131 -1.57916 4.77568 0
M  V30 740 H 73.1131 -0.20767 5.87233 0
M  V30 741 H 74.6371 -1.13128 6.00029 0
M  V30 742 H 76.0511 1.1089 5.62473 0
M  V30 743 H 74.4481 1.89711 5.69324 0
M  V30 744 H 75.5181 2.21181 4.31517 0
M  V30 745 N 76.8612 -1.46375 0.584142 0
M  V30 746 C 78.1072 -2.02678 0.0703716 0
M  V30 747 C 78.4402 -1.4545 -1.28678 0
M  V30 748 O 77.7152 -0.62014 -1.84349 0
M  V30 749 C 77.9982 -3.60099 0.00614674 0
M  V30 750 C 77.8512 -4.27709 1.3923 0
M  V30 751 C 79.1702 -4.34598 -0.693742 0
M  V30 752 H 76.2892 -0.736504 0.027047 0
M  V30 753 H 78.9312 -1.74501 0.751615 0
M  V30 754 H 77.0812 -3.84236 -0.574009 0
M  V30 755 H 78.7532 -4.14832 2.01773 0
M  V30 756 H 76.9962 -3.87016 1.95962 0
M  V30 757 H 77.6672 -5.36478 1.29982 0
M  V30 758 H 80.1432 -4.15615 -0.200869 0
M  V30 759 H 79.0192 -5.44318 -0.707714 0
M  V30 760 H 79.2802 -4.05759 -1.75533 0
M  V30 761 N 78.3393 -0.321999 -1.54275 0
M  V30 762 C 79.2693 0.537411 -2.27231 0
M  V30 763 C 80.2503 1.12064 -1.27968 0
M  V30 764 O 81.4353 1.14606 -1.56777 0
M  V30 765 C 78.5653 1.69919 -3.02894 0
M  V30 766 C 77.5193 1.24534 -4.09482 0
M  V30 767 C 76.8453 2.49394 -4.72977 0
M  V30 768 C 78.1453 0.361335 -5.21049 0
M  V30 769 H 79.8393 -0.0711406 -2.99315 0
M  V30 770 H 77.3853 -0.0356555 -1.43956 0
M  V30 771 H 79.3383 2.30668 -3.52662 0
M  V30 772 H 78.0623 2.33431 -2.28424 0
M  V30 773 H 76.7213 0.660782 -3.60596 0
M  V30 774 H 76.3693 3.11265 -3.95124 0
M  V30 775 H 76.0693 2.19718 -5.44975 0
M  V30 776 H 77.5933 3.10908 -5.25517 0
M  V30 777 H 79.0073 0.875072 -5.66582 0
M  V30 778 H 77.4043 0.157428 -5.99893 0
M  V30 779 H 78.4743 -0.60822 -4.8107 0
M  V30 780 N 79.8174 1.5752 -0.0501392 0
M  V30 781 C 80.7474 2.14502 0.922566 0
M  V30 782 C 81.7284 1.06642 1.3252 0
M  V30 783 O 82.9134 1.34577 1.4001 0
M  V30 784 C 80.0434 2.68916 2.19776 0
M  V30 785 C 78.9974 3.8175 1.93523 0
M  V30 786 C 78.3234 4.22677 3.27487 0
M  V30 787 C 79.6234 5.06932 1.25765 0
M  V30 788 H 81.3174 2.9603 0.447952 0
M  V30 789 H 78.8634 1.42401 0.214024 0
M  V30 790 H 80.8164 3.07419 2.88222 0
M  V30 791 H 79.5404 1.84578 2.69441 0
M  V30 792 H 78.1994 3.43718 1.27489 0
M  V30 793 H 77.8474 3.35291 3.74952 0
M  V30 794 H 77.5474 4.98725 3.1072 0
M  V30 795 H 79.0714 4.63779 3.97166 0
M  V30 796 H 80.4854 5.42888 1.84244 0
M  V30 797 H 78.8824 5.88116 1.19328 0
M  V30 798 H 79.9524 4.84337 0.233536 0
M  V30 799 N 81.2955 -0.223234 1.56011 0
M  V30 800 C 82.5435 -0.946003 1.78592 0
M  V30 801 C 82.8645 -1.84936 0.618349 0
M  V30 802 O 82.1345 -1.92473 -0.364833 0
M  V30 803 H 80.7145 -0.352298 0.658707 0
M  V30 804 H 83.3765 -0.235494 1.93472 0
M  V30 805 H 82.4725 -1.55381 2.70672 0
M  V30 806 N 82.7736 -1.49793 -0.48987 0
M  V30 807 C 84.0136 -1.61466 -1.25332 0
M  V30 808 C 84.3776 -0.299688 -1.89647 0
M  V30 809 O 85.5786 -0.291687 -2.67213 0
M  V30 810 C 83.8496 -2.74944 -2.28343 0
M  V30 811 S 85.4086 -3.06637 -3.13878 0
M  V30 812 H 82.2266 -0.569411 -0.425784 0
M  V30 813 H 84.8286 -1.875 -0.553541 0
M  V30 814 H 83.5326 -3.68994 -1.79643 0
M  V30 815 H 83.0636 -2.50938 -3.02975 0
M  V30 816 H 85.0786 -2.49015 -4.29192 0
M  V30 817 N 84.2517 0.741722 -1.39055 0
M  V30 818 C 85.4767 1.53607 -1.39354 0
M  V30 819 C 85.9017 1.88096 0.0116905 0
M  V30 820 O 85.2597 1.5143 0.996924 0
M  V30 821 C 85.3077 2.80441 -2.26682 0
M  V30 822 O 84.4117 3.76088 -1.69208 0
M  V30 823 H 83.7527 0.464142 -0.474835 0
M  V30 824 H 86.2827 0.915665 -1.82967 0
M  V30 825 H 86.2927 3.29246 -2.40959 0
M  V30 826 H 84.9677 2.5467 -3.2881 0
M  V30 827 H 83.5447 3.34833 -1.64138 0
M  V30 828 N 85.7298 1.2412 0.971189 0
M  V30 829 C 86.9578 1.10575 1.74874 0
M  V30 830 C 87.3728 -0.342017 1.85676 0
M  V30 831 O 86.7298 -1.23617 1.34258 0
M  V30 832 C 86.7808 1.73579 3.171 0
M  V30 833 O 86.5018 3.12695 3.06844 0
M  V30 834 C 88.0028 1.65598 4.11208 0
M  V30 835 H 85.2228 0.386504 0.548503 0
M  V30 836 H 87.7668 1.64156 1.21955 0
M  V30 837 H 85.9218 1.24009 3.67016 0
M  V30 838 H 86.3358 3.43412 3.96445 0
M  V30 839 H 87.8098 2.1437 5.08674 0
M  V30 840 H 88.2868 0.616532 4.34851 0
M  V30 841 H 88.8928 2.14578 3.67201 0
M  V30 842 N 87.2079 -1.17134 1.05439 0
M  V30 843 C 88.4539 -1.87979 0.776872 0
M  V30 844 C 88.8089 -1.7965 -0.688751 0
M  V30 845 O 88.1019 -1.19535 -1.4974 0
M  V30 846 C 88.2959 -3.36833 1.19491 0
M  V30 847 C 88.1249 -3.59653 2.69963 0
M  V30 848 C 86.8949 -3.76234 3.37307 0
M  V30 849 C 89.0929 -3.59091 3.68182 0
M  V30 850 N 87.0749 -3.86922 4.76618 0
M  V30 851 C 88.4459 -3.75659 4.93235 0
M  V30 852 C 90.5009 -3.42255 3.61616 0
M  V30 853 C 89.2039 -3.77133 6.12506 0
M  V30 854 C 91.2299 -3.45018 4.8033 0
M  V30 855 C 90.5919 -3.62096 6.04207 0
M  V30 856 H 86.6909 -0.705876 0.336546 0
M  V30 857 H 89.2749 -1.40602 1.34682 0
M  V30 858 H 87.4459 -3.82873 0.652884 0
M  V30 859 H 89.1779 -3.95305 0.866966 0
M  V30 860 H 85.9329 -3.76193 2.87708 0
M  V30 861 H 86.3569 -3.96055 5.49062 0
M  V30 862 H 90.9989 -3.27986 2.66805 0
M  V30 863 H 88.7169 -3.90186 7.07659 0
M  V30 864 H 92.3029 -3.33246 4.76905 0
M  V30 865 H 91.1829 -3.64142 6.94529 0
M  V30 866 N 88.686 -0.835752 -1.33615 0
M  V30 867 C 89.934 -0.429109 -1.97492 0
M  V30 868 C 90.255 1.01433 -1.66543 0
M  V30 869 O 89.525 1.70611 -0.962744 0
M  V30 870 H 88.105 -0.155686 -0.730596 0
M  V30 871 H 90.767 -1.06802 -1.63031 0
M  V30 872 H 89.863 -0.55861 -3.0706 0
M  V30 873 N 90.1641 1.46063 -0.591896 0
M  V30 874 C 91.4411 1.95595 -0.0137119 0
M  V30 875 C 91.8211 1.5345 1.4497 0
M  V30 876 O 91.1691 0.789543 2.14426 0
M  V30 877 C 91.3791 3.48453 -0.195373 0
M  V30 878 C 92.7271 4.24546 -0.0679765 0
M  V30 879 O 93.7511 3.55982 -0.124681 0
M  V30 880 O 92.6101 5.46467 0.0600579 0
M  V30 881 H 89.7041 0.825795 0.0446279 0
M  V30 882 H 92.2501 1.56303 -0.660859 0
M  V30 883 H 91.0221 3.72045 -1.21235 0
M  V30 884 H 90.6451 3.94597 0.487775 0
M  V30 885 N 91.6422 0.330177 1.54103 0
M  V30 886 C 92.9192 -0.325007 1.92881 0
M  V30 887 C 93.2992 -1.6934 1.26045 0
M  V30 888 O 92.6472 -2.24855 0.406526 0
M  V30 889 C 92.8572 -0.410634 3.46576 0
M  V30 890 C 94.2052 -0.667801 4.19316 0
M  V30 891 O 95.2292 -0.49329 3.52768 0
M  V30 892 O 94.0882 -1.00491 5.37181 0
M  V30 893 H 91.1822 -0.186873 0.80561 0
M  V30 894 H 93.7282 0.380376 1.65382 0
M  V30 895 H 92.5002 0.550164 3.87413 0
M  V30 896 H 92.1232 -1.16333 3.802 0
M  V30 897 N 93.1203 -1.57491 0.0584922 0
M  V30 898 C 94.3453 -1.97711 -0.62652 0
M  V30 899 C 94.7703 -0.936132 -1.63151 0
M  V30 900 O 94.1283 0.099811 -1.81025 0
M  V30 901 C 94.1763 -3.36989 -1.28338 0
M  V30 902 O 93.2803 -3.35433 -2.39913 0
M  V30 903 H 92.6213 -0.643868 -0.162266 0
M  V30 904 H 95.1513 -2.04193 0.129064 0
M  V30 905 H 95.1613 -3.73879 -1.63335 0
M  V30 906 H 93.8363 -4.12289 -0.546889 0
M  V30 907 H 92.4133 -3.10298 -2.06809 0
M  V30 908 N 94.5984 0.214957 -1.56127 0
M  V30 909 C 95.8474 0.936451 -1.78643 0
M  V30 910 C 96.1604 1.85237 -0.628229 0
M  V30 911 O 97.3664 2.613 -0.737186 0
M  V30 912 C 95.8224 1.7154 -3.16389 0
M  V30 913 C 95.4304 0.845299 -4.39953 0
M  V30 914 C 97.1744 2.42772 -3.48227 0
M  V30 915 C 95.0814 1.62198 -5.68723 0
M  V30 916 H 94.0114 0.353401 -0.666051 0
M  V30 917 H 96.6624 0.190169 -1.82512 0
M  V30 918 H 95.0444 2.50484 -3.06715 0
M  V30 919 H 96.2184 0.0959353 -4.607 0
M  V30 920 H 94.5334 0.244789 -4.1568 0
M  V30 921 H 97.1304 3.01394 -4.41663 0
M  V30 922 H 97.4734 3.15984 -2.71035 0
M  V30 923 H 98.0064 1.70813 -3.5926 0
M  V30 924 H 94.7454 0.933011 -6.48826 0
M  V30 925 H 94.2654 2.34579 -5.52026 0
M  V30 926 H 95.9444 2.18095 -6.09133 0
M  V30 927 N 96.0765 1.50051 0.48192 0
M  V30 928 C 96.9865 1.7089 1.60728 0
M  V30 929 C 98.0025 0.591788 1.63627 0
M  V30 930 O 99.1785 0.868817 1.81696 0
M  V30 931 C 96.2435 1.78855 2.97005 0
M  V30 932 C 95.3045 3.02537 3.04581 0
M  V30 933 C 94.5375 3.10112 4.34357 0
M  V30 934 O 94.7605 2.24765 5.24249 0
M  V30 935 O 93.6945 4.02747 4.47301 0
M  V30 936 H 97.5205 2.66264 1.46072 0
M  V30 937 H 95.1055 1.34018 0.660264 0
M  V30 938 H 96.9875 1.86336 3.77964 0
M  V30 939 H 95.6625 0.866628 3.11883 0
M  V30 940 H 94.5695 3.00563 2.22739 0
M  V30 941 H 95.9025 3.94272 2.94636 0
M  V30 942 N 97.5546 -0.734337 1.39446 0
M  V30 943 C 98.4846 -1.86155 1.40955 0
M  V30 944 C 99.4656 -1.67898 0.272827 0
M  V30 945 O 100.651 -1.88207 0.478743 0
M  V30 946 C 97.7806 -3.23912 1.25294 0
M  V30 947 C 96.7346 -3.56808 2.36373 0
M  V30 948 C 96.0606 -4.93508 2.058 0
M  V30 949 C 97.3606 -3.59713 3.78687 0
M  V30 950 H 99.0546 -1.8515 2.35287 0
M  V30 951 H 96.6006 -0.889367 1.13253 0
M  V30 952 H 98.5536 -4.02443 1.2497 0
M  V30 953 H 97.2776 -3.25446 0.274308 0
M  V30 954 H 95.9366 -2.80606 2.35914 0
M  V30 955 H 95.5846 -4.91623 1.06374 0
M  V30 956 H 95.2846 -5.16486 2.80208 0
M  V30 957 H 96.8086 -5.74396 2.07128 0
M  V30 958 H 98.2226 -4.2832 3.81071 0
M  V30 959 H 96.6196 -3.94209 4.52459 0
M  V30 960 H 97.6896 -2.59504 4.09617 0
M  V30 961 N 99.0327 -1.24633 -0.964593 0
M  V30 962 C 99.9647 -0.999302 -2.06268 0
M  V30 963 C 100.978 0.0323226 -1.62768 0
M  V30 964 O 102.167 -0.205079 -1.77318 0
M  V30 965 C 99.2667 -0.486816 -3.35385 0
M  V30 966 C 98.4397 -1.5823 -4.07777 0
M  V30 967 C 97.4987 -1.07191 -5.15166 0
M  V30 968 O 96.5247 -1.76426 -5.41168 0
M  V30 969 N 97.7267 0.0920373 -5.80427 0
M  V30 970 H 100.492 -1.94477 -2.28033 0
M  V30 971 H 98.0527 -1.15704 -1.13244 0
M  V30 972 H 100.045 -0.130066 -4.04491 0
M  V30 973 H 98.6147 0.364459 -3.10468 0
M  V30 974 H 97.8347 -2.11109 -3.32906 0
M  V30 975 H 99.1227 -2.31854 -4.52903 0
M  V30 976 H 98.5207 0.670784 -5.61709 0
M  V30 977 H 97.0777 0.389905 -6.50633 0
M  V30 978 N 100.511 1.16574 -1.06058 0
M  V30 979 C 101.788 1.83048 -0.689416 0
M  V30 980 C 102.168 1.94122 0.829443 0
M  V30 981 O 101.516 1.48249 1.7388 0
M  V30 982 C 101.726 3.20186 -1.38859 0
M  V30 983 C 103.074 3.95989 -1.53226 0
M  V30 984 O 104.098 3.29696 -1.3483 0
M  V30 985 O 102.957 5.14813 -1.83384 0
M  V30 986 H 100.051 0.790258 -0.243764 0
M  V30 987 H 102.597 1.23797 -1.16071 0
M  V30 988 H 101.369 3.07146 -2.4244 0
M  V30 989 H 100.992 3.87112 -0.907216 0
M  V30 990 N 101.989 0.842826 1.3317 0
M  V30 991 C 103.266 0.362216 1.92217 0
M  V30 992 C 103.646 -1.15289 1.76838 0
M  V30 993 O 102.994 -1.96914 1.15919 0
M  V30 994 C 103.204 0.813495 3.39387 0
M  V30 995 C 104.552 0.823804 4.16532 0
M  V30 996 O 105.576 0.757358 3.48055 0
M  V30 997 O 104.435 0.915193 5.38782 0
M  V30 998 H 101.529 0.103317 0.820521 0
M  V30 999 H 104.075 0.928942 1.42017 0
M  V30 1000 H 102.847 1.85624 3.4447 0
M  V30 1001 H 102.47 0.223561 3.96971 0
M  V30 1002 N 103.467 -1.45747 0.599634 0
M  V30 1003 C 104.714 -2.02292 0.0917284 0
M  V30 1004 C 105.042 -1.46906 -1.27472 0
M  V30 1005 O 104.297 -0.630652 -1.8526 0
M  V30 1006 C 104.596 -3.57399 -0.00602758 0
M  V30 1007 C 104.262 -4.31902 1.29503 0
M  V30 1008 C 102.924 -4.51974 1.65144 0
M  V30 1009 C 105.276 -4.74551 2.15525 0
M  V30 1010 C 102.604 -5.11949 2.86574 0
M  V30 1011 C 104.956 -5.35868 3.36196 0
M  V30 1012 C 103.62 -5.54165 3.72099 0
M  V30 1013 H 102.89 -0.740239 0.0335658 0
M  V30 1014 H 105.537 -1.7491 0.779661 0
M  V30 1015 H 103.842 -3.84014 -0.777183 0
M  V30 1016 H 105.539 -3.98846 -0.415038 0
M  V30 1017 H 102.129 -4.16588 1.00761 0
M  V30 1018 H 106.313 -4.58784 1.8929 0
M  V30 1019 H 101.569 -5.24305 3.14507 0
M  V30 1020 H 105.743 -5.6787 4.03109 0
M  V30 1021 H 103.37 -6.00406 4.6628 0
M  V30 1022 N 104.945 -0.338344 -1.53925 0
M  V30 1023 C 106.194 0.260732 -2.00008 0
M  V30 1024 C 106.507 1.52073 -1.23017 0
M  V30 1025 O 107.713 2.19672 -1.5955 0
M  V30 1026 C 106.169 0.51515 -3.56194 0
M  V30 1027 C 105.777 -0.728645 -4.42035 0
M  V30 1028 C 107.521 1.07337 -4.10706 0
M  V30 1029 C 105.428 -0.445315 -5.89721 0
M  V30 1030 H 104.358 0.101205 -0.747177 0
M  V30 1031 H 107.009 -0.452866 -1.77824 0
M  V30 1032 H 105.391 1.28932 -3.74423 0
M  V30 1033 H 106.565 -1.50352 -4.35581 0
M  V30 1034 H 104.88 -1.20813 -3.98489 0
M  V30 1035 H 107.477 1.30022 -5.18651 0
M  V30 1036 H 107.82 2.0273 -3.63602 0
M  V30 1037 H 108.353 0.360034 -3.96167 0
M  V30 1038 H 105.092 -1.36883 -6.41049 0
M  V30 1039 H 104.612 0.291569 -5.99091 0
M  V30 1040 H 106.291 -0.0606218 -6.46972 0
M  V30 1041 N 106.423 1.57458 -0.0668435 0
M  V30 1042 C 107.834 1.80776 0.466558 0
M  V30 1043 C 108.185 0.980361 1.69951 0
M  V30 1044 O 107.31 0.201441 2.1546 0
M  V30 1045 C 107.905 3.27881 0.85321 0
M  V30 1046 C 106.464 3.52062 1.3315 0
M  V30 1047 C 105.611 2.75513 0.314264 0
M  V30 1048 H 108.562 1.5598 -0.292588 0
M  V30 1049 H 108.583 3.39659 1.715 0
M  V30 1050 H 108.095 3.88075 -0.0443439 0
M  V30 1051 H 106.196 2.97167 2.24772 0
M  V30 1052 H 106.309 4.60762 1.31285 0
M  V30 1053 H 104.673 2.42123 0.790492 0
M  V30 1054 H 105.456 3.38442 -0.575477 0
M  V30 1055 N 107.901 -0.206675 1.56239 0
M  V30 1056 C 108.831 -1.25909 1.96645 0
M  V30 1057 C 109.812 -1.48097 0.836734 0
M  V30 1058 O 110.997 -1.6003 1.10019 0
M  V30 1059 C 108.127 -2.6058 2.29599 0
M  V30 1060 C 107.081 -2.53024 3.452 0
M  V30 1061 C 106.407 -3.91861 3.63798 0
M  V30 1062 C 107.707 -2.06524 4.79734 0
M  V30 1063 H 109.401 -0.923369 2.84806 0
M  V30 1064 H 106.947 -0.442735 1.37025 0
M  V30 1065 H 108.9 -3.34375 2.56459 0
M  V30 1066 H 107.624 -2.95869 1.38307 0
M  V30 1067 H 106.283 -1.81684 3.18412 0
M  V30 1068 H 105.931 -4.24483 2.69857 0
M  V30 1069 H 105.631 -3.87683 4.4156 0
M  V30 1070 H 107.155 -4.67296 3.93022 0
M  V30 1071 H 108.569 -2.70072 5.05702 0
M  V30 1072 H 106.966 -2.13374 5.60885 0
M  V30 1073 H 108.036 -1.01802 4.74093 0
M  V30 1074 N 109.379 -1.50304 -0.473955 0
M  V30 1075 C 110.626 -1.6115 -1.22625 0
M  V30 1076 C 110.954 -0.310517 -1.92005 0
M  V30 1077 O 110.209 0.703419 -1.82621 0
M  V30 1078 C 110.508 -2.73938 -2.29549 0
M  V30 1079 C 110.174 -4.14519 -1.7744 0
M  V30 1080 C 108.836 -4.5277 -1.62949 0
M  V30 1081 C 111.188 -5.02392 -1.3875 0
M  V30 1082 C 108.516 -5.76639 -1.08187 0
M  V30 1083 C 110.868 -6.26805 -0.854309 0
M  V30 1084 C 109.532 -6.63861 -0.696011 0
M  V30 1085 H 108.802 -0.589691 -0.448715 0
M  V30 1086 H 111.449 -1.84228 -0.522705 0
M  V30 1087 H 109.754 -2.44937 -3.05799 0
M  V30 1088 H 111.451 -2.79534 -2.87509 0
M  V30 1089 H 108.041 -3.8434 -1.89685 0
M  V30 1090 H 112.225 -4.73474 -1.4878 0
M  V30 1091 H 107.481 -6.04027 -0.946666 0
M  V30 1092 H 111.655 -6.94258 -0.545843 0
M  V30 1093 H 109.282 -7.59722 -0.26952 0
M  V30 1094 N 110.857 0.726932 -1.39834 0
M  V30 1095 C 112.134 1.47902 -1.28001 0
M  V30 1096 C 112.514 2.1083 0.106789 0
M  V30 1097 O 111.862 1.99242 1.11869 0
M  V30 1098 C 112.072 2.52392 -2.41038 0
M  V30 1099 C 113.42 3.18546 -2.80737 0
M  V30 1100 O 114.444 2.62708 -2.40547 0
M  V30 1101 O 113.303 4.19604 -3.50135 0
M  V30 1102 H 110.397 0.657163 -0.502062 0
M  V30 1103 H 112.943 0.760071 -1.51727 0
M  V30 1104 H 111.715 2.04329 -3.33715 0
M  V30 1105 H 111.338 3.31837 -2.19021 0
M  V30 1106 N 112.336 1.25143 0.95797 0
M  V30 1107 C 113.561 1.12521 1.74223 0
M  V30 1108 C 113.986 -0.317402 1.85403 0
M  V30 1109 O 113.344 -1.2299 1.33204 0
M  V30 1110 C 113.392 1.78062 3.1357 0
M  V30 1111 O 112.496 1.058 3.98598 0
M  V30 1112 H 111.837 0.39304 0.535178 0
M  V30 1113 H 114.367 1.65641 1.201 0
M  V30 1114 H 114.377 1.84213 3.64046 0
M  V30 1115 H 113.052 2.83021 3.04749 0
M  V30 1116 H 111.629 1.07506 3.57067 0
M  V30 1117 N 113.814 -1.1601 1.06675 0
M  V30 1118 C 114.744 -2.22688 0.702307 0
M  V30 1119 C 115.725 -1.67306 -0.307032 0
M  V30 1120 O 116.91 -1.93352 -0.181305 0
M  V30 1121 C 114.04 -3.47178 0.092038 0
M  V30 1122 C 112.994 -4.15477 1.02777 0
M  V30 1123 C 112.32 -5.33963 0.28061 0
M  V30 1124 C 113.62 -4.66019 2.35846 0
M  V30 1125 H 115.314 -2.53429 1.59419 0
M  V30 1126 H 112.86 -1.21813 0.767961 0
M  V30 1127 H 114.813 -4.21037 -0.174814 0
M  V30 1128 H 113.537 -3.15749 -0.834877 0
M  V30 1129 H 112.196 -3.43549 1.27944 0
M  V30 1130 H 111.844 -4.98788 -0.649545 0
M  V30 1131 H 111.544 -5.806 0.904258 0
M  V30 1132 H 113.068 -6.10596 0.021396 0
M  V30 1133 H 114.482 -5.3144 2.15045 0
M  V30 1134 H 112.879 -5.23293 2.93743 0
M  V30 1135 H 113.949 -3.82023 2.98641 0
M  V30 1136 N 115.292 -0.849877 -1.32721 0
M  V30 1137 C 116.202 -0.293791 -2.32753 0
M  V30 1138 C 117.218 0.585906 -1.63839 0
M  V30 1139 O 118.394 0.487413 -1.95413 0
M  V30 1140 C 115.459 0.512752 -3.42887 0
M  V30 1141 C 114.52 -0.39252 -4.27502 0
M  V30 1142 C 113.753 0.375625 -5.32377 0
M  V30 1143 O 113.976 1.60613 -5.4732 0
M  V30 1144 O 112.91 -0.256094 -6.01355 0
M  V30 1145 H 116.736 -1.12242 -2.82197 0
M  V30 1146 H 114.321 -0.612685 -1.36259 0
M  V30 1147 H 116.203 0.970704 -4.10067 0
M  V30 1148 H 114.878 1.31826 -2.95641 0
M  V30 1149 H 113.785 -0.898547 -3.63149 0
M  V30 1150 H 115.118 -1.16309 -4.7826 0
M  V30 1151 N 116.77 1.45427 -0.607355 0
M  V30 1152 C 117.68 2.34325 0.113463 0
M  V30 1153 C 118.696 1.51226 0.860617 0
M  V30 1154 O 119.872 1.84029 0.818255 0
M  V30 1155 C 116.937 3.28839 1.09844 0
M  V30 1156 C 115.998 4.27844 0.353271 0
M  V30 1157 C 115.231 5.17842 1.29133 0
M  V30 1158 O 115.454 5.11264 2.52913 0
M  V30 1159 O 114.388 5.96713 0.788523 0
M  V30 1160 H 118.214 2.97364 -0.617094 0
M  V30 1161 H 115.799 1.44807 -0.367619 0
M  V30 1162 H 117.681 3.8708 1.66575 0
M  V30 1163 H 116.356 2.68365 1.81003 0
M  V30 1164 H 115.263 3.7322 -0.256494 0
M  V30 1165 H 116.596 4.91173 -0.317822 0
M  V30 1166 N 118.248 0.346503 1.53744 0
M  V30 1167 C 119.476 -0.25041 2.05379 0
M  V30 1168 C 119.891 -1.43979 1.22129 0
M  V30 1169 O 119.248 -1.80677 0.257321 0
M  V30 1170 C 119.299 -0.662575 3.55376 0
M  V30 1171 O 119.02 0.479515 4.35468 0
M  V30 1172 C 120.521 -1.31989 4.23195 0
M  V30 1173 H 117.741 -0.0478198 0.669294 0
M  V30 1174 H 120.285 0.499346 1.9831 0
M  V30 1175 H 118.44 -1.36227 3.62658 0
M  V30 1176 H 118.854 0.15037 5.24284 0
M  V30 1177 H 120.328 -1.55902 5.29527 0
M  V30 1178 H 120.805 -2.27436 3.75725 0
M  V30 1179 H 121.411 -0.662154 4.20114 0
M  V30 1180 N 119.726 -1.57421 0.075193 0
M  V30 1181 C 120.974 -1.93236 -0.591974 0
M  V30 1182 C 121.295 -0.956241 -1.69944 0
M  V30 1183 O 120.565 -0.00494792 -1.95899 0
M  V30 1184 H 119.145 -0.713355 -0.22166 0
M  V30 1185 H 121.807 -1.9444 0.133848 0
M  V30 1186 H 120.903 -2.95131 -1.01509 0
M  V30 1187 N 121.204 0.198386 -1.56346 0
M  V30 1188 C 122.167 1.22952 -1.93431 0
M  V30 1189 C 123.167 1.38611 -0.815092 0
M  V30 1190 O 124.357 1.36479 -1.08255 0
M  V30 1191 C 121.489 2.59946 -2.20546 0
M  V30 1192 H 122.682 0.912626 -2.85677 0
M  V30 1193 H 120.235 0.43977 -1.49986 0
M  V30 1194 H 120.97 2.96696 -1.30927 0
M  V30 1195 H 120.755 2.49953 -3.02102 0
M  V30 1196 H 122.245 3.3431 -2.50253 0
M  V30 1197 N 122.682 1.50554 0.465978 0
M  V30 1198 C 123.614 1.65949 1.58093 0
M  V30 1199 C 124.627 0.540827 1.53554 0
M  V30 1200 O 125.816 0.814187 1.5885 0
M  V30 1201 C 122.916 1.63261 2.96983 0
M  V30 1202 C 122.089 2.91245 3.26336 0
M  V30 1203 C 121.148 2.8113 4.44806 0
M  V30 1204 O 120.174 3.55086 4.44862 0
M  V30 1205 N 121.376 1.95032 5.46756 0
M  V30 1206 H 124.141 2.62122 1.45301 0
M  V30 1207 H 121.702 1.48082 0.65448 0
M  V30 1208 H 123.694 1.54101 3.74212 0
M  V30 1209 H 122.264 0.748032 3.03518 0
M  V30 1210 H 121.484 3.14493 2.37672 0
M  V30 1211 H 122.772 3.76022 3.42761 0
M  V30 1212 H 122.17 1.3427 5.49534 0
M  V30 1213 H 120.727 1.91772 6.2295 0
M  V30 1214 N 124.16 -0.719506 1.40217 0
M  V30 1215 C 125.408 -1.47641 1.3801 0
M  V30 1216 C 125.729 -1.94992 -0.018145 0
M  V30 1217 O 124.999 -1.70073 -0.972207 0
M  V30 1218 H 123.579 -0.547744 0.507923 0
M  V30 1219 H 126.241 -0.853187 1.75233 0
M  V30 1220 H 125.337 -2.35112 2.05253 0
M  V30 1221 N 125.638 -1.25649 -0.95132 0
M  V30 1222 C 127.054 -1.02542 -1.223 0
M  V30 1223 C 127.254 0.255715 -1.99871 0
M  V30 1224 O 126.31 0.967558 -2.33226 0
M  V30 1225 C 127.623 -2.25065 -1.99415 0
M  V30 1226 C 129.171 -2.29861 -2.12446 0
M  V30 1227 C 129.646 -3.52048 -2.92961 0
M  V30 1228 N 131.137 -3.52465 -3.00538 0
M  V30 1229 C 131.872 -4.43672 -3.63239 0
M  V30 1230 N 131.368 -5.45157 -4.27523 0
M  V30 1231 N 133.161 -4.31346 -3.60412 0
M  V30 1232 H 125.312 -2.07951 -0.432471 0
M  V30 1233 H 127.575 -0.91339 -0.253816 0
M  V30 1234 H 127.281 -3.18194 -1.49817 0
M  V30 1235 H 127.155 -2.28502 -3.00111 0
M  V30 1236 H 129.542 -1.37252 -2.61239 0
M  V30 1237 H 129.623 -2.3044 -1.11044 0
M  V30 1238 H 129.267 -4.44981 -2.44856 0
M  V30 1239 H 129.197 -3.48715 -3.94596 0
M  V30 1240 H 131.688 -2.79056 -2.54826 0
M  V30 1241 H 132.001 -6.10958 -4.73234 0
M  V30 1242 H 130.346 -5.49025 -4.26141 0
M  V30 1243 H 133.537 -3.51288 -3.09377 0
M  V30 1244 H 133.71 -5.02624 -4.0899 0
M  V30 1245 N 127.117 1.15442 -1.07289 0
M  V30 1246 C 128.064 2.20161 -0.692653 0
M  V30 1247 C 129.034 1.63073 0.31564 0
M  V30 1248 O 130.219 1.89725 0.202235 0
M  V30 1249 C 127.359 3.44967 -0.0959509 0
M  V30 1250 C 126.472 4.16256 -1.15564 0
M  V30 1251 C 125.607 5.28609 -0.524011 0
M  V30 1252 C 124.646 5.91715 -1.56653 0
M  V30 1253 N 123.783 6.9554 -0.957531 0
M  V30 1254 H 128.623 2.52037 -1.59002 0
M  V30 1255 H 126.16 1.2378 -0.794798 0
M  V30 1256 H 128.118 4.16341 0.267628 0
M  V30 1257 H 126.748 3.1361 0.764772 0
M  V30 1258 H 125.8 3.43385 -1.6368 0
M  V30 1259 H 127.112 4.59268 -1.94613 0
M  V30 1260 H 126.266 6.06604 -0.108032 0
M  V30 1261 H 125.005 4.86787 0.29825 0
M  V30 1262 H 124.01 5.12433 -1.9923 0
M  V30 1263 H 125.235 6.35614 -2.39107 0
M  V30 1264 H 123.181 6.55814 -0.156162 0
M  V30 1265 H 123.098 7.36977 -1.68526 0
M  V30 1266 H 124.366 7.77435 -0.567032 0
M  V30 1267 N 128.595 0.856903 1.32268 0
M  V30 1268 C 129.841 0.462069 1.97466 0
M  V30 1269 C 130.174 -0.980298 1.67642 0
M  V30 1270 O 129.449 -1.68824 0.965858 0
M  V30 1271 C 129.732 0.704336 3.53145 0
M  V30 1272 C 129.585 2.19529 3.9259 0
M  V30 1273 C 130.904 0.1622 4.39801 0
M  V30 1274 H 128.023 0.169357 0.717278 0
M  V30 1275 H 130.665 1.07574 1.56614 0
M  V30 1276 H 128.815 0.181999 3.88073 0
M  V30 1277 H 130.487 2.78387 3.67829 0
M  V30 1278 H 128.73 2.67292 3.41668 0
M  V30 1279 H 129.401 2.31549 5.01088 0
M  V30 1280 H 131.877 0.608905 4.11621 0
M  V30 1281 H 130.753 0.361265 5.4771 0
M  V30 1282 H 131.014 -0.935158 4.32096 0
M  V30 1283 N 130.073 -1.45103 0.615059 0
M  V30 1284 C 131.036 -2.29025 -0.0895485 0
M  V30 1285 C 132.036 -1.40174 -0.787906 0
M  V30 1286 O 133.226 -1.62217 -0.634933 0
M  V30 1287 C 130.358 -3.21376 -1.13711 0
M  V30 1288 H 131.551 -2.92807 0.648382 0
M  V30 1289 H 129.104 -1.51749 0.374444 0
M  V30 1290 H 129.839 -2.6241 -1.90556 0
M  V30 1291 H 129.624 -3.86834 -0.640475 0
M  V30 1292 H 131.114 -3.84459 -1.63036 0
M  V30 1293 N 131.551 -0.354651 -1.53558 0
M  V30 1294 C 132.791 0.238651 -2.03002 0
M  V30 1295 C 133.155 1.46878 -1.23656 0
M  V30 1296 O 134.356 2.13699 -1.63053 0
M  V30 1297 C 132.627 0.534175 -3.53386 0
M  V30 1298 S 134.186 1.10271 -4.24719 0
M  V30 1299 H 131.004 0.0702908 -0.707517 0
M  V30 1300 H 133.606 -0.494987 -1.8913 0
M  V30 1301 H 132.31 -0.368765 -4.0874 0
M  V30 1302 H 131.841 1.29718 -3.71398 0
M  V30 1303 H 133.856 2.38772 -4.34974 0
M  V30 1304 N 133.029 1.57378 -0.0835403 0
M  V30 1305 C 134.276 1.9393 0.58287 0
M  V30 1306 C 134.604 0.964455 1.68904 0
M  V30 1307 O 133.859 -0.0179474 1.95692 0
M  V30 1308 C 134.158 3.37063 1.1884 0
M  V30 1309 C 133.824 4.50424 0.207194 0
M  V30 1310 C 132.486 4.81159 -0.0627115 0
M  V30 1311 C 134.838 5.19136 -0.463426 0
M  V30 1312 C 132.166 5.77939 -1.01012 0
M  V30 1313 C 134.518 6.16931 -1.39924 0
M  V30 1314 C 133.182 6.46078 -1.67749 0
M  V30 1315 H 132.452 0.70964 0.213287 0
M  V30 1316 H 135.099 1.90856 -0.156916 0
M  V30 1317 H 133.404 3.3666 2.00418 0
M  V30 1318 H 135.101 3.6264 1.71153 0
M  V30 1319 H 131.691 4.2646 0.427747 0
M  V30 1320 H 135.875 4.95576 -0.268034 0
M  V30 1321 H 131.131 5.98842 -1.23283 0
M  V30 1322 H 135.305 6.69273 -1.92476 0
M  V30 1323 H 132.932 7.2088 -2.41321 0
M  V30 1324 N 134.507 -0.190092 1.56449 0
M  V30 1325 C 135.755 -0.907908 1.80559 0
M  V30 1326 C 136.076 -1.83583 0.657438 0
M  V30 1327 O 135.346 -1.93203 -0.323924 0
M  V30 1328 H 133.926 -0.338247 0.666032 0
M  V30 1329 H 136.588 -0.194403 1.93928 0
M  V30 1330 H 135.684 -1.49604 2.73907 0
M  V30 1331 N 135.985 -1.50799 -0.457987 0
M  V30 1332 C 137.225 -1.64088 -1.21879 0
M  V30 1333 C 137.589 -0.339848 -1.88968 0
M  V30 1334 O 138.79 -0.348301 -2.66534 0
M  V30 1335 C 137.061 -2.79726 -2.2246 0
M  V30 1336 S 138.62 -3.13225 -3.07303 0
M  V30 1337 H 135.438 -0.578314 -0.41361 0
M  V30 1338 H 138.04 -1.88632 -0.513645 0
M  V30 1339 H 136.744 -3.72722 -1.71775 0
M  V30 1340 H 136.275 -2.57308 -2.97584 0
M  V30 1341 H 138.29 -2.58062 -4.23814 0
M  V30 1342 N 137.463 0.71206 -1.40597 0
M  V30 1343 C 138.711 1.46907 -1.38791 0
M  V30 1344 C 139.032 1.94998 0.00780391 0
M  V30 1345 O 138.302 1.70587 0.963174 0
M  V30 1346 H 136.882 0.545043 -0.51082 0
M  V30 1347 H 139.544 0.843882 -1.75683 0
M  V30 1348 H 138.64 2.34021 -2.06496 0
M  V30 1349 N 138.941 1.26152 0.944643 0
M  V30 1350 C 140.218 1.02247 1.66748 0
M  V30 1351 C 140.598 -0.448202 2.06287 0
M  V30 1352 O 139.946 -1.42779 1.78399 0
M  V30 1353 C 140.156 1.96788 2.88228 0
M  V30 1354 C 141.504 2.25201 3.59958 0
M  V30 1355 O 142.528 1.94626 2.98327 0
M  V30 1356 O 141.387 2.77242 4.70956 0
M  V30 1357 H 138.481 0.388517 0.730057 0
M  V30 1358 H 141.027 1.37348 0.99668 0
M  V30 1359 H 139.799 2.96047 2.55875 0
M  V30 1360 H 139.422 1.62145 3.63035 0
M  V30 1361 N 140.419 -1.14872 1.07899 0
M  V30 1362 C 141.644 -1.90202 0.826926 0
M  V30 1363 C 142.069 -1.77774 -0.614664 0
M  V30 1364 O 141.427 -1.11431 -1.43013 0
M  V30 1365 C 141.475 -3.38352 1.24702 0
M  V30 1366 O 140.579 -4.10497 0.39575 0
M  V30 1367 H 139.92 -0.591968 0.300782 0
M  V30 1368 H 142.45 -1.45437 1.43907 0
M  V30 1369 H 142.46 -3.89156 1.22563 0
M  V30 1370 H 141.135 -3.46715 2.29698 0
M  V30 1371 H 139.712 -3.69796 0.480117 0
M  V30 1372 N 141.898 -0.863906 -1.31812 0
M  V30 1373 C 143.123 -0.48527 -2.01643 0
M  V30 1374 C 143.548 0.913058 -1.64453 0
M  V30 1375 O 142.906 1.6014 -0.849985 0
M  V30 1376 C 142.954 -0.642625 -3.54828 0
M  V30 1377 O 142.058 0.320659 -4.11151 0
M  V30 1378 H 141.399 -0.193793 -0.635091 0
M  V30 1379 H 143.929 -1.16565 -1.68148 0
M  V30 1380 H 143.939 -0.533628 -4.04495 0
M  V30 1381 H 142.614 -1.66227 -3.81237 0
M  V30 1382 H 141.191 0.167126 -3.72525 0
M  V30 1383 N 143.376 1.44774 -0.622745 0
M  V30 1384 C 144.606 2.06187 -0.130532 0
M  V30 1385 C 145.014 1.46547 1.19669 0
M  V30 1386 O 144.357 0.579636 1.74316 0
M  V30 1387 C 144.419 3.59437 0.0674983 0
M  V30 1388 C 144.083 4.41496 -1.18026 0
M  V30 1389 C 145.08 4.75512 -2.102 0
M  V30 1390 C 142.765 4.82007 -1.41333 0
M  V30 1391 C 144.759 5.48912 -3.23998 0
M  V30 1392 C 142.446 5.55157 -2.55429 0
M  V30 1393 C 143.444 5.88528 -3.46589 0
M  V30 1394 O 143.132 6.60191 -4.58697 0
M  V30 1395 H 142.864 0.672045 -0.0730162 0
M  V30 1396 H 145.418 1.86768 -0.854802 0
M  V30 1397 H 143.648 3.77314 0.846825 0
M  V30 1398 H 145.337 4.02642 0.513209 0
M  V30 1399 H 146.103 4.4476 -1.93425 0
M  V30 1400 H 141.982 4.55457 -0.712709 0
M  V30 1401 H 145.526 5.74877 -3.95174 0
M  V30 1402 H 141.423 5.85324 -2.72151 0
M  V30 1403 H 142.191 6.78654 -4.57571 0
M  V30 1404 N 144.854 0.36279 1.53368 0
M  V30 1405 C 145.764 -0.492994 2.29362 0
M  V30 1406 C 146.78 -1.09507 1.35219 0
M  V30 1407 O 147.956 -1.10662 1.68273 0
M  V30 1408 C 145.021 -1.61855 3.066 0
M  V30 1409 C 144.082 -1.04429 4.16405 0
M  V30 1410 C 143.315 -2.11621 4.89951 0
M  V30 1411 O 143.538 -3.32684 4.63333 0
M  V30 1412 O 142.472 -1.74835 5.75948 0
M  V30 1413 H 146.298 0.125331 3.03441 0
M  V30 1414 H 143.883 0.127253 1.48857 0
M  V30 1415 H 145.765 -2.27302 3.54841 0
M  V30 1416 H 144.44 -2.22233 2.3536 0
M  V30 1417 H 143.347 -0.353819 3.72423 0
M  V30 1418 H 144.68 -0.485113 4.89804 0
M  V30 1419 N 146.332 -1.57332 0.0918853 0
M  V30 1420 C 147.562 -1.98286 -0.580205 0
M  V30 1421 C 147.97 -0.969713 -1.6246 0
M  V30 1422 O 147.313 0.0493501 -1.83634 0
M  V30 1423 C 147.375 -3.35603 -1.28882 0
M  V30 1424 C 147.039 -4.55285 -0.395559 0
M  V30 1425 C 148.036 -5.18687 0.355002 0
M  V30 1426 C 145.721 -5.01314 -0.314556 0
M  V30 1427 C 147.715 -6.26484 1.17458 0
M  V30 1428 C 145.402 -6.08979 0.508677 0
M  V30 1429 C 146.4 -6.71429 1.2519 0
M  V30 1430 O 146.088 -7.77018 2.06151 0
M  V30 1431 H 145.82 -0.656678 -0.160466 0
M  V30 1432 H 148.374 -2.04721 0.16688 0
M  V30 1433 H 146.604 -3.25842 -2.08241 0
M  V30 1434 H 148.293 -3.61026 -1.85512 0
M  V30 1435 H 149.059 -4.84058 0.302134 0
M  V30 1436 H 144.938 -4.5247 -0.882697 0
M  V30 1437 H 148.482 -6.75159 1.75518 0
M  V30 1438 H 144.379 -6.4304 0.563037 0
M  V30 1439 H 145.147 -7.93991 1.98799 0
M  V30 1440 N 147.81 0.181792 -1.56548 0
M  V30 1441 C 149.057 0.900097 -1.81396 0
M  V30 1442 C 149.385 1.82695 -0.667281 0
M  V30 1443 O 148.64 1.92614 0.346146 0
M  V30 1444 C 148.939 1.73728 -3.12335 0
M  V30 1445 C 148.605 0.960255 -4.40556 0
M  V30 1446 C 147.267 0.745766 -4.75386 0
M  V30 1447 C 149.619 0.414477 -5.19549 0
M  V30 1448 C 146.947 -0.0257694 -5.86694 0
M  V30 1449 C 149.299 -0.343916 -6.31664 0
M  V30 1450 C 147.963 -0.569301 -6.65068 0
M  V30 1451 H 147.233 0.329369 -0.663775 0
M  V30 1452 H 149.88 0.165647 -1.90782 0
M  V30 1453 H 148.185 2.54081 -2.98245 0
M  V30 1454 H 149.882 2.29591 -3.28769 0
M  V30 1455 H 146.472 1.13746 -4.13231 0
M  V30 1456 H 150.656 0.567554 -4.93044 0
M  V30 1457 H 145.912 -0.210233 -6.11038 0
M  V30 1458 H 150.086 -0.774133 -6.92084 0
M  V30 1459 H 147.713 -1.16903 -7.51158 0
M  V30 1460 N 149.288 1.51039 0.449983 0
M  V30 1461 C 150.528 1.64732 1.21007 0
M  V30 1462 C 150.892 0.349865 1.88785 0
M  V30 1463 O 152.093 0.362431 2.66345 0
M  V30 1464 C 150.364 2.80902 2.20973 0
M  V30 1465 S 151.923 3.14851 3.05638 0
M  V30 1466 H 148.741 0.5805 0.410538 0
M  V30 1467 H 151.343 1.88901 0.503634 0
M  V30 1468 H 150.047 3.73627 1.69796 0
M  V30 1469 H 149.578 2.58882 2.96215 0
M  V30 1470 H 151.593 2.60306 4.22439 0
M  V30 1471 N 150.766 -0.704594 1.40972 0
M  V30 1472 C 152.014 -1.46169 1.39568 0
M  V30 1473 C 152.335 -1.95 0.00253745 0
M  V30 1474 O 151.605 -1.71095 -0.954114 0
M  V30 1475 H 150.185 -0.542326 0.513704 0
M  V30 1476 H 152.847 -0.834553 1.76128 0
M  V30 1477 H 151.943 -2.32922 2.07735 0
M  V30 1478 N 152.244 -1.26651 -0.937939 0
M  V30 1479 C 153.207 -1.08546 -2.01867 0
M  V30 1480 C 154.207 -0.0327327 -1.60767 0
M  V30 1481 O 155.397 -0.276427 -1.71993 0
M  V30 1482 C 152.529 -0.651711 -3.34613 0
M  V30 1483 H 153.722 -2.04502 -2.1936 0
M  V30 1484 H 151.275 -1.09294 -1.11734 0
M  V30 1485 H 152.01 0.309696 -3.22818 0
M  V30 1486 H 151.795 -1.41189 -3.65798 0
M  V30 1487 H 153.285 -0.546973 -4.14002 0
M  V30 1488 N 153.722 1.14298 -1.08507 0
M  V30 1489 C 154.968 1.85633 -0.816581 0
M  V30 1490 C 155.301 1.82784 0.656021 0
M  V30 1491 O 154.576 1.25926 1.48233 0
M  V30 1492 C 154.859 3.34223 -1.34041 0
M  V30 1493 C 154.712 3.45639 -2.87843 0
M  V30 1494 C 156.031 4.29356 -0.9665 0
M  V30 1495 H 153.15 0.67402 -0.298104 0
M  V30 1496 H 155.792 1.34214 -1.34487 0
M  V30 1497 H 153.942 3.78144 -0.89104 0
M  V30 1498 H 155.614 3.10498 -3.41158 0
M  V30 1499 H 153.857 2.86817 -3.25451 0
M  V30 1500 H 154.528 4.50089 -3.19569 0
M  V30 1501 H 157.004 3.93457 -1.35391 0
M  V30 1502 H 155.88 5.3178 -1.3602 0
M  V30 1503 H 156.141 4.41919 0.126362 0
M  V30 1504 N 155.201 0.870884 1.31352 0
M  V30 1505 C 156.478 0.402907 1.91405 0
M  V30 1506 C 156.858 -1.11512 1.79244 0
M  V30 1507 O 156.206 -1.94411 1.2007 0
M  V30 1508 C 156.416 0.885301 3.37585 0
M  V30 1509 C 157.764 0.911971 4.14691 0
M  V30 1510 O 158.788 0.831016 3.46371 0
M  V30 1511 O 157.647 1.02927 5.3672 0
M  V30 1512 H 154.741 0.120698 0.818145 0
M  V30 1513 H 157.287 0.958857 1.40014 0
M  V30 1514 H 156.059 1.92889 3.40455 0
M  V30 1515 H 155.682 0.307714 3.96407 0
M  V30 1516 N 156.679 -1.44442 0.630414 0
M  V30 1517 C 157.642 -2.29107 -0.0652523 0
M  V30 1518 C 158.642 -1.41002 -0.772995 0
M  V30 1519 O 159.832 -1.62881 -0.617692 0
M  V30 1520 C 156.964 -3.22564 -1.10296 0
M  V30 1521 H 158.157 -2.92103 0.679401 0
M  V30 1522 H 155.71 -1.51343 0.390517 0
M  V30 1523 H 156.445 -2.64416 -1.87762 0
M  V30 1524 H 156.23 -3.87491 -0.59941 0
M  V30 1525 H 157.72 -3.86167 -1.5895 0
M  V30 1526 N 158.157 -0.370918 -1.53173 0
M  V30 1527 C 159.406 0.218249 -2.00516 0
M  V30 1528 C 159.719 1.49429 -1.26215 0
M  V30 1529 O 160.925 2.16239 -1.64174 0
M  V30 1530 C 159.381 0.43948 -3.57207 0
M  V30 1531 C 158.989 -0.822244 -4.4039 0
M  V30 1532 C 160.733 0.986012 -4.1289 0
M  V30 1533 C 158.64 -0.570304 -5.88644 0
M  V30 1534 H 157.57 0.0853333 -0.749156 0
M  V30 1535 H 160.221 -0.490483 -1.76823 0
M  V30 1536 H 158.603 1.20961 -3.77074 0
M  V30 1537 H 159.777 -1.59557 -4.32294 0
M  V30 1538 H 158.092 -1.29238 -3.95836 0
M  V30 1539 H 160.689 1.18991 -5.21292 0
M  V30 1540 H 161.032 1.94972 -3.6782 0
M  V30 1541 H 161.565 0.27592 -3.96842 0
M  V30 1542 H 158.304 -1.50449 -6.38001 0
M  V30 1543 H 157.824 0.164427 -5.99575 0
M  V30 1544 H 159.503 -0.19784 -6.46697 0
M  V30 1545 N 159.635 1.57281 -0.100228 0
M  V30 1546 C 160.545 2.17833 0.870965 0
M  V30 1547 C 161.561 1.14921 1.30649 0
M  V30 1548 O 162.737 1.47313 1.37335 0
M  V30 1549 C 159.802 2.75085 2.1102 0
M  V30 1550 C 158.863 3.9297 1.72838 0
M  V30 1551 C 158.096 4.47482 2.90854 0
M  V30 1552 O 158.319 4.00922 4.05731 0
M  V30 1553 O 157.253 5.38433 2.69023 0
M  V30 1554 H 161.079 3.0124 0.38575 0
M  V30 1555 H 158.664 1.48881 0.124397 0
M  V30 1556 H 160.546 3.11656 2.83634 0
M  V30 1557 H 159.221 1.94721 2.58584 0
M  V30 1558 H 158.128 3.61201 0.973883 0
M  V30 1559 H 159.461 4.74713 1.30033 0
M  V30 1560 N 161.113 -0.173488 1.56642 0
M  V30 1561 C 162.023 -1.23482 1.99473 0
M  V30 1562 C 163.039 -1.48567 0.905752 0
M  V30 1563 O 164.215 -1.60758 1.21321 0
M  V30 1564 C 161.28 -2.55444 2.34413 0
M  V30 1565 C 160.341 -2.38241 3.57127 0
M  V30 1566 C 159.574 -3.63909 3.90392 0
M  V30 1567 O 159.797 -4.68996 3.24653 0
M  V30 1568 O 158.731 -3.58149 4.83749 0
M  V30 1569 H 162.557 -0.901279 2.90018 0
M  V30 1570 H 160.142 -0.380185 1.44482 0
M  V30 1571 H 162.024 -3.33292 2.57865 0
M  V30 1572 H 160.699 -2.88382 1.4703 0
M  V30 1573 H 159.606 -1.58431 3.38896 0
M  V30 1574 H 160.939 -2.10228 4.45045 0
M  V30 1575 N 162.591 -1.51276 -0.441967 0
M  V30 1576 C 163.538 -1.72256 -1.53612 0
M  V30 1577 C 164.508 -0.564164 -1.56225 0
M  V30 1578 O 165.693 -0.798074 -1.73307 0
M  V30 1579 C 162.833 -1.84932 -2.91366 0
M  V30 1580 C 161.946 -3.12459 -2.98317 0
M  V30 1581 C 161.081 -3.15758 -4.27166 0
M  V30 1582 C 160.12 -4.37619 -4.27967 0
M  V30 1583 N 159.257 -4.38493 -5.48333 0
M  V30 1584 H 164.097 -2.65654 -1.35026 0
M  V30 1585 H 161.634 -1.31662 -0.656009 0
M  V30 1586 H 163.592 -1.90263 -3.7129 0
M  V30 1587 H 162.222 -0.949461 -3.08521 0
M  V30 1588 H 161.274 -3.1646 -2.11086 0
M  V30 1589 H 162.586 -4.02382 -2.94771 0
M  V30 1590 H 161.74 -3.19979 -5.15459 0
M  V30 1591 H 160.479 -2.23715 -4.33362 0
M  V30 1592 H 159.484 -4.33579 -3.38067 0
M  V30 1593 H 160.709 -5.30921 -4.23438 0
M  V30 1594 H 158.655 -3.49318 -5.55259 0
M  V30 1595 H 158.572 -5.22219 -5.46647 0
M  V30 1596 H 159.84 -4.469 -6.38671 0
M  V30 1597 N 164.069 0.697108 -1.41344 0
M  V30 1598 C 164.999 1.82353 -1.45841 0
M  V30 1599 C 165.98 1.67115 -0.317247 0
M  V30 1600 O 167.165 1.86871 -0.528474 0
M  V30 1601 C 164.295 3.20476 -1.33838 0
M  V30 1602 C 163.249 3.50415 -2.4575 0
M  V30 1603 C 162.575 4.87878 -2.18813 0
M  V30 1604 C 163.875 3.49546 -3.88091 0
M  V30 1605 H 165.569 1.78846 -2.40113 0
M  V30 1606 H 163.115 0.859028 -1.15571 0
M  V30 1607 H 165.068 3.98988 -1.35596 0
M  V30 1608 H 163.792 3.24604 -0.360498 0
M  V30 1609 H 162.451 2.74253 -2.43271 0
M  V30 1610 H 162.099 4.8863 -1.19371 0
M  V30 1611 H 161.799 5.08875 -2.93803 0
M  V30 1612 H 163.323 5.68702 -2.22284 0
M  V30 1613 H 164.737 4.18066 -3.92293 0
M  V30 1614 H 163.134 3.82075 -4.62751 0
M  V30 1615 H 164.204 2.48552 -4.16353 0
M  V30 1616 N 165.547 1.27147 0.931209 0
M  V30 1617 C 166.494 1.09568 2.03134 0
M  V30 1618 C 167.464 -0.00222433 1.661 0
M  V30 1619 O 168.649 0.159439 1.90133 0
M  V30 1620 C 165.789 0.745231 3.36957 0
M  V30 1621 C 164.902 1.92041 3.86968 0
M  V30 1622 C 164.037 1.51216 5.09222 0
M  V30 1623 C 163.076 2.65504 5.5152 0
M  V30 1624 N 162.213 2.25291 6.64972 0
M  V30 1625 H 167.053 2.03708 2.17502 0
M  V30 1626 H 164.59 1.01411 1.06556 0
M  V30 1627 H 166.548 0.522878 4.1391 0
M  V30 1628 H 165.178 -0.159202 3.22407 0
M  V30 1629 H 164.23 2.25541 3.06326 0
M  V30 1630 H 165.542 2.77787 4.1429 0
M  V30 1631 H 164.696 1.25084 5.93666 0
M  V30 1632 H 163.435 0.625749 4.83669 0
M  V30 1633 H 162.44 2.92354 4.65628 0
M  V30 1634 H 163.665 3.54761 5.7907 0
M  V30 1635 H 161.611 1.39098 6.41083 0
M  V30 1636 H 161.528 3.04577 6.91931 0
M  V30 1637 H 162.796 2.02398 7.52765 0
M  V30 1638 N 167.025 -1.13721 1.09112 0
M  V30 1639 C 167.973 -2.21103 0.722219 0
M  V30 1640 C 168.967 -1.67147 -0.275374 0
M  V30 1641 O 170.173 -1.79477 -0.137176 0
M  V30 1642 H 166.548 -0.720445 0.215553 0
M  V30 1643 H 168.519 -2.49483 1.63709 0
M  V30 1644 C 167.268 -3.47352 0.15543 0
M  V30 1645 H 166.591 -3.89206 0.914246 0
M  V30 1646 H 168.031 -4.2395 -0.0647967 0
M  V30 1647 C 166.49 -3.1814 -1.10852 0
M  V30 1648 O 167.02 -3.36604 -2.19227 0
M  V30 1649 N 165.226 -2.72045 -1.02176 0
M  V30 1650 H 164.773 -2.57221 -0.139764 0
M  V30 1651 H 164.731 -2.52875 -1.8682 0
M  V30 1652 N 168.503 -0.877838 -1.30888 0
M  V30 1653 C 169.433 -0.35534 -2.3078 0
M  V30 1654 C 170.414 0.557994 -1.60687 0
M  V30 1655 O 171.599 0.473355 -1.88343 0
M  V30 1656 C 168.729 0.437221 -3.44537 0
M  V30 1657 C 167.683 -0.383715 -4.26276 0
M  V30 1658 C 167.009 0.535014 -5.32017 0
M  V30 1659 C 168.309 -1.62201 -4.96476 0
M  V30 1660 H 170.003 -1.19007 -2.74732 0
M  V30 1661 H 167.549 -0.573698 -1.32078 0
M  V30 1662 H 169.502 0.813334 -4.13477 0
M  V30 1663 H 168.226 1.30553 -2.99372 0
M  V30 1664 H 166.885 -0.741874 -3.59015 0
M  V30 1665 H 166.533 1.40083 -4.831 0
M  V30 1666 H 166.233 -0.0104211 -5.87599 0
M  V30 1667 H 167.757 0.907799 -6.03814 0
M  V30 1668 H 169.171 -1.31689 -5.5797 0
M  V30 1669 H 167.568 -2.10711 -5.61891 0
M  V30 1670 H 168.638 -2.37044 -4.23011 0
M  V30 1671 N 169.982 1.44106 -0.638065 0
M  V30 1672 C 171.23 2.01579 -0.145043 0
M  V30 1673 C 171.551 1.50496 1.24 0
M  V30 1674 O 170.821 0.711374 1.82527 0
M  V30 1675 H 169.401 0.745282 -0.05063 0
M  V30 1676 H 172.063 1.76516 -0.826327 0
M  V30 1677 H 171.159 3.11877 -0.118039 0
M  V30 1678 N 171.46 0.379036 1.52974 0
M  V30 1679 C 172.423 -0.448865 2.24762 0
M  V30 1680 C 173.423 -0.998689 1.26027 0
M  V30 1681 O 174.613 -0.882313 1.50203 0
M  V30 1682 C 171.745 -1.62872 2.99476 0
M  V30 1683 H 172.938 0.179491 2.99362 0
M  V30 1684 H 170.491 0.13096 1.5575 0
M  V30 1685 H 171.226 -2.29479 2.29151 0
M  V30 1686 H 171.011 -1.24128 3.71934 0
M  V30 1687 H 172.501 -2.2151 3.5401 0
M  V30 1688 N 172.938 -1.57226 0.108567 0
M  V30 1689 C 173.848 -2.18292 -0.859401 0
M  V30 1690 C 174.864 -1.15612 -1.30038 0
M  V30 1691 O 176.04 -1.48039 -1.36552 0
M  V30 1692 C 173.105 -2.762 -2.09558 0
M  V30 1693 C 172.166 -3.93881 -1.70752 0
M  V30 1694 C 171.399 -4.49018 -2.88477 0
M  V30 1695 O 171.622 -4.03068 -4.036 0
M  V30 1696 O 170.556 -5.39852 -2.66164 0
M  V30 1697 H 174.382 -3.01441 -0.369769 0
M  V30 1698 H 171.967 -1.48945 -0.1165 0
M  V30 1699 H 173.849 -3.13156 -2.81978 0
M  V30 1700 H 172.524 -1.96089 -2.57548 0
M  V30 1701 H 171.431 -3.61713 -0.954714 0
M  V30 1702 H 172.764 -4.75396 -1.27513 0
M  V30 1703 N 174.416 0.165178 -1.56732 0
M  V30 1704 C 175.665 0.879143 -1.81532 0
M  V30 1705 C 175.978 1.83144 -0.686842 0
M  V30 1706 O 177.184 2.58823 -0.819944 0
M  V30 1707 C 175.64 1.61388 -3.21686 0
M  V30 1708 C 175.248 0.704904 -4.4242 0
M  V30 1709 C 176.992 2.3157 -3.55774 0
M  V30 1710 C 174.899 1.44022 -5.73595 0
M  V30 1711 H 173.829 0.332033 -0.676957 0
M  V30 1712 H 176.48 0.132008 -1.83025 0
M  V30 1713 H 174.862 2.40599 -3.14529 0
M  V30 1714 H 176.036 -0.0506815 -4.60772 0
M  V30 1715 H 174.351 0.112419 -4.16248 0
M  V30 1716 H 176.948 2.8719 -4.51028 0
M  V30 1717 H 177.291 3.07201 -2.8095 0
M  V30 1718 H 177.824 1.59297 -3.64513 0
M  V30 1719 H 174.563 0.72612 -6.51466 0
M  V30 1720 H 174.083 2.16898 -5.5921 0
M  V30 1721 H 175.762 1.98606 -6.15764 0
M  V30 1722 N 175.894 1.51508 0.433938 0
M  V30 1723 C 177.14 1.64588 1.18484 0
M  V30 1724 C 177.473 0.362666 1.90784 0
M  V30 1725 O 176.748 -0.637892 1.83742 0
M  V30 1726 C 177.031 2.85149 2.19913 0
M  V30 1727 C 176.884 4.23456 1.51674 0
M  V30 1728 C 178.203 3.01227 3.20858 0
M  V30 1729 H 175.322 0.598994 0.429389 0
M  V30 1730 H 177.964 1.84002 0.473647 0
M  V30 1731 H 176.114 2.68729 2.80566 0
M  V30 1732 H 177.786 4.51552 0.943322 0
M  V30 1733 H 176.029 4.25998 0.819035 0
M  V30 1734 H 176.7 5.03812 2.2556 0
M  V30 1735 H 179.176 3.16382 2.70263 0
M  V30 1736 H 178.052 3.87141 3.89118 0
M  V30 1737 H 178.313 2.13447 3.8716 0
M  V30 1738 N 177.372 -0.689602 1.41712 0
M  V30 1739 C 178.304 -1.815 1.39966 0
M  V30 1740 C 179.317 -1.59995 0.300917 0
M  V30 1741 O 180.506 -1.69387 0.563039 0
M  V30 1742 C 177.606 -3.18364 1.16179 0
M  V30 1743 C 176.779 -3.66847 2.38206 0
M  V30 1744 C 175.838 -4.82398 2.10186 0
M  V30 1745 O 174.864 -4.93706 2.83272 0
M  V30 1746 N 176.066 -5.70064 1.0958 0
M  V30 1747 H 178.831 -1.83488 2.36965 0
M  V30 1748 H 176.392 -0.872149 1.36401 0
M  V30 1749 H 178.384 -3.93301 0.953756 0
M  V30 1750 H 176.954 -3.11365 0.27756 0
M  V30 1751 H 176.174 -2.82751 2.74673 0
M  V30 1752 H 177.462 -3.95978 3.19498 0
M  V30 1753 H 176.86 -5.63565 0.491019 0
M  V30 1754 H 175.417 -6.44874 0.947656 0
M  V30 1755 N 178.85 -1.27639 -0.924453 0
M  V30 1756 C 180.127 -1.04887 -1.651 0
M  V30 1757 C 180.507 0.415327 -2.06974 0
M  V30 1758 O 179.855 1.39923 -1.80648 0
M  V30 1759 C 180.065 -2.01348 -2.85061 0
M  V30 1760 C 181.413 -2.30899 -3.56329 0
M  V30 1761 O 182.437 -1.99348 -2.95193 0
M  V30 1762 O 181.296 -2.84699 -4.66485 0
M  V30 1763 H 178.39 -0.400083 -0.723784 0
M  V30 1764 H 180.936 -1.38916 -0.974703 0
M  V30 1765 H 179.708 -3.0008 -2.51133 0
M  V30 1766 H 179.331 -1.679 -3.6041 0
M  V30 1767 N 180.328 1.1314 -1.09713 0
M  V30 1768 C 181.576 1.84119 -0.833338 0
M  V30 1769 C 181.897 1.84097 0.642904 0
M  V30 1770 O 181.167 1.29881 1.46655 0
M  V30 1771 H 179.747 0.681766 -0.305293 0
M  V30 1772 H 182.409 1.37038 -1.38588 0
M  V30 1773 H 181.505 2.88543 -1.18951 0
M  V30 1774 N 181.806 0.884767 1.30421 0
M  V30 1775 C 182.736 0.367574 2.30589 0
M  V30 1776 C 183.717 -0.549464 1.60981 0
M  V30 1777 O 184.902 -0.46336 1.88591 0
M  V30 1778 C 182.032 -0.418944 3.44764 0
M  V30 1779 C 180.986 0.406316 4.26067 0
M  V30 1780 C 180.312 -0.506793 5.32293 0
M  V30 1781 C 181.612 1.64832 4.95608 0
M  V30 1782 H 183.306 1.20462 2.74097 0
M  V30 1783 H 180.852 0.580695 1.31772 0
M  V30 1784 H 182.805 -0.791395 4.13902 0
M  V30 1785 H 181.529 -1.28964 3.0006 0
M  V30 1786 H 180.188 0.760903 3.58617 0
M  V30 1787 H 179.836 -1.37519 4.83836 0
M  V30 1788 H 179.536 0.0415828 5.87585 0
M  V30 1789 H 181.06 -0.875764 6.04287 0
M  V30 1790 H 182.474 1.34646 5.57264 0
M  V30 1791 H 180.871 2.13688 5.60765 0
M  V30 1792 H 181.941 2.39284 4.21748 0
M  V30 1793 N 183.284 -1.43765 0.645699 0
M  V30 1794 C 184.7 -1.56509 0.312591 0
M  V30 1795 C 184.9 -1.6307 -1.18365 0
M  V30 1796 O 183.956 -1.58167 -1.96824 0
M  V30 1797 C 185.269 -2.82968 1.01733 0
M  V30 1798 C 186.817 -2.96701 0.996865 0
M  V30 1799 C 187.292 -4.25982 1.68236 0
M  V30 1800 N 188.783 -4.32829 1.64964 0
M  V30 1801 C 189.518 -5.31613 2.14885 0
M  V30 1802 N 189.014 -6.36718 2.73061 0
M  V30 1803 N 190.807 -5.23217 2.05428 0
M  V30 1804 H 182.958 -1.3775 1.61675 0
M  V30 1805 H 185.221 -0.661067 0.679481 0
M  V30 1806 H 184.927 -2.84156 2.0724 0
M  V30 1807 H 184.801 -3.72957 0.564177 0
M  V30 1808 H 187.188 -2.95058 -0.0497719 0
M  V30 1809 H 187.269 -2.08022 1.48865 0
M  V30 1810 H 186.913 -4.28386 2.72852 0
M  V30 1811 H 186.843 -5.13545 1.16529 0
M  V30 1812 H 189.334 -3.57493 1.22503 0
M  V30 1813 H 189.647 -7.08401 3.08848 0
M  V30 1814 H 187.992 -6.37362 2.77118 0
M  V30 1815 H 191.183 -4.40019 1.59689 0
M  V30 1816 H 191.356 -6.00045 2.44643 0
M  V30 1817 N 184.763 -0.387143 -1.52771 0
M  V30 1818 C 186.012 0.19697 -2.00736 0
M  V30 1819 C 186.325 1.48082 -1.27793 0
M  V30 1820 O 187.531 2.14485 -1.66458 0
M  V30 1821 C 185.987 0.401568 -3.57653 0
M  V30 1822 C 185.595 -0.868907 -4.39493 0
M  V30 1823 C 187.339 0.942164 -4.13912 0
M  V30 1824 C 185.246 -0.632705 -5.88006 0
M  V30 1825 H 184.176 0.0773827 -0.750019 0
M  V30 1826 H 186.827 -0.50921 -1.76293 0
M  V30 1827 H 185.209 1.16954 -3.78335 0
M  V30 1828 H 186.383 -1.64133 -4.30577 0
M  V30 1829 H 184.698 -1.33429 -3.94443 0
M  V30 1830 H 187.295 1.13455 -5.22525 0
M  V30 1831 H 187.638 1.9106 -3.69867 0
M  V30 1832 H 188.171 0.233814 -3.97112 0
M  V30 1833 H 184.91 -1.57208 -6.36369 0
M  V30 1834 H 184.43 0.100825 -5.99715 0
M  V30 1835 H 186.109 -0.26642 -6.46451 0
M  V30 1836 N 186.241 1.57166 -0.116904 0
M  V30 1837 C 187.518 1.86645 0.585049 0
M  V30 1838 C 187.898 1.0177 1.84949 0
M  V30 1839 O 187.246 0.0960379 2.28298 0
M  V30 1840 C 187.456 3.37736 0.879507 0
M  V30 1841 C 188.804 4.06289 1.23348 0
M  V30 1842 O 189.828 3.42743 0.969836 0
M  V30 1843 O 188.687 5.18455 1.7282 0
M  V30 1844 H 185.781 0.772593 0.295007 0
M  V30 1845 H 188.327 1.69025 -0.151249 0
M  V30 1846 H 187.099 3.91296 -0.0166136 0
M  V30 1847 H 186.722 3.6078 1.67103 0
M  V30 1848 N 187.719 -0.156864 1.56817 0
M  V30 1849 C 188.967 -0.869404 1.82444 0
M  V30 1850 C 189.288 -1.82147 0.69623 0
M  V30 1851 O 188.558 -1.93847 -0.28287 0
M  V30 1852 H 187.138 -0.324043 0.673056 0
M  V30 1853 H 189.8 -0.153224 1.94297 0
M  V30 1854 H 188.896 -1.43761 2.77019 0
M  V30 1855 N 189.197 -1.51736 -0.425897 0
M  V30 1856 C 190.474 -1.55519 -1.1863 0
M  V30 1857 C 190.854 -0.326219 -2.08564 0
M  V30 1858 O 190.202 0.688012 -2.17896 0
M  V30 1859 C 190.412 -2.87521 -1.9782 0
M  V30 1860 C 191.76 -3.39899 -2.54468 0
M  V30 1861 O 192.784 -2.89148 -2.08019 0
M  V30 1862 O 191.643 -4.2848 -3.39215 0
M  V30 1863 H 188.737 -0.625739 -0.540721 0
M  V30 1864 H 191.283 -1.64055 -0.434038 0
M  V30 1865 H 190.055 -3.68422 -1.31836 0
M  V30 1866 H 189.678 -2.822 -2.80088 0
M  V30 1867 N 190.675 0.682077 -1.42076 0
M  V30 1868 C 192.086 1.26246 -1.37546 0
M  V30 1869 C 192.437 1.96092 -0.0651481 0
M  V30 1870 O 191.562 1.99587 0.836297 0
M  V30 1871 C 192.157 2.29594 -2.49143 0
M  V30 1872 C 190.716 2.83175 -2.47969 0
M  V30 1873 C 189.863 1.57395 -2.28303 0
M  V30 1874 H 192.814 0.475937 -1.51395 0
M  V30 1875 H 192.835 3.11175 -2.18976 0
M  V30 1876 H 192.347 1.78729 -3.44496 0
M  V30 1877 H 190.448 3.3818 -1.56413 0
M  V30 1878 H 190.561 3.32687 -3.44755 0
M  V30 1879 H 188.925 1.83699 -1.76428 0
M  V30 1880 H 189.708 1.08507 -3.25701 0
M  V30 1881 N 192.153 1.28127 0.917671 0
M  V30 1882 C 193.569 1.05749 1.19538 0
M  V30 1883 C 193.769 -0.202633 2.00479 0
M  V30 1884 O 192.825 -0.905382 2.3571 0
M  V30 1885 C 194.138 2.30273 1.93378 0
M  V30 1886 C 195.686 2.35412 2.06277 0
M  V30 1887 C 196.161 3.59692 2.83524 0
M  V30 1888 N 197.652 3.60309 2.91087 0
M  V30 1889 C 198.387 4.53147 3.51348 0
M  V30 1890 N 197.883 5.563 4.12919 0
M  V30 1891 N 199.676 4.40751 3.48849 0
M  V30 1892 H 191.827 2.09024 0.377184 0
M  V30 1893 H 194.09 0.919798 0.22951 0
M  V30 1894 H 193.796 3.22055 1.41328 0
M  V30 1895 H 193.67 2.36378 2.93947 0
M  V30 1896 H 196.057 1.4413 2.57508 0
M  V30 1897 H 196.138 2.33304 1.04895 0
M  V30 1898 H 195.782 4.51316 2.32973 0
M  V30 1899 H 195.712 3.59054 3.85211 0
M  V30 1900 H 198.203 2.85714 2.47338 0
M  V30 1901 H 198.516 6.2329 4.56869 0
M  V30 1902 H 196.861 5.60131 4.11435 0
M  V30 1903 H 200.052 3.59367 2.99955 0
M  V30 1904 H 200.225 5.13291 3.9552 0
M  V30 1905 N 193.631 -1.12557 1.10312 0
M  V30 1906 C 194.594 -2.16434 0.75424 0
M  V30 1907 C 195.594 -1.59278 -0.220685 0
M  V30 1908 O 196.784 -1.742 0.00230591 0
M  V30 1909 C 193.916 -3.40699 0.116987 0
M  V30 1910 H 195.109 -2.48811 1.67431 0
M  V30 1911 H 192.662 -1.27542 0.903475 0
M  V30 1912 H 193.397 -3.13921 -0.813877 0
M  V30 1913 H 193.182 -3.83459 0.818613 0
M  V30 1914 H 194.672 -4.17451 -0.111387 0
M  V30 1915 N 195.109 -0.891671 -1.2995 0
M  V30 1916 C 196.072 -0.36828 -2.26222 0
M  V30 1917 C 197.072 0.493014 -1.53056 0
M  V30 1918 O 198.262 0.299213 -1.71611 0
M  V30 1919 C 195.394 0.47442 -3.37583 0
M  V30 1920 H 196.587 -1.21844 -2.74033 0
M  V30 1921 H 194.14 -0.669107 -1.41254 0
M  V30 1922 H 194.875 1.34489 -2.95099 0
M  V30 1923 H 194.66 -0.142615 -3.91841 0
M  V30 1924 H 196.15 0.83218 -4.09224 0
M  V30 1925 N 196.587 1.43421 -0.653314 0
M  V30 1926 C 198.003 1.56341 -0.320886 0
M  V30 1927 C 198.203 1.63696 1.17499 0
M  V30 1928 O 197.259 1.59208 1.95982 0
M  V30 1929 C 198.572 2.82424 -1.03233 0
M  V30 1930 C 200.12 2.96168 -1.01259 0
M  V30 1931 C 200.595 4.25084 -1.70492 0
M  V30 1932 N 202.086 4.31948 -1.67257 0
M  V30 1933 C 202.821 5.30466 -2.17701 0
M  V30 1934 N 202.317 6.35261 -2.76434 0
M  V30 1935 N 204.11 5.2212 -2.082 0
M  V30 1936 H 196.261 1.3689 -1.62403 0
M  V30 1937 H 198.524 0.657455 -0.682977 0
M  V30 1938 H 198.23 2.83053 -2.08744 0
M  V30 1939 H 198.104 3.72653 -0.583948 0
M  V30 1940 H 200.491 2.9508 0.0341235 0
M  V30 1941 H 200.572 2.07229 -1.49966 0
M  V30 1942 H 200.216 4.26932 -2.7512 0
M  V30 1943 H 200.146 5.1292 -1.19251 0
M  V30 1944 H 202.637 3.56838 -1.24398 0
M  V30 1945 H 202.95 7.06754 -3.12601 0
M  V30 1946 H 201.295 6.35884 -2.80495 0
M  V30 1947 H 204.486 4.39166 -1.62021 0
M  V30 1948 H 204.659 5.98739 -2.47822 0
M  V30 1949 N 198.065 0.39524 1.52563 0
M  V30 1950 C 199.342 -0.242908 1.94086 0
M  V30 1951 C 199.722 -1.63841 1.33114 0
M  V30 1952 O 199.07 -2.22928 0.501529 0
M  V30 1953 C 199.28 -0.26327 3.48006 0
M  V30 1954 C 200.628 -0.489354 4.21771 0
M  V30 1955 O 201.652 -0.343226 3.54543 0
M  V30 1956 O 200.511 -0.776169 5.4096 0
M  V30 1957 H 197.605 -0.152536 0.812811 0
M  V30 1958 H 200.151 0.450178 1.6362 0
M  V30 1959 H 198.923 0.713985 3.84731 0
M  V30 1960 H 198.546 -1.00103 3.84792 0
M  V30 1961 N 199.544 -1.57102 0.125237 0
M  V30 1962 C 200.821 -1.86953 -0.575142 0
M  V30 1963 C 201.201 -1.02749 -1.84407 0
M  V30 1964 O 200.549 -0.108144 -2.28244 0
M  V30 1965 C 200.759 -3.38198 -0.861583 0
M  V30 1966 C 202.107 -4.06937 -1.21192 0
M  V30 1967 O 203.131 -3.43252 -0.951645 0
M  V30 1968 O 201.99 -5.19364 -1.70068 0
M  V30 1969 H 199.084 -0.774147 -0.290906 0
M  V30 1970 H 201.63 -1.68942 0.160211 0
M  V30 1971 H 200.402 -3.91282 0.0373647 0
M  V30 1972 H 200.025 -3.61661 -1.65188 0
M  V30 1973 N 201.022 0.148545 -1.56898 0
M  V30 1974 C 202.271 0.85984 -1.82454 0
M  V30 1975 C 202.584 1.82406 -0.706229 0
M  V30 1976 O 203.79 2.57938 -0.847349 0
M  V30 1977 C 202.246 1.57967 -3.2338 0
M  V30 1978 C 201.854 0.65794 -4.43142 0
M  V30 1979 C 203.598 2.27784 -3.58211 0
M  V30 1980 C 201.505 1.3793 -5.75091 0
M  V30 1981 H 200.435 0.324834 -0.68044 0
M  V30 1982 H 203.086 0.112588 -1.83154 0
M  V30 1983 H 201.468 2.37249 -3.17063 0
M  V30 1984 H 202.642 -0.0995497 -4.60692 0
M  V30 1985 H 200.957 0.0682643 -4.16344 0
M  V30 1986 H 203.554 2.8239 -4.54048 0
M  V30 1987 H 203.897 3.04204 -2.84193 0
M  V30 1988 H 204.43 1.55421 -3.66182 0
M  V30 1989 H 201.169 0.656982 -6.52199 0
M  V30 1990 H 200.689 2.10954 -5.61479 0
M  V30 1991 H 202.368 1.92063 -6.17835 0
M  V30 1992 N 202.5 1.5196 0.417844 0
M  V30 1993 C 203.746 1.65836 1.16732 0
M  V30 1994 C 204.079 0.382881 1.90388 0
M  V30 1995 O 203.354 -0.618368 1.84408 0
M  V30 1996 C 203.637 2.87466 2.16876 0
M  V30 1997 C 203.49 4.25041 1.47174 0
M  V30 1998 C 204.809 3.04613 3.17646 0
M  V30 1999 H 201.928 0.603515 0.423011 0
M  V30 2000 H 204.57 1.84494 0.454105 0
M  V30 2001 H 202.72 2.71689 2.777 0
M  V30 2002 H 204.392 4.52527 0.895376 0
M  V30 2003 H 202.635 4.26843 0.773806 0
M  V30 2004 H 203.306 5.06176 2.20204 0
M  V30 2005 H 205.782 3.1923 2.66892 0
M  V30 2006 H 204.658 3.91247 3.8499 0
M  V30 2007 H 204.919 2.17541 3.84874 0
M  V30 2008 N 203.978 -0.674533 1.42435 0
M  V30 2009 C 205.226 -1.43175 1.42637 0
M  V30 2010 C 205.547 -1.94951 0.0438992 0
M  V30 2011 O 204.817 -1.7308 -0.917607 0
M  V30 2012 H 203.397 -0.531307 0.525092 0
M  V30 2013 H 206.059 -0.797006 1.77859 0
M  V30 2014 H 205.155 -2.28463 2.12629 0
M  V30 2015 N 205.456 -1.28612 -0.910864 0
M  V30 2016 C 206.702 -1.17116 -1.66299 0
M  V30 2017 C 207.057 0.276917 -1.90397 0
M  V30 2018 O 206.35 1.19795 -1.49532 0
M  V30 2019 C 206.544 -1.90624 -3.0232 0
M  V30 2020 C 206.373 -3.42431 -2.91498 0
M  V30 2021 C 205.143 -4.11773 -2.92867 0
M  V30 2022 C 207.341 -4.38124 -2.69355 0
M  V30 2023 N 205.323 -5.50025 -2.72664 0
M  V30 2024 C 206.694 -5.63759 -2.58023 0
M  V30 2025 C 208.749 -4.28016 -2.54375 0
M  V30 2026 C 207.452 -6.80436 -2.33238 0
M  V30 2027 C 209.478 -5.44433 -2.30969 0
M  V30 2028 C 208.84 -6.69034 -2.20394 0
M  V30 2029 H 204.939 -0.483506 -0.61461 0
M  V30 2030 H 207.523 -1.62299 -1.0755 0
M  V30 2031 H 205.694 -1.4787 -3.5915 0
M  V30 2032 H 207.426 -1.71488 -3.66571 0
M  V30 2033 H 204.181 -3.63378 -3.03732 0
M  V30 2034 H 204.605 -6.22705 -2.65646 0
M  V30 2035 H 209.247 -3.32388 -2.613 0
M  V30 2036 H 206.965 -7.7613 -2.25051 0
M  V30 2037 H 210.551 -5.38504 -2.20238 0
M  V30 2038 H 209.431 -7.57595 -2.02531 0
M  V30 2039 N 206.934 1.1197 -1.10907 0
M  V30 2040 C 207.897 2.16031 -0.765707 0
M  V30 2041 C 208.897 1.59393 0.212235 0
M  V30 2042 O 210.087 1.74196 -0.0115441 0
M  V30 2043 C 207.219 3.40632 -0.135053 0
M  V30 2044 H 208.412 2.47919 -1.68748 0
M  V30 2045 H 205.965 1.27061 -0.910226 0
M  V30 2046 H 206.7 3.14348 0.797218 0
M  V30 2047 H 206.485 3.8302 -0.838937 0
M  V30 2048 H 207.975 4.17505 0.0892469 0
M  V30 2049 N 208.412 0.89855 1.29475 0
M  V30 2050 C 209.362 0.346767 2.25348 0
M  V30 2051 C 210.346 -0.532509 1.51833 0
M  V30 2052 O 211.538 -0.374714 1.72988 0
M  V30 2053 C 208.667 -0.425681 3.40651 0
M  V30 2054 C 207.753 0.46845 4.21505 0
M  V30 2055 N 208.144 1.57514 4.80648 0
M  V30 2056 C 206.442 0.26603 4.45206 0
M  V30 2057 C 207.143 2.12889 5.41344 0
M  V30 2058 N 206.119 1.42208 5.24669 0
M  V30 2059 H 209.921 1.19219 2.68634 0
M  V30 2060 H 207.435 0.749473 1.44072 0
M  V30 2061 H 209.432 -0.837716 4.08397 0
M  V30 2062 H 208.092 -1.26838 2.98902 0
M  V30 2063 H 209.103 1.95789 4.79465 0
M  V30 2064 H 205.78 -0.538394 4.14014 0
M  V30 2065 H 207.17 3.05901 5.98226 0
M  V30 2066 N 209.89 -1.43072 0.660911 0
M  V30 2067 C 211.167 -1.95307 0.107017 0
M  V30 2068 C 211.547 -1.60192 -1.37484 0
M  V30 2069 O 210.895 -0.890949 -2.10415 0
M  V30 2070 C 211.105 -3.47124 0.361402 0
M  V30 2071 C 212.453 -4.23738 0.270455 0
M  V30 2072 O 213.477 -3.54981 0.294382 0
M  V30 2073 O 212.336 -5.46131 0.200737 0
M  V30 2074 H 209.43 -0.826984 -0.00517729 0
M  V30 2075 H 211.976 -1.52972 0.734681 0
M  V30 2076 H 210.748 -3.65837 1.38848 0
M  V30 2077 H 210.371 -3.96475 -0.298953 0
M  V30 2078 N 211.368 -0.403325 -1.52352 0
M  V30 2079 C 212.614 0.174605 -2.02047 0
M  V30 2080 C 212.947 1.45282 -1.28867 0
M  V30 2081 O 212.222 1.90483 -0.393257 0
M  V30 2082 C 212.505 0.428238 -3.57545 0
M  V30 2083 C 212.358 -0.866248 -4.4138 0
M  V30 2084 C 213.677 1.21287 -4.23057 0
M  V30 2085 H 210.796 0.0619851 -0.734389 0
M  V30 2086 H 213.438 -0.53565 -1.82293 0
M  V30 2087 H 211.588 1.03327 -3.74507 0
M  V30 2088 H 213.26 -1.50265 -4.3614 0
M  V30 2089 H 211.503 -1.47851 -4.07827 0
M  V30 2090 H 212.174 -0.643249 -5.48239 0
M  V30 2091 H 214.65 0.700703 -4.10158 0
M  V30 2092 H 213.526 1.35909 -5.31808 0
M  V30 2093 H 213.787 2.23193 -3.81625 0
M  V30 2094 N 212.846 1.57033 -0.133567 0
M  V30 2095 C 214.262 1.58035 0.222944 0
M  V30 2096 C 214.462 1.14713 1.6566 0
M  V30 2097 O 213.518 0.841218 2.38075 0
M  V30 2098 C 214.831 3.00691 -0.0236116 0
M  V30 2099 C 216.379 3.12973 0.0411512 0
M  V30 2100 C 216.854 4.57654 -0.177899 0
M  V30 2101 N 218.345 4.63033 -0.124365 0
M  V30 2102 C 219.08 5.72771 -0.268553 0
M  V30 2103 N 218.576 6.91206 -0.46972 0
M  V30 2104 N 220.369 5.61718 -0.2071 0
M  V30 2105 H 212.52 1.8349 -1.06981 0
M  V30 2106 H 214.783 0.848677 -0.422436 0
M  V30 2107 H 214.489 3.36726 -1.0153 0
M  V30 2108 H 214.363 3.70614 0.701808 0
M  V30 2109 H 216.75 2.76787 1.02338 0
M  V30 2110 H 216.831 2.45564 -0.716383 0
M  V30 2111 H 216.475 4.94542 -1.15717 0
M  V30 2112 H 216.405 5.23173 0.599797 0
M  V30 2113 H 218.896 3.7789 0.027011 0
M  V30 2114 H 219.209 7.70693 -0.570212 0
M  V30 2115 H 217.554 6.93156 -0.505876 0
M  V30 2116 H 220.745 4.68072 -0.0507986 0
M  V30 2117 H 220.918 6.47195 -0.322909 0
M  V30 2118 N 214.325 -0.140222 1.56975 0
M  V30 2119 C 215.573 -0.850005 1.83356 0
M  V30 2120 C 215.894 -1.81399 0.71551 0
M  V30 2121 O 215.164 -1.94136 -0.262294 0
M  V30 2122 H 213.744 -0.316886 0.676456 0
M  V30 2123 H 216.406 -0.132608 1.94448 0
M  V30 2124 H 215.502 -1.40814 2.78528 0
M  V30 2125 N 215.803 -1.52179 -0.40978 0
M  V30 2126 C 216.766 -1.74853 -1.48186 0
M  V30 2127 C 217.766 -0.618417 -1.48433 0
M  V30 2128 O 218.956 -0.886286 -1.49969 0
M  V30 2129 C 216.088 -1.8303 -2.87598 0
M  V30 2130 H 217.281 -2.70559 -1.29374 0
M  V30 2131 H 214.834 -1.42586 -0.640233 0
M  V30 2132 H 215.569 -0.89236 -3.11781 0
M  V30 2133 H 215.354 -2.65187 -2.88822 0
M  V30 2134 H 216.844 -2.02316 -3.65319 0
M  V30 2135 N 217.281 0.66697 -1.42791 0
M  V30 2136 C 218.53 1.42278 -1.42968 0
M  V30 2137 C 218.843 1.9553 -0.0524489 0
M  V30 2138 O 220.049 2.71414 0.068363 0
M  V30 2139 C 218.505 2.57418 -2.51524 0
M  V30 2140 C 218.113 2.10832 -3.9529 0
M  V30 2141 C 219.857 3.34878 -2.60877 0
M  V30 2142 C 217.764 3.23101 -4.95338 0
M  V30 2143 H 216.694 0.534533 -0.531781 0
M  V30 2144 H 219.345 0.721302 -1.68729 0
M  V30 2145 H 217.727 3.29971 -2.18941 0
M  V30 2146 H 218.901 1.4538 -4.37266 0
M  V30 2147 H 217.216 1.46289 -3.89857 0
M  V30 2148 H 219.813 4.18505 -3.32802 0
M  V30 2149 H 220.156 3.81993 -1.6549 0
M  V30 2150 H 220.689 2.69398 -2.92693 0
M  V30 2151 H 217.428 2.80969 -5.9223 0
M  V30 2152 H 216.948 3.87309 -4.57987 0
M  V30 2153 H 218.627 3.88447 -5.17415 0
M  V30 2154 O 218.798 1.39735 0.809714 0
M  V30 2155 H 219.489 1.27958 1.45418 0
M  V30 END ATOM
M  V30 BEGIN BOND
M  V30 END BOND
M  V30 END CTAB
M  END
$$$$
