drugbank_target|P42892 Endothelin-converting enzyme 1 (DB07171)
 OpenBabel12092120403D

  0  0  0     0  0            999 V3000
M  V30 BEGIN CTAB
M  V30 COUNTS 12108 12266 0 0 0
M  V30 BEGIN ATOM
M  V30 1 H -0.908 1.98254 -0.117106 0
M  V30 2 N 0 1.576 0 0
M  V30 3 C 0.933 2.03868 1.02534 0
M  V30 4 C 1.911 0.928543 1.3348 0
M  V30 5 O 3.095 1.19667 1.45644 0
M  V30 6 C 0.222 2.43627 2.35294 0
M  V30 7 C -0.732 3.65373 2.2001 0
M  V30 8 S 0.101 5.13292 1.52614 0
M  V30 9 C 1.257 5.56322 2.86805 0
M  V30 10 H 1.49 2.90518 0.631377 0
M  V30 11 H -0.977 1.52953 0.210867 0
M  V30 12 H 0.981 2.67203 3.11629 0
M  V30 13 H -0.358 1.57376 2.7183 0
M  V30 14 H -1.165 3.90944 3.18086 0
M  V30 15 H -1.563 3.418 1.51819 0
M  V30 16 H 0.729 5.58782 3.83104 0
M  V30 17 H 1.672 6.56266 2.65933 0
M  V30 18 H 2.08 4.83886 2.90714 0
M  V30 19 N 1.4781 -0.272755 1.55222 0
M  V30 20 C 2.8941 -0.619959 1.47067 0
M  V30 21 C 3.0941 -1.895 0.684978 0
M  V30 22 O 2.1501 -2.51675 0.203931 0
M  V30 23 C 3.4631 -0.746693 2.91282 0
M  V30 24 C 5.0111 -0.840731 3.01497 0
M  V30 25 C 5.4861 -0.99924 4.46967 0
M  V30 26 N 6.9771 -1.06476 4.50796 0
M  V30 27 C 7.7121 -1.20621 5.6057 0
M  V30 28 N 7.2081 -1.31483 6.80209 0
M  V30 29 N 9.0011 -1.23733 5.48312 0
M  V30 30 H 1.1521 0.564606 2.04758 0
M  V30 31 H 3.4151 0.191177 0.928523 0
M  V30 32 H 3.1211 0.119753 3.51496 0
M  V30 33 H 2.9951 -1.6269 3.40311 0
M  V30 34 H 5.3821 -1.69764 2.41379 0
M  V30 35 H 5.4631 0.0640874 2.5572 0
M  V30 36 H 5.1071 -0.146984 5.07687 0
M  V30 37 H 5.0371 -1.91871 4.90401 0
M  V30 38 H 7.5281 -0.993196 3.64615 0
M  V30 39 H 7.8411 -1.42111 7.59621 0
M  V30 40 H 6.1861 -1.28487 6.8302 0
M  V30 41 H 9.3771 -1.14877 4.53785 0
M  V30 42 H 9.5501 -1.34412 6.33906 0
M  V30 43 N 2.9562 -1.48159 -0.537278 0
M  V30 44 C 4.2042 -1.55497 -1.29094 0
M  V30 45 C 4.5252 -0.227454 -1.93669 0
M  V30 46 O 3.7952 0.750386 -1.80959 0
M  V30 47 H 2.3752 -0.572832 -0.47945 0
M  V30 48 H 5.0372 -1.84579 -0.625818 0
M  V30 49 H 4.1332 -2.33216 -2.07405 0
M  V30 50 N 4.4343 0.785586 -1.36625 0
M  V30 51 C 5.6803 1.54591 -1.31261 0
M  V30 52 C 6.0133 1.93906 0.106823 0
M  V30 53 O 5.2883 1.63007 1.06108 0
M  V30 54 C 5.5713 2.82038 -2.23889 0
M  V30 55 C 5.4243 2.49066 -3.74548 0
M  V30 56 C 6.7433 3.83887 -2.15217 0
M  V30 57 H 3.8623 0.560846 -0.478143 0
M  V30 58 H 6.5043 0.902278 -1.67209 0
M  V30 59 H 4.6543 3.36961 -1.93363 0
M  V30 60 H 6.3263 2.00164 -4.15611 0
M  V30 61 H 4.5693 1.81954 -3.93796 0
M  V30 62 H 5.2403 3.40109 -4.34776 0
M  V30 63 H 7.7163 3.38421 -2.42096 0
M  V30 64 H 6.5923 4.70806 -2.82193 0
M  V30 65 H 6.8533 4.27131 -1.14068 0
M  V30 66 N 5.9124 1.20967 1.01018 0
M  V30 67 C 7.1584 1.0353 1.7508 0
M  V30 68 C 7.5134 -0.42734 1.87594 0
M  V30 69 O 6.8064 -1.31298 1.3954 0
M  V30 70 C 7.0004 1.65997 3.16512 0
M  V30 71 C 6.8294 3.18184 3.17788 0
M  V30 72 C 5.5994 3.87198 3.24662 0
M  V30 73 C 7.7974 4.15334 3.03319 0
M  V30 74 N 5.7794 5.26618 3.15509 0
M  V30 75 C 7.1504 5.41472 3.02007 0
M  V30 76 C 9.2054 4.06449 2.87583 0
M  V30 77 C 7.9084 6.5975 2.86571 0
M  V30 78 C 9.9344 5.24357 2.73503 0
M  V30 79 C 9.2964 6.49404 2.72862 0
M  V30 80 H 5.3954 0.433137 0.651089 0
M  V30 81 H 7.9794 1.5324 1.20107 0
M  V30 82 H 6.1504 1.18863 3.69765 0
M  V30 83 H 7.8824 1.41816 3.79039 0
M  V30 84 H 4.6374 3.38093 3.31648 0
M  V30 85 H 5.0614 5.99626 3.14289 0
M  V30 86 H 9.7034 3.10573 2.86887 0
M  V30 87 H 7.4214 7.55792 2.86015 0
M  V30 88 H 11.0074 5.19299 2.62334 0
M  V30 89 H 9.8874 7.39105 2.62093 0
M  V30 90 N 7.3905 -1.2043 1.01659 0
M  V30 91 C 8.8015 -1.71517 0.737482 0
M  V30 92 C 9.1525 -1.81547 -0.743973 0
M  V30 93 O 8.2775 -1.47803 -1.58061 0
M  V30 94 C 8.8725 -3.11515 1.33206 0
M  V30 95 C 7.4315 -3.59912 1.10183 0
M  V30 96 C 6.5785 -2.37116 1.43776 0
M  V30 97 H 9.5295 -1.05444 1.18606 0
M  V30 98 H 9.5505 -3.73575 0.722636 0
M  V30 99 H 9.0625 -3.04182 2.41028 0
M  V30 100 H 7.1635 -3.72577 0.0412756 0
M  V30 101 H 7.2765 -4.44731 1.78188 0
M  V30 102 H 5.6405 -2.39857 0.856778 0
M  V30 103 H 6.4235 -2.32424 2.52654 0
M  V30 104 N 8.8686 -0.792821 -1.36206 0
M  V30 105 C 10.2796 -0.429513 -1.81692 0
M  V30 106 C 10.6306 1.04695 -1.65932 0
M  V30 107 O 9.7556 1.81256 -1.18218 0
M  V30 108 C 10.3506 -0.772831 -3.29868 0
M  V30 109 C 8.9096 -0.462307 -3.7355 0
M  V30 110 C 8.0566 -1.00569 -2.5842 0
M  V30 111 H 11.0076 -0.985672 -1.24379 0
M  V30 112 H 11.0286 -0.0651928 -3.80444 0
M  V30 113 H 10.5406 -1.84747 -3.41307 0
M  V30 114 H 8.6416 0.604158 -3.67669 0
M  V30 115 H 8.7546 -0.985299 -4.68859 0
M  V30 116 H 7.1186 -0.428734 -2.51066 0
M  V30 117 H 7.9016 -2.08616 -2.72643 0
M  V30 118 N 10.3467 1.47872 -0.545128 0
M  V30 119 C 11.7577 1.86384 -0.108581 0
M  V30 120 C 12.1087 1.45309 1.31832 0
M  V30 121 O 11.2337 0.850641 1.9898 0
M  V30 122 C 11.8287 3.38265 -0.190274 0
M  V30 123 C 10.3877 3.75914 0.191164 0
M  V30 124 C 9.5347 2.71926 -0.543273 0
M  V30 125 H 12.4857 1.39561 -0.755537 0
M  V30 126 H 12.5067 3.75831 0.594217 0
M  V30 127 H 12.0187 3.6813 -1.2289 0
M  V30 128 H 10.1197 3.51665 1.23136 0
M  V30 129 H 10.2327 4.78836 -0.158987 0
M  V30 130 H 8.5967 2.54697 0.0122495 0
M  V30 131 H 9.3797 3.04634 -1.58282 0
M  V30 132 N 11.8248 0.280983 1.55075 0
M  V30 133 C 13.0708 -0.33461 2.00021 0
M  V30 134 C 13.4038 -1.55063 1.16915 0
M  V30 135 O 12.6788 -1.93006 0.240646 0
M  V30 136 C 12.9618 -0.711007 3.53011 0
M  V30 137 C 12.8148 0.512766 4.46868 0
M  V30 138 C 14.1338 -1.54522 4.12081 0
M  V30 139 H 11.2528 -0.120147 0.727141 0
M  V30 140 H 13.8948 0.389097 1.85973 0
M  V30 141 H 12.0448 -1.32761 3.65112 0
M  V30 142 H 13.7168 1.15131 4.46702 0
M  V30 143 H 11.9598 1.14975 4.18286 0
M  V30 144 H 12.6308 0.205556 5.51617 0
M  V30 145 H 15.1068 -1.02442 4.03293 0
M  V30 146 H 13.9828 -1.77739 5.19327 0
M  V30 147 H 14.2438 -2.52813 3.62682 0
M  V30 148 N 13.3029 -1.57598 0.00835791 0
M  V30 149 C 14.5279 -1.95617 -0.689103 0
M  V30 150 C 14.9529 -0.883753 -1.66046 0
M  V30 151 O 14.3109 0.157352 -1.80616 0
M  V30 152 C 14.3589 -3.32736 -1.38994 0
M  V30 153 O 13.4629 -3.27631 -2.50463 0
M  V30 154 H 12.8039 -0.638379 -0.182668 0
M  V30 155 H 15.3339 -2.045 0.064036 0
M  V30 156 H 15.3439 -3.68494 -1.75147 0
M  V30 157 H 14.0189 -4.1034 -0.677778 0
M  V30 158 H 12.5959 -3.03561 -2.16576 0
M  V30 159 N 14.781 0.264519 -1.55364 0
M  V30 160 C 15.744 1.31046 -1.88042 0
M  V30 161 C 16.744 1.41943 -0.755569 0
M  V30 162 O 17.934 1.40947 -1.02369 0
M  V30 163 C 15.066 2.69067 -2.09323 0
M  V30 164 H 16.259 1.03297 -2.81549 0
M  V30 165 H 13.812 0.502989 -1.47986 0
M  V30 166 H 14.547 3.01982 -1.18226 0
M  V30 167 H 14.332 2.62542 -2.91229 0
M  V30 168 H 15.822 3.44623 -2.35848 0
M  V30 169 N 16.2591 1.48442 0.529413 0
M  V30 170 C 17.1891 1.65902 1.64313 0
M  V30 171 C 18.1701 0.507897 1.6234 0
M  V30 172 O 19.3551 0.740503 1.79528 0
M  V30 173 C 16.4851 1.69911 3.02898 0
M  V30 174 C 15.4391 2.8453 3.19729 0
M  V30 175 C 14.7651 2.73629 4.59381 0
M  V30 176 C 16.0651 4.25821 3.02447 0
M  V30 177 H 17.7591 2.5914 1.49955 0
M  V30 178 H 15.3051 1.24709 0.719982 0
M  V30 179 H 17.2581 1.80715 3.80684 0
M  V30 180 H 15.9821 0.732524 3.18279 0
M  V30 181 H 14.6411 2.73283 2.44361 0
M  V30 182 H 14.2891 1.74938 4.71599 0
M  V30 183 H 13.9891 3.50541 4.71588 0
M  V30 184 H 15.5131 2.86401 5.39265 0
M  V30 185 H 16.9271 4.37898 3.70024 0
M  V30 186 H 15.3241 5.03735 3.26146 0
M  V30 187 H 16.3941 4.42244 1.98867 0
M  V30 188 N 17.7372 -0.778329 1.37039 0
M  V30 189 C 18.6672 -1.90546 1.34962 0
M  V30 190 C 19.6482 -1.68681 0.219274 0
M  V30 191 O 20.8332 -1.89634 0.418624 0
M  V30 192 C 17.9632 -3.27734 1.14925 0
M  V30 193 C 16.9172 -3.64147 2.24902 0
M  V30 194 C 16.2432 -4.99806 1.89996 0
M  V30 195 C 17.5432 -3.71579 3.67051 0
M  V30 196 H 19.2372 -1.92541 2.29277 0
M  V30 197 H 16.7832 -0.924948 1.10366 0
M  V30 198 H 18.7362 -4.06215 1.12104 0
M  V30 199 H 17.4602 -3.26154 0.170631 0
M  V30 200 H 16.1192 -2.8797 2.26868 0
M  V30 201 H 15.7672 -4.94759 0.906796 0
M  V30 202 H 15.4672 -5.25139 2.63634 0
M  V30 203 H 16.9912 -5.80694 1.88749 0
M  V30 204 H 18.4052 -4.40227 3.67251 0
M  V30 205 H 16.8022 -4.08405 4.39688 0
M  V30 206 H 17.8722 -2.72404 4.01154 0
M  V30 207 N 19.2153 -1.21501 -1.00376 0
M  V30 208 C 20.4403 -1.05977 -1.78279 0
M  V30 209 C 20.8653 0.385994 -1.84097 0
M  V30 210 O 20.2233 1.27849 -1.28547 0
M  V30 211 C 20.2713 -1.66302 -3.19963 0
M  V30 212 O 19.3753 -0.909333 -4.0225 0
M  V30 213 H 18.7163 -0.372906 -0.549397 0
M  V30 214 H 21.2463 -1.6107 -1.26165 0
M  V30 215 H 21.2563 -1.70574 -3.70632 0
M  V30 216 H 19.9313 -2.71515 -3.15043 0
M  V30 217 H 18.5083 -0.941795 -3.60811 0
M  V30 218 N 20.6934 1.19889 -1.02296 0
M  V30 219 C 21.6564 2.21116 -0.603351 0
M  V30 220 C 22.6564 1.5738 0.329884 0
M  V30 221 O 23.8464 1.73802 0.117702 0
M  V30 222 C 20.9784 3.40696 0.117992 0
M  V30 223 H 22.1714 2.59754 -1.49893 0
M  V30 224 H 19.7244 1.33463 -0.813468 0
M  V30 225 H 20.4594 3.07569 1.0282 0
M  V30 226 H 20.2444 3.88188 -0.552511 0
M  V30 227 H 21.7344 4.15692 0.398696 0
M  V30 228 N 22.1715 0.800033 1.35784 0
M  V30 229 C 23.1015 0.220184 2.3246 0
M  V30 230 C 24.0825 -0.65073 1.57161 0
M  V30 231 O 25.2675 -0.582359 1.85263 0
M  V30 232 C 22.3975 -0.637353 3.41402 0
M  V30 233 C 21.3515 0.134531 4.27789 0
M  V30 234 C 20.6775 -0.844285 5.27992 0
M  V30 235 C 21.9775 1.32979 5.05088 0
M  V30 236 H 23.6715 1.02787 2.81203 0
M  V30 237 H 21.2175 0.495717 1.35199 0
M  V30 238 H 23.1705 -1.05302 4.08031 0
M  V30 239 H 21.8945 -1.47785 2.91251 0
M  V30 240 H 20.5535 0.531296 3.6273 0
M  V30 241 H 20.2015 -1.68011 4.74111 0
M  V30 242 H 19.9015 -0.332184 5.8666 0
M  V30 243 H 21.4255 -1.2583 5.97494 0
M  V30 244 H 22.8395 0.98934 5.64699 0
M  V30 245 H 21.2365 1.77593 5.7322 0
M  V30 246 H 22.3065 2.11978 4.36111 0
M  V30 247 N 23.6496 -1.47581 0.552962 0
M  V30 248 C 24.8976 -2.02082 0.0272703 0
M  V30 249 C 25.2186 -1.4301 -1.32563 0
M  V30 250 O 24.4886 -0.603745 -1.86365 0
M  V30 251 H 23.0686 -0.746966 0.00709182 0
M  V30 252 H 25.7306 -1.81033 0.722008 0
M  V30 253 H 24.8266 -3.12034 -0.0639951 0
M  V30 254 N 25.1277 -0.289203 -1.54924 0
M  V30 255 C 26.0607 0.633823 -2.19221 0
M  V30 256 C 27.0387 1.14174 -1.15772 0
M  V30 257 O 28.2227 1.21211 -1.44361 0
M  V30 258 C 25.3497 1.86592 -2.82668 0
M  V30 259 C 24.3957 1.49227 -3.99542 0
M  V30 260 S 25.2287 0.558312 -5.32582 0
M  V30 261 C 26.3847 1.79847 -5.99505 0
M  V30 262 H 26.6177 0.0875416 -2.97171 0
M  V30 263 H 24.1507 -0.0733899 -1.54225 0
M  V30 264 H 26.1087 2.57305 -3.19851 0
M  V30 265 H 24.7697 2.38335 -2.04585 0
M  V30 266 H 23.9627 2.40945 -4.42676 0
M  V30 267 H 23.5647 0.865193 -3.63855 0
M  V30 268 H 25.8567 2.7406 -6.19595 0
M  V30 269 H 26.7997 1.4099 -6.93922 0
M  V30 270 H 27.2077 1.96982 -5.29016 0
M  V30 271 N 26.6058 1.57591 -0.0167156 0
M  V30 272 C 27.8308 1.9598 0.67872 0
M  V30 273 C 28.2558 0.892546 1.65575 0
M  V30 274 O 27.6138 -0.147772 1.80697 0
M  V30 275 C 27.6618 3.33468 1.37227 0
M  V30 276 O 26.7658 3.28954 2.48722 0
M  V30 277 H 26.1068 0.639339 0.17928 0
M  V30 278 H 28.6368 2.04463 -0.0748802 0
M  V30 279 H 28.6468 3.69417 1.7319 0
M  V30 280 H 27.3218 4.10694 0.656007 0
M  V30 281 H 25.8988 3.04705 2.14963 0
M  V30 282 N 28.0839 -0.256276 1.55502 0
M  V30 283 C 29.3119 -1.00342 1.8094 0
M  V30 284 C 29.7269 -1.79307 0.59114 0
M  V30 285 O 29.0839 -1.77114 -0.440081 0
M  V30 286 C 29.1349 -1.94875 3.04476 0
M  V30 287 O 28.8559 -1.19107 4.21598 0
M  V30 288 C 30.3569 -2.81266 3.42644 0
M  V30 289 H 27.5769 -0.295685 0.602338 0
M  V30 290 H 30.1209 -0.281998 2.02546 0
M  V30 291 H 28.2759 -2.62457 2.84947 0
M  V30 292 H 28.6899 -1.82969 4.91551 0
M  V30 293 H 30.1639 -3.43362 4.32211 0
M  V30 294 H 30.6409 -3.51897 2.62802 0
M  V30 295 H 31.2469 -2.1915 3.64491 0
M  V30 296 N 29.562 -1.4872 -0.521534 0
M  V30 297 C 30.792 -1.6061 -1.29954 0
M  V30 298 C 31.2 -0.268728 -1.87282 0
M  V30 299 O 30.543 0.753221 -1.67548 0
M  V30 300 C 30.605 -2.60013 -2.48261 0
M  V30 301 C 30.269 -4.04874 -2.11957 0
M  V30 302 C 31.266 -4.92304 -1.67132 0
M  V30 303 C 28.951 -4.5047 -2.22221 0
M  V30 304 C 30.945 -6.2336 -1.33047 0
M  V30 305 C 28.632 -5.81544 -1.87748 0
M  V30 306 C 29.63 -6.67812 -1.43234 0
M  V30 307 O 29.318 -7.96446 -1.09217 0
M  V30 308 H 29.05 -0.544116 -0.401141 0
M  V30 309 H 31.604 -1.95339 -0.634958 0
M  V30 310 H 29.834 -2.20422 -3.17728 0
M  V30 311 H 31.523 -2.61648 -3.10315 0
M  V30 312 H 32.289 -4.58312 -1.58665 0
M  V30 313 H 28.168 -3.83504 -2.55823 0
M  V30 314 H 31.712 -6.90649 -0.982299 0
M  V30 315 H 27.609 -6.15069 -1.95858 0
M  V30 316 H 28.377 -8.09275 -1.22542 0
M  V30 317 N 31.0401 0.771051 -1.3745 0
M  V30 318 C 31.9871 1.88435 -1.3327 0
M  V30 319 C 32.9571 1.64914 -0.198136 0
M  V30 320 O 34.1421 1.86821 -0.387606 0
M  V30 321 C 31.2821 3.25509 -1.14622 0
M  V30 322 C 30.3951 3.60979 -2.37314 0
M  V30 323 C 29.5301 4.87265 -2.11533 0
M  V30 324 C 28.5691 5.15469 -3.30088 0
M  V30 325 N 27.7061 6.32944 -3.03853 0
M  V30 326 H 32.5461 1.91344 -2.28455 0
M  V30 327 H 30.0831 0.935466 -1.13523 0
M  V30 328 H 32.0411 4.04582 -1.01831 0
M  V30 329 H 30.6711 3.21974 -0.230837 0
M  V30 330 H 29.7231 2.76885 -2.60842 0
M  V30 331 H 31.0351 3.77759 -3.25729 0
M  V30 332 H 30.1891 5.74244 -1.95777 0
M  V30 333 H 28.9281 4.7259 -1.20457 0
M  V30 334 H 27.9331 4.26966 -3.46382 0
M  V30 335 H 29.1581 5.32052 -4.22016 0
M  V30 336 H 27.1041 6.19625 -2.15407 0
M  V30 337 H 27.0211 6.50143 -3.85812 0
M  V30 338 H 28.2891 7.22857 -2.91716 0
M  V30 339 N 32.5182 1.22032 0.997298 0
M  V30 340 C 33.9342 0.979326 1.26021 0
M  V30 341 C 34.1342 -0.32972 1.98784 0
M  V30 342 O 33.1902 -1.05345 2.29475 0
M  V30 343 C 34.5032 2.17509 2.07631 0
M  V30 344 C 36.0512 2.21817 2.2083 0
M  V30 345 C 36.5262 3.40933 3.05825 0
M  V30 346 N 38.0172 3.41067 3.13412 0
M  V30 347 C 38.7522 4.29885 3.79455 0
M  V30 348 N 38.2482 5.28914 4.47462 0
M  V30 349 N 40.0412 4.17673 3.76173 0
M  V30 350 H 32.1922 2.06202 0.509352 0
M  V30 351 H 34.4552 0.90334 0.287541 0
M  V30 352 H 34.1612 3.12415 1.61524 0
M  V30 353 H 34.0352 2.17206 3.08385 0
M  V30 354 H 36.4222 1.27462 2.66153 0
M  V30 355 H 36.5032 2.2616 1.1952 0
M  V30 356 H 36.1472 4.35586 2.61203 0
M  V30 357 H 36.0772 3.33829 4.07266 0
M  V30 358 H 38.5682 2.69406 2.65007 0
M  V30 359 H 38.8812 5.92973 4.95583 0
M  V30 360 H 37.2262 5.32831 4.46224 0
M  V30 361 H 40.4172 3.39564 3.22202 0
M  V30 362 H 40.5902 4.87098 4.27363 0
M  V30 363 N 33.9963 -1.19345 1.0293 0
M  V30 364 C 34.9593 -2.20793 0.615069 0
M  V30 365 C 35.9593 -1.57553 -0.321533 0
M  V30 366 O 37.1493 -1.73862 -0.108483 0
M  V30 367 C 34.2813 -3.40754 -0.0999222 0
M  V30 368 H 35.4743 -2.58955 1.51269 0
M  V30 369 H 33.0273 -1.3303 0.820534 0
M  V30 370 H 33.7623 -3.0811 -1.01187 0
M  V30 371 H 33.5473 -3.87889 0.57309 0
M  V30 372 H 35.0373 -4.15898 -0.376645 0
M  V30 373 N 35.4744 -0.807222 -1.35358 0
M  V30 374 C 36.7024 -0.400377 -2.02989 0
M  V30 375 C 37.1174 0.988859 -1.60832 0
M  V30 376 O 36.4744 1.63729 -0.806175 0
M  V30 377 C 36.5254 -0.474867 -3.58368 0
M  V30 378 O 36.2464 -1.80933 -3.98992 0
M  V30 379 C 37.7474 -0.0609112 -4.43258 0
M  V30 380 H 34.9674 -0.162587 -0.651004 0
M  V30 381 H 37.5114 -1.09102 -1.72965 0
M  V30 382 H 35.6664 0.167534 -3.87038 0
M  V30 383 H 36.0804 -1.77256 -4.9364 0
M  V30 384 H 37.5544 -0.164145 -5.51756 0
M  V30 385 H 38.0314 0.993831 -4.27808 0
M  V30 386 H 38.6374 -0.676492 -4.19885 0
M  V30 387 N 36.9525 1.47285 -0.560781 0
M  V30 388 C 37.8825 2.32857 0.173105 0
M  V30 389 C 38.8635 1.44009 0.905281 0
M  V30 390 O 40.0485 1.7286 0.885046 0
M  V30 391 C 37.1785 3.25861 1.20133 0
M  V30 392 C 36.1325 4.23978 0.585388 0
M  V30 393 C 35.4585 5.06332 1.7185 0
M  V30 394 C 36.7585 5.20242 -0.463178 0
M  V30 395 H 38.4525 2.94466 -0.541307 0
M  V30 396 H 35.9985 1.41601 -0.261764 0
M  V30 397 H 37.9515 3.84569 1.72293 0
M  V30 398 H 36.6755 2.62315 1.94573 0
M  V30 399 H 35.3345 3.66501 0.085054 0
M  V30 400 H 34.9825 4.39186 2.45203 0
M  V30 401 H 34.6825 5.72762 1.31213 0
M  V30 402 H 36.2065 5.67899 2.24329 0
M  V30 403 H 37.6205 5.73293 -0.027502 0
M  V30 404 H 36.0175 5.94896 -0.788627 0
M  V30 405 H 37.0875 4.65504 -1.35773 0
M  V30 406 N 38.4306 0.297415 1.54768 0
M  V30 407 C 39.7076 -0.365847 1.92148 0
M  V30 408 C 40.0876 -1.71975 1.22424 0
M  V30 409 O 39.4356 -2.25666 0.358739 0
M  V30 410 C 39.6456 -0.484056 3.45627 0
M  V30 411 C 40.9936 -0.756594 4.17805 0
M  V30 412 O 42.0176 -0.568007 3.51642 0
M  V30 413 O 40.8766 -1.11863 5.34929 0
M  V30 414 H 37.9706 -0.203919 0.801465 0
M  V30 415 H 40.5166 0.34521 1.66152 0
M  V30 416 H 39.2886 0.467865 3.88493 0
M  V30 417 H 38.9116 -1.24372 3.77647 0
M  V30 418 N 39.9087 -1.5758 0.0250728 0
M  V30 419 C 40.8187 -2.1343 -0.973905 0
M  V30 420 C 41.8347 -1.08556 -1.35984 0
M  V30 421 O 43.0107 -1.40592 -1.44207 0
M  V30 422 C 40.0757 -2.64703 -2.23904 0
M  V30 423 C 39.1367 -3.84276 -1.91391 0
M  V30 424 C 38.3697 -4.33095 -3.11873 0
M  V30 425 O 38.5927 -3.81107 -4.24398 0
M  V30 426 O 37.5267 -5.24984 -2.94406 0
M  V30 427 H 41.3527 -2.99057 -0.529036 0
M  V30 428 H 38.9377 -1.48118 -0.195288 0
M  V30 429 H 40.8197 -2.97769 -2.98181 0
M  V30 430 H 39.4947 -1.82161 -2.6758 0
M  V30 431 H 38.4017 -3.56143 -1.14511 0
M  V30 432 H 39.7347 -4.67968 -1.52534 0
M  V30 433 N 41.3868 0.248026 -1.55636 0
M  V30 434 C 42.2968 1.32859 -1.93354 0
M  V30 435 C 43.3128 1.52719 -0.833838 0
M  V30 436 O 44.4888 1.66363 -1.13513 0
M  V30 437 C 41.5538 2.66337 -2.21958 0
M  V30 438 C 40.6148 2.55008 -3.45354 0
M  V30 439 C 39.8478 3.82121 -3.72584 0
M  V30 440 O 40.0708 4.83951 -3.01907 0
M  V30 441 O 39.0048 3.80822 -4.6611 0
M  V30 442 H 42.8308 1.03862 -2.85388 0
M  V30 443 H 40.4158 0.448686 -1.42503 0
M  V30 444 H 42.2978 3.45216 -2.4167 0
M  V30 445 H 40.9728 2.95068 -1.33103 0
M  V30 446 H 39.8798 1.7442 -3.30951 0
M  V30 447 H 41.2128 2.31222 -4.34508 0
M  V30 448 N 42.8649 1.48995 0.513639 0
M  V30 449 C 44.1419 1.48338 1.27495 0
M  V30 450 C 44.5219 0.204065 2.10111 0
M  V30 451 O 43.8699 -0.813881 2.13514 0
M  V30 452 C 44.0799 2.75498 2.14247 0
M  V30 453 C 45.4279 3.24484 2.73852 0
M  V30 454 O 46.4519 2.76528 2.24523 0
M  V30 455 O 45.3109 4.07974 3.6362 0
M  V30 456 H 42.4049 0.593149 0.576284 0
M  V30 457 H 44.9509 1.61246 0.528948 0
M  V30 458 H 43.7229 3.60109 1.53092 0
M  V30 459 H 43.3459 2.6539 2.96064 0
M  V30 460 N 44.343 -0.763751 1.37857 0
M  V30 461 C 45.273 -1.89103 1.36975 0
M  V30 462 C 46.254 -1.68439 0.237152 0
M  V30 463 O 47.439 -1.8918 0.438713 0
M  V30 464 C 44.569 -3.26496 1.18395 0
M  V30 465 C 43.523 -3.61741 2.28751 0
M  V30 466 C 42.849 -4.97762 1.95286 0
M  V30 467 C 44.149 -3.67665 3.70972 0
M  V30 468 H 45.843 -1.90099 2.31307 0
M  V30 469 H 43.389 -0.91319 1.11341 0
M  V30 470 H 45.342 -4.05003 1.16406 0
M  V30 471 H 44.066 -3.25955 0.205215 0
M  V30 472 H 42.725 -2.85547 2.29909 0
M  V30 473 H 42.373 -4.93769 0.959221 0
M  V30 474 H 42.073 -5.22313 2.69189 0
M  V30 475 H 43.597 -5.7866 1.94898 0
M  V30 476 H 45.011 -4.36307 3.719 0
M  V30 477 H 43.408 -4.03718 4.43995 0
M  V30 478 H 44.478 -2.68134 4.0402 0
M  V30 479 N 45.8211 -1.22559 -0.990812 0
M  V30 480 C 47.0671 -1.05297 -1.73322 0
M  V30 481 C 47.4001 0.410655 -1.89808 0
M  V30 482 O 46.6751 1.30439 -1.44277 0
M  V30 483 C 46.9581 -1.76713 -3.13759 0
M  V30 484 C 46.8111 -3.30684 -3.04907 0
M  V30 485 C 48.1301 -1.52121 -4.12974 0
M  V30 486 H 45.2491 -0.38392 -0.629106 0
M  V30 487 H 47.8911 -1.50926 -1.15418 0
M  V30 488 H 46.0411 -1.37924 -3.63193 0
M  V30 489 H 47.7131 -3.7893 -2.63077 0
M  V30 490 H 45.9561 -3.60253 -2.41661 0
M  V30 491 H 46.6271 -3.75833 -4.04294 0
M  V30 492 H 49.1031 -1.85819 -3.72304 0
M  V30 493 H 47.9791 -2.04582 -5.0935 0
M  V30 494 H 48.2401 -0.454257 -4.3976 0
M  V30 495 N 47.2992 1.18797 -1.03562 0
M  V30 496 C 48.5762 1.84469 -0.650434 0
M  V30 497 C 48.9562 1.92319 0.870433 0
M  V30 498 O 48.3042 1.44528 1.76986 0
M  V30 499 C 48.5142 3.2306 -1.32036 0
M  V30 500 C 49.8622 3.9915 -1.44792 0
M  V30 501 O 50.8862 3.32481 -1.27806 0
M  V30 502 O 49.7452 5.18587 -1.72423 0
M  V30 503 H 46.8392 0.795251 -0.226946 0
M  V30 504 H 49.3852 1.26231 -1.13419 0
M  V30 505 H 48.1572 3.1222 -2.3587 0
M  V30 506 H 47.7802 3.88949 -0.8249 0
M  V30 507 N 48.7773 0.814389 1.34928 0
M  V30 508 C 50.0023 0.410097 2.03305 0
M  V30 509 C 50.4273 -0.973464 1.60951 0
M  V30 510 O 49.7853 -1.63185 0.789964 0
M  V30 511 C 49.8333 0.51049 3.56968 0
M  V30 512 O 48.9373 -0.473035 4.09678 0
M  V30 513 H 48.2783 0.170088 0.641846 0
M  V30 514 H 50.8083 1.10244 1.72358 0
M  V30 515 H 50.8183 0.383135 4.06197 0
M  V30 516 H 49.4933 1.51963 3.87144 0
M  V30 517 H 48.0703 -0.305272 3.71648 0
M  V30 518 N 50.2554 -1.46986 0.568584 0
M  V30 519 C 51.1854 -2.32946 -0.160753 0
M  V30 520 C 52.1664 -1.44487 -0.897631 0
M  V30 521 O 53.3514 -1.73327 -0.875867 0
M  V30 522 C 50.4814 -3.26494 -1.18403 0
M  V30 523 C 49.4354 -4.24282 -0.562895 0
M  V30 524 C 48.7614 -5.07236 -1.69163 0
M  V30 525 C 50.0614 -5.19989 0.490761 0
M  V30 526 H 51.7554 -2.94175 0.556916 0
M  V30 527 H 49.3014 -1.4146 0.26927 0
M  V30 528 H 51.2544 -3.85477 -1.70251 0
M  V30 529 H 49.9784 -2.63343 -1.93179 0
M  V30 530 H 48.6374 -3.66541 -0.0656164 0
M  V30 531 H 48.2854 -4.4048 -2.42871 0
M  V30 532 H 47.9854 -5.7345 -1.28174 0
M  V30 533 H 49.5094 -5.6908 -2.21314 0
M  V30 534 H 50.9234 -5.73271 0.0579047 0
M  V30 535 H 49.3204 -5.94469 0.820165 0
M  V30 536 H 50.3904 -4.64777 1.3824 0
M  V30 537 N 51.7335 -0.305618 -1.54608 0
M  V30 538 C 52.9585 0.307562 -2.05107 0
M  V30 539 C 53.3835 1.46385 -1.18123 0
M  V30 540 O 52.7415 1.8034 -0.186324 0
M  V30 541 C 52.7895 0.73704 -3.52987 0
M  V30 542 O 51.8935 1.84134 -3.6901 0
M  V30 543 H 51.2345 0.0589143 -0.661381 0
M  V30 544 H 53.7645 -0.448807 -1.99617 0
M  V30 545 H 53.7745 1.02459 -3.94925 0
M  V30 546 H 52.4495 -0.108773 -4.15758 0
M  V30 547 H 51.0265 1.55398 -3.38978 0
M  V30 548 N 53.2116 1.57565 -0.0334293 0
M  V30 549 C 54.1216 2.13943 0.962572 0
M  V30 550 C 55.1376 1.09276 1.35406 0
M  V30 551 O 56.3136 1.41355 1.4346 0
M  V30 552 C 53.3786 2.65887 2.22497 0
M  V30 553 C 52.4396 3.85286 1.8935 0
M  V30 554 C 51.6726 4.34743 3.09571 0
M  V30 555 O 51.8956 3.83352 4.22371 0
M  V30 556 O 50.8296 5.26538 2.91618 0
M  V30 557 H 54.6556 2.99333 0.513169 0
M  V30 558 H 52.2406 1.4822 0.18743 0
M  V30 559 H 54.1226 2.99346 2.96598 0
M  V30 560 H 52.7976 1.83578 2.6661 0
M  V30 561 H 51.7046 3.56746 1.1262 0
M  V30 562 H 53.0376 4.68771 1.5005 0
M  V30 563 N 54.6897 -0.239769 1.55765 0
M  V30 564 C 55.9377 -0.964892 1.77579 0
M  V30 565 C 56.2587 -1.85582 0.598699 0
M  V30 566 O 55.5287 -1.92075 -0.385226 0
M  V30 567 H 54.1087 -0.359265 0.654933 0
M  V30 568 H 56.7707 -0.256001 1.93211 0
M  V30 569 H 55.8667 -1.58243 2.69009 0
M  V30 570 N 56.1678 -1.49265 -0.50573 0
M  V30 571 C 57.4448 -1.49012 -1.26707 0
M  V30 572 C 57.8248 -0.215205 -2.1 0
M  V30 573 O 57.1728 0.802547 -2.13943 0
M  V30 574 C 57.3828 -2.7663 -2.12783 0
M  V30 575 C 58.7308 -3.25932 -2.72127 0
M  V30 576 O 59.7548 -2.77715 -2.23054 0
M  V30 577 O 58.6138 -4.09897 -3.61451 0
M  V30 578 H 55.7078 -0.596197 -0.57313 0
M  V30 579 H 58.2538 -1.61524 -0.52039 0
M  V30 580 H 57.0258 -3.60916 -1.5118 0
M  V30 581 H 56.6488 -2.66956 -2.94653 0
M  V30 582 N 57.6459 0.756429 -1.3826 0
M  V30 583 C 58.6089 1.85176 -1.35065 0
M  V30 584 C 59.6089 1.58818 -0.251703 0
M  V30 585 O 60.7989 1.66615 -0.508433 0
M  V30 586 C 57.9309 3.22596 -1.10201 0
M  V30 587 H 59.1239 1.89417 -2.3251 0
M  V30 588 H 56.6769 0.95783 -1.23512 0
M  V30 589 H 57.4119 3.24025 -0.133504 0
M  V30 590 H 57.1969 3.43122 -1.89762 0
M  V30 591 H 58.6869 4.02673 -1.10654 0
M  V30 592 N 59.124 1.23083 0.984299 0
M  V30 593 C 60.354 1.08556 1.75781 0
M  V30 594 C 60.762 -0.366171 1.85623 0
M  V30 595 O 60.105 -1.26524 1.33182 0
M  V30 596 C 60.167 1.63208 3.20318 0
M  V30 597 C 59.831 3.11922 3.33997 0
M  V30 598 C 60.828 4.09259 3.2063 0
M  V30 599 C 58.513 3.51552 3.58771 0
M  V30 600 C 60.507 5.4421 3.31835 0
M  V30 601 C 58.194 4.86649 3.69616 0
M  V30 602 C 59.192 5.82787 3.56157 0
M  V30 603 O 58.88 7.15431 3.66626 0
M  V30 604 H 58.612 0.380713 0.5586 0
M  V30 605 H 61.166 1.63321 1.2456 0
M  V30 606 H 59.396 1.0286 3.72769 0
M  V30 607 H 61.085 1.44216 3.79416 0
M  V30 608 H 61.851 3.79984 3.01392 0
M  V30 609 H 57.73 2.77239 3.6832 0
M  V30 610 H 61.274 6.1923 3.21247 0
M  V30 611 H 57.171 5.15601 3.88363 0
M  V30 612 H 57.939 7.23127 3.83445 0
M  V30 613 N 60.6021 -1.18246 1.0419 0
M  V30 614 C 62.0131 -1.69914 0.773698 0
M  V30 615 C 62.3641 -1.83085 -0.705297 0
M  V30 616 O 61.4891 -1.51123 -1.5489 0
M  V30 617 C 62.0841 -3.08619 1.39784 0
M  V30 618 C 60.6431 -3.57494 1.17792 0
M  V30 619 C 59.7901 -2.34013 1.48773 0
M  V30 620 H 62.7411 -1.02904 1.20816 0
M  V30 621 H 62.7621 -3.71958 0.801714 0
M  V30 622 H 62.2741 -2.99001 2.47426 0
M  V30 623 H 60.3751 -3.72406 0.120295 0
M  V30 624 H 60.4881 -4.40852 1.87581 0
M  V30 625 H 58.8521 -2.37986 0.907463 0
M  V30 626 H 59.6351 -2.27013 2.57527 0
M  V30 627 N 62.0802 -0.821533 -1.34494 0
M  V30 628 C 63.0282 -0.230702 -2.31453 0
M  V30 629 C 64.0222 0.627793 -1.57338 0
M  V30 630 O 65.2282 0.519288 -1.72347 0
M  V30 631 H 61.6032 -0.0558577 -0.749923 0
M  V30 632 H 63.5742 -1.06332 -2.78812 0
M  V30 633 C 62.3232 0.59391 -3.4259 0
M  V30 634 H 61.6462 -0.0573588 -3.99759 0
M  V30 635 H 63.0862 0.973446 -4.12674 0
M  V30 636 C 61.5452 1.76568 -2.86924 0
M  V30 637 O 62.0752 2.8638 -2.81691 0
M  V30 638 N 60.2812 1.58198 -2.43766 0
M  V30 639 H 59.8282 0.68872 -2.48222 0
M  V30 640 H 59.7862 2.36752 -2.06871 0
M  V30 641 N 63.5583 1.46682 -0.576371 0
M  V30 642 C 64.8063 2.02013 -0.0594163 0
M  V30 643 C 65.1273 1.45101 1.30271 0
M  V30 644 O 64.3973 0.633317 1.8538 0
M  V30 645 H 62.9773 0.746759 -0.0189745 0
M  V30 646 H 65.6393 1.79862 -0.750717 0
M  V30 647 H 64.7353 3.12097 0.014345 0
M  V30 648 N 65.0364 0.313813 1.54444 0
M  V30 649 C 65.9664 -0.549454 2.26943 0
M  V30 650 C 66.9474 -1.12741 1.27372 0
M  V30 651 O 68.1324 -1.15436 1.56167 0
M  V30 652 C 65.2624 -1.71523 3.01989 0
M  V30 653 C 64.2164 -1.26703 4.08816 0
M  V30 654 C 63.5424 -2.51898 4.71647 0
M  V30 655 C 64.8424 -0.388962 5.2085 0
M  V30 656 H 66.5364 0.0552661 2.99349 0
M  V30 657 H 64.0824 0.0280207 1.43973 0
M  V30 658 H 66.0354 -2.32535 3.51433 0
M  V30 659 H 64.7594 -2.34639 2.27183 0
M  V30 660 H 63.4184 -0.679896 3.6024 0
M  V30 661 H 63.0664 -3.13356 3.93468 0
M  V30 662 H 62.7664 -2.22605 5.43802 0
M  V30 663 H 64.2904 -3.1369 5.23861 0
M  V30 664 H 65.7044 -0.905107 5.6611 0
M  V30 665 H 64.1014 -0.18924 5.99802 0
M  V30 666 H 65.1714 0.582699 4.81386 0
M  V30 667 N 66.5145 -1.57545 0.0417849 0
M  V30 668 C 67.4465 -2.07904 -0.964799 0
M  V30 669 C 68.4595 -1.00497 -1.28079 0
M  V30 670 O 69.6485 -1.28087 -1.24322 0
M  V30 671 C 66.7485 -2.49928 -2.28887 0
M  V30 672 C 65.9215 -3.80562 -2.15619 0
M  V30 673 C 64.9805 -4.08999 -3.31069 0
M  V30 674 O 64.0065 -4.79061 -3.0739 0
M  V30 675 N 65.2085 -3.6017 -4.55256 0
M  V30 676 H 67.9735 -2.94886 -0.535029 0
M  V30 677 H 65.5345 -1.61252 -0.144681 0
M  V30 678 H 67.5265 -2.66034 -3.04972 0
M  V30 679 H 66.0965 -1.68245 -2.63463 0
M  V30 680 H 65.3165 -3.74129 -1.24183 0
M  V30 681 H 66.6045 -4.66126 -2.03971 0
M  V30 682 H 66.0025 -3.03512 -4.77386 0
M  V30 683 H 64.5595 -3.81532 -5.28466 0
M  V30 684 N 67.9926 0.231505 -1.5589 0
M  V30 685 C 69.2386 0.95877 -1.78705 0
M  V30 686 C 69.5716 1.8438 -0.609725 0
M  V30 687 O 68.8466 1.90521 0.391426 0
M  V30 688 C 69.1296 1.8062 -3.11526 0
M  V30 689 C 68.9826 0.948328 -4.39689 0
M  V30 690 C 70.3016 2.78585 -3.40703 0
M  V30 691 H 67.4206 0.347129 -0.650131 0
M  V30 692 H 70.0626 0.228259 -1.88624 0
M  V30 693 H 68.2126 2.42902 -3.03201 0
M  V30 694 H 69.8846 0.343016 -4.60023 0
M  V30 695 H 68.1276 0.253314 -4.3306 0
M  V30 696 H 68.7986 1.57543 -5.29041 0
M  V30 697 H 71.2746 2.26439 -3.49091 0
M  V30 698 H 70.1506 3.34988 -4.34826 0
M  V30 699 H 70.4116 3.55825 -2.62375 0
M  V30 700 N 69.4707 1.49531 0.497807 0
M  V30 701 C 70.4187 1.66926 1.61983 0
M  V30 702 C 71.4127 0.535167 1.60724 0
M  V30 703 O 72.6187 0.714896 1.65195 0
M  V30 704 H 68.9937 0.526415 0.537021 0
M  V30 705 H 70.9647 2.61098 1.44465 0
M  V30 706 C 69.7137 1.75602 3.00099 0
M  V30 707 H 69.0367 2.62244 3.01775 0
M  V30 708 H 70.4767 1.91807 3.78135 0
M  V30 709 C 68.9357 0.501543 3.33146 0
M  V30 710 O 69.4657 -0.371342 3.9998 0
M  V30 711 N 67.6717 0.363531 2.88317 0
M  V30 712 H 67.2187 1.07485 2.34104 0
M  V30 713 H 67.1767 -0.474728 3.10795 0
M  V30 714 N 70.9488 -0.749086 1.3866 0
M  V30 715 C 72.1958 -1.50833 1.35114 0
M  V30 716 C 72.5238 -1.94415 -0.0574049 0
M  V30 717 O 71.7788 -1.66065 -1.03541 0
M  V30 718 C 72.0778 -2.7712 2.25697 0
M  V30 719 C 71.7438 -2.52477 3.73585 0
M  V30 720 C 70.4058 -2.45466 4.13884 0
M  V30 721 C 72.7578 -2.31066 4.67181 0
M  V30 722 C 70.0858 -2.15064 5.45861 0
M  V30 723 C 72.4378 -2.02183 5.9942 0
M  V30 724 C 71.1018 -1.93631 6.38798 0
M  V30 725 H 70.3718 -0.551936 0.494416 0
M  V30 726 H 73.0188 -0.860979 1.71054 0
M  V30 727 H 71.3238 -3.46528 1.82827 0
M  V30 728 H 73.0208 -3.35096 2.20254 0
M  V30 729 H 69.6108 -2.58807 3.41638 0
M  V30 730 H 73.7948 -2.35459 4.3689 0
M  V30 731 H 69.0508 -2.06954 5.75308 0
M  V30 732 H 73.2248 -1.8462 6.71482 0
M  V30 733 H 70.8518 -1.69839 7.40985 0
M  V30 734 N 72.4269 -1.23603 -0.977757 0
M  V30 735 C 73.3769 -0.986664 -2.05545 0
M  V30 736 C 74.3609 0.0683009 -1.60755 0
M  V30 737 O 75.5529 -0.144162 -1.76412 0
M  V30 738 C 72.6819 -0.582623 -3.3832 0
M  V30 739 C 71.7679 -1.67313 -3.89701 0
M  V30 740 N 72.1589 -2.90394 -4.14132 0
M  V30 741 C 70.4569 -1.54832 -4.18262 0
M  V30 742 C 71.1579 -3.61017 -4.56116 0
M  V30 743 N 70.1339 -2.8854 -4.60701 0
M  V30 744 H 73.9359 -1.92139 -2.22396 0
M  V30 745 H 71.4499 -1.1358 -1.16074 0
M  V30 746 H 73.4469 -0.38524 -4.15116 0
M  V30 747 H 72.1069 0.34503 -3.22862 0
M  V30 748 H 73.1179 -3.26673 -4.01877 0
M  V30 749 H 69.7949 -0.687969 -4.11793 0
M  V30 750 H 71.1849 -4.66544 -4.83514 0
M  V30 751 N 73.905 1.17692 -1.04816 0
M  V30 752 C 75.13 1.92327 -0.776207 0
M  V30 753 C 75.555 1.76082 0.661581 0
M  V30 754 O 74.913 1.076 1.45917 0
M  V30 755 C 74.961 3.41539 -1.15687 0
M  V30 756 O 74.065 4.11402 -0.286775 0
M  V30 757 H 73.406 0.599735 -0.284981 0
M  V30 758 H 75.936 1.49201 -1.4 0
M  V30 759 H 75.946 3.92269 -1.12202 0
M  V30 760 H 74.621 3.52684 -2.20425 0
M  V30 761 H 73.198 3.70939 -0.381903 0
M  V30 762 N 75.3831 0.828654 1.34056 0
M  V30 763 C 76.7941 0.477534 1.8049 0
M  V30 764 C 77.1451 -1.00258 1.6865 0
M  V30 765 O 76.2701 -1.78057 1.22982 0
M  V30 766 C 76.8651 0.860018 3.27703 0
M  V30 767 C 75.4241 0.561185 3.72193 0
M  V30 768 C 74.5711 1.07385 2.55663 0
M  V30 769 H 77.5221 1.0183 1.21722 0
M  V30 770 H 77.5431 0.166038 3.80138 0
M  V30 771 H 77.0551 1.93731 3.36288 0
M  V30 772 H 75.1561 -0.506465 3.69142 0
M  V30 773 H 75.2691 1.10926 4.66082 0
M  V30 774 H 73.6331 0.495149 2.49841 0
M  V30 775 H 74.4161 2.15771 2.67016 0
M  V30 776 N 76.8612 -1.46375 0.584142 0
M  V30 777 C 78.2772 -1.57694 0.245929 0
M  V30 778 C 78.4772 -1.57903 -1.25175 0
M  V30 779 O 77.5332 -1.49676 -2.03355 0
M  V30 780 C 78.8462 -2.87028 0.896402 0
M  V30 781 C 80.3942 -3.00662 0.870127 0
M  V30 782 C 80.8692 -4.32734 1.50017 0
M  V30 783 N 82.3602 -4.39436 1.46458 0
M  V30 784 C 83.0952 -5.40248 1.92144 0
M  V30 785 N 82.5912 -6.47726 2.4581 0
M  V30 786 N 84.3842 -5.31459 1.83052 0
M  V30 787 H 76.5352 -1.44483 1.55687 0
M  V30 788 H 78.7982 -0.689291 0.650831 0
M  V30 789 H 78.5042 -2.9269 1.95002 0
M  V30 790 H 78.3782 -3.75014 0.405486 0
M  V30 791 H 80.7652 -2.94581 -0.174871 0
M  V30 792 H 80.8462 -2.14148 1.39908 0
M  V30 793 H 80.4902 -4.39573 2.54437 0
M  V30 794 H 80.4202 -5.18025 0.946432 0
M  V30 795 H 82.9112 -3.62367 1.07231 0
M  V30 796 H 83.2242 -7.20863 2.78525 0
M  V30 797 H 81.5692 -6.48542 2.49836 0
M  V30 798 H 84.7602 -4.46396 1.40883 0
M  V30 799 H 84.9332 -6.09881 2.18973 0
M  V30 800 N 78.3393 -0.321999 -1.54275 0
M  V30 801 C 79.5643 0.285791 -2.05422 0
M  V30 802 C 79.9893 1.45124 -1.19669 0
M  V30 803 O 79.3473 1.80132 -0.205441 0
M  V30 804 C 79.3953 0.69956 -3.53749 0
M  V30 805 O 78.4993 1.8021 -3.70942 0
M  V30 806 H 77.8403 0.0518962 -0.661969 0
M  V30 807 H 80.3703 -0.469954 -1.9913 0
M  V30 808 H 80.3803 0.982649 -3.9599 0
M  V30 809 H 79.0553 -0.152864 -4.15619 0
M  V30 810 H 77.6323 1.51794 -3.40607 0
M  V30 811 N 79.8174 1.5752 -0.0501392 0
M  V30 812 C 81.0654 1.9227 0.622642 0
M  V30 813 C 81.3864 0.929083 1.71444 0
M  V30 814 O 80.6564 -0.0262186 1.95882 0
M  V30 815 H 79.2364 0.709739 0.232981 0
M  V30 816 H 81.8984 1.94628 -0.102898 0
M  V30 817 H 80.9944 2.93479 1.06191 0
M  V30 818 N 81.2955 -0.223234 1.56011 0
M  V30 819 C 82.2275 -1.30006 1.88762 0
M  V30 820 C 83.2405 -1.43129 0.775746 0
M  V30 821 O 84.4295 -1.44057 1.05403 0
M  V30 822 C 81.5295 -2.67589 2.07965 0
M  V30 823 C 80.7025 -2.76434 3.38973 0
M  V30 824 C 79.7615 -3.95019 3.47629 0
M  V30 825 O 78.7875 -3.83436 4.20672 0
M  V30 826 N 79.9895 -5.09249 2.78649 0
M  V30 827 H 82.7545 -1.02238 2.81722 0
M  V30 828 H 80.3155 -0.413278 1.56536 0
M  V30 829 H 82.3075 -3.45297 2.11073 0
M  V30 830 H 80.8775 -2.87964 1.21638 0
M  V30 831 H 80.0975 -1.85216 3.47978 0
M  V30 832 H 81.3855 -2.79313 4.25278 0
M  V30 833 H 80.7835 -5.21556 2.19081 0
M  V30 834 H 79.3405 -5.85007 2.8742 0
M  V30 835 N 82.7736 -1.49793 -0.48987 0
M  V30 836 C 84.1896 -1.36803 -0.822022 0
M  V30 837 C 84.3896 -0.409652 -1.97292 0
M  V30 838 O 83.4456 0.154614 -2.52026 0
M  V30 839 C 84.7586 -2.77768 -1.15175 0
M  V30 840 C 86.3066 -2.86549 -1.25931 0
M  V30 841 C 86.7816 -4.28306 -1.62228 0
M  V30 842 N 88.2726 -4.31169 -1.69256 0
M  V30 843 C 89.0076 -5.37832 -1.98807 0
M  V30 844 N 88.5036 -6.54726 -2.26507 0
M  V30 845 N 90.2966 -5.25258 -2.00152 0
M  V30 846 H 82.4476 -2.10691 0.268881 0
M  V30 847 H 84.7106 -0.946241 0.057728 0
M  V30 848 H 84.4166 -3.49648 -0.379335 0
M  V30 849 H 84.2906 -3.13836 -2.09253 0
M  V30 850 H 86.6776 -2.14899 -2.02243 0
M  V30 851 H 86.7586 -2.54049 -0.298776 0
M  V30 852 H 86.4026 -5.00486 -0.864622 0
M  V30 853 H 86.3326 -4.58279 -2.594 0
M  V30 854 H 88.8236 -3.4687 -1.49965 0
M  V30 855 H 89.1366 -7.31833 -2.48276 0
M  V30 856 H 87.4816 -6.57933 -2.23939 0
M  V30 857 H 90.6726 -4.32938 -1.77996 0
M  V30 858 H 90.8456 -6.08476 -2.22848 0
M  V30 859 N 84.2517 0.741722 -1.39055 0
M  V30 860 C 85.4917 1.51385 -1.37338 0
M  V30 861 C 85.8557 1.91972 0.0330513 0
M  V30 862 O 87.0567 2.68229 0.175174 0
M  V30 863 C 85.3277 2.72481 -2.31276 0
M  V30 864 S 86.8867 3.62211 -2.47687 0
M  V30 865 H 83.7047 0.517906 -0.487129 0
M  V30 866 H 86.3067 0.86969 -1.7509 0
M  V30 867 H 85.0107 2.40793 -3.32336 0
M  V30 868 H 84.5417 3.41832 -1.94716 0
M  V30 869 H 86.5567 4.65812 -1.70978 0
M  V30 870 N 85.7298 1.2412 0.971189 0
M  V30 871 C 86.9758 1.09048 1.71698 0
M  V30 872 C 87.3308 -0.367442 1.88859 0
M  V30 873 O 86.6238 -1.26792 1.43646 0
M  V30 874 C 86.8178 1.75983 3.11071 0
M  V30 875 C 86.6468 3.28133 3.07504 0
M  V30 876 C 85.4168 3.97331 3.1218 0
M  V30 877 C 87.6148 4.24773 2.89952 0
M  V30 878 N 85.5968 5.3639 2.98596 0
M  V30 879 C 86.9678 5.50806 2.84627 0
M  V30 880 C 89.0228 4.15392 2.74506 0
M  V30 881 C 87.7258 6.68533 2.65437 0
M  V30 882 C 89.7518 5.32793 2.56682 0
M  V30 883 C 89.1138 6.57756 2.52063 0
M  V30 884 H 85.2128 0.453632 0.636979 0
M  V30 885 H 87.7968 1.56983 1.15171 0
M  V30 886 H 85.9678 1.30566 3.65796 0
M  V30 887 H 87.6998 1.53803 3.74335 0
M  V30 888 H 84.4548 3.48473 3.20724 0
M  V30 889 H 84.8788 6.09321 2.95054 0
M  V30 890 H 89.5208 3.19543 2.76861 0
M  V30 891 H 87.2388 7.64509 2.61825 0
M  V30 892 H 90.8248 5.27383 2.4568 0
M  V30 893 H 89.7048 7.4707 2.38446 0
M  V30 894 N 87.2079 -1.17134 1.05439 0
M  V30 895 C 88.1709 -2.19439 0.661764 0
M  V30 896 C 89.1709 -1.58199 -0.288042 0
M  V30 897 O 90.3609 -1.74053 -0.0715803 0
M  V30 898 C 87.4929 -3.40889 -0.0276209 0
M  V30 899 H 88.6859 -2.55688 1.56728 0
M  V30 900 H 86.2389 -1.31259 0.848567 0
M  V30 901 H 86.9739 -3.10187 -0.94629 0
M  V30 902 H 86.7589 -3.86586 0.655238 0
M  V30 903 H 88.2489 -4.16603 -0.288342 0
M  V30 904 N 88.686 -0.835752 -1.33615 0
M  V30 905 C 89.649 -0.272 -2.2758 0
M  V30 906 C 90.649 0.557487 -1.50827 0
M  V30 907 O 91.839 0.37173 -1.70188 0
M  V30 908 C 88.971 0.617173 -3.35267 0
M  V30 909 H 90.164 -1.10111 -2.78954 0
M  V30 910 H 87.717 -0.608594 -1.43965 0
M  V30 911 H 88.452 1.46884 -2.89129 0
M  V30 912 H 88.237 0.0237066 -3.92093 0
M  V30 913 H 89.727 1.005 -4.05326 0
M  V30 914 N 90.1641 1.46063 -0.591896 0
M  V30 915 C 91.5801 1.57561 -0.254288 0
M  V30 916 C 91.7801 1.58565 1.24336 0
M  V30 917 O 90.8361 1.50753 2.02558 0
M  V30 918 C 92.1491 2.86549 -0.911611 0
M  V30 919 C 93.6971 3.00197 -0.886059 0
M  V30 920 C 94.1721 4.31933 -1.5231 0
M  V30 921 N 95.6631 4.38654 -1.48786 0
M  V30 922 C 96.3981 5.39222 -1.95006 0
M  V30 923 N 95.8941 6.46414 -2.49241 0
M  V30 924 N 97.6871 5.3048 -1.85868 0
M  V30 925 H 89.8381 1.43655 -1.56451 0
M  V30 926 H 92.1011 0.68583 -0.654478 0
M  V30 927 H 91.8071 2.91651 -1.96551 0
M  V30 928 H 91.6811 3.74794 -0.425368 0
M  V30 929 H 94.0681 2.9467 0.159246 0
M  V30 930 H 94.1491 2.13403 -1.41041 0
M  V30 931 H 93.7931 4.38217 -2.56765 0
M  V30 932 H 93.7231 5.17516 -0.973891 0
M  V30 933 H 96.2141 3.61793 -1.09151 0
M  V30 934 H 96.5271 7.19376 -2.82344 0
M  V30 935 H 94.8721 6.47208 -2.53272 0
M  V30 936 H 98.0631 4.45643 -1.43248 0
M  V30 937 H 98.2361 6.08711 -2.22204 0
M  V30 938 N 91.6422 0.330177 1.54103 0
M  V30 939 C 92.8702 -0.272179 2.05102 0
M  V30 940 C 93.2852 -1.45267 1.20595 0
M  V30 941 O 92.6422 -1.8094 0.238144 0
M  V30 942 C 92.6932 -0.70023 3.54653 0
M  V30 943 O 92.4142 0.433301 4.35952 0
M  V30 944 C 93.9152 -1.3647 4.21771 0
M  V30 945 H 91.1352 -0.0549159 0.668749 0
M  V30 946 H 93.6792 0.478285 1.98828 0
M  V30 947 H 91.8342 -1.40066 3.61193 0
M  V30 948 H 92.2482 0.0947539 5.24414 0
M  V30 949 H 93.7222 -1.61509 5.27843 0
M  V30 950 H 94.1992 -2.31409 3.73292 0
M  V30 951 H 94.8052 -0.706675 4.19388 0
M  V30 952 N 93.1203 -1.57491 0.0584922 0
M  V30 953 C 94.0523 -2.08916 -0.942694 0
M  V30 954 C 95.0653 -1.0185 -1.27006 0
M  V30 955 O 96.2543 -1.29398 -1.22957 0
M  V30 956 C 93.3543 -2.52341 -2.26224 0
M  V30 957 C 92.5273 -3.82827 -2.1157 0
M  V30 958 C 91.5863 -4.12487 -3.26712 0
M  V30 959 O 90.6123 -4.82295 -3.02292 0
M  V30 960 N 91.8143 -3.64978 -4.5141 0
M  V30 961 H 94.5793 -2.95437 -0.503722 0
M  V30 962 H 92.1403 -1.61397 -0.12757 0
M  V30 963 H 94.1323 -2.69254 -3.02133 0
M  V30 964 H 92.7023 -1.7103 -2.61663 0
M  V30 965 H 91.9223 -3.75425 -1.20208 0
M  V30 966 H 93.2103 -4.68263 -1.99015 0
M  V30 967 H 92.6083 -3.08558 -4.7414 0
M  V30 968 H 91.1653 -3.87115 -5.2439 0
M  V30 969 N 94.5984 0.214957 -1.56127 0
M  V30 970 C 95.8444 0.939762 -1.79712 0
M  V30 971 C 96.1774 1.83723 -0.629247 0
M  V30 972 O 95.4524 1.90925 0.371197 0
M  V30 973 C 95.7354 1.77306 -3.13424 0
M  V30 974 C 95.5884 0.90164 -4.40671 0
M  V30 975 C 96.9074 2.74956 -3.43638 0
M  V30 976 H 94.0264 0.340214 -0.653776 0
M  V30 977 H 96.6684 0.20824 -1.88855 0
M  V30 978 H 94.8184 2.39673 -3.0576 0
M  V30 979 H 96.4904 0.294206 -4.60361 0
M  V30 980 H 94.7334 0.207368 -4.33304 0
M  V30 981 H 95.4044 1.51923 -5.30682 0
M  V30 982 H 97.8804 2.22724 -3.51473 0
M  V30 983 H 96.7564 3.30358 -4.38355 0
M  V30 984 H 97.0174 3.53023 -2.66134 0
M  V30 985 N 96.0765 1.50051 0.48192 0
M  V30 986 C 96.9865 1.7089 1.60728 0
M  V30 987 C 98.0025 0.591788 1.63627 0
M  V30 988 O 99.1785 0.868817 1.81696 0
M  V30 989 C 96.2435 1.78855 2.97005 0
M  V30 990 C 95.3045 3.02537 3.04581 0
M  V30 991 C 94.5375 3.10112 4.34357 0
M  V30 992 O 94.7605 2.24765 5.24249 0
M  V30 993 O 93.6945 4.02747 4.47301 0
M  V30 994 H 97.5205 2.66264 1.46072 0
M  V30 995 H 95.1055 1.34018 0.660264 0
M  V30 996 H 96.9875 1.86336 3.77964 0
M  V30 997 H 95.6625 0.866628 3.11883 0
M  V30 998 H 94.5695 3.00563 2.22739 0
M  V30 999 H 95.9025 3.94272 2.94636 0
M  V30 1000 N 97.5546 -0.734337 1.39446 0
M  V30 1001 C 98.5016 -1.84835 1.38219 0
M  V30 1002 C 99.4716 -1.64331 0.24179 0
M  V30 1003 O 100.657 -1.85728 0.437002 0
M  V30 1004 C 97.7966 -3.22355 1.23212 0
M  V30 1005 C 96.9096 -3.5456 2.46801 0
M  V30 1006 C 96.0446 -4.81485 2.24377 0
M  V30 1007 C 95.0836 -5.06536 3.43639 0
M  V30 1008 N 94.2206 -6.24665 3.20528 0
M  V30 1009 H 99.0606 -1.85219 2.33448 0
M  V30 1010 H 96.5976 -0.905039 1.15963 0
M  V30 1011 H 98.5556 -4.0174 1.12522 0
M  V30 1012 H 97.1856 -3.21248 0.316121 0
M  V30 1013 H 96.2376 -2.69872 2.68092 0
M  V30 1014 H 97.5496 -3.6899 3.3563 0
M  V30 1015 H 96.7036 -5.68852 2.10933 0
M  V30 1016 H 95.4426 -4.6923 1.32944 0
M  V30 1017 H 94.4476 -4.17632 3.5758 0
M  V30 1018 H 95.6726 -5.20676 4.35974 0
M  V30 1019 H 93.6186 -6.13696 2.3176 0
M  V30 1020 H 93.5356 -6.39685 4.02913 0
M  V30 1021 H 94.8036 -7.14868 3.10779 0
M  V30 1022 N 99.0327 -1.24633 -0.964593 0
M  V30 1023 C 100.449 -1.01239 -1.2338 0
M  V30 1024 C 100.649 0.2769 -1.99588 0
M  V30 1025 O 99.7047 0.992241 -2.32187 0
M  V30 1026 C 101.018 -2.22937 -2.01791 0
M  V30 1027 C 102.566 -2.27594 -2.14872 0
M  V30 1028 C 103.041 -3.48921 -2.96678 0
M  V30 1029 N 104.532 -3.49257 -3.04259 0
M  V30 1030 C 105.267 -4.39795 -3.67924 0
M  V30 1031 N 104.763 -5.40591 -4.33281 0
M  V30 1032 N 106.556 -4.275 -3.64966 0
M  V30 1033 H 98.7067 -2.0748 -0.454502 0
M  V30 1034 H 100.97 -0.910647 -0.26349 0
M  V30 1035 H 100.676 -3.16587 -1.53184 0
M  V30 1036 H 100.55 -2.25306 -3.02518 0
M  V30 1037 H 102.937 -1.34473 -2.6268 0
M  V30 1038 H 103.018 -2.2925 -1.13482 0
M  V30 1039 H 102.662 -4.42359 -2.49562 0
M  V30 1040 H 102.592 -3.4451 -3.98272 0
M  V30 1041 H 105.083 -2.76337 -2.57771 0
M  V30 1042 H 105.396 -6.05904 -4.79687 0
M  V30 1043 H 103.741 -5.44475 -4.3194 0
M  V30 1044 H 106.932 -3.47987 -3.13086 0
M  V30 1045 H 107.105 -4.98258 -4.14298 0
M  V30 1046 N 100.511 1.16574 -1.06058 0
M  V30 1047 C 101.441 2.23057 -0.690488 0
M  V30 1048 C 102.422 1.67141 0.315901 0
M  V30 1049 O 103.607 1.93253 0.191556 0
M  V30 1050 C 100.737 3.47222 -0.073625 0
M  V30 1051 C 99.6908 4.16016 -1.00573 0
M  V30 1052 C 99.0168 5.34104 -0.252289 0
M  V30 1053 C 100.317 4.67264 -2.33371 0
M  V30 1054 H 102.011 2.54271 -1.58072 0
M  V30 1055 H 99.5568 1.22218 -0.76149 0
M  V30 1056 H 101.51 4.20939 0.19714 0
M  V30 1057 H 100.234 3.15302 0.85161 0
M  V30 1058 H 98.8928 3.44223 -1.2612 0
M  V30 1059 H 98.5408 4.98437 0.675988 0
M  V30 1060 H 98.2408 5.81072 -0.873455 0
M  V30 1061 H 99.7648 6.10599 0.0109857 0
M  V30 1062 H 101.179 5.32573 -2.12223 0
M  V30 1063 H 99.5758 5.24843 -2.90963 0
M  V30 1064 H 100.646 3.83602 -2.96611 0
M  V30 1065 N 101.989 0.842826 1.3317 0
M  V30 1066 C 103.235 0.441099 1.97945 0
M  V30 1067 C 103.568 -0.998024 1.66593 0
M  V30 1068 O 102.843 -1.69839 0.947898 0
M  V30 1069 C 103.126 0.666841 3.53872 0
M  V30 1070 C 102.979 2.15352 3.94897 0
M  V30 1071 C 104.298 0.115544 4.39948 0
M  V30 1072 H 101.417 0.161739 0.719034 0
M  V30 1073 H 104.059 1.05907 1.57746 0
M  V30 1074 H 102.209 0.140828 3.88245 0
M  V30 1075 H 103.881 2.7447 3.70761 0
M  V30 1076 H 102.124 2.63653 3.44484 0
M  V30 1077 H 102.795 2.26221 5.03516 0
M  V30 1078 H 105.271 0.565213 4.12243 0
M  V30 1079 H 104.147 0.303152 5.48062 0
M  V30 1080 H 104.408 -0.980935 4.3108 0
M  V30 1081 N 103.467 -1.45747 0.599634 0
M  V30 1082 C 104.713 -2.02592 0.0918643 0
M  V30 1083 C 105.046 -1.46806 -1.27128 0
M  V30 1084 O 104.321 -0.639658 -1.83681 0
M  V30 1085 C 104.604 -3.60073 0.0443398 0
M  V30 1086 C 104.457 -4.26208 1.43759 0
M  V30 1087 C 105.776 -4.35309 -0.647608 0
M  V30 1088 H 102.895 -0.736175 0.034857 0
M  V30 1089 H 105.537 -1.73694 0.770081 0
M  V30 1090 H 103.687 -3.84823 -0.533224 0
M  V30 1091 H 105.359 -4.12668 2.06162 0
M  V30 1092 H 103.602 -3.84916 2.00056 0
M  V30 1093 H 104.273 -5.35069 1.35665 0
M  V30 1094 H 106.749 -4.15805 -0.156776 0
M  V30 1095 H 105.625 -5.45038 -0.649942 0
M  V30 1096 H 105.886 -4.07598 -1.71219 0
M  V30 1097 N 104.945 -0.338344 -1.53925 0
M  V30 1098 C 105.875 0.51328 -2.27789 0
M  V30 1099 C 106.856 1.107 -1.29149 0
M  V30 1100 O 108.041 1.12937 -1.57984 0
M  V30 1101 C 105.171 1.66697 -3.04679 0
M  V30 1102 C 104.125 1.20183 -4.1078 0
M  V30 1103 C 103.451 2.44363 -4.75595 0
M  V30 1104 C 104.751 0.30605 -5.21403 0
M  V30 1105 H 106.445 -0.102883 -2.99223 0
M  V30 1106 H 103.991 -0.0509219 -1.4391 0
M  V30 1107 H 105.944 2.26915 -3.55088 0
M  V30 1108 H 104.668 2.30995 -2.30887 0
M  V30 1109 H 103.327 0.622499 -3.61276 0
M  V30 1110 H 102.975 3.07057 -3.98403 0
M  V30 1111 H 102.675 2.13925 -5.47275 0
M  V30 1112 H 104.199 3.05317 -5.28786 0
M  V30 1113 H 105.613 0.814929 -5.67478 0
M  V30 1114 H 104.01 0.0937929 -6.00027 0
M  V30 1115 H 105.08 -0.65921 -4.80398 0
M  V30 1116 N 106.423 1.57458 -0.0668435 0
M  V30 1117 C 107.669 1.93587 0.6043 0
M  V30 1118 C 108.002 0.946722 1.69561 0
M  V30 1119 O 107.277 -0.0248516 1.94484 0
M  V30 1120 C 107.56 3.40014 1.18585 0
M  V30 1121 C 107.413 4.49685 0.101529 0
M  V30 1122 C 108.732 3.87154 2.09284 0
M  V30 1123 H 105.851 0.703958 0.218202 0
M  V30 1124 H 108.493 1.89542 -0.131804 0
M  V30 1125 H 106.643 3.43592 1.81319 0
M  V30 1126 H 108.315 4.5823 -0.531279 0
M  V30 1127 H 106.558 4.30059 -0.568487 0
M  V30 1128 H 107.229 5.49266 0.54874 0
M  V30 1129 H 109.705 3.85551 1.56491 0
M  V30 1130 H 108.581 4.90231 2.46911 0
M  V30 1131 H 108.842 3.2481 2.99918 0
M  V30 1132 N 107.901 -0.206675 1.56239 0
M  V30 1133 C 109.147 -0.930218 1.80208 0
M  V30 1134 C 109.48 -1.83387 0.638981 0
M  V30 1135 O 108.755 -1.91119 -0.361066 0
M  V30 1136 C 109.038 -1.75641 3.1436 0
M  V30 1137 C 108.891 -0.878257 4.41142 0
M  V30 1138 C 110.21 -2.73129 3.45092 0
M  V30 1139 H 107.329 -0.336742 0.655571 0
M  V30 1140 H 109.971 -0.198222 1.88963 0
M  V30 1141 H 108.121 -2.38048 3.07027 0
M  V30 1142 H 109.793 -0.269787 4.6051 0
M  V30 1143 H 108.036 -0.184385 4.33408 0
M  V30 1144 H 108.707 -1.49106 5.3148 0
M  V30 1145 H 111.183 -2.20856 3.52649 0
M  V30 1146 H 110.059 -3.28028 4.40101 0
M  V30 1147 H 110.32 -3.51606 2.68003 0
M  V30 1148 N 109.379 -1.50304 -0.473955 0
M  V30 1149 C 110.309 -1.71886 -1.58042 0
M  V30 1150 C 111.29 -0.567799 -1.60344 0
M  V30 1151 O 112.475 -0.806623 -1.76656 0
M  V30 1152 C 109.605 -1.81036 -2.96384 0
M  V30 1153 C 108.559 -2.962 -3.08949 0
M  V30 1154 C 107.885 -2.9049 -4.48909 0
M  V30 1155 C 109.185 -4.36752 -2.86434 0
M  V30 1156 H 110.879 -2.64527 -1.40234 0
M  V30 1157 H 108.425 -1.27295 -0.673201 0
M  V30 1158 H 110.378 -1.94719 -3.73714 0
M  V30 1159 H 109.102 -0.850147 -3.15341 0
M  V30 1160 H 107.761 -2.82164 -2.3405 0
M  V30 1161 H 107.409 -1.92321 -4.64781 0
M  V30 1162 H 107.109 -3.67802 -4.58253 0
M  V30 1163 H 108.633 -3.06218 -5.28264 0
M  V30 1164 H 110.047 -4.5133 -3.53517 0
M  V30 1165 H 108.444 -5.15493 -3.07225 0
M  V30 1166 H 109.514 -4.49321 -1.82316 0
M  V30 1167 N 110.857 0.726932 -1.39834 0
M  V30 1168 C 111.787 1.85405 -1.41941 0
M  V30 1169 C 112.768 1.67751 -0.281728 0
M  V30 1170 O 113.953 1.8795 -0.488717 0
M  V30 1171 C 111.083 3.23243 -1.2701 0
M  V30 1172 C 110.037 3.55549 -2.38262 0
M  V30 1173 C 109.363 4.9241 -2.08415 0
M  V30 1174 C 110.663 3.577 -3.80589 0
M  V30 1175 H 112.357 1.83899 -2.36266 0
M  V30 1176 H 109.903 0.883349 -1.13723 0
M  V30 1177 H 111.856 4.01775 -1.27103 0
M  V30 1178 H 110.58 3.25296 -0.291564 0
M  V30 1179 H 109.239 2.79351 -2.37399 0
M  V30 1180 H 108.887 4.91052 -1.0898 0
M  V30 1181 H 108.587 5.14992 -2.82943 0
M  V30 1182 H 110.111 5.73289 -2.10171 0
M  V30 1183 H 111.525 4.26293 -3.83337 0
M  V30 1184 H 109.922 3.91804 -4.54543 0
M  V30 1185 H 110.992 2.57328 -4.10987 0
M  V30 1186 N 112.336 1.25143 0.95797 0
M  V30 1187 C 113.299 1.05321 2.03569 0
M  V30 1188 C 114.299 0.007152 1.60798 0
M  V30 1189 O 115.489 0.24903 1.72411 0
M  V30 1190 C 112.621 0.598394 3.35607 0
M  V30 1191 H 113.814 2.00986 2.22586 0
M  V30 1192 H 111.367 1.07502 1.13459 0
M  V30 1193 H 112.102 -0.361014 3.22284 0
M  V30 1194 H 111.887 1.35351 3.67998 0
M  V30 1195 H 113.377 0.48104 4.1482 0
M  V30 1196 N 113.814 -1.1601 1.06675 0
M  V30 1197 C 114.777 -2.18724 0.685001 0
M  V30 1198 C 115.777 -1.58496 -0.271246 0
M  V30 1199 O 116.967 -1.74119 -0.0531156 0
M  V30 1200 C 114.099 -3.40899 0.00853648 0
M  V30 1201 H 115.292 -2.54011 1.59431 0
M  V30 1202 H 112.845 -1.30352 0.862441 0
M  V30 1203 H 113.58 -3.11173 -0.913337 0
M  V30 1204 H 113.365 -3.8587 0.696204 0
M  V30 1205 H 114.855 -4.16886 -0.24414 0
M  V30 1206 N 115.292 -0.849877 -1.32721 0
M  V30 1207 C 116.54 -0.450032 -1.97026 0
M  V30 1208 C 116.861 0.996604 -1.67609 0
M  V30 1209 O 116.131 1.6958 -0.980786 0
M  V30 1210 H 114.711 -0.163426 -0.728904 0
M  V30 1211 H 117.373 -1.08526 -1.6189 0
M  V30 1212 H 116.469 -0.591146 -3.0645 0
M  V30 1213 N 116.77 1.45427 -0.607355 0
M  V30 1214 C 117.7 2.3329 0.0989352 0
M  V30 1215 C 118.681 1.46816 0.859007 0
M  V30 1216 O 119.866 1.75588 0.829604 0
M  V30 1217 C 116.996 3.29518 1.09705 0
M  V30 1218 C 115.95 4.25626 0.450206 0
M  V30 1219 C 115.276 5.11542 1.55655 0
M  V30 1220 C 116.576 5.18505 -0.628455 0
M  V30 1221 H 118.27 2.92595 -0.634716 0
M  V30 1222 H 115.816 1.40696 -0.306681 0
M  V30 1223 H 117.769 3.89855 1.59971 0
M  V30 1224 H 116.493 2.68372 1.86129 0
M  V30 1225 H 115.152 3.66586 -0.0315886 0
M  V30 1226 H 114.8 4.46765 2.31107 0
M  V30 1227 H 114.5 5.76647 1.12925 0
M  V30 1228 H 116.024 5.74748 2.06148 0
M  V30 1229 H 117.438 5.72916 -0.209877 0
M  V30 1230 H 115.835 5.92085 -0.977489 0
M  V30 1231 H 116.905 4.60948 -1.50514 0
M  V30 1232 N 118.248 0.346503 1.53744 0
M  V30 1233 C 119.494 -0.249473 2.0126 0
M  V30 1234 C 119.827 -1.49965 1.23386 0
M  V30 1235 O 119.102 -1.91811 0.32229 0
M  V30 1236 C 119.385 -0.560643 3.55709 0
M  V30 1237 C 119.238 0.701836 4.44291 0
M  V30 1238 C 120.557 -1.36905 4.18264 0
M  V30 1239 H 117.676 -0.0891987 0.731582 0
M  V30 1240 H 120.318 0.467624 1.84156 0
M  V30 1241 H 118.468 -1.17156 3.70414 0
M  V30 1242 H 120.14 1.33974 4.41417 0
M  V30 1243 H 118.383 1.32612 4.13033 0
M  V30 1244 H 119.054 0.43933 5.50249 0
M  V30 1245 H 121.53 -0.852448 4.07275 0
M  V30 1246 H 120.406 -1.55553 5.26398 0
M  V30 1247 H 120.667 -2.37203 3.73078 0
M  V30 1248 N 119.726 -1.57421 0.075193 0
M  V30 1249 C 120.689 -2.11791 -0.876203 0
M  V30 1250 C 121.689 -1.04268 -1.22412 0
M  V30 1251 O 122.879 -1.30242 -1.15684 0
M  V30 1252 C 120.011 -2.62207 -2.17854 0
M  V30 1253 H 121.204 -2.9716 -0.40444 0
M  V30 1254 H 118.757 -1.55333 -0.173557 0
M  V30 1255 H 119.492 -1.803 -2.6956 0
M  V30 1256 H 119.277 -3.40802 -1.93897 0
M  V30 1257 H 120.767 -3.04335 -2.85955 0
M  V30 1258 N 121.204 0.198386 -1.56346 0
M  V30 1259 C 122.444 0.92609 -1.82217 0
M  V30 1260 C 122.808 1.80584 -0.652195 0
M  V30 1261 O 124.009 2.56907 -0.790716 0
M  V30 1262 C 122.28 1.72354 -3.13096 0
M  V30 1263 S 123.839 2.50371 -3.6036 0
M  V30 1264 H 120.657 0.310677 -0.639532 0
M  V30 1265 H 123.259 0.189755 -1.94577 0
M  V30 1266 H 121.963 1.0678 -3.96265 0
M  V30 1267 H 121.494 2.50175 -3.03605 0
M  V30 1268 H 123.509 3.74488 -3.25535 0
M  V30 1269 N 122.682 1.50554 0.465978 0
M  V30 1270 C 123.612 1.72722 1.57128 0
M  V30 1271 C 124.593 0.576294 1.6004 0
M  V30 1272 O 125.778 0.81598 1.76225 0
M  V30 1273 C 122.908 1.82605 2.95419 0
M  V30 1274 C 121.862 2.97835 3.07373 0
M  V30 1275 C 121.188 2.92867 4.47363 0
M  V30 1276 C 122.488 4.38265 2.84114 0
M  V30 1277 H 124.182 2.65267 1.38829 0
M  V30 1278 H 121.728 1.2765 0.666441 0
M  V30 1279 H 123.681 1.96698 3.72677 0
M  V30 1280 H 122.405 0.866858 3.14886 0
M  V30 1281 H 121.064 2.83401 2.3255 0
M  V30 1282 H 120.712 1.94783 4.63755 0
M  V30 1283 H 120.412 3.70227 4.56296 0
M  V30 1284 H 121.936 3.09015 5.26633 0
M  V30 1285 H 123.35 4.53198 3.51118 0
M  V30 1286 H 121.747 5.17115 3.04487 0
M  V30 1287 H 122.817 4.50281 1.7993 0
M  V30 1288 N 124.16 -0.719506 1.40217 0
M  V30 1289 C 125.123 -1.8153 1.39927 0
M  V30 1290 C 126.123 -1.58095 0.293723 0
M  V30 1291 O 127.313 -1.65209 0.552429 0
M  V30 1292 C 124.445 -3.19561 1.18716 0
M  V30 1293 H 125.638 -1.83186 2.37451 0
M  V30 1294 H 123.191 -0.924746 1.26008 0
M  V30 1295 H 123.926 -3.23557 0.219366 0
M  V30 1296 H 123.711 -3.3797 1.98793 0
M  V30 1297 H 125.201 -3.99598 1.21291 0
M  V30 1298 N 125.638 -1.25649 -0.95132 0
M  V30 1299 C 126.601 -1.06399 -2.03007 0
M  V30 1300 C 127.601 -0.0156794 -1.60792 0
M  V30 1301 O 128.791 -0.25817 -1.72276 0
M  V30 1302 C 125.923 -0.616184 -3.35285 0
M  V30 1303 H 127.116 -2.02164 -2.21517 0
M  V30 1304 H 124.669 -1.08103 -1.12887 0
M  V30 1305 H 125.404 0.343917 -3.22471 0
M  V30 1306 H 125.189 -1.37301 -3.67275 0
M  V30 1307 H 126.679 -0.503032 -4.14559 0
M  V30 1308 N 127.117 1.15442 -1.07289 0
M  V30 1309 C 128.047 2.22312 -0.714107 0
M  V30 1310 C 129.028 1.67467 0.298155 0
M  V30 1311 O 130.213 1.93445 0.171048 0
M  V30 1312 C 127.343 3.47124 -0.110448 0
M  V30 1313 C 126.297 4.14926 -1.04979 0
M  V30 1314 C 125.623 5.33807 -0.308924 0
M  V30 1315 C 126.923 4.64762 -2.38314 0
M  V30 1316 H 128.617 2.5258 -1.6076 0
M  V30 1317 H 126.163 1.21404 -0.77441 0
M  V30 1318 H 128.116 4.21124 0.152482 0
M  V30 1319 H 126.84 3.16187 0.81812 0
M  V30 1320 H 125.499 3.42866 -1.29764 0
M  V30 1321 H 125.147 4.99126 0.623084 0
M  V30 1322 H 124.847 5.80113 -0.935036 0
M  V30 1323 H 126.371 6.10576 -0.0537771 0
M  V30 1324 H 127.785 5.30292 -2.1786 0
M  V30 1325 H 126.182 5.21728 -2.96514 0
M  V30 1326 H 127.252 3.80434 -3.00663 0
M  V30 1327 N 128.595 0.856903 1.32268 0
M  V30 1328 C 129.843 0.460474 1.96784 0
M  V30 1329 C 130.164 -0.987701 1.68135 0
M  V30 1330 O 129.434 -1.69058 0.989765 0
M  V30 1331 H 128.014 0.167289 0.728027 0
M  V30 1332 H 130.676 1.09383 1.61312 0
M  V30 1333 H 129.772 0.60739 3.06133 0
M  V30 1334 N 130.073 -1.45103 0.615059 0
M  V30 1335 C 131.322 -2.01396 0.110718 0
M  V30 1336 C 131.635 -1.48834 -1.26916 0
M  V30 1337 O 132.841 -1.97152 -1.86664 0
M  V30 1338 C 131.297 -3.59599 0.14723 0
M  V30 1339 C 130.905 -4.21158 1.52743 0
M  V30 1340 C 132.649 -4.23428 -0.30148 0
M  V30 1341 C 130.556 -5.71535 1.51992 0
M  V30 1342 H 129.486 -0.753061 0.0376241 0
M  V30 1343 H 132.137 -1.66494 0.77149 0
M  V30 1344 H 130.519 -3.91724 -0.580339 0
M  V30 1345 H 131.693 -4.00594 2.2773 0
M  V30 1346 H 130.008 -3.69552 1.91886 0
M  V30 1347 H 132.605 -5.33703 -0.326392 0
M  V30 1348 H 132.948 -3.94629 -1.32565 0
M  V30 1349 H 133.481 -3.96047 0.373065 0
M  V30 1350 H 130.22 -6.05044 2.52193 0
M  V30 1351 H 129.74 -5.94268 0.81274 0
M  V30 1352 H 131.419 -6.34873 1.24681 0
M  V30 1353 N 131.551 -0.354651 -1.53558 0
M  V30 1354 C 132.483 0.5315 -2.22952 0
M  V30 1355 C 133.496 1.05503 -1.23988 0
M  V30 1356 O 134.685 0.963279 -1.50277 0
M  V30 1357 C 131.785 1.74538 -2.90499 0
M  V30 1358 C 130.958 1.35524 -4.15875 0
M  V30 1359 C 130.017 2.42999 -4.66731 0
M  V30 1360 O 129.043 2.05844 -5.30676 0
M  V30 1361 N 130.245 3.74423 -4.43608 0
M  V30 1362 H 133.01 -0.0628615 -2.99634 0
M  V30 1363 H 130.571 -0.179302 -1.60904 0
M  V30 1364 H 132.563 2.45892 -3.21433 0
M  V30 1365 H 131.133 2.24686 -2.17336 0
M  V30 1366 H 130.353 0.471998 -3.91364 0
M  V30 1367 H 131.641 1.07071 -4.97406 0
M  V30 1368 H 131.039 4.07391 -3.92491 0
M  V30 1369 H 129.596 4.41913 -4.7912 0
M  V30 1370 N 133.029 1.57378 -0.0835403 0
M  V30 1371 C 134.259 1.97975 0.590713 0
M  V30 1372 C 134.667 0.961083 1.62972 0
M  V30 1373 O 134.01 -0.0590879 1.83605 0
M  V30 1374 C 134.072 3.34915 1.3066 0
M  V30 1375 C 133.736 4.55069 0.419698 0
M  V30 1376 C 134.733 5.18868 -0.32749 0
M  V30 1377 C 132.418 5.0114 0.341137 0
M  V30 1378 C 134.412 6.27098 -1.14134 0
M  V30 1379 C 132.099 6.0924 -0.476374 0
M  V30 1380 C 133.097 6.72083 -1.21627 0
M  V30 1381 O 132.785 7.781 -2.02028 0
M  V30 1382 H 132.517 0.655818 0.163947 0
M  V30 1383 H 135.071 2.04807 -0.156021 0
M  V30 1384 H 133.301 3.24733 2.09966 0
M  V30 1385 H 134.99 3.60037 1.87424 0
M  V30 1386 H 135.756 4.84211 -0.276459 0
M  V30 1387 H 131.635 4.51996 0.90668 0
M  V30 1388 H 135.179 6.7608 -1.71935 0
M  V30 1389 H 131.076 6.43329 -0.528927 0
M  V30 1390 H 131.844 7.95034 -1.94586 0
M  V30 1391 N 134.507 -0.190092 1.56449 0
M  V30 1392 C 135.439 -1.25973 1.91477 0
M  V30 1393 C 136.452 -1.41452 0.805931 0
M  V30 1394 O 137.641 -1.41789 1.08435 0
M  V30 1395 C 134.741 -2.63117 2.13594 0
M  V30 1396 C 133.914 -2.69182 3.4476 0
M  V30 1397 C 132.973 -3.87557 3.5593 0
M  V30 1398 O 131.999 -3.74427 4.28711 0
M  V30 1399 N 133.201 -5.03224 2.89388 0
M  V30 1400 H 135.966 -0.962394 2.83828 0
M  V30 1401 H 133.527 -0.379981 1.57378 0
M  V30 1402 H 135.519 -3.40742 2.1835 0
M  V30 1403 H 134.089 -2.85319 1.27719 0
M  V30 1404 H 133.309 -1.77793 3.51828 0
M  V30 1405 H 134.597 -2.70229 4.31107 0
M  V30 1406 H 133.995 -5.16791 2.30094 0
M  V30 1407 H 132.552 -5.78778 2.99764 0
M  V30 1408 N 135.985 -1.50799 -0.457987 0
M  V30 1409 C 137.213 -1.66218 -1.23203 0
M  V30 1410 C 137.628 -0.350894 -1.85511 0
M  V30 1411 O 136.985 0.668546 -1.69814 0
M  V30 1412 C 137.036 -2.76291 -2.33121 0
M  V30 1413 O 136.757 -4.02338 -1.73366 0
M  V30 1414 C 138.258 -3.028 -3.2377 0
M  V30 1415 H 135.478 -0.558361 -0.372121 0
M  V30 1416 H 138.022 -1.97099 -0.545179 0
M  V30 1417 H 136.177 -2.48068 -2.97558 0
M  V30 1418 H 136.591 -4.63312 -2.4585 0
M  V30 1419 H 138.065 -3.8345 -3.97077 0
M  V30 1420 H 138.542 -2.14385 -3.83322 0
M  V30 1421 H 139.148 -3.32604 -2.65056 0
M  V30 1422 N 137.463 0.71206 -1.40597 0
M  V30 1423 C 138.879 1.02058 -1.22704 0
M  V30 1424 C 139.079 2.01228 -0.104729 0
M  V30 1425 O 138.135 2.4674 0.53624 0
M  V30 1426 C 139.448 1.56094 -2.57012 0
M  V30 1427 C 140.996 1.6806 -2.64054 0
M  V30 1428 C 141.471 2.25501 -3.9864 0
M  V30 1429 N 142.962 2.32882 -4.004 0
M  V30 1430 C 143.697 2.78317 -5.01325 0
M  V30 1431 N 143.193 3.23478 -6.12645 0
M  V30 1432 N 144.986 2.77733 -4.88693 0
M  V30 1433 H 137.137 0.0547896 -2.12329 0
M  V30 1434 H 139.4 0.0869027 -0.944008 0
M  V30 1435 H 139.106 0.906865 -3.39807 0
M  V30 1436 H 138.98 2.54564 -2.78347 0
M  V30 1437 H 141.367 2.32583 -1.81629 0
M  V30 1438 H 141.448 0.681802 -2.46546 0
M  V30 1439 H 141.092 1.61598 -4.81506 0
M  V30 1440 H 141.022 3.26102 -4.13479 0
M  V30 1441 H 143.513 2.00991 -3.20017 0
M  V30 1442 H 143.826 3.56725 -6.85542 0
M  V30 1443 H 142.171 3.21429 -6.16205 0
M  V30 1444 H 145.362 2.4179 -4.00818 0
M  V30 1445 H 145.535 3.12826 -5.67489 0
M  V30 1446 N 138.941 1.26152 0.944643 0
M  V30 1447 C 140.166 1.14363 1.7302 0
M  V30 1448 C 140.591 -0.29772 1.85729 0
M  V30 1449 O 139.949 -1.2157 1.34501 0
M  V30 1450 C 139.997 1.81378 3.11664 0
M  V30 1451 O 139.101 1.10022 3.97453 0
M  V30 1452 H 138.442 0.398694 0.53098 0
M  V30 1453 H 140.972 1.66906 1.18337 0
M  V30 1454 H 140.982 1.88064 3.62072 0
M  V30 1455 H 139.657 2.86237 3.0173 0
M  V30 1456 H 138.234 1.11287 3.55907 0
M  V30 1457 N 140.419 -1.14872 1.07899 0
M  V30 1458 C 141.83 -1.67367 0.827363 0
M  V30 1459 C 142.181 -1.85236 -0.646693 0
M  V30 1460 O 141.306 -1.55974 -1.50004 0
M  V30 1461 C 141.901 -3.04016 1.49532 0
M  V30 1462 C 140.46 -3.53566 1.29106 0
M  V30 1463 C 139.607 -2.29161 1.56143 0
M  V30 1464 H 142.558 -0.990083 1.24028 0
M  V30 1465 H 142.579 -3.69219 0.919643 0
M  V30 1466 H 142.091 -2.90978 2.56814 0
M  V30 1467 H 140.192 -3.71835 0.238713 0
M  V30 1468 H 140.305 -4.34661 2.01511 0
M  V30 1469 H 138.669 -2.34978 0.982717 0
M  V30 1470 H 139.452 -2.18705 2.64619 0
M  V30 1471 N 141.898 -0.863906 -1.31812 0
M  V30 1472 C 143.123 -0.48527 -2.01643 0
M  V30 1473 C 143.548 0.913058 -1.64453 0
M  V30 1474 O 142.906 1.6014 -0.849985 0
M  V30 1475 C 142.954 -0.642625 -3.54828 0
M  V30 1476 O 142.058 0.320659 -4.11151 0
M  V30 1477 H 141.399 -0.193793 -0.635091 0
M  V30 1478 H 143.929 -1.16565 -1.68148 0
M  V30 1479 H 143.939 -0.533628 -4.04495 0
M  V30 1480 H 142.614 -1.66227 -3.81237 0
M  V30 1481 H 141.191 0.167126 -3.72525 0
M  V30 1482 N 143.376 1.44774 -0.622745 0
M  V30 1483 C 144.622 2.0242 -0.124083 0
M  V30 1484 C 144.955 1.4881 1.24777 0
M  V30 1485 O 144.23 0.668799 1.8264 0
M  V30 1486 C 144.513 3.59957 -0.101619 0
M  V30 1487 C 144.366 4.23867 -1.50521 0
M  V30 1488 C 145.685 4.36284 0.578272 0
M  V30 1489 H 142.804 0.735528 -0.0465645 0
M  V30 1490 H 145.446 1.72447 -0.797617 0
M  V30 1491 H 143.596 3.85623 0.471934 0
M  V30 1492 H 145.268 4.09336 -2.12701 0
M  V30 1493 H 143.511 3.81684 -2.06154 0
M  V30 1494 H 144.182 5.32843 -1.4416 0
M  V30 1495 H 146.658 4.16001 0.0906057 0
M  V30 1496 H 145.534 5.46004 0.563149 0
M  V30 1497 H 145.795 4.10271 1.64713 0
M  V30 1498 N 144.854 0.36279 1.53368 0
M  V30 1499 C 146.094 -0.227882 2.03126 0
M  V30 1500 C 146.458 -1.4622 1.24434 0
M  V30 1501 O 147.659 -2.12831 1.64184 0
M  V30 1502 C 145.93 -0.515427 3.53664 0
M  V30 1503 S 147.489 -1.08017 4.25297 0
M  V30 1504 H 144.307 -0.0665377 0.70788 0
M  V30 1505 H 146.909 0.50501 1.88865 0
M  V30 1506 H 145.613 0.390436 4.08539 0
M  V30 1507 H 145.144 -1.27747 3.72081 0
M  V30 1508 H 147.159 -2.36462 4.36234 0
M  V30 1509 N 146.332 -1.57332 0.0918853 0
M  V30 1510 C 147.262 -2.16872 -0.865371 0
M  V30 1511 C 148.243 -1.10118 -1.29646 0
M  V30 1512 O 149.428 -1.38242 -1.36392 0
M  V30 1513 C 146.558 -2.74649 -2.12569 0
M  V30 1514 C 145.512 -3.86747 -1.83333 0
M  V30 1515 C 144.838 -4.31212 -3.16166 0
M  V30 1516 C 146.138 -5.10089 -1.1228 0
M  V30 1517 H 147.832 -2.97114 -0.369307 0
M  V30 1518 H 145.378 -1.42918 -0.176194 0
M  V30 1519 H 147.331 -3.14952 -2.7997 0
M  V30 1520 H 146.055 -1.91657 -2.64452 0
M  V30 1521 H 144.714 -3.46978 -1.18331 0
M  V30 1522 H 144.362 -3.45115 -3.6593 0
M  V30 1523 H 144.062 -5.06788 -2.97388 0
M  V30 1524 H 145.586 -4.74146 -3.84731 0
M  V30 1525 H 147 -5.47582 -1.69785 0
M  V30 1526 H 145.397 -5.91073 -1.03693 0
M  V30 1527 H 146.467 -4.84786 -0.105041 0
M  V30 1528 N 147.81 0.181792 -1.56548 0
M  V30 1529 C 149.035 0.920019 -1.85877 0
M  V30 1530 C 149.46 1.75494 -0.677021 0
M  V30 1531 O 148.818 1.77399 0.374056 0
M  V30 1532 C 148.866 1.78112 -3.13542 0
M  V30 1533 O 147.97 2.88152 -2.95029 0
M  V30 1534 H 147.311 0.258334 -0.611686 0
M  V30 1535 H 149.841 0.183092 -2.03779 0
M  V30 1536 H 149.851 2.18314 -3.44678 0
M  V30 1537 H 148.526 1.16777 -3.99169 0
M  V30 1538 H 147.103 2.51609 -2.75222 0
M  V30 1539 N 149.288 1.51039 0.449983 0
M  V30 1540 C 150.198 1.74261 1.57067 0
M  V30 1541 C 151.214 0.626363 1.62335 0
M  V30 1542 O 152.39 0.907162 1.79812 0
M  V30 1543 C 149.455 1.85114 2.93144 0
M  V30 1544 C 148.516 3.0893 2.98095 0
M  V30 1545 C 147.749 3.19256 4.27681 0
M  V30 1546 O 147.972 2.35835 5.19363 0
M  V30 1547 O 146.906 4.12144 4.38658 0
M  V30 1548 H 150.732 2.69303 1.40391 0
M  V30 1549 H 148.317 1.35389 0.631688 0
M  V30 1550 H 150.199 1.94311 3.73926 0
M  V30 1551 H 148.874 0.932588 3.09975 0
M  V30 1552 H 147.781 3.0522 2.16314 0
M  V30 1553 H 149.114 4.00433 2.86206 0
M  V30 1554 N 150.766 -0.704594 1.40972 0
M  V30 1555 C 151.729 -1.80035 1.41845 0
M  V30 1556 C 152.729 -1.57774 0.310474 0
M  V30 1557 O 153.919 -1.64613 0.56992 0
M  V30 1558 C 151.051 -3.18284 1.22098 0
M  V30 1559 H 152.244 -1.80658 2.3938 0
M  V30 1560 H 149.797 -0.911329 1.26982 0
M  V30 1561 H 150.532 -3.23306 0.253672 0
M  V30 1562 H 150.317 -3.35843 2.02366 0
M  V30 1563 H 151.807 -3.98289 1.25522 0
M  V30 1564 N 152.244 -1.26651 -0.937939 0
M  V30 1565 C 153.484 -1.13611 -1.69917 0
M  V30 1566 C 153.848 0.314687 -1.89404 0
M  V30 1567 O 155.049 0.567285 -2.62746 0
M  V30 1568 C 153.32 -1.88742 -3.03498 0
M  V30 1569 S 154.879 -1.91794 -3.94665 0
M  V30 1570 H 151.697 -0.405767 -0.583844 0
M  V30 1571 H 154.299 -1.60416 -1.11745 0
M  V30 1572 H 153.003 -2.9336 -2.86999 0
M  V30 1573 H 152.534 -1.42391 -3.66727 0
M  V30 1574 H 154.549 -1.00698 -4.85875 0
M  V30 1575 N 153.722 1.14298 -1.08507 0
M  V30 1576 C 154.968 1.85633 -0.816581 0
M  V30 1577 C 155.301 1.82784 0.656021 0
M  V30 1578 O 154.576 1.25926 1.48233 0
M  V30 1579 C 154.859 3.34223 -1.34041 0
M  V30 1580 C 154.712 3.45639 -2.87843 0
M  V30 1581 C 156.031 4.29356 -0.9665 0
M  V30 1582 H 153.15 0.67402 -0.298104 0
M  V30 1583 H 155.792 1.34214 -1.34487 0
M  V30 1584 H 153.942 3.78144 -0.89104 0
M  V30 1585 H 155.614 3.10498 -3.41158 0
M  V30 1586 H 153.857 2.86817 -3.25451 0
M  V30 1587 H 154.528 4.50089 -3.19569 0
M  V30 1588 H 157.004 3.93457 -1.35391 0
M  V30 1589 H 155.88 5.3178 -1.3602 0
M  V30 1590 H 156.141 4.41919 0.126362 0
M  V30 1591 N 155.201 0.870884 1.31352 0
M  V30 1592 C 156.426 0.495957 2.01383 0
M  V30 1593 C 156.851 -0.904324 1.64935 0
M  V30 1594 O 156.209 -1.59687 0.858466 0
M  V30 1595 C 156.257 0.661433 3.54482 0
M  V30 1596 O 155.361 -0.298851 4.11316 0
M  V30 1597 H 154.702 0.197158 0.634054 0
M  V30 1598 H 157.232 1.17455 1.67527 0
M  V30 1599 H 157.242 0.555072 4.04207 0
M  V30 1600 H 155.917 1.68246 3.8035 0
M  V30 1601 H 154.494 -0.147368 3.72609 0
M  V30 1602 N 156.679 -1.44442 0.630414 0
M  V30 1603 C 157.925 -2.02351 0.134816 0
M  V30 1604 C 158.258 -1.4947 -1.23986 0
M  V30 1605 O 157.533 -0.678475 -1.82283 0
M  V30 1606 C 157.816 -3.59898 0.120707 0
M  V30 1607 C 157.669 -4.23063 1.52767 0
M  V30 1608 C 158.988 -4.36585 -0.555127 0
M  V30 1609 H 156.107 -0.73527 0.0504646 0
M  V30 1610 H 158.749 -1.72022 0.806751 0
M  V30 1611 H 156.899 -3.85868 -0.451477 0
M  V30 1612 H 158.571 -4.08202 2.14869 0
M  V30 1613 H 156.814 -3.80586 2.08175 0
M  V30 1614 H 157.485 -5.32071 1.46984 0
M  V30 1615 H 159.961 -4.16044 -0.0685429 0
M  V30 1616 H 158.837 -5.46294 -0.534185 0
M  V30 1617 H 159.098 -4.11138 -1.62535 0
M  V30 1618 N 158.157 -0.370918 -1.53173 0
M  V30 1619 C 159.385 0.217704 -2.05751 0
M  V30 1620 C 159.8 1.42018 -1.24404 0
M  V30 1621 O 159.157 1.80245 -0.286033 0
M  V30 1622 C 159.208 0.605954 -3.56385 0
M  V30 1623 O 158.929 -0.548734 -4.3465 0
M  V30 1624 C 160.43 1.2524 -4.25241 0
M  V30 1625 H 157.65 0.0371659 -0.66997 0
M  V30 1626 H 160.194 -0.530832 -1.9749 0
M  V30 1627 H 158.349 1.3044 -3.6478 0
M  V30 1628 H 158.763 -0.23376 -5.23979 0
M  V30 1629 H 160.237 1.47458 -5.3194 0
M  V30 1630 H 160.714 2.2143 -3.79296 0
M  V30 1631 H 161.32 0.595233 -4.21114 0
M  V30 1632 N 159.635 1.57281 -0.100228 0
M  V30 1633 C 160.86 1.99302 0.573881 0
M  V30 1634 C 161.285 0.979059 1.60611 0
M  V30 1635 O 160.643 -0.0517803 1.81226 0
M  V30 1636 C 160.691 3.40274 1.19358 0
M  V30 1637 O 159.795 3.41676 2.30935 0
M  V30 1638 H 159.136 0.647944 0.145138 0
M  V30 1639 H 161.666 2.03779 -0.183156 0
M  V30 1640 H 161.676 3.78078 1.53365 0
M  V30 1641 H 160.351 4.13594 0.437385 0
M  V30 1642 H 158.928 3.15672 1.98509 0
M  V30 1643 N 161.113 -0.173488 1.56642 0
M  V30 1644 C 162.338 -0.910149 1.86363 0
M  V30 1645 C 162.763 -1.75132 0.686318 0
M  V30 1646 O 162.121 -1.77595 -0.364643 0
M  V30 1647 C 162.169 -1.76447 3.14482 0
M  V30 1648 O 161.273 -2.86584 2.96553 0
M  V30 1649 H 160.614 -0.255086 0.613047 0
M  V30 1650 H 163.144 -0.172283 2.03873 0
M  V30 1651 H 163.154 -2.16483 3.45831 0
M  V30 1652 H 161.829 -1.14658 3.99783 0
M  V30 1653 H 160.406 -2.50146 2.76553 0
M  V30 1654 N 162.591 -1.51276 -0.441967 0
M  V30 1655 C 163.84 -1.6295 -1.18871 0
M  V30 1656 C 164.153 -0.349312 -1.92456 0
M  V30 1657 O 165.359 -0.345355 -2.69295 0
M  V30 1658 C 163.815 -2.87759 -2.16155 0
M  V30 1659 C 163.423 -4.22764 -1.48239 0
M  V30 1660 C 165.167 -3.08788 -2.91291 0
M  V30 1661 C 163.074 -5.38728 -2.4398 0
M  V30 1662 H 162.004 -0.606913 -0.447406 0
M  V30 1663 H 164.655 -1.77739 -0.456205 0
M  V30 1664 H 163.037 -2.66593 -2.92821 0
M  V30 1665 H 164.211 -4.54293 -0.771635 0
M  V30 1666 H 162.526 -4.07575 -0.852741 0
M  V30 1667 H 165.123 -3.92599 -3.63002 0
M  V30 1668 H 165.466 -2.21679 -3.5237 0
M  V30 1669 H 165.999 -3.30272 -2.21733 0
M  V30 1670 H 162.738 -6.28082 -1.87598 0
M  V30 1671 H 162.258 -5.1158 -3.13123 0
M  V30 1672 H 163.937 -5.70489 -3.05207 0
M  V30 1673 N 164.069 0.697108 -1.41344 0
M  V30 1674 C 164.999 1.82353 -1.45841 0
M  V30 1675 C 165.98 1.67115 -0.317247 0
M  V30 1676 O 167.165 1.86871 -0.528474 0
M  V30 1677 C 164.295 3.20476 -1.33838 0
M  V30 1678 C 163.249 3.50415 -2.4575 0
M  V30 1679 C 162.575 4.87878 -2.18813 0
M  V30 1680 C 163.875 3.49546 -3.88091 0
M  V30 1681 H 165.569 1.78846 -2.40113 0
M  V30 1682 H 163.115 0.859028 -1.15571 0
M  V30 1683 H 165.068 3.98988 -1.35596 0
M  V30 1684 H 163.792 3.24604 -0.360498 0
M  V30 1685 H 162.451 2.74253 -2.43271 0
M  V30 1686 H 162.099 4.8863 -1.19371 0
M  V30 1687 H 161.799 5.08875 -2.93803 0
M  V30 1688 H 163.323 5.68702 -2.22284 0
M  V30 1689 H 164.737 4.18066 -3.92293 0
M  V30 1690 H 163.134 3.82075 -4.62751 0
M  V30 1691 H 164.204 2.48552 -4.16353 0
M  V30 1692 N 165.547 1.27147 0.931209 0
M  V30 1693 C 166.772 1.16191 1.71797 0
M  V30 1694 C 167.197 -0.278004 1.86034 0
M  V30 1695 O 166.555 -1.20137 1.35782 0
M  V30 1696 C 166.603 1.84673 3.09723 0
M  V30 1697 O 165.707 1.14231 3.96264 0
M  V30 1698 H 165.048 0.404303 0.526721 0
M  V30 1699 H 167.578 1.68152 1.1656 0
M  V30 1700 H 167.588 1.91893 3.60057 0
M  V30 1701 H 166.263 2.89421 2.98677 0
M  V30 1702 H 164.84 1.15056 3.54706 0
M  V30 1703 N 167.025 -1.13721 1.09112 0
M  V30 1704 C 168.25 -1.89314 0.847053 0
M  V30 1705 C 168.675 -1.78416 -0.595774 0
M  V30 1706 O 168.033 -1.12942 -1.41823 0
M  V30 1707 C 168.081 -3.3701 1.28284 0
M  V30 1708 O 167.185 -4.10054 0.439267 0
M  V30 1709 H 166.526 -0.588745 0.307044 0
M  V30 1710 H 169.056 -1.43902 1.45442 0
M  V30 1711 H 169.066 -3.87834 1.26683 0
M  V30 1712 H 167.741 -3.4426 2.33363 0
M  V30 1713 H 166.318 -3.69266 0.519312 0
M  V30 1714 N 168.503 -0.877838 -1.30888 0
M  V30 1715 C 169.436 -0.283995 -2.26426 0
M  V30 1716 C 170.414 0.591361 -1.51465 0
M  V30 1717 O 171.598 0.54304 -1.80509 0
M  V30 1718 C 168.725 0.597129 -3.33395 0
M  V30 1719 C 167.771 -0.207937 -4.25993 0
M  V30 1720 S 168.604 -1.59158 -5.11301 0
M  V30 1721 C 169.76 -0.716791 -6.21782 0
M  V30 1722 H 169.993 -1.09383 -2.76446 0
M  V30 1723 H 167.526 -0.676828 -1.38775 0
M  V30 1724 H 169.484 1.09978 -3.95493 0
M  V30 1725 H 168.145 1.38099 -2.82113 0
M  V30 1726 H 167.338 0.464163 -5.01858 0
M  V30 1727 H 166.94 -0.642963 -3.68432 0
M  V30 1728 H 169.232 0.0692833 -6.77465 0
M  V30 1729 H 170.175 -1.44682 -6.93161 0
M  V30 1730 H 170.583 -0.280855 -5.63801 0
M  V30 1731 N 169.982 1.44106 -0.638065 0
M  V30 1732 C 171.259 1.95453 -0.0759321 0
M  V30 1733 C 171.639 1.57984 1.40015 0
M  V30 1734 O 170.987 0.857361 2.11806 0
M  V30 1735 C 171.197 3.47655 -0.306132 0
M  V30 1736 C 172.545 4.24114 -0.203008 0
M  V30 1737 O 173.569 3.55405 -0.237871 0
M  V30 1738 O 172.428 5.46381 -0.113827 0
M  V30 1739 H 169.522 0.826797 0.0183332 0
M  V30 1740 H 172.068 1.54122 -0.710251 0
M  V30 1741 H 170.84 3.68 -1.3301 0
M  V30 1742 H 170.463 3.95949 0.361991 0
M  V30 1743 N 171.46 0.379036 1.52974 0
M  V30 1744 C 172.871 -0.0972525 1.86447 0
M  V30 1745 C 173.222 -1.47027 1.29914 0
M  V30 1746 O 172.347 -2.07135 0.626433 0
M  V30 1747 C 172.942 -0.183248 3.38304 0
M  V30 1748 C 171.501 -0.603812 3.71525 0
M  V30 1749 C 170.648 0.240632 2.76254 0
M  V30 1750 H 173.599 0.597316 1.4703 0
M  V30 1751 H 173.62 -1.00432 3.67006 0
M  V30 1752 H 173.132 0.816191 3.79421 0
M  V30 1753 H 171.233 -1.61099 3.35973 0
M  V30 1754 H 171.346 -0.369086 4.77676 0
M  V30 1755 H 169.71 -0.292548 2.53014 0
M  V30 1756 H 170.493 1.23786 3.20206 0
M  V30 1757 N 172.938 -1.57226 0.108567 0
M  V30 1758 C 174.166 -1.99179 -0.559954 0
M  V30 1759 C 174.581 -0.988022 -1.60884 0
M  V30 1760 O 173.938 0.0205512 -1.82488 0
M  V30 1761 C 173.989 -3.41159 -1.19552 0
M  V30 1762 O 173.71 -4.37694 -0.188577 0
M  V30 1763 C 175.211 -3.98188 -1.94837 0
M  V30 1764 H 172.431 -0.654228 -0.149088 0
M  V30 1765 H 174.975 -2.03598 0.19183 0
M  V30 1766 H 173.13 -3.37711 -1.89815 0
M  V30 1767 H 173.544 -5.20469 -0.649014 0
M  V30 1768 H 175.018 -4.99644 -2.34648 0
M  V30 1769 H 175.495 -3.3675 -2.81951 0
M  V30 1770 H 176.101 -4.0515 -1.2936 0
M  V30 1771 N 174.416 0.165178 -1.56732 0
M  V30 1772 C 175.662 0.882112 -1.82611 0
M  V30 1773 C 175.995 1.81628 -0.687378 0
M  V30 1774 O 175.27 1.92009 0.310267 0
M  V30 1775 C 175.553 1.67245 -3.18906 0
M  V30 1776 C 175.406 0.760987 -4.43316 0
M  V30 1777 C 176.725 2.63884 -3.52212 0
M  V30 1778 H 173.844 0.319242 -0.664269 0
M  V30 1779 H 176.486 0.148052 -1.89422 0
M  V30 1780 H 174.636 2.29824 -3.1323 0
M  V30 1781 H 176.308 0.147596 -4.61064 0
M  V30 1782 H 174.551 0.0694102 -4.33744 0
M  V30 1783 H 175.222 1.34962 -5.35247 0
M  V30 1784 H 177.698 2.11429 -3.58381 0
M  V30 1785 H 176.574 3.16245 -4.48643 0
M  V30 1786 H 176.835 3.44377 -2.77231 0
M  V30 1787 N 175.894 1.51508 0.433938 0
M  V30 1788 C 177.171 1.54888 1.19453 0
M  V30 1789 C 177.551 0.315154 2.08734 0
M  V30 1790 O 176.899 -0.699558 2.17528 0
M  V30 1791 C 177.109 2.86467 1.99342 0
M  V30 1792 C 178.457 3.38545 2.56267 0
M  V30 1793 O 179.481 2.88041 2.0955 0
M  V30 1794 O 178.34 4.26675 3.41483 0
M  V30 1795 H 175.434 0.622863 0.544032 0
M  V30 1796 H 177.98 1.63823 0.442732 0
M  V30 1797 H 176.752 3.67718 1.33788 0
M  V30 1798 H 176.375 2.8071 2.8158 0
M  V30 1799 N 177.372 -0.689602 1.41712 0
M  V30 1800 C 178.783 -1.26973 1.36875 0
M  V30 1801 C 179.134 -1.96124 0.054748 0
M  V30 1802 O 178.259 -1.99141 -0.84687 0
M  V30 1803 C 178.854 -2.30912 2.47922 0
M  V30 1804 C 177.413 -2.84486 2.46464 0
M  V30 1805 C 176.56 -1.58603 2.27465 0
M  V30 1806 H 179.511 -0.48396 1.51141 0
M  V30 1807 H 179.532 -3.12331 2.17323 0
M  V30 1808 H 179.044 -1.80554 3.43543 0
M  V30 1809 H 177.145 -3.39005 1.54617 0
M  V30 1810 H 177.258 -3.34511 3.42986 0
M  V30 1811 H 175.622 -1.84632 1.75451 0
M  V30 1812 H 176.405 -1.10233 3.25121 0
M  V30 1813 N 178.85 -1.27639 -0.924453 0
M  V30 1814 C 180.09 -1.15407 -1.68703 0
M  V30 1815 C 180.454 0.294581 -1.89727 0
M  V30 1816 O 181.655 0.539385 -2.63333 0
M  V30 1817 C 179.926 -1.9195 -3.0148 0
M  V30 1818 S 181.485 -1.95969 -3.92609 0
M  V30 1819 H 178.303 -0.411937 -0.579507 0
M  V30 1820 H 180.905 -1.61592 -1.10038 0
M  V30 1821 H 179.609 -2.96387 -2.83871 0
M  V30 1822 H 179.14 -1.46272 -3.65196 0
M  V30 1823 H 181.155 -1.05846 -4.84779 0
M  V30 1824 N 180.328 1.1314 -1.09713 0
M  V30 1825 C 181.278 2.16709 -0.708593 0
M  V30 1826 C 182.262 1.58471 0.278523 0
M  V30 1827 O 183.454 1.76779 0.088427 0
M  V30 1828 C 180.583 3.43039 -0.133923 0
M  V30 1829 C 179.669 4.08277 -1.14763 0
M  V30 1830 N 180.06 4.48637 -2.33577 0
M  V30 1831 C 178.358 4.34954 -0.986446 0
M  V30 1832 C 179.059 4.9952 -2.98085 0
M  V30 1833 N 178.035 4.94561 -2.25632 0
M  V30 1834 H 181.837 2.45672 -1.61315 0
M  V30 1835 H 179.351 1.29967 -0.973775 0
M  V30 1836 H 181.348 4.16583 0.162465 0
M  V30 1837 H 180.008 3.15549 0.765447 0
M  V30 1838 H 181.019 4.41246 -2.7115 0
M  V30 1839 H 177.696 4.17258 -0.142008 0
M  V30 1840 H 179.086 5.40521 -3.99108 0
M  V30 1841 N 181.806 0.884767 1.30421 0
M  V30 1842 C 183.083 0.423185 1.90967 0
M  V30 1843 C 183.463 -1.09605 1.80416 0
M  V30 1844 O 182.811 -1.93126 1.22125 0
M  V30 1845 C 183.021 0.921056 3.36627 0
M  V30 1846 C 184.369 0.955903 4.137 0
M  V30 1847 O 185.393 0.867706 3.4547 0
M  V30 1848 O 184.252 1.08614 5.35598 0
M  V30 1849 H 181.346 0.129369 0.816819 0
M  V30 1850 H 183.892 0.973653 1.3899 0
M  V30 1851 H 182.664 1.96489 3.3839 0
M  V30 1852 H 182.287 0.349741 3.96059 0
M  V30 1853 N 183.284 -1.43765 0.645699 0
M  V30 1854 C 184.531 -2.01898 0.15604 0
M  V30 1855 C 184.859 -1.50887 -1.22733 0
M  V30 1856 O 184.114 -0.689271 -1.8316 0
M  V30 1857 C 184.413 -3.57238 0.107679 0
M  V30 1858 C 184.079 -4.27564 1.43178 0
M  V30 1859 C 182.741 -4.46492 1.7944 0
M  V30 1860 C 185.093 -4.67454 2.30513 0
M  V30 1861 C 182.421 -5.02573 3.02716 0
M  V30 1862 C 184.773 -5.24901 3.53074 0
M  V30 1863 C 183.437 -5.42046 3.89541 0
M  V30 1864 H 182.707 -0.738797 0.057099 0
M  V30 1865 H 185.354 -1.72341 0.834912 0
M  V30 1866 H 183.659 -3.86293 -0.654618 0
M  V30 1867 H 185.356 -3.99965 -0.287938 0
M  V30 1868 H 181.946 -4.13171 1.13963 0
M  V30 1869 H 186.13 -4.5253 2.0379 0
M  V30 1870 H 181.386 -5.14033 3.31028 0
M  V30 1871 H 185.56 -5.54758 4.20971 0
M  V30 1872 H 183.187 -5.85268 4.85145 0
M  V30 1873 N 184.763 -0.387143 -1.52771 0
M  V30 1874 C 186.01 0.195735 -2.01552 0
M  V30 1875 C 186.338 1.46995 -1.27369 0
M  V30 1876 O 185.593 1.92325 -0.361879 0
M  V30 1877 C 185.892 0.512209 -3.53711 0
M  V30 1878 C 185.558 -0.670202 -4.45891 0
M  V30 1879 C 184.22 -0.994586 -4.70809 0
M  V30 1880 C 186.572 -1.46134 -5.00294 0
M  V30 1881 C 183.9 -2.11169 -5.4738 0
M  V30 1882 C 186.252 -2.56903 -5.78086 0
M  V30 1883 C 184.916 -2.89852 -6.01284 0
M  V30 1884 H 184.186 0.0716246 -0.73753 0
M  V30 1885 H 186.833 -0.524046 -1.8419 0
M  V30 1886 H 185.138 1.31329 -3.69134 0
M  V30 1887 H 186.835 0.975804 -3.88946 0
M  V30 1888 H 183.425 -0.407366 -4.2666 0
M  V30 1889 H 187.609 -1.22397 -4.80971 0
M  V30 1890 H 182.865 -2.3707 -5.63567 0
M  V30 1891 H 187.039 -3.18608 -6.19243 0
M  V30 1892 H 184.666 -3.76533 -6.60399 0
M  V30 1893 N 186.241 1.57166 -0.116904 0
M  V30 1894 C 187.466 1.999 0.55271 0
M  V30 1895 C 187.891 0.996039 1.59564 0
M  V30 1896 O 187.249 -0.032556 1.81271 0
M  V30 1897 C 187.297 3.4152 1.15742 0
M  V30 1898 O 186.401 3.44106 2.27299 0
M  V30 1899 H 185.742 0.649447 0.138258 0
M  V30 1900 H 188.272 2.03573 -0.204759 0
M  V30 1901 H 188.282 3.79684 1.49346 0
M  V30 1902 H 186.957 4.14034 0.393493 0
M  V30 1903 H 185.534 3.17759 1.9515 0
M  V30 1904 N 187.719 -0.156864 1.56817 0
M  V30 1905 C 188.949 -0.885031 1.86684 0
M  V30 1906 C 189.357 -1.75696 0.701954 0
M  V30 1907 O 188.7 -1.80569 -0.337732 0
M  V30 1908 C 188.762 -1.80092 3.11138 0
M  V30 1909 C 188.426 -1.10714 4.43386 0
M  V30 1910 C 189.423 -0.465714 5.1781 0
M  V30 1911 C 187.108 -1.09959 4.90117 0
M  V30 1912 C 189.102 0.174002 6.37162 0
M  V30 1913 C 186.789 -0.456055 6.09396 0
M  V30 1914 C 187.787 0.179622 6.82764 0
M  V30 1915 O 187.475 0.812975 7.99779 0
M  V30 1916 H 187.207 -0.261813 0.623242 0
M  V30 1917 H 189.761 -0.157383 2.04796 0
M  V30 1918 H 187.991 -2.56926 2.89009 0
M  V30 1919 H 189.68 -2.40018 3.27332 0
M  V30 1920 H 190.446 -0.463427 4.82781 0
M  V30 1921 H 186.325 -1.58378 4.3294 0
M  V30 1922 H 189.869 0.670765 6.94368 0
M  V30 1923 H 185.766 -0.455975 6.43888 0
M  V30 1924 H 186.534 0.71366 8.15383 0
M  V30 1925 N 189.197 -1.51736 -0.425897 0
M  V30 1926 C 190.16 -1.73271 -1.50032 0
M  V30 1927 C 191.16 -0.602639 -1.4908 0
M  V30 1928 O 192.35 -0.87033 -1.509 0
M  V30 1929 C 189.482 -1.79969 -2.89523 0
M  V30 1930 H 190.675 -2.69172 -1.32237 0
M  V30 1931 H 188.228 -1.41899 -0.65532 0
M  V30 1932 H 188.963 -0.859241 -3.1271 0
M  V30 1933 H 188.748 -2.62109 -2.91619 0
M  V30 1934 H 190.238 -1.9843 -3.67444 0
M  V30 1935 N 190.675 0.682077 -1.42076 0
M  V30 1936 C 191.915 1.45424 -1.43636 0
M  V30 1937 C 192.279 1.91939 -0.0484001 0
M  V30 1938 O 193.48 2.6873 0.0612514 0
M  V30 1939 C 191.751 2.62427 -2.42625 0
M  V30 1940 S 193.31 3.51379 -2.62827 0
M  V30 1941 H 190.128 0.496779 -0.508657 0
M  V30 1942 H 192.73 0.794645 -1.78621 0
M  V30 1943 H 191.434 2.26481 -3.42249 0
M  V30 1944 H 190.965 3.33266 -2.09039 0
M  V30 1945 H 192.98 4.58141 -1.9058 0
M  V30 1946 N 192.153 1.28127 0.917671 0
M  V30 1947 C 193.401 1.14825 1.66312 0
M  V30 1948 C 193.722 -0.304379 1.9261 0
M  V30 1949 O 192.992 -1.21149 1.53947 0
M  V30 1950 H 191.572 0.421953 0.616413 0
M  V30 1951 H 194.234 1.608 1.10134 0
M  V30 1952 H 193.33 1.68489 2.62712 0
M  V30 1953 N 193.631 -1.12557 1.10312 0
M  V30 1954 C 194.879 -1.83675 0.843091 0
M  V30 1955 C 195.2 -1.84435 -0.633131 0
M  V30 1956 O 194.47 -1.30657 -1.45964 0
M  V30 1957 H 193.05 -0.680138 0.308904 0
M  V30 1958 H 195.712 -1.36301 1.39313 0
M  V30 1959 H 194.808 -2.87908 1.2048 0
M  V30 1960 N 195.109 -0.891671 -1.2995 0
M  V30 1961 C 196.355 -0.523649 -1.96544 0
M  V30 1962 C 196.71 0.918394 -1.69066 0
M  V30 1963 O 196.003 1.64122 -0.988659 0
M  V30 1964 C 196.197 -0.742868 -3.49594 0
M  V30 1965 C 196.026 -2.20467 -3.9195 0
M  V30 1966 C 194.796 -2.85055 -4.17219 0
M  V30 1967 C 196.994 -3.17912 -4.04273 0
M  V30 1968 N 194.976 -4.21762 -4.46083 0
M  V30 1969 C 196.347 -4.39712 -4.37097 0
M  V30 1970 C 198.402 -3.1361 -3.86721 0
M  V30 1971 C 197.105 -5.5776 -4.54199 0
M  V30 1972 C 199.131 -4.30936 -4.05028 0
M  V30 1973 C 198.493 -5.51504 -4.38204 0
M  V30 1974 H 194.592 -0.241072 -0.743914 0
M  V30 1975 H 197.176 -1.15081 -1.5705 0
M  V30 1976 H 195.347 -0.14515 -3.88129 0
M  V30 1977 H 197.079 -0.341081 -4.0326 0
M  V30 1978 H 193.834 -2.35889 -4.10674 0
M  V30 1979 H 194.258 -4.92382 -4.64638 0
M  V30 1980 H 198.9 -2.21489 -3.60142 0
M  V30 1981 H 196.618 -6.50379 -4.79618 0
M  V30 1982 H 200.204 -4.29085 -3.92909 0
M  V30 1983 H 199.084 -6.40778 -4.52077 0
M  V30 1984 N 196.587 1.43421 -0.653314 0
M  V30 1985 C 197.836 2.01032 -0.164076 0
M  V30 1986 C 198.149 1.52147 1.22926 0
M  V30 1987 O 199.355 2.02031 1.81371 0
M  V30 1988 C 197.811 3.59082 -0.24252 0
M  V30 1989 C 197.419 4.1696 -1.63855 0
M  V30 1990 C 199.163 4.24079 0.18911 0
M  V30 1991 C 197.07 5.67304 -1.67092 0
M  V30 1992 H 196 0.751798 -0.0575769 0
M  V30 1993 H 198.651 1.6439 -0.815362 0
M  V30 1994 H 197.033 3.93125 0.476276 0
M  V30 1995 H 198.207 3.94416 -2.38271 0
M  V30 1996 H 196.522 3.64335 -2.01616 0
M  V30 1997 H 199.119 5.34381 0.184775 0
M  V30 1998 H 199.462 3.98005 1.22056 0
M  V30 1999 H 199.995 3.94918 -0.477938 0
M  V30 2000 H 196.734 5.98145 -2.68146 0
M  V30 2001 H 196.254 5.91904 -0.970014 0
M  V30 2002 H 197.933 6.31344 -1.4147 0
M  V30 2003 N 198.065 0.39524 1.52563 0
M  V30 2004 C 199.012 -0.437036 2.26624 0
M  V30 2005 C 199.982 -1.05281 1.28472 0
M  V30 2006 O 201.167 -1.07971 1.57311 0
M  V30 2007 C 198.307 -1.55524 3.08069 0
M  V30 2008 C 197.42 -0.961745 4.21158 0
M  V30 2009 C 196.555 -2.05149 4.89987 0
M  V30 2010 C 195.594 -1.4342 5.95061 0
M  V30 2011 N 194.731 -2.46351 6.57462 0
M  V30 2012 H 199.571 0.200976 2.97322 0
M  V30 2013 H 197.108 0.110944 1.46681 0
M  V30 2014 H 199.066 -2.21437 3.53584 0
M  V30 2015 H 197.696 -2.16348 2.3957 0
M  V30 2016 H 196.748 -0.192048 3.79915 0
M  V30 2017 H 198.06 -0.470701 4.96574 0
M  V30 2018 H 197.214 -2.78819 5.38837 0
M  V30 2019 H 195.953 -2.57615 4.14109 0
M  V30 2020 H 194.958 -0.682774 5.45544 0
M  V30 2021 H 196.183 -0.917416 6.72875 0
M  V30 2022 H 194.129 -2.97975 5.8442 0
M  V30 2023 H 194.046 -2.02019 7.28508 0
M  V30 2024 H 195.314 -3.19633 7.10954 0
M  V30 2025 N 199.544 -1.57102 0.125237 0
M  V30 2026 C 200.507 -2.14471 -0.80838 0
M  V30 2027 C 201.507 -1.0811 -1.19033 0
M  V30 2028 O 202.697 -1.33856 -1.11482 0
M  V30 2029 C 199.829 -2.69005 -2.09402 0
M  V30 2030 H 201.022 -2.98297 -0.309696 0
M  V30 2031 H 198.575 -1.55807 -0.124051 0
M  V30 2032 H 199.31 -1.88785 -2.63687 0
M  V30 2033 H 199.095 -3.46799 -1.82957 0
M  V30 2034 H 200.585 -3.13278 -2.76128 0
M  V30 2035 N 201.022 0.148545 -1.56898 0
M  V30 2036 C 201.97 1.20265 -1.99096 0
M  V30 2037 C 202.964 1.44559 -0.883123 0
M  V30 2038 O 204.17 1.4487 -1.0683 0
M  V30 2039 H 200.545 0.404786 -0.63376 0
M  V30 2040 H 202.516 0.82004 -2.86911 0
M  V30 2041 C 201.265 2.52886 -2.3863 0
M  V30 2042 H 200.588 2.35021 -3.23427 0
M  V30 2043 H 202.028 3.25274 -2.7198 0
M  V30 2044 C 200.487 3.13315 -1.23837 0
M  V30 2045 O 201.017 3.98077 -0.538268 0
M  V30 2046 N 199.223 2.72742 -1.00301 0
M  V30 2047 H 198.77 2.03912 -1.5741 0
M  V30 2048 H 198.728 3.13507 -0.236838 0
M  V30 2049 N 202.5 1.5196 0.417844 0
M  V30 2050 C 203.911 1.57851 0.997 0
M  V30 2051 C 204.262 0.413714 1.91789 0
M  V30 2052 O 203.387 -0.467057 2.113 0
M  V30 2053 C 203.982 2.86085 1.81496 0
M  V30 2054 C 202.541 2.94483 2.34428 0
M  V30 2055 C 201.688 2.52707 1.14169 0
M  V30 2056 H 204.639 1.57455 0.198392 0
M  V30 2057 H 204.66 2.70947 2.67148 0
M  V30 2058 H 204.172 3.70842 1.14446 0
M  V30 2059 H 202.273 2.142 3.04875 0
M  V30 2060 H 202.386 3.98546 2.65891 0
M  V30 2061 H 200.75 2.06353 1.49301 0
M  V30 2062 H 201.533 3.39828 0.486999 0
M  V30 2063 N 203.978 -0.674533 1.42435 0
M  V30 2064 C 205.224 -1.43671 1.43131 0
M  V30 2065 C 205.557 -1.94142 0.0476021 0
M  V30 2066 O 204.832 -1.70924 -0.928188 0
M  V30 2067 C 205.115 -2.63355 2.45594 0
M  V30 2068 C 204.968 -2.18514 3.93156 0
M  V30 2069 C 206.287 -3.65571 2.45043 0
M  V30 2070 H 203.406 -0.521077 0.521198 0
M  V30 2071 H 206.048 -0.766551 1.7385 0
M  V30 2072 H 204.198 -3.2053 2.19528 0
M  V30 2073 H 205.87 -1.66504 4.30202 0
M  V30 2074 H 204.113 -1.50086 4.07009 0
M  V30 2075 H 204.784 -3.04484 4.60428 0
M  V30 2076 H 207.26 -3.18113 2.68223 0
M  V30 2077 H 206.136 -4.46893 3.18713 0
M  V30 2078 H 206.397 -4.16716 1.47649 0
M  V30 2079 N 205.456 -1.28612 -0.910864 0
M  V30 2080 C 206.867 -1.14406 -1.47541 0
M  V30 2081 C 207.218 0.264901 -1.94403 0
M  V30 2082 O 206.343 1.15942 -1.82719 0
M  V30 2083 C 206.938 -2.07073 -2.68153 0
M  V30 2084 C 205.497 -1.96923 -3.20778 0
M  V30 2085 C 204.644 -1.98646 -1.93481 0
M  V30 2086 H 207.595 -1.41259 -0.723291 0
M  V30 2087 H 207.616 -1.63642 -3.43514 0
M  V30 2088 H 207.128 -3.09611 -2.34015 0
M  V30 2089 H 205.229 -0.97433 -3.59635 0
M  V30 2090 H 205.342 -2.84026 -3.85832 0
M  V30 2091 H 203.706 -1.43093 -2.10705 0
M  V30 2092 H 204.489 -3.02868 -1.61634 0
M  V30 2093 N 206.934 1.1197 -1.10907 0
M  V30 2094 C 208.211 1.79959 -0.766432 0
M  V30 2095 C 208.591 1.97466 0.746363 0
M  V30 2096 O 207.939 1.55491 1.67436 0
M  V30 2097 C 208.149 3.14009 -1.52314 0
M  V30 2098 C 209.497 3.89134 -1.69883 0
M  V30 2099 O 210.521 3.2368 -1.48692 0
M  V30 2100 O 209.38 5.06572 -2.05054 0
M  V30 2101 H 206.474 0.779208 -0.277062 0
M  V30 2102 H 209.02 1.18762 -1.21217 0
M  V30 2103 H 207.792 2.96587 -2.55249 0
M  V30 2104 H 207.415 3.82915 -1.07059 0
M  V30 2105 N 208.412 0.89855 1.29475 0
M  V30 2106 C 209.66 0.522847 1.9522 0
M  V30 2107 C 209.981 -0.93371 1.71192 0
M  V30 2108 O 209.251 -1.65823 1.04305 0
M  V30 2109 H 207.831 0.190366 0.722336 0
M  V30 2110 H 210.493 1.14459 1.5775 0
M  V30 2111 H 209.589 0.704476 3.04045 0
M  V30 2112 N 209.89 -1.43072 0.660911 0
M  V30 2113 C 210.84 -2.27948 -0.04847 0
M  V30 2114 C 211.824 -1.40325 -0.787246 0
M  V30 2115 O 213.016 -1.63893 -0.668446 0
M  V30 2116 C 210.145 -3.28143 -1.00881 0
M  V30 2117 C 209.231 -4.23252 -0.268108 0
M  V30 2118 N 209.622 -5.00656 0.719528 0
M  V30 2119 C 207.92 -4.43092 -0.508493 0
M  V30 2120 C 208.621 -5.70019 1.15988 0
M  V30 2121 N 207.597 -5.41364 0.492584 0
M  V30 2122 H 211.399 -2.85213 0.709279 0
M  V30 2123 H 208.913 -1.54869 0.488822 0
M  V30 2124 H 210.91 -3.87736 -1.53188 0
M  V30 2125 H 209.57 -2.7244 -1.76654 0
M  V30 2126 H 210.581 -5.06115 1.09855 0
M  V30 2127 H 207.258 -3.98449 -1.24679 0
M  V30 2128 H 208.648 -6.4214 1.97751 0
M  V30 2129 N 211.368 -0.403325 -1.52352 0
M  V30 2130 C 212.593 0.176499 -2.06648 0
M  V30 2131 C 213.018 1.38577 -1.27193 0
M  V30 2132 O 212.376 1.7879 -0.300637 0
M  V30 2133 C 212.424 0.511061 -3.5696 0
M  V30 2134 O 211.528 1.60294 -3.79973 0
M  V30 2135 H 210.869 0.0167337 -0.663789 0
M  V30 2136 H 213.399 -0.574848 -1.96359 0
M  V30 2137 H 213.409 0.771362 -4.00642 0
M  V30 2138 H 212.084 -0.37296 -4.14224 0
M  V30 2139 H 210.661 1.33526 -3.48174 0
M  V30 2140 N 212.846 1.57033 -0.133567 0
M  V30 2141 C 214.262 1.58035 0.222944 0
M  V30 2142 C 214.462 1.14713 1.6566 0
M  V30 2143 O 213.518 0.841218 2.38075 0
M  V30 2144 C 214.831 3.00691 -0.0236116 0
M  V30 2145 C 216.379 3.12973 0.0411512 0
M  V30 2146 C 216.854 4.57654 -0.177899 0
M  V30 2147 N 218.345 4.63033 -0.124365 0
M  V30 2148 C 219.08 5.72771 -0.268553 0
M  V30 2149 N 218.576 6.91206 -0.46972 0
M  V30 2150 N 220.369 5.61718 -0.2071 0
M  V30 2151 H 212.52 1.8349 -1.06981 0
M  V30 2152 H 214.783 0.848677 -0.422436 0
M  V30 2153 H 214.489 3.36726 -1.0153 0
M  V30 2154 H 214.363 3.70614 0.701808 0
M  V30 2155 H 216.75 2.76787 1.02338 0
M  V30 2156 H 216.831 2.45564 -0.716383 0
M  V30 2157 H 216.475 4.94542 -1.15717 0
M  V30 2158 H 216.405 5.23173 0.599797 0
M  V30 2159 H 218.896 3.7789 0.027011 0
M  V30 2160 H 219.209 7.70693 -0.570212 0
M  V30 2161 H 217.554 6.93156 -0.505876 0
M  V30 2162 H 220.745 4.68072 -0.0507986 0
M  V30 2163 H 220.918 6.47195 -0.322909 0
M  V30 2164 N 214.325 -0.140222 1.56975 0
M  V30 2165 C 215.571 -0.848084 1.84876 0
M  V30 2166 C 215.926 -1.78481 0.718481 0
M  V30 2167 O 215.219 -1.89497 -0.283093 0
M  V30 2168 C 215.413 -1.65386 3.16832 0
M  V30 2169 C 215.242 -0.79665 4.42587 0
M  V30 2170 C 214.012 -0.459648 5.03205 0
M  V30 2171 C 216.21 -0.12389 5.14151 0
M  V30 2172 N 214.192 0.410446 6.12526 0
M  V30 2173 C 215.563 0.606064 6.17031 0
M  V30 2174 C 217.618 -0.0452654 4.97879 0
M  V30 2175 C 216.321 1.40723 7.054 0
M  V30 2176 C 218.347 0.742658 5.86718 0
M  V30 2177 C 217.709 1.46087 6.89085 0
M  V30 2178 H 213.808 -0.287946 0.727056 0
M  V30 2179 H 216.392 -0.11304 1.94372 0
M  V30 2180 H 214.563 -2.36009 3.08471 0
M  V30 2181 H 216.295 -2.30541 3.32615 0
M  V30 2182 H 213.05 -0.797006 4.66846 0
M  V30 2183 H 213.474 0.836716 6.7181 0
M  V30 2184 H 218.116 -0.586184 4.18717 0
M  V30 2185 H 215.834 1.95938 7.83986 0
M  V30 2186 H 219.42 0.805574 5.76196 0
M  V30 2187 H 218.3 2.06077 7.56639 0
M  V30 2188 N 215.803 -1.52179 -0.40978 0
M  V30 2189 C 217.051 -1.65878 -1.15451 0
M  V30 2190 C 217.372 -0.390771 -1.91044 0
M  V30 2191 O 216.642 0.594323 -1.86667 0
M  V30 2192 H 215.222 -0.611405 -0.429177 0
M  V30 2193 H 217.884 -1.89219 -0.467134 0
M  V30 2194 H 216.98 -2.49954 -1.86894 0
M  V30 2195 N 217.281 0.66697 -1.42791 0
M  V30 2196 C 218.509 1.45505 -1.47091 0
M  V30 2197 C 218.924 1.8861 -0.0845873 0
M  V30 2198 O 218.281 1.58632 0.90234 0
M  V30 2199 C 218.332 2.69906 -2.40485 0
M  V30 2200 O 218.053 2.28608 -3.73725 0
M  V30 2201 C 219.554 3.63396 -2.53886 0
M  V30 2202 H 216.774 0.447459 -0.500022 0
M  V30 2203 H 219.318 0.818866 -1.8739 0
M  V30 2204 H 217.473 3.29696 -2.03419 0
M  V30 2205 H 217.887 3.08997 -4.23817 0
M  V30 2206 H 219.361 4.47387 -3.2334 0
M  V30 2207 H 219.838 4.09824 -1.57927 0
M  V30 2208 H 220.444 3.09495 -2.91706 0
M  V30 2209 N 218.759 1.29093 0.90403 0
M  V30 2210 C 220.006 1.16813 1.65411 0
M  V30 2211 C 220.334 -0.28128 1.92455 0
M  V30 2212 O 219.589 -1.22006 1.53013 0
M  V30 2213 C 219.888 1.92224 3.01305 0
M  V30 2214 C 219.554 3.41968 2.93885 0
M  V30 2215 C 218.216 3.82807 2.91569 0
M  V30 2216 C 220.568 4.37409 2.83413 0
M  V30 2217 C 217.896 5.1741 2.76594 0
M  V30 2218 C 220.248 5.72097 2.69977 0
M  V30 2219 C 218.912 6.12199 2.66024 0
M  V30 2220 H 218.182 0.42745 0.605283 0
M  V30 2221 H 220.829 1.59981 1.05254 0
M  V30 2222 H 219.134 1.41635 3.65304 0
M  V30 2223 H 220.831 1.80131 3.58265 0
M  V30 2224 H 217.421 3.09504 2.96488 0
M  V30 2225 H 221.605 4.06813 2.84283 0
M  V30 2226 H 216.861 5.47596 2.71935 0
M  V30 2227 H 221.035 6.45704 2.60844 0
M  V30 2228 H 218.662 7.16448 2.54178 0
M  V30 2229 N 220.237 -1.11381 1.11499 0
M  V30 2230 C 221.462 -1.87475 0.887019 0
M  V30 2231 C 221.887 -1.79639 -0.557796 0
M  V30 2232 O 221.245 -1.15924 -1.39396 0
M  V30 2233 C 221.293 -3.34213 1.35403 0
M  V30 2234 O 220.397 -4.0903 0.526146 0
M  V30 2235 H 219.738 -0.582099 0.319463 0
M  V30 2236 H 222.268 -1.40785 1.48461 0
M  V30 2237 H 222.278 -3.8506 1.34881 0
M  V30 2238 H 220.953 -3.39232 2.40612 0
M  V30 2239 H 219.53 -3.68082 0.597522 0
M  V30 2240 N 221.715 -0.905404 -1.28997 0
M  V30 2241 C 222.663 -0.377431 -2.29517 0
M  V30 2242 C 223.657 0.526461 -1.61012 0
M  V30 2243 O 224.863 0.40863 -1.753 0
M  V30 2244 H 221.238 -0.103437 -0.744852 0
M  V30 2245 H 223.209 -1.23848 -2.71485 0
M  V30 2246 C 221.958 0.374833 -3.45674 0
M  V30 2247 H 221.281 -0.311474 -3.98585 0
M  V30 2248 H 222.721 0.70903 -4.1803 0
M  V30 2249 C 221.18 1.57963 -2.97572 0
M  V30 2250 O 221.71 2.67886 -2.99333 0
M  V30 2251 N 219.916 1.42375 -2.53333 0
M  V30 2252 H 219.463 0.529466 -2.521 0
M  V30 2253 H 219.421 2.23117 -2.21509 0
M  V30 2254 N 223.193 1.4272 -0.668489 0
M  V30 2255 C 224.123 2.335 -0.000100175 0
M  V30 2256 C 225.104 1.50328 0.795964 0
M  V30 2257 O 226.289 1.78949 0.754385 0
M  V30 2258 C 223.419 3.33874 0.956302 0
M  V30 2259 C 222.373 4.27152 0.269278 0
M  V30 2260 C 221.699 5.17684 1.33818 0
M  V30 2261 C 222.999 5.15373 -0.847805 0
M  V30 2262 H 224.693 2.89639 -0.758244 0
M  V30 2263 H 222.239 1.39269 -0.366079 0
M  V30 2264 H 224.192 3.9629 1.43292 0
M  V30 2265 H 222.916 2.76025 1.74579 0
M  V30 2266 H 221.575 3.66123 -0.187042 0
M  V30 2267 H 221.223 4.56165 2.1195 0
M  V30 2268 H 220.923 5.80918 0.883659 0
M  V30 2269 H 222.447 5.82974 1.81586 0
M  V30 2270 H 223.861 5.7151 -0.452681 0
M  V30 2271 H 222.258 5.87407 -1.22773 0
M  V30 2272 H 223.328 4.5415 -1.69929 0
M  V30 2273 N 224.671 0.411399 1.52136 0
M  V30 2274 C 225.917 -0.156262 2.02799 0
M  V30 2275 C 226.272 -1.42613 1.29149 0
M  V30 2276 O 225.565 -1.87592 0.389839 0
M  V30 2277 C 225.759 -0.455872 3.54481 0
M  V30 2278 C 225.588 0.783404 4.42824 0
M  V30 2279 C 224.358 1.30928 4.88043 0
M  V30 2280 C 226.556 1.66217 4.86699 0
M  V30 2281 N 224.538 2.5038 5.6052 0
M  V30 2282 C 225.909 2.70292 5.5798 0
M  V30 2283 C 227.964 1.67966 4.68713 0
M  V30 2284 C 226.667 3.7603 6.13184 0
M  V30 2285 C 228.693 2.72624 5.24815 0
M  V30 2286 C 228.055 3.7542 5.9602 0
M  V30 2287 H 224.154 -0.0186886 0.781777 0
M  V30 2288 H 226.738 0.566255 1.86284 0
M  V30 2289 H 224.909 -1.14743 3.71064 0
M  V30 2290 H 226.641 -1.01261 3.91827 0
M  V30 2291 H 223.396 0.866977 4.65597 0
M  V30 2292 H 223.82 3.10881 6.014 0
M  V30 2293 H 228.462 0.898312 4.13147 0
M  V30 2294 H 226.18 4.55019 6.6782 0
M  V30 2295 H 229.766 2.74887 5.12765 0
M  V30 2296 H 228.646 4.55073 6.38654 0
M  V30 2297 N 226.149 -1.5696 0.141893 0
M  V30 2298 C 227.059 -2.20066 -0.812905 0
M  V30 2299 C 228.075 -1.18344 -1.27557 0
M  V30 2300 O 229.251 -1.50902 -1.33381 0
M  V30 2301 C 226.316 -2.80583 -2.03652 0
M  V30 2302 C 225.377 -3.97414 -1.62359 0
M  V30 2303 C 224.61 -4.55036 -2.78887 0
M  V30 2304 O 224.833 -4.11538 -3.94959 0
M  V30 2305 O 223.767 -5.45376 -2.54653 0
M  V30 2306 H 227.593 -3.02157 -0.305746 0
M  V30 2307 H 225.178 -1.49159 -0.0848799 0
M  V30 2308 H 227.06 -3.19067 -2.75272 0
M  V30 2309 H 225.735 -2.01508 -2.5333 0
M  V30 2310 H 224.642 -3.63656 -0.877775 0
M  V30 2311 H 225.975 -4.77994 -1.17401 0
M  V30 2312 N 227.627 0.131896 -1.57047 0
M  V30 2313 C 228.577 1.1679 -1.95816 0
M  V30 2314 C 229.561 1.37756 -0.831393 0
M  V30 2315 O 230.753 1.39065 -1.09499 0
M  V30 2316 C 227.882 2.49778 -2.35512 0
M  V30 2317 C 226.968 2.32342 -3.54793 0
M  V30 2318 N 227.359 1.8469 -4.70875 0
M  V30 2319 C 225.657 2.63043 -3.60173 0
M  V30 2320 C 226.358 1.80656 -5.52936 0
M  V30 2321 N 225.334 2.24528 -4.95064 0
M  V30 2322 H 229.136 0.791818 -2.83033 0
M  V30 2323 H 226.65 0.339791 -1.58805 0
M  V30 2324 H 228.647 3.24692 -2.61498 0
M  V30 2325 H 227.307 2.88156 -1.49654 0
M  V30 2326 H 228.318 1.54429 -4.9434 0
M  V30 2327 H 224.995 3.05193 -2.84892 0
M  V30 2328 H 226.385 1.45178 -6.56028 0
M  V30 2329 N 229.106 1.52395 0.401703 0
M  V30 2330 C 230.054 1.7689 1.51039 0
M  V30 2331 C 231.048 0.636298 1.56996 0
M  V30 2332 O 232.254 0.818507 1.60314 0
M  V30 2333 H 228.629 0.559502 0.502456 0
M  V30 2334 H 230.6 2.69757 1.27568 0
M  V30 2335 C 229.349 1.94331 2.88324 0
M  V30 2336 H 228.672 2.80905 2.84486 0
M  V30 2337 H 230.112 2.15466 3.65172 0
M  V30 2338 C 228.571 0.712396 3.29282 0
M  V30 2339 O 229.101 -0.116218 4.01532 0
M  V30 2340 N 227.307 0.546154 2.85422 0
M  V30 2341 H 226.854 1.22156 2.26794 0
M  V30 2342 H 226.812 -0.276113 3.13185 0
M  V30 2343 N 230.584 -0.659388 1.43143 0
M  V30 2344 C 231.516 -1.7849 1.43784 0
M  V30 2345 C 232.529 -1.5932 0.334787 0
M  V30 2346 O 233.718 -1.68155 0.598842 0
M  V30 2347 C 230.818 -3.15828 1.22906 0
M  V30 2348 C 229.991 -3.61711 2.45934 0
M  V30 2349 C 229.05 -4.77831 2.20371 0
M  V30 2350 O 228.076 -4.87586 2.93681 0
M  V30 2351 N 229.278 -5.67611 1.21647 0
M  V30 2352 H 232.043 -1.7842 2.40803 0
M  V30 2353 H 229.604 -0.84302 1.3822 0
M  V30 2354 H 231.596 -3.91189 1.03697 0
M  V30 2355 H 230.166 -3.10707 0.343542 0
M  V30 2356 H 229.386 -2.76861 2.80609 0
M  V30 2357 H 230.674 -3.89112 3.27825 0
M  V30 2358 H 230.072 -5.62397 0.610449 0
M  V30 2359 H 228.629 -6.42719 1.08423 0
M  V30 2360 N 232.062 -1.29571 -0.897171 0
M  V30 2361 C 233.025 -1.14913 -1.98312 0
M  V30 2362 C 234.025 -0.0838629 -1.60581 0
M  V30 2363 O 235.215 -0.331006 -1.71026 0
M  V30 2364 C 232.347 -0.757835 -3.3237 0
M  V30 2365 H 233.54 -2.11377 -2.12743 0
M  V30 2366 H 231.093 -1.12793 -1.08201 0
M  V30 2367 H 231.828 0.206837 -3.2364 0
M  V30 2368 H 231.613 -1.52755 -3.61121 0
M  V30 2369 H 233.103 -0.678408 -4.12053 0
M  V30 2370 N 233.54 1.10788 -1.12088 0
M  V30 2371 C 234.789 1.82036 -0.868659 0
M  V30 2372 C 235.102 1.85929 0.607426 0
M  V30 2373 O 236.308 2.53346 0.97613 0
M  V30 2374 C 234.764 3.26951 -1.50435 0
M  V30 2375 C 234.372 3.31367 -3.01496 0
M  V30 2376 C 236.116 4.03053 -1.33225 0
M  V30 2377 C 234.023 4.7072 -3.58017 0
M  V30 2378 H 232.953 0.682108 -0.321318 0
M  V30 2379 H 235.604 1.24618 -1.34694 0
M  V30 2380 H 233.986 3.84343 -0.953735 0
M  V30 2381 H 235.16 2.83819 -3.6302 0
M  V30 2382 H 233.475 2.6875 -3.18061 0
M  V30 2383 H 236.072 5.05981 -1.72878 0
M  V30 2384 H 236.415 4.15387 -0.275529 0
M  V30 2385 H 236.948 3.52066 -1.85188 0
M  V30 2386 H 233.687 4.63585 -4.63432 0
M  V30 2387 H 233.207 5.1865 -3.01268 0
M  V30 2388 H 234.886 5.39685 -3.56859 0
M  V30 2389 N 235.018 0.912232 1.28515 0
M  V30 2390 C 236.267 0.540504 1.94323 0
M  V30 2391 C 236.58 -0.920044 1.72611 0
M  V30 2392 O 237.786 -1.39986 2.32629 0
M  V30 2393 C 236.242 0.915803 3.48053 0
M  V30 2394 C 235.85 2.39598 3.78546 0
M  V30 2395 C 237.594 0.614588 4.20027 0
M  V30 2396 C 235.501 2.71148 5.25578 0
M  V30 2397 H 234.431 0.198418 0.727424 0
M  V30 2398 H 237.082 1.11094 1.46049 0
M  V30 2399 H 235.464 0.274168 3.9505 0
M  V30 2400 H 236.638 3.08422 3.42364 0
M  V30 2401 H 234.953 2.66749 3.1974 0
M  V30 2402 H 237.55 0.827002 5.28266 0
M  V30 2403 H 237.893 -0.447531 4.13887 0
M  V30 2404 H 238.426 1.21462 3.78803 0
M  V30 2405 H 235.165 3.76207 5.36794 0
M  V30 2406 H 234.685 2.0696 5.62963 0
M  V30 2407 H 236.364 2.58072 5.93302 0
M  V30 2408 N 236.496 -1.42363 0.676048 0
M  V30 2409 C 237.443 -2.308 -0.00150904 0
M  V30 2410 C 238.413 -1.46032 -0.791444 0
M  V30 2411 O 239.598 -1.74861 -0.76344 0
M  V30 2412 C 236.738 -3.31883 -0.945919 0
M  V30 2413 C 235.851 -4.31741 -0.149675 0
M  V30 2414 C 234.986 -5.19898 -1.08995 0
M  V30 2415 C 234.025 -6.11434 -0.285465 0
M  V30 2416 N 233.162 -6.92138 -1.17851 0
M  V30 2417 H 238.002 -2.88187 0.758455 0
M  V30 2418 H 235.539 -1.41952 0.38576 0
M  V30 2419 H 237.497 -3.89019 -1.50731 0
M  V30 2420 H 236.127 -2.76093 -1.6725 0
M  V30 2421 H 235.179 -3.76713 0.528359 0
M  V30 2422 H 236.491 -4.96534 0.474866 0
M  V30 2423 H 235.645 -5.81772 -1.72123 0
M  V30 2424 H 234.384 -4.55284 -1.74837 0
M  V30 2425 H 233.389 -5.48627 0.359018 0
M  V30 2426 H 234.614 -6.78097 0.368883 0
M  V30 2427 H 232.56 -6.30152 -1.82332 0
M  V30 2428 H 232.477 -7.53542 -0.609082 0
M  V30 2429 H 233.745 -7.58499 -1.79722 0
M  V30 2430 N 237.974 -0.419461 -1.51915 0
M  V30 2431 C 238.924 0.418496 -2.24126 0
M  V30 2432 C 239.908 1.00495 -1.25656 0
M  V30 2433 O 241.1 0.926058 -1.50842 0
M  V30 2434 C 238.229 1.52899 -3.07371 0
M  V30 2435 C 237.315 0.952797 -4.13258 0
M  V30 2436 N 237.706 0.104175 -5.05693 0
M  V30 2437 C 236.004 1.22224 -4.28926 0
M  V30 2438 C 236.705 -0.21752 -5.81293 0
M  V30 2439 N 235.681 0.394293 -5.42168 0
M  V30 2440 H 239.483 -0.236048 -2.92951 0
M  V30 2441 H 236.997 -0.230481 -1.60756 0
M  V30 2442 H 238.994 2.14199 -3.57665 0
M  V30 2443 H 237.654 2.18605 -2.40088 0
M  V30 2444 H 238.665 -0.260924 -5.17242 0
M  V30 2445 H 235.342 1.87812 -3.72871 0
M  V30 2446 H 236.732 -0.906992 -6.6575 0
M  V30 2447 N 239.452 1.56882 -0.150215 0
M  V30 2448 C 240.382 2.19935 0.784284 0
M  V30 2449 C 241.363 1.14854 1.25469 0
M  V30 2450 O 242.548 1.43209 1.31168 0
M  V30 2451 C 239.678 2.82349 2.02229 0
M  V30 2452 C 238.632 3.93285 1.68853 0
M  V30 2453 C 237.958 4.42649 2.99944 0
M  V30 2454 C 239.258 5.13904 0.932714 0
M  V30 2455 H 240.952 2.9828 0.258781 0
M  V30 2456 H 238.498 1.43473 0.123029 0
M  V30 2457 H 240.451 3.25126 2.68088 0
M  V30 2458 H 239.175 2.0134 2.57157 0
M  V30 2459 H 237.834 3.5113 1.05371 0
M  V30 2460 H 237.482 3.58458 3.52869 0
M  V30 2461 H 237.182 5.17476 2.78374 0
M  V30 2462 H 238.706 4.88099 3.66868 0
M  V30 2463 H 240.12 5.53506 1.49345 0
M  V30 2464 H 238.517 5.94515 0.81684 0
M  V30 2465 H 239.587 4.84842 -0.0749568 0
M  V30 2466 N 240.93 -0.123565 1.57115 0
M  V30 2467 C 241.86 -1.15309 2.03042 0
M  V30 2468 C 242.841 -1.43454 0.914061 0
M  V30 2469 O 244.026 -1.53973 1.18347 0
M  V30 2470 C 241.156 -2.48043 2.43089 0
M  V30 2471 C 240.11 -2.3437 3.58127 0
M  V30 2472 C 239.436 -3.72026 3.84059 0
M  V30 2473 C 240.736 -1.80804 4.90007 0
M  V30 2474 H 242.43 -0.771102 2.893 0
M  V30 2475 H 239.976 -0.369479 1.39179 0
M  V30 2476 H 241.929 -3.20311 2.73823 0
M  V30 2477 H 240.653 -2.88122 1.53796 0
M  V30 2478 H 239.312 -1.64551 3.27595 0
M  V30 2479 H 238.96 -4.09582 2.91979 0
M  V30 2480 H 238.66 -3.63732 4.6149 0
M  V30 2481 H 240.184 -4.45806 4.1724 0
M  V30 2482 H 241.598 -2.42886 5.19307 0
M  V30 2483 H 239.995 -1.83343 5.71407 0
M  V30 2484 H 241.065 -0.76528 4.78823 0
M  V30 2485 N 242.408 -1.52605 -0.393616 0
M  V30 2486 C 243.318 -1.79971 -1.50492 0
M  V30 2487 C 244.334 -0.686181 -1.59899 0
M  V30 2488 O 245.51 -0.973274 -1.76322 0
M  V30 2489 C 242.575 -1.95867 -2.86072 0
M  V30 2490 C 241.636 -3.19781 -2.86424 0
M  V30 2491 C 240.869 -3.34909 -4.15538 0
M  V30 2492 O 241.092 -2.54948 -5.10253 0
M  V30 2493 O 240.026 -4.28141 -4.23059 0
M  V30 2494 H 243.852 -2.74328 -1.30299 0
M  V30 2495 H 241.437 -1.3764 -0.581005 0
M  V30 2496 H 243.319 -2.08056 -3.66457 0
M  V30 2497 H 241.994 -1.04699 -3.063 0
M  V30 2498 H 240.901 -3.13038 -2.04837 0
M  V30 2499 H 242.234 -4.1078 -2.71147 0
M  V30 2500 N 243.887 0.651787 -1.4349 0
M  V30 2501 C 244.835 1.78586 -1.49029 0
M  V30 2502 C 245.829 1.65448 -0.363767 0
M  V30 2503 O 247.035 1.71777 -0.537821 0
M  V30 2504 H 243.41 0.589236 -0.467231 0
M  V30 2505 H 245.381 1.71035 -2.44519 0
M  V30 2506 C 244.13 3.16851 -1.43181 0
M  V30 2507 H 243.453 3.27598 -2.29171 0
M  V30 2508 H 244.893 3.96156 -1.51118 0
M  V30 2509 C 243.352 3.36568 -0.149616 0
M  V30 2510 O 243.882 3.93885 0.788509 0
M  V30 2511 N 242.088 2.90539 -0.0593484 0
M  V30 2512 H 241.635 2.4408 -0.823575 0
M  V30 2513 H 241.593 3.04108 0.797853 0
M  V30 2514 N 245.365 1.30045 0.890287 0
M  V30 2515 C 246.59 1.21598 1.68014 0
M  V30 2516 C 247.015 -0.218678 1.86825 0
M  V30 2517 O 246.373 -1.15756 1.39536 0
M  V30 2518 C 246.421 1.94434 3.03691 0
M  V30 2519 O 245.525 1.2678 3.92429 0
M  V30 2520 H 244.866 0.420856 0.513592 0
M  V30 2521 H 247.396 1.71775 1.11151 0
M  V30 2522 H 247.406 2.03251 3.5377 0
M  V30 2523 H 246.081 2.98777 2.89318 0
M  V30 2524 H 244.658 1.26282 3.50866 0
M  V30 2525 N 246.843 -1.10192 1.12674 0
M  V30 2526 C 248.071 -1.85983 0.906527 0
M  V30 2527 C 248.486 -1.80783 -0.544333 0
M  V30 2528 O 247.843 -1.19834 -1.37645 0
M  V30 2529 C 247.894 -3.34281 1.37618 0
M  V30 2530 O 247.615 -3.39401 2.77017 0
M  V30 2531 C 249.116 -4.26938 1.19325 0
M  V30 2532 H 246.336 -0.587716 0.323775 0
M  V30 2533 H 248.88 -1.39284 1.49734 0
M  V30 2534 H 247.035 -3.78436 0.828539 0
M  V30 2535 H 247.449 -4.31838 2.97684 0
M  V30 2536 H 248.923 -5.29181 1.57071 0
M  V30 2537 H 249.4 -4.38995 0.134097 0
M  V30 2538 H 250.006 -3.8859 1.72852 0
M  V30 2539 N 248.321 -0.919034 -1.28029 0
M  V30 2540 C 249.284 -0.416182 -2.2539 0
M  V30 2541 C 250.284 0.460438 -1.54067 0
M  V30 2542 O 251.474 0.262744 -1.72207 0
M  V30 2543 C 248.606 0.402707 -3.38513 0
M  V30 2544 H 249.799 -1.27629 -2.71387 0
M  V30 2545 H 247.352 -0.698919 -1.39803 0
M  V30 2546 H 248.087 1.282 -2.97885 0
M  V30 2547 H 247.872 -0.225698 -3.9145 0
M  V30 2548 H 249.362 0.745191 -4.10897 0
M  V30 2549 N 249.799 1.42003 -0.683588 0
M  V30 2550 C 251.024 2.06265 -0.216647 0
M  V30 2551 C 251.449 1.51059 1.12083 0
M  V30 2552 O 250.807 0.632638 1.69904 0
M  V30 2553 C 250.855 3.60191 -0.171759 0
M  V30 2554 O 249.959 4.03396 0.857069 0
M  V30 2555 H 249.3 0.65502 -0.108834 0
M  V30 2556 H 251.83 1.81982 -0.935077 0
M  V30 2557 H 251.84 4.08 0.0014303 0
M  V30 2558 H 250.515 3.99743 -1.14796 0
M  V30 2559 H 249.092 3.67117 0.654208 0
M  V30 2560 N 251.277 0.427512 1.51691 0
M  V30 2561 C 252.523 -0.142439 2.02299 0
M  V30 2562 C 252.856 -1.43214 1.31162 0
M  V30 2563 O 252.131 -1.89833 0.423511 0
M  V30 2564 C 252.414 -0.371301 3.58181 0
M  V30 2565 C 252.267 0.936358 4.39946 0
M  V30 2566 C 253.586 -1.14542 4.24933 0
M  V30 2567 H 250.705 -0.0502937 0.735282 0
M  V30 2568 H 253.347 0.564584 1.81418 0
M  V30 2569 H 251.497 -0.973559 3.76104 0
M  V30 2570 H 253.169 1.57184 4.33694 0
M  V30 2571 H 251.412 1.5432 4.05423 0
M  V30 2572 H 252.083 0.730388 5.47147 0
M  V30 2573 H 254.559 -0.635362 4.11221 0
M  V30 2574 H 253.435 -1.27431 5.33903 0
M  V30 2575 H 253.696 -2.17093 3.85127 0
M  V30 2576 N 252.755 -1.56801 0.158532 0
M  V30 2577 C 253.98 -2.01295 -0.499516 0
M  V30 2578 C 254.405 -1.03799 -1.56867 0
M  V30 2579 O 253.763 -0.0155162 -1.81293 0
M  V30 2580 C 253.811 -3.44469 -1.06647 0
M  V30 2581 O 252.915 -3.50012 -2.18095 0
M  V30 2582 H 252.256 -0.652884 -0.12099 0
M  V30 2583 H 254.786 -2.02958 0.258661 0
M  V30 2584 H 254.796 -3.8351 -1.39227 0
M  V30 2585 H 253.471 -4.14932 -0.283581 0
M  V30 2586 H 252.048 -3.22822 -1.86656 0
M  V30 2587 N 254.233 0.115231 -1.57178 0
M  V30 2588 C 255.143 1.15994 -2.03918 0
M  V30 2589 C 256.159 1.45103 -0.960268 0
M  V30 2590 O 257.335 1.56144 -1.27204 0
M  V30 2591 C 254.4 2.46568 -2.43732 0
M  V30 2592 C 253.461 2.24822 -3.65723 0
M  V30 2593 C 252.694 3.4917 -4.03629 0
M  V30 2594 O 252.917 4.56623 -3.41835 0
M  V30 2595 O 251.851 3.39949 -4.96708 0
M  V30 2596 H 255.677 0.793019 -2.93164 0
M  V30 2597 H 253.262 0.3263 -1.45793 0
M  V30 2598 H 255.144 3.23492 -2.70057 0
M  V30 2599 H 253.819 2.82726 -1.57631 0
M  V30 2600 H 252.726 1.45744 -3.44542 0
M  V30 2601 H 254.059 1.93566 -4.52541 0
M  V30 2602 N 255.711 1.52812 0.385517 0
M  V30 2603 C 256.674 1.77188 1.45386 0
M  V30 2604 C 257.674 0.641953 1.4743 0
M  V30 2605 O 258.864 0.910033 1.4854 0
M  V30 2606 C 255.996 1.87582 2.8465 0
M  V30 2607 H 257.189 2.72583 1.25054 0
M  V30 2608 H 254.742 1.43586 0.617467 0
M  V30 2609 H 255.477 0.941849 3.10322 0
M  V30 2610 H 255.262 2.69748 2.84567 0
M  V30 2611 H 256.752 2.08102 3.62054 0
M  V30 2612 N 257.189 -0.644168 1.43834 0
M  V30 2613 C 258.099 -1.78563 1.52159 0
M  V30 2614 C 259.115 -1.69147 0.408069 0
M  V30 2615 O 260.291 -1.90156 0.663524 0
M  V30 2616 C 257.356 -3.14888 1.45073 0
M  V30 2617 C 256.417 -3.36034 2.6717 0
M  V30 2618 C 255.65 -4.65855 2.60413 0
M  V30 2619 O 255.873 -5.45805 1.65689 0
M  V30 2620 O 254.807 -4.88918 3.5106 0
M  V30 2621 H 258.633 -1.74494 2.48567 0
M  V30 2622 H 256.218 -0.80378 1.25935 0
M  V30 2623 H 258.1 -3.96179 1.43597 0
M  V30 2624 H 256.775 -3.19528 0.518037 0
M  V30 2625 H 255.682 -2.54472 2.74217 0
M  V30 2626 H 257.015 -3.36247 3.59442 0
M  V30 2627 N 258.668 -1.30515 -0.883378 0
M  V30 2628 C 260.084 -1.08881 -1.16692 0
M  V30 2629 C 260.284 0.149409 -2.00945 0
M  V30 2630 O 259.34 0.84257 -2.38027 0
M  V30 2631 C 260.653 -2.35319 -1.87204 0
M  V30 2632 C 262.201 -2.40799 -1.99962 0
M  V30 2633 C 262.676 -3.67083 -2.73887 0
M  V30 2634 N 264.167 -3.679 -2.81432 0
M  V30 2635 C 264.902 -4.62303 -3.3921 0
M  V30 2636 N 264.398 -5.67052 -3.98025 0
M  V30 2637 N 266.191 -4.49845 -3.3704 0
M  V30 2638 H 258.342 -2.09951 -0.321633 0
M  V30 2639 H 260.605 -0.92556 -0.205043 0
M  V30 2640 H 260.311 -3.25689 -1.3274 0
M  V30 2641 H 260.185 -2.44089 -2.87577 0
M  V30 2642 H 262.572 -1.50907 -2.53597 0
M  V30 2643 H 262.653 -2.36003 -0.98673 0
M  V30 2644 H 262.297 -4.57334 -2.20925 0
M  V30 2645 H 262.227 -3.69141 -3.75556 0
M  V30 2646 H 264.718 -2.92171 -2.39676 0
M  V30 2647 H 265.031 -6.35184 -4.40183 0
M  V30 2648 H 263.376 -5.70842 -3.96439 0
M  V30 2649 H 266.567 -3.67194 -2.90321 0
M  V30 2650 H 266.74 -5.23597 -3.81772 0
M  V30 2651 N 260.146 1.09593 -1.13257 0
M  V30 2652 C 261.093 2.1618 -0.808381 0
M  V30 2653 C 262.063 1.64517 0.228754 0
M  V30 2654 O 263.248 1.9053 0.101381 0
M  V30 2655 C 260.388 3.43973 -0.278675 0
M  V30 2656 C 259.501 4.09545 -1.37466 0
M  V30 2657 C 258.636 5.25088 -0.803479 0
M  V30 2658 C 257.675 5.82579 -1.87799 0
M  V30 2659 N 256.812 6.89486 -1.32488 0
M  V30 2660 H 261.652 2.43254 -1.72138 0
M  V30 2661 H 259.189 1.19392 -0.859294 0
M  V30 2662 H 261.147 4.17174 0.0465583 0
M  V30 2663 H 259.777 3.17223 0.597459 0
M  V30 2664 H 258.829 3.34226 -1.81652 0
M  V30 2665 H 260.141 4.48307 -2.18684 0
M  V30 2666 H 259.295 6.05178 -0.429427 0
M  V30 2667 H 258.034 4.87684 0.0397956 0
M  V30 2668 H 257.039 5.01152 -2.26113 0
M  V30 2669 H 258.264 6.22045 -2.72463 0
M  V30 2670 H 256.21 6.54064 -0.503575 0
M  V30 2671 H 256.127 7.27007 -2.07355 0
M  V30 2672 H 257.395 7.73336 -0.978336 0
M  V30 2673 N 261.624 0.925811 1.2754 0
M  V30 2674 C 262.587 0.428129 2.25166 0
M  V30 2675 C 263.587 -0.452261 1.54309 0
M  V30 2676 O 264.777 -0.253608 1.72344 0
M  V30 2677 C 261.909 -0.384749 3.38722 0
M  V30 2678 H 263.102 1.29066 2.70706 0
M  V30 2679 H 260.655 0.706323 1.3943 0
M  V30 2680 H 261.39 -1.26618 2.98561 0
M  V30 2681 H 261.175 0.246454 3.91325 0
M  V30 2682 H 262.665 -0.723389 4.11287 0
M  V30 2683 N 263.102 -1.41638 0.69111 0
M  V30 2684 C 264.034 -2.29194 -0.0161523 0
M  V30 2685 C 265.047 -1.44549 -0.748955 0
M  V30 2686 O 266.236 -1.681 -0.6004 0
M  V30 2687 C 263.336 -3.22325 -1.0469 0
M  V30 2688 C 262.509 -4.35706 -0.384621 0
M  V30 2689 C 261.568 -5.09443 -1.31737 0
M  V30 2690 O 260.594 -5.63386 -0.811451 0
M  V30 2691 N 261.796 -5.16487 -2.64993 0
M  V30 2692 H 264.561 -2.90534 0.735523 0
M  V30 2693 H 262.122 -1.52742 0.53679 0
M  V30 2694 H 264.114 -3.68522 -1.67252 0
M  V30 2695 H 262.684 -2.62323 -1.70015 0
M  V30 2696 H 261.904 -3.91948 0.420804 0
M  V30 2697 H 263.192 -5.08743 0.0760765 0
M  V30 2698 H 262.59 -4.741 -3.08619 0
M  V30 2699 H 261.147 -5.66276 -3.22761 0
M  V30 2700 N 264.58 -0.43555 -1.51462 0
M  V30 2701 C 265.826 0.131709 -2.02372 0
M  V30 2702 C 266.159 1.42516 -1.3192 0
M  V30 2703 O 265.434 1.89606 -0.433573 0
M  V30 2704 C 265.717 0.352301 -3.58373 0
M  V30 2705 C 265.57 -0.959676 -4.39443 0
M  V30 2706 C 266.889 1.12286 -4.25535 0
M  V30 2707 H 264.008 0.0463936 -0.735538 0
M  V30 2708 H 266.65 -0.574197 -1.81116 0
M  V30 2709 H 264.8 0.9536 -3.76615 0
M  V30 2710 H 266.472 -1.59482 -4.32855 0
M  V30 2711 H 264.715 -1.56468 -4.04599 0
M  V30 2712 H 265.386 -0.759394 -5.46752 0
M  V30 2713 H 267.862 0.613545 -4.11552 0
M  V30 2714 H 266.738 1.24598 -5.34571 0
M  V30 2715 H 266.999 2.15048 -3.86273 0
M  V30 2716 N 266.058 1.56714 -0.166846 0
M  V30 2717 C 267.288 2.00828 0.48494 0
M  V30 2718 C 267.696 1.04612 1.57648 0
M  V30 2719 O 267.039 0.0383201 1.8366 0
M  V30 2720 C 267.101 3.4137 1.12723 0
M  V30 2721 C 266.765 4.56654 0.177886 0
M  V30 2722 C 267.762 5.16402 -0.60207 0
M  V30 2723 C 265.447 5.02244 0.0750139 0
M  V30 2724 C 267.441 6.20167 -1.47215 0
M  V30 2725 C 265.128 6.05859 -0.798649 0
M  V30 2726 C 266.126 6.64691 -1.57082 0
M  V30 2727 O 265.814 7.66297 -2.42989 0
M  V30 2728 H 265.546 0.663587 0.128953 0
M  V30 2729 H 268.1 2.03692 -0.264365 0
M  V30 2730 H 266.33 3.35406 1.92457 0
M  V30 2731 H 268.019 3.69466 1.68076 0
M  V30 2732 H 268.785 4.82065 -0.53274 0
M  V30 2733 H 264.664 4.56167 0.665812 0
M  V30 2734 H 268.208 6.66016 -2.07531 0
M  V30 2735 H 264.105 6.39621 -0.869199 0
M  V30 2736 H 264.873 7.83601 -2.36455 0
M  V30 2737 N 267.536 -0.106894 1.57237 0
M  V30 2738 C 268.766 -0.825191 1.89405 0
M  V30 2739 C 269.174 -1.73374 0.757496 0
M  V30 2740 O 268.517 -1.81552 -0.280115 0
M  V30 2741 C 268.579 -1.70102 3.1671 0
M  V30 2742 C 268.243 -0.965523 4.46684 0
M  V30 2743 C 269.24 -0.300741 5.19029 0
M  V30 2744 C 266.925 -0.943105 4.93367 0
M  V30 2745 C 268.919 0.376622 6.36286 0
M  V30 2746 C 266.606 -0.261949 6.10538 0
M  V30 2747 C 267.604 0.396748 6.81847 0
M  V30 2748 O 267.292 1.06701 7.96787 0
M  V30 2749 H 267.024 -0.241852 0.631255 0
M  V30 2750 H 269.578 -0.0921491 2.05193 0
M  V30 2751 H 267.808 -2.47601 2.97036 0
M  V30 2752 H 269.497 -2.29483 3.34802 0
M  V30 2753 H 270.263 -0.309599 4.84011 0
M  V30 2754 H 266.142 -1.44524 4.3776 0
M  V30 2755 H 269.686 0.891334 6.91882 0
M  V30 2756 H 265.583 -0.250896 6.45012 0
M  V30 2757 H 266.351 0.972707 8.127 0
M  V30 2758 N 269.014 -1.53014 -0.377408 0
M  V30 2759 C 270.43 -1.42523 -0.718281 0
M  V30 2760 C 270.63 -0.55487 -1.9371 0
M  V30 2761 O 269.686 -0.0327593 -2.52479 0
M  V30 2762 C 270.999 -2.85546 -0.942539 0
M  V30 2763 C 272.547 -2.95101 -1.04329 0
M  V30 2764 C 273.022 -4.3916 -1.3001 0
M  V30 2765 N 274.513 -4.42536 -1.36806 0
M  V30 2766 C 275.248 -5.51097 -1.58364 0
M  V30 2767 N 274.744 -6.69724 -1.77317 0
M  V30 2768 N 276.537 -5.38657 -1.60638 0
M  V30 2769 H 268.688 -2.08116 0.424426 0
M  V30 2770 H 270.951 -0.939352 0.127759 0
M  V30 2771 H 270.657 -3.51499 -0.118929 0
M  V30 2772 H 270.531 -3.28493 -1.85397 0
M  V30 2773 H 272.918 -2.29309 -1.85745 0
M  V30 2774 H 272.999 -2.55566 -0.109505 0
M  V30 2775 H 272.643 -5.05521 -0.490991 0
M  V30 2776 H 272.573 -4.76258 -2.24691 0
M  V30 2777 H 275.064 -3.57039 -1.23821 0
M  V30 2778 H 275.377 -7.48233 -1.93306 0
M  V30 2779 H 273.722 -6.72732 -1.74518 0
M  V30 2780 H 276.913 -4.44948 -1.45391 0
M  V30 2781 H 277.086 -6.2333 -1.77098 0
M  V30 2782 N 270.492 0.636531 -1.44174 0
M  V30 2783 C 271.455 1.73063 -1.50273 0
M  V30 2784 C 272.455 1.56113 -0.385397 0
M  V30 2785 O 273.645 1.61707 -0.64781 0
M  V30 2786 C 270.777 3.12096 -1.37145 0
M  V30 2787 H 271.97 1.69031 -2.47727 0
M  V30 2788 H 269.523 0.849706 -1.31186 0
M  V30 2789 H 270.258 3.21728 -0.407636 0
M  V30 2790 H 270.043 3.25805 -2.18159 0
M  V30 2791 H 271.533 3.91846 -1.44382 0
M  V30 2792 N 271.97 1.30982 0.876444 0
M  V30 2793 C 273.21 1.21589 1.64303 0
M  V30 2794 C 273.574 -0.223962 1.90689 0
M  V30 2795 O 274.775 -0.44128 2.65153 0
M  V30 2796 C 273.046 2.03007 2.94148 0
M  V30 2797 S 274.605 2.10405 3.85065 0
M  V30 2798 H 271.423 0.433161 0.563819 0
M  V30 2799 H 274.025 1.65565 1.03964 0
M  V30 2800 H 272.729 3.06719 2.72675 0
M  V30 2801 H 272.26 1.59725 3.59515 0
M  V30 2802 H 274.275 1.23765 4.80517 0
M  V30 2803 N 273.449 -1.08991 1.13837 0
M  V30 2804 C 274.382 -2.15049 0.763477 0
M  V30 2805 C 275.36 -1.60629 -0.252398 0
M  V30 2806 O 276.544 -1.87958 -0.142853 0
M  V30 2807 C 273.671 -3.38441 0.132545 0
M  V30 2808 C 272.717 -4.11596 1.11763 0
M  V30 2809 S 273.55 -4.6521 2.65216 0
M  V30 2810 C 274.706 -5.91896 2.03495 0
M  V30 2811 H 274.939 -2.46518 1.66182 0
M  V30 2812 H 272.472 -1.21008 0.958976 0
M  V30 2813 H 274.43 -4.09883 -0.225074 0
M  V30 2814 H 273.091 -3.05182 -0.743135 0
M  V30 2815 H 272.284 -5.00121 0.624076 0
M  V30 2816 H 271.886 -3.46038 1.41894 0
M  V30 2817 H 274.178 -6.63156 1.38675 0
M  V30 2818 H 275.121 -6.45938 2.9012 0
M  V30 2819 H 275.529 -5.44625 1.48471 0
M  V30 2820 N 274.927 -0.932562 -1.27047 0
M  V30 2821 C 275.875 -0.42603 -2.28665 0
M  V30 2822 C 276.869 0.49219 -1.62092 0
M  V30 2823 O 278.075 0.371355 -1.76128 0
M  V30 2824 H 274.45 -0.119213 -0.742491 0
M  V30 2825 H 276.421 -1.29579 -2.68797 0
M  V30 2826 C 275.17 0.301426 -3.46391 0
M  V30 2827 H 274.493 -0.39595 -3.97834 0
M  V30 2828 H 275.933 0.6202 -4.1944 0
M  V30 2829 C 274.392 1.51616 -3.00856 0
M  V30 2830 O 274.922 2.61476 -3.04948 0
M  V30 2831 N 273.128 1.36969 -2.56296 0
M  V30 2832 H 272.675 0.475873 -2.53166 0
M  V30 2833 H 272.633 2.18368 -2.26192 0
M  V30 2834 N 276.405 1.4127 -0.698611 0
M  V30 2835 C 277.315 2.34573 -0.0357891 0
M  V30 2836 C 278.331 1.56393 0.762701 0
M  V30 2837 O 279.507 1.8886 0.699564 0
M  V30 2838 C 276.572 3.35159 0.887089 0
M  V30 2839 C 275.633 4.29225 0.0804634 0
M  V30 2840 C 274.866 5.25006 0.959387 0
M  V30 2841 O 275.089 5.26314 2.19886 0
M  V30 2842 O 274.023 6.00519 0.407439 0
M  V30 2843 H 277.849 2.92838 -0.804957 0
M  V30 2844 H 275.434 1.42175 -0.458966 0
M  V30 2845 H 277.316 3.9689 1.41621 0
M  V30 2846 H 275.991 2.79333 1.6357 0
M  V30 2847 H 274.898 3.70833 -0.493328 0
M  V30 2848 H 276.231 4.88157 -0.629547 0
M  V30 2849 N 277.883 0.443576 1.51229 0
M  V30 2850 C 279.111 -0.11929 2.06556 0
M  V30 2851 C 279.526 -1.35921 1.31038 0
M  V30 2852 O 278.883 -1.78675 0.371704 0
M  V30 2853 C 278.934 -0.435228 3.5887 0
M  V30 2854 O 278.655 0.755486 4.31537 0
M  V30 2855 C 280.156 -1.04808 4.30732 0
M  V30 2856 H 277.376 -0.0051584 0.67098 0
M  V30 2857 H 279.92 0.624453 1.94733 0
M  V30 2858 H 278.075 -1.12887 3.70588 0
M  V30 2859 H 278.489 0.483491 5.22267 0
M  V30 2860 H 279.963 -1.2191 5.3837 0
M  V30 2861 H 280.44 -2.03081 3.89429 0
M  V30 2862 H 281.046 -0.393637 4.23474 0
M  V30 2863 N 279.361 -1.56624 0.175154 0
M  V30 2864 C 280.777 -1.58571 -0.180966 0
M  V30 2865 C 280.977 -1.19065 -1.6256 0
M  V30 2866 O 280.033 -0.904044 -2.35761 0
M  V30 2867 C 281.346 -3.00522 0.103326 0
M  V30 2868 C 282.894 -3.12972 0.0418426 0
M  V30 2869 C 283.369 -4.57022 0.299175 0
M  V30 2870 N 284.86 -4.62541 0.247086 0
M  V30 2871 C 285.595 -5.71857 0.420318 0
M  V30 2872 N 285.091 -6.89717 0.652816 0
M  V30 2873 N 286.884 -5.60972 0.355957 0
M  V30 2874 H 279.035 -1.80589 1.11809 0
M  V30 2875 H 281.298 -0.837178 0.444788 0
M  V30 2876 H 281.004 -3.33916 1.10422 0
M  V30 2877 H 280.878 -3.72344 -0.603299 0
M  V30 2878 H 283.265 -2.79403 -0.949636 0
M  V30 2879 H 283.346 -2.43578 0.781238 0
M  V30 2880 H 282.99 -4.913 1.28788 0
M  V30 2881 H 282.92 -5.24579 -0.460876 0
M  V30 2882 H 285.411 -3.77829 0.0731895 0
M  V30 2883 H 285.724 -7.68911 0.774347 0
M  V30 2884 H 284.069 -6.91572 0.689476 0
M  V30 2885 H 287.26 -4.67773 0.174882 0
M  V30 2886 H 287.433 -6.46111 0.494388 0
M  V30 2887 N 280.839 0.0985539 -1.57292 0
M  V30 2888 C 282.088 0.801358 -1.85098 0
M  V30 2889 C 282.401 1.80066 -0.763902 0
M  V30 2890 O 283.607 2.55112 -0.928981 0
M  V30 2891 C 282.063 1.47599 -3.28242 0
M  V30 2892 C 281.671 0.516624 -4.45011 0
M  V30 2893 C 283.415 2.16272 -3.65276 0
M  V30 2894 C 281.322 1.19564 -5.79188 0
M  V30 2895 H 280.252 0.303022 -0.69043 0
M  V30 2896 H 282.903 0.0542623 -1.8342 0
M  V30 2897 H 281.285 2.27042 -3.2445 0
M  V30 2898 H 282.459 -0.246065 -4.60143 0
M  V30 2899 H 280.774 -0.064227 -4.1635 0
M  V30 2900 H 283.371 2.67802 -4.62803 0
M  V30 2901 H 283.714 2.95009 -2.93727 0
M  V30 2902 H 284.247 1.43693 -3.70941 0
M  V30 2903 H 280.986 0.449157 -6.53959 0
M  V30 2904 H 280.506 1.92984 -5.67906 0
M  V30 2905 H 282.185 1.7231 -6.23633 0
M  V30 2906 N 282.317 1.53212 0.369288 0
M  V30 2907 C 283.227 1.82342 1.47609 0
M  V30 2908 C 284.243 0.711532 1.58787 0
M  V30 2909 O 285.419 1.0012 1.74751 0
M  V30 2910 C 282.484 2.00393 2.8292 0
M  V30 2911 C 281.545 3.24297 2.81301 0
M  V30 2912 C 280.778 3.41478 4.10157 0
M  V30 2913 O 281.001 2.63033 5.06132 0
M  V30 2914 O 279.935 4.34817 4.16194 0
M  V30 2915 H 283.761 2.76366 1.25918 0
M  V30 2916 H 281.346 1.38547 0.559034 0
M  V30 2917 H 283.228 2.13859 3.63101 0
M  V30 2918 H 281.903 1.09559 3.04596 0
M  V30 2919 H 280.81 3.16257 1.99831 0
M  V30 2920 H 282.143 4.15041 2.64578 0
M  V30 2921 N 283.795 -0.628877 1.44509 0
M  V30 2922 C 284.705 -1.7694 1.54044 0
M  V30 2923 C 285.721 -1.68705 0.425987 0
M  V30 2924 O 286.897 -1.89442 0.683656 0
M  V30 2925 C 283.962 -3.13332 1.48405 0
M  V30 2926 C 283.023 -3.33181 2.70719 0
M  V30 2927 C 282.256 -4.63067 2.6534 0
M  V30 2928 O 282.479 -5.44017 1.71469 0
M  V30 2929 O 281.413 -4.85167 3.56226 0
M  V30 2930 H 285.239 -1.71848 2.50403 0
M  V30 2931 H 282.824 -0.790378 1.26781 0
M  V30 2932 H 284.706 -3.94634 1.47791 0
M  V30 2933 H 283.381 -3.1896 0.551898 0
M  V30 2934 H 282.288 -2.51549 2.769 0
M  V30 2935 H 283.621 -3.32416 3.62988 0
M  V30 2936 N 285.273 -1.31445 -0.869486 0
M  V30 2937 C 286.203 -1.21727 -1.99261 0
M  V30 2938 C 287.184 -0.104359 -1.6978 0
M  V30 2939 O 288.369 -0.289038 -1.92037 0
M  V30 2940 C 285.499 -0.924317 -3.34774 0
M  V30 2941 C 284.453 -1.99685 -3.78563 0
M  V30 2942 C 283.779 -1.55658 -5.11541 0
M  V30 2943 C 285.079 -3.41003 -3.95619 0
M  V30 2944 H 286.773 -2.1569 -2.07649 0
M  V30 2945 H 284.319 -1.03839 -0.997675 0
M  V30 2946 H 286.272 -0.842934 -4.12883 0
M  V30 2947 H 284.996 0.0509793 -3.2656 0
M  V30 2948 H 283.655 -2.06813 -3.02694 0
M  V30 2949 H 283.303 -0.569132 -4.9977 0
M  V30 2950 H 283.003 -2.27409 -5.41811 0
M  V30 2951 H 284.527 -1.48928 -5.92159 0
M  V30 2952 H 285.941 -3.36547 -4.64122 0
M  V30 2953 H 284.338 -4.10975 -4.37286 0
M  V30 2954 H 285.408 -3.81754 -2.98985 0
M  V30 2955 N 286.751 1.08385 -1.14413 0
M  V30 2956 C 288.167 1.32844 -0.884563 0
M  V30 2957 C 288.367 1.95841 0.474181 0
M  V30 2958 O 287.423 2.21158 1.21842 0
M  V30 2959 C 288.736 2.22978 -2.01745 0
M  V30 2960 C 290.284 2.36458 -2.05077 0
M  V30 2961 C 290.759 3.29934 -3.1766 0
M  V30 2962 N 292.25 3.37511 -3.17239 0
M  V30 2963 C 292.985 4.09871 -4.0099 0
M  V30 2964 N 292.481 4.84936 -4.94781 0
M  V30 2965 N 294.274 4.05704 -3.89051 0
M  V30 2966 H 286.425 0.658756 -2.01926 0
M  V30 2967 H 288.688 0.352821 -0.879899 0
M  V30 2968 H 288.394 1.83934 -2.99769 0
M  V30 2969 H 288.268 3.23441 -1.94077 0
M  V30 2970 H 290.655 2.7476 -1.0766 0
M  V30 2971 H 290.736 1.35736 -2.16816 0
M  V30 2972 H 290.38 2.92352 -4.15322 0
M  V30 2973 H 290.31 4.30584 -3.03158 0
M  V30 2974 H 292.801 2.83996 -2.49308 0
M  V30 2975 H 293.114 5.37612 -5.55151 0
M  V30 2976 H 291.459 4.83988 -4.98779 0
M  V30 2977 H 294.65 3.46167 -3.15097 0
M  V30 2978 H 294.823 4.61834 -4.54547 0
M  V30 2979 N 288.23 0.939286 1.26551 0
M  V30 2980 C 289.193 0.451987 2.24699 0
M  V30 2981 C 290.193 -0.435869 1.5478 0
M  V30 2982 O 291.383 -0.235314 1.72603 0
M  V30 2983 C 288.515 -0.348801 3.39111 0
M  V30 2984 H 289.708 1.3193 2.69322 0
M  V30 2985 H 287.261 0.721072 1.38673 0
M  V30 2986 H 287.996 -1.23444 2.99887 0
M  V30 2987 H 287.781 0.287945 3.91041 0
M  V30 2988 H 289.271 -0.679726 4.12031 0
M  V30 2989 N 289.708 -1.40897 0.706093 0
M  V30 2990 C 290.655 -2.30751 0.0474474 0
M  V30 2991 C 291.625 -1.47678 -0.76029 0
M  V30 2992 O 292.81 -1.76441 -0.726177 0
M  V30 2993 C 289.95 -3.33815 -0.875309 0
M  V30 2994 C 289.063 -4.31961 -0.0580623 0
M  V30 2995 C 288.198 -5.22093 -0.979425 0
M  V30 2996 C 287.237 -6.11902 -0.155706 0
M  V30 2997 N 286.374 -6.94482 -1.03144 0
M  V30 2998 H 291.214 -2.86513 0.819413 0
M  V30 2999 H 288.751 -1.41102 0.415783 0
M  V30 3000 H 290.709 -3.92129 -1.42446 0
M  V30 3001 H 289.339 -2.79579 -1.61356 0
M  V30 3002 H 288.391 -3.75507 0.608147 0
M  V30 3003 H 289.703 -4.95415 0.580082 0
M  V30 3004 H 288.857 -5.85292 -1.59744 0
M  V30 3005 H 287.596 -4.5889 -1.65141 0
M  V30 3006 H 286.601 -5.47742 0.475309 0
M  V30 3007 H 287.826 -6.77162 0.512635 0
M  V30 3008 H 285.772 -6.33877 -1.68924 0
M  V30 3009 H 285.689 -7.54665 -0.449108 0
M  V30 3010 H 286.957 -7.6214 -1.63593 0
M  V30 3011 N 291.186 -0.45159 -1.50991 0
M  V30 3012 C 292.597 0.00818571 -1.86698 0
M  V30 3013 C 292.948 1.40661 -1.3678 0
M  V30 3014 O 292.073 2.0391 -0.724546 0
M  V30 3015 C 292.668 0.0216303 -3.38793 0
M  V30 3016 C 291.227 0.425865 -3.73983 0
M  V30 3017 C 290.374 -0.372163 -2.74791 0
M  V30 3018 H 293.325 -0.666785 -1.44013 0
M  V30 3019 H 293.346 0.828078 -3.7138 0
M  V30 3020 H 292.858 -0.996288 -3.75094 0
M  V30 3021 H 290.959 1.44886 -3.43277 0
M  V30 3022 H 291.072 0.140761 -4.78893 0
M  V30 3023 H 289.436 0.171498 -2.54122 0
M  V30 3024 H 290.219 -1.38922 -3.13935 0
M  V30 3025 N 292.664 1.56529 -0.183458 0
M  V30 3026 C 293.594 2.21549 0.737456 0
M  V30 3027 C 294.575 1.17489 1.23005 0
M  V30 3028 O 295.76 1.45959 1.281 0
M  V30 3029 C 292.89 2.86575 1.96194 0
M  V30 3030 C 291.844 3.96778 1.60473 0
M  V30 3031 C 291.17 4.48911 2.90487 0
M  V30 3032 C 292.47 5.15767 0.823497 0
M  V30 3033 H 294.164 2.98761 0.195453 0
M  V30 3034 H 291.71 1.43702 0.0925686 0
M  V30 3035 H 293.663 3.30739 2.61131 0
M  V30 3036 H 292.387 2.06749 2.52828 0
M  V30 3037 H 291.046 3.53286 0.978997 0
M  V30 3038 H 290.694 3.65862 3.45186 0
M  V30 3039 H 290.394 5.23265 2.67335 0
M  V30 3040 H 291.918 4.95771 3.56432 0
M  V30 3041 H 293.332 5.56549 1.37571 0
M  V30 3042 H 291.729 5.96114 0.690551 0
M  V30 3043 H 292.799 4.84574 -0.177782 0
M  V30 3044 N 294.142 -0.090211 1.57342 0
M  V30 3045 C 295.075 -1.14035 1.97664 0
M  V30 3046 C 296.053 -1.38576 0.850616 0
M  V30 3047 O 297.237 -1.52255 1.11134 0
M  V30 3048 C 294.364 -2.48854 2.2976 0
M  V30 3049 C 293.41 -2.40564 3.52181 0
M  V30 3050 S 294.243 -1.81745 5.03715 0
M  V30 3051 C 295.399 -3.18178 5.38993 0
M  V30 3052 H 295.632 -0.796636 2.86428 0
M  V30 3053 H 293.165 -0.298072 1.51496 0
M  V30 3054 H 295.123 -3.26413 2.48927 0
M  V30 3055 H 293.784 -2.80393 1.41558 0
M  V30 3056 H 292.977 -3.39942 3.72096 0
M  V30 3057 H 292.579 -1.71135 3.32549 0
M  V30 3058 H 294.871 -4.14461 5.35937 0
M  V30 3059 H 295.814 -3.03062 6.39968 0
M  V30 3060 H 296.222 -3.17935 4.66452 0
M  V30 3061 N 295.62 -1.53406 -0.361157 0
M  V30 3062 C 296.53 -1.83122 -1.4664 0
M  V30 3063 C 297.546 -0.719943 -1.58407 0
M  V30 3064 O 298.722 -1.01046 -1.74218 0
M  V30 3065 C 295.787 -2.01891 -2.81853 0
M  V30 3066 C 294.848 -3.25784 -2.79577 0
M  V30 3067 C 294.081 -3.43648 -4.0834 0
M  V30 3068 O 294.304 -2.65714 -5.0473 0
M  V30 3069 O 293.238 -4.37018 -4.13883 0
M  V30 3070 H 297.064 -2.7703 -1.24451 0
M  V30 3071 H 294.649 -1.38841 -0.551678 0
M  V30 3072 H 296.531 -2.15782 -3.61962 0
M  V30 3073 H 295.206 -1.11173 -3.0401 0
M  V30 3074 H 294.113 -3.17312 -1.98151 0
M  V30 3075 H 295.446 -4.16439 -2.62373 0
M  V30 3076 N 297.098 0.621204 -1.44841 0
M  V30 3077 C 298.028 1.74366 -1.55303 0
M  V30 3078 C 299.009 1.65199 -0.405385 0
M  V30 3079 O 300.194 1.83807 -0.626787 0
M  V30 3080 C 297.324 3.12931 -1.50637 0
M  V30 3081 C 296.278 3.36896 -2.63979 0
M  V30 3082 C 295.604 4.75594 -2.44366 0
M  V30 3083 C 296.904 3.28483 -4.06074 0
M  V30 3084 H 298.598 1.65867 -2.49256 0
M  V30 3085 H 296.144 0.796558 -1.19962 0
M  V30 3086 H 298.097 3.9124 -1.56555 0
M  V30 3087 H 296.821 3.22237 -0.532057 0
M  V30 3088 H 295.48 2.60972 -2.57467 0
M  V30 3089 H 295.128 4.81616 -1.45105 0
M  V30 3090 H 294.828 4.92586 -3.20364 0
M  V30 3091 H 296.352 5.5612 -2.52117 0
M  V30 3092 H 297.766 3.96684 -4.13902 0
M  V30 3093 H 296.163 3.57008 -4.82354 0
M  V30 3094 H 297.233 2.26133 -4.28943 0
M  V30 3095 N 298.576 1.31904 0.862503 0
M  V30 3096 C 299.825 1.21373 1.61094 0
M  V30 3097 C 300.138 -0.22504 1.94301 0
M  V30 3098 O 301.344 -0.452121 2.67709 0
M  V30 3099 C 299.8 2.12525 2.9045 0
M  V30 3100 C 299.408 3.61441 2.64697 0
M  V30 3101 C 301.152 2.10813 3.68454 0
M  V30 3102 C 299.059 4.44578 3.90006 0
M  V30 3103 H 297.989 0.450705 0.604468 0
M  V30 3104 H 300.64 1.56811 0.953027 0
M  V30 3105 H 299.022 1.69994 3.57656 0
M  V30 3106 H 300.196 4.12264 2.05851 0
M  V30 3107 H 298.511 3.65205 2.00036 0
M  V30 3108 H 301.108 2.70167 4.61426 0
M  V30 3109 H 301.451 1.09713 4.01583 0
M  V30 3110 H 301.984 2.51583 3.08141 0
M  V30 3111 H 298.723 5.46461 3.62023 0
M  V30 3112 H 298.243 3.98508 4.48276 0
M  V30 3113 H 299.922 4.57176 4.5782 0
M  V30 3114 N 300.054 -1.07777 1.14986 0
M  V30 3115 C 300.964 -2.18404 0.856546 0
M  V30 3116 C 301.98 -1.73211 -0.165485 0
M  V30 3117 O 303.156 -2.01399 0.00755219 0
M  V30 3118 C 300.221 -3.44977 0.34526 0
M  V30 3119 C 299.282 -4.0476 1.43065 0
M  V30 3120 C 298.515 -5.25291 0.943663 0
M  V30 3121 O 298.738 -5.70004 -0.212426 0
M  V30 3122 O 297.672 -5.76638 1.72547 0
M  V30 3123 H 301.498 -2.45978 1.78125 0
M  V30 3124 H 299.083 -1.17033 0.928631 0
M  V30 3125 H 300.965 -4.21348 0.0663671 0
M  V30 3126 H 299.64 -3.18965 -0.551631 0
M  V30 3127 H 298.547 -3.29949 1.76309 0
M  V30 3128 H 299.88 -4.35035 2.30229 0
M  V30 3129 N 301.532 -0.945985 -1.26051 0
M  V30 3130 C 302.948 -0.649045 -1.45807 0
M  V30 3131 C 303.148 0.796158 -1.85104 0
M  V30 3132 O 302.204 1.57233 -1.97571 0
M  V30 3133 C 303.517 -1.61458 -2.53677 0
M  V30 3134 C 305.065 -1.62481 -2.67524 0
M  V30 3135 C 305.54 -2.57776 -3.7857 0
M  V30 3136 N 307.031 -2.5609 -3.85969 0
M  V30 3137 C 307.766 -3.26508 -4.7136 0
M  V30 3138 N 307.262 -4.0637 -5.61102 0
M  V30 3139 N 309.055 -3.15437 -4.65248 0
M  V30 3140 H 301.206 -1.88005 -0.988328 0
M  V30 3141 H 303.469 -0.808198 -0.4955 0
M  V30 3142 H 303.175 -2.64644 -2.31638 0
M  V30 3143 H 303.049 -1.37036 -3.51427 0
M  V30 3144 H 305.436 -0.600167 -2.88933 0
M  V30 3145 H 305.517 -1.90958 -1.70202 0
M  V30 3146 H 305.161 -3.60361 -3.57913 0
M  V30 3147 H 305.091 -2.26587 -4.75359 0
M  V30 3148 H 307.582 -1.98105 -3.21812 0
M  V30 3149 H 307.895 -4.57042 -6.23164 0
M  V30 3150 H 306.24 -4.10469 -5.60839 0
M  V30 3151 H 309.431 -2.52525 -3.94143 0
M  V30 3152 H 309.604 -3.70584 -5.31575 0
M  V30 3153 N 303.011 1.40521 -0.713556 0
M  V30 3154 C 303.941 2.33381 -0.0743864 0
M  V30 3155 C 304.922 1.52784 0.747735 0
M  V30 3156 O 306.107 1.81258 0.697071 0
M  V30 3157 C 303.237 3.36748 0.849598 0
M  V30 3158 C 302.191 4.27793 0.133247 0
M  V30 3159 C 301.517 5.21679 1.17281 0
M  V30 3160 C 302.817 5.12415 -1.01134 0
M  V30 3161 H 304.511 2.87081 -0.850007 0
M  V30 3162 H 302.057 1.38034 -0.410201 0
M  V30 3163 H 304.01 4.00648 1.30612 0
M  V30 3164 H 302.734 2.81439 1.65709 0
M  V30 3165 H 301.393 3.65342 -0.303426 0
M  V30 3166 H 301.041 4.62677 1.9733 0
M  V30 3167 H 300.741 5.83435 0.698397 0
M  V30 3168 H 302.265 5.88456 1.62947 0
M  V30 3169 H 303.679 5.69781 -0.634274 0
M  V30 3170 H 302.076 5.83203 -1.41399 0
M  V30 3171 H 303.146 4.48514 -1.84292 0
M  V30 3172 N 304.489 0.459591 1.5075 0
M  V30 3173 C 305.737 -0.0991532 2.01857 0
M  V30 3174 C 306.058 -1.41247 1.34441 0
M  V30 3175 O 305.328 -1.89775 0.486022 0
M  V30 3176 H 303.908 -0.039633 0.745948 0
M  V30 3177 H 306.57 0.607387 1.85194 0
M  V30 3178 H 305.666 -0.258998 3.11023 0
M  V30 3179 N 305.967 -1.56429 0.191757 0
M  V30 3180 C 307.215 -1.97095 -0.447006 0
M  V30 3181 C 307.536 -1.07967 -1.62383 0
M  V30 3182 O 306.806 -0.150248 -1.95323 0
M  V30 3183 H 305.386 -0.727832 -0.168135 0
M  V30 3184 H 308.048 -1.92911 0.27771 0
M  V30 3185 H 307.144 -3.01848 -0.793371 0
M  V30 3186 N 307.445 0.0818655 -1.57387 0
M  V30 3187 C 308.691 0.778884 -1.87896 0
M  V30 3188 C 309.046 1.75692 -0.784229 0
M  V30 3189 O 308.339 1.90417 0.212567 0
M  V30 3190 C 308.533 1.53513 -3.22752 0
M  V30 3191 C 308.362 0.631838 -4.45239 0
M  V30 3192 C 307.132 0.272571 -5.04564 0
M  V30 3193 C 309.33 -0.0670191 -5.14256 0
M  V30 3194 N 307.312 -0.637498 -6.10581 0
M  V30 3195 C 308.683 -0.834653 -6.14356 0
M  V30 3196 C 310.738 -0.139551 -4.97704 0
M  V30 3197 C 309.441 -1.66806 -6.99691 0
M  V30 3198 C 311.467 -0.959903 -5.83558 0
M  V30 3199 C 310.829 -1.71561 -6.83188 0
M  V30 3200 H 306.928 0.260764 -0.737242 0
M  V30 3201 H 309.512 0.0408227 -1.94657 0
M  V30 3202 H 307.683 2.24398 -3.17018 0
M  V30 3203 H 309.415 2.18038 -3.40942 0
M  V30 3204 H 306.17 0.62319 -4.69482 0
M  V30 3205 H 306.594 -1.08548 -6.68241 0
M  V30 3206 H 311.236 0.430376 -4.20604 0
M  V30 3207 H 308.954 -2.249 -7.76174 0
M  V30 3208 H 312.54 -1.01887 -5.72809 0
M  V30 3209 H 311.42 -2.34017 -7.48469 0
M  V30 3210 N 308.923 1.53595 0.353017 0
M  V30 3211 C 309.871 1.81605 1.45335 0
M  V30 3212 C 310.865 0.685923 1.54892 0
M  V30 3213 O 312.071 0.869095 1.57628 0
M  V30 3214 H 308.446 0.575204 0.484401 0
M  V30 3215 H 310.417 2.73679 1.18921 0
M  V30 3216 C 309.166 2.03406 2.81995 0
M  V30 3217 H 308.489 2.89814 2.75405 0
M  V30 3218 H 309.929 2.26975 3.58132 0
M  V30 3219 C 308.388 0.816794 3.26849 0
M  V30 3220 O 308.918 0.0115856 4.01698 0
M  V30 3221 N 307.124 0.636682 2.8354 0
M  V30 3222 H 306.671 1.2931 2.22793 0
M  V30 3223 H 306.629 -0.176336 3.13905 0
M  V30 3224 N 310.401 -0.613514 1.45168 0
M  V30 3225 C 311.65 -1.36874 1.4815 0
M  V30 3226 C 311.963 -1.952 0.124982 0
M  V30 3227 O 313.169 -2.71481 0.0324176 0
M  V30 3228 C 311.625 -2.47905 2.60904 0
M  V30 3229 C 311.233 -1.96016 4.02842 0
M  V30 3230 C 312.977 -3.24965 2.73126 0
M  V30 3231 C 310.884 -3.04494 5.06988 0
M  V30 3232 H 309.814 -0.514428 0.551253 0
M  V30 3233 H 312.465 -0.658182 1.7129 0
M  V30 3234 H 310.847 -3.21618 2.31037 0
M  V30 3235 H 312.021 -1.29051 4.4236 0
M  V30 3236 H 310.336 -1.31719 3.95018 0
M  V30 3237 H 312.933 -4.05865 3.48106 0
M  V30 3238 H 313.276 -3.75588 1.79553 0
M  V30 3239 H 313.809 -2.5835 3.0249 0
M  V30 3240 H 310.548 -2.58795 6.0225 0
M  V30 3241 H 310.068 -3.70044 4.72046 0
M  V30 3242 H 311.747 -3.68976 5.31475 0
M  V30 3243 N 311.879 -1.3236 -0.855495 0
M  V30 3244 C 313.107 -1.2587 -1.64208 0
M  V30 3245 C 313.522 0.173457 -1.88002 0
M  V30 3246 O 312.879 1.11027 -1.44842 0
M  V30 3247 C 312.93 -2.01424 -3.00184 0
M  V30 3248 O 312.651 -3.39051 -2.77445 0
M  V30 3249 C 314.152 -2.01948 -3.94629 0
M  V30 3250 H 311.372 -0.434318 -0.511477 0
M  V30 3251 H 313.916 -1.74469 -1.0668 0
M  V30 3252 H 312.071 -1.56549 -3.5436 0
M  V30 3253 H 312.485 -3.77711 -3.63916 0
M  V30 3254 H 313.959 -2.59297 -4.87308 0
M  V30 3255 H 314.436 -1.00554 -4.27534 0
M  V30 3256 H 315.042 -2.46767 -3.4639 0
M  V30 3257 N 313.357 1.07166 -1.15556 0
M  V30 3258 C 314.605 1.79443 -0.929764 0
M  V30 3259 C 314.926 1.87246 0.544414 0
M  V30 3260 O 314.196 1.37473 1.39564 0
M  V30 3261 H 312.776 0.664625 -0.341003 0
M  V30 3262 H 315.438 1.29499 -1.45657 0
M  V30 3263 H 314.534 2.81832 -1.34079 0
M  V30 3264 N 314.835 0.952656 1.25548 0
M  V30 3265 C 316.246 0.647392 1.75116 0
M  V30 3266 C 316.597 -0.837274 1.77438 0
M  V30 3267 O 315.722 -1.65525 1.39393 0
M  V30 3268 C 316.317 1.16845 3.18014 0
M  V30 3269 C 314.876 0.913382 3.6515 0
M  V30 3270 C 314.023 1.31265 2.44264 0
M  V30 3271 H 316.974 1.12968 1.11462 0
M  V30 3272 H 316.995 0.527606 3.76824 0
M  V30 3273 H 316.507 2.24902 3.16292 0
M  V30 3274 H 314.608 -0.152316 3.72289 0
M  V30 3275 H 314.721 1.54845 4.53387 0
M  V30 3276 H 313.085 0.731028 2.43984 0
M  V30 3277 H 313.868 2.40239 2.45234 0
M  V30 3278 N 316.313 -1.40141 0.720998 0
M  V30 3279 C 317.559 -2.01572 0.272075 0
M  V30 3280 C 317.914 -1.5616 -1.12391 0
M  V30 3281 O 317.207 -0.774198 -1.75262 0
M  V30 3282 C 317.401 -3.56165 0.296892 0
M  V30 3283 C 317.23 -4.16584 1.69375 0
M  V30 3284 C 316 -4.49783 2.30269 0
M  V30 3285 C 318.198 -4.41076 2.64493 0
M  V30 3286 N 316.18 -4.95626 3.62254 0
M  V30 3287 C 317.551 -4.88971 3.81192 0
M  V30 3288 C 319.606 -4.23122 2.62435 0
M  V30 3289 C 318.309 -5.20796 4.96149 0
M  V30 3290 C 320.335 -4.56052 3.76524 0
M  V30 3291 C 319.697 -5.04141 4.91956 0
M  V30 3292 H 315.796 -0.768343 0.145511 0
M  V30 3293 H 318.38 -1.70287 0.943959 0
M  V30 3294 H 316.551 -3.86868 -0.344578 0
M  V30 3295 H 318.283 -4.04346 -0.169254 0
M  V30 3296 H 315.038 -4.37101 1.82318 0
M  V30 3297 H 315.462 -5.22923 4.29977 0
M  V30 3298 H 320.104 -3.85158 1.74393 0
M  V30 3299 H 317.822 -5.57672 5.84831 0
M  V30 3300 H 321.408 -4.43796 3.76213 0
M  V30 3301 H 320.288 -5.29142 5.78774 0
M  V30 3302 N 317.792 -0.46758 -1.50504 0
M  V30 3303 C 318.755 0.317059 -2.26996 0
M  V30 3304 C 319.755 0.923513 -1.31635 0
M  V30 3305 O 320.945 0.793239 -1.55091 0
M  V30 3306 C 318.077 1.45134 -3.08462 0
M  V30 3307 H 319.27 -0.353723 -2.97807 0
M  V30 3308 H 316.823 -0.221545 -1.54722 0
M  V30 3309 H 317.558 2.15728 -2.4214 0
M  V30 3310 H 317.343 1.02232 -3.78538 0
M  V30 3311 H 318.833 2.00493 -3.66323 0
M  V30 3312 N 319.27 1.56325 -0.20005 0
M  V30 3313 C 320.217 2.1932 0.718833 0
M  V30 3314 C 321.187 1.14198 1.20615 0
M  V30 3315 O 322.372 1.42469 1.26914 0
M  V30 3316 C 319.512 2.86041 1.93066 0
M  V30 3317 C 318.625 4.05702 1.48425 0
M  V30 3318 C 317.76 4.60266 2.65196 0
M  V30 3319 C 316.799 5.72273 2.17185 0
M  V30 3320 N 315.936 6.21221 3.27152 0
M  V30 3321 H 320.776 2.97486 0.17489 0
M  V30 3322 H 318.313 1.46911 0.0745794 0
M  V30 3323 H 320.271 3.22897 2.64184 0
M  V30 3324 H 318.901 2.1043 2.44783 0
M  V30 3325 H 317.953 3.74475 0.668755 0
M  V30 3326 H 319.265 4.86699 1.09204 0
M  V30 3327 H 318.419 4.99453 3.4443 0
M  V30 3328 H 317.158 3.78386 3.07693 0
M  V30 3329 H 316.163 5.3261 1.36407 0
M  V30 3330 H 317.388 6.55974 1.75713 0
M  V30 3331 H 315.334 5.42263 3.69171 0
M  V30 3332 H 315.251 6.97284 2.92116 0
M  V30 3333 H 316.519 6.65063 4.06585 0
M  V30 3334 N 320.748 -0.0735177 1.57428 0
M  V30 3335 C 322.025 -0.805903 1.78226 0
M  V30 3336 C 322.405 -1.95874 0.787189 0
M  V30 3337 O 321.753 -2.2779 -0.180029 0
M  V30 3338 C 321.963 -1.28045 3.24662 0
M  V30 3339 C 323.311 -1.71453 3.88444 0
M  V30 3340 O 324.335 -1.37616 3.28543 0
M  V30 3341 O 323.194 -2.34093 4.93825 0
M  V30 3342 H 320.288 -0.386041 0.73137 0
M  V30 3343 H 322.834 -0.0537269 1.69615 0
M  V30 3344 H 321.606 -0.455476 3.8864 0
M  V30 3345 H 321.229 -2.094 3.37991 0
M  V30 3346 N 322.226 -1.5378 -0.344866 0
M  V30 3347 C 323.174 -1.82373 -1.4437 0
M  V30 3348 C 324.168 -0.694128 -1.54526 0
M  V30 3349 O 325.374 -0.877442 -1.57165 0
M  V30 3350 H 321.749 -0.577765 -0.481344 0
M  V30 3351 H 323.72 -2.74306 -1.17468 0
M  V30 3352 C 322.469 -2.04898 -2.80913 0
M  V30 3353 H 321.792 -2.9127 -2.73865 0
M  V30 3354 H 323.232 -2.28871 -3.56923 0
M  V30 3355 C 321.691 -0.834116 -3.26411 0
M  V30 3356 O 322.221 -0.0328885 -4.01687 0
M  V30 3357 N 320.427 -0.65171 -2.83198 0
M  V30 3358 H 319.974 -1.30489 -2.22104 0
M  V30 3359 H 319.932 0.159686 -3.13994 0
M  V30 3360 N 323.704 0.605807 -1.45491 0
M  V30 3361 C 324.951 1.36476 -1.49601 0
M  V30 3362 C 325.279 1.94007 -0.138452 0
M  V30 3363 O 324.534 1.75638 0.863114 0
M  V30 3364 C 324.833 2.53012 -2.52428 0
M  V30 3365 C 324.499 2.13617 -3.97087 0
M  V30 3366 C 323.161 2.02587 -4.36477 0
M  V30 3367 C 325.513 1.82899 -4.88055 0
M  V30 3368 C 322.841 1.59064 -5.64726 0
M  V30 3369 C 325.193 1.40861 -6.16718 0
M  V30 3370 C 323.857 1.28391 -6.55036 0
M  V30 3371 H 323.127 0.499402 -0.547429 0
M  V30 3372 H 325.774 0.684546 -1.78847 0
M  V30 3373 H 324.079 3.26379 -2.16758 0
M  V30 3374 H 325.776 3.1124 -2.52845 0
M  V30 3375 H 322.366 2.23129 -3.65939 0
M  V30 3376 H 326.55 1.90317 -4.58359 0
M  V30 3377 H 321.806 1.48034 -5.93208 0
M  V30 3378 H 325.98 1.16138 -6.86648 0
M  V30 3379 H 323.607 0.944403 -7.54311 0
M  V30 3380 N 325.182 1.32811 0.848464 0
M  V30 3381 C 326.114 1.18095 1.96433 0
M  V30 3382 C 327.127 0.114354 1.62398 0
M  V30 3383 O 328.316 0.363892 1.74751 0
M  V30 3384 C 325.416 0.786798 3.2964 0
M  V30 3385 C 324.589 1.943 3.91875 0
M  V30 3386 C 323.648 1.53138 5.03423 0
M  V30 3387 O 322.674 2.24432 5.23086 0
M  V30 3388 N 323.876 0.430915 5.78898 0
M  V30 3389 H 326.641 2.14218 2.09597 0
M  V30 3390 H 324.202 1.2543 1.02367 0
M  V30 3391 H 326.194 0.493715 4.01677 0
M  V30 3392 H 324.764 -0.0834541 3.12489 0
M  V30 3393 H 323.984 2.40224 3.12547 0
M  V30 3394 H 325.272 2.71689 4.30189 0
M  V30 3395 H 324.67 -0.162333 5.65467 0
M  V30 3396 H 323.227 0.197466 6.51501 0
M  V30 3397 N 326.66 -1.06551 1.16123 0
M  V30 3398 C 327.937 -1.76097 0.85142 0
M  V30 3399 C 328.317 -2.00802 -0.6513 0
M  V30 3400 O 327.665 -1.63302 -1.59827 0
M  V30 3401 C 327.875 -3.06384 1.67122 0
M  V30 3402 C 329.223 -3.80585 1.88255 0
M  V30 3403 O 330.247 -3.16218 1.63966 0
M  V30 3404 O 329.106 -4.96212 2.2899 0
M  V30 3405 H 326.2 -0.765102 0.313923 0
M  V30 3406 H 328.746 -1.12844 1.26745 0
M  V30 3407 H 327.518 -2.84071 2.69108 0
M  V30 3408 H 327.141 -3.77371 1.25206 0
M  V30 3409 N 328.138 -0.959301 -1.25041 0
M  V30 3410 C 329.366 -0.633949 -1.96948 0
M  V30 3411 C 329.781 0.794916 -1.7125 0
M  V30 3412 O 329.138 1.53231 -0.991287 0
M  V30 3413 C 329.189 -0.888805 -3.50403 0
M  V30 3414 O 328.91 -2.26149 -3.75218 0
M  V30 3415 C 330.411 -0.576482 -4.39536 0
M  V30 3416 H 327.631 -0.237263 -0.627652 0
M  V30 3417 H 330.175 -1.28495 -1.59089 0
M  V30 3418 H 328.33 -0.284145 -3.86357 0
M  V30 3419 H 328.744 -2.33514 -4.6965 0
M  V30 3420 H 330.218 -0.805314 -5.46094 0
M  V30 3421 H 330.695 0.489075 -4.36468 0
M  V30 3422 H 331.301 -1.16067 -4.09156 0
M  V30 3423 N 329.616 1.39756 -0.72842 0
M  V30 3424 C 330.546 2.33289 -0.0991354 0
M  V30 3425 C 331.527 1.53568 0.731489 0
M  V30 3426 O 332.712 1.81987 0.677807 0
M  V30 3427 C 329.842 3.3763 0.813834 0
M  V30 3428 C 328.796 4.2791 0.0878663 0
M  V30 3429 C 328.122 5.22894 1.11741 0
M  V30 3430 C 329.422 5.11314 -1.06563 0
M  V30 3431 H 331.116 2.86163 -0.880408 0
M  V30 3432 H 328.662 1.37591 -0.424819 0
M  V30 3433 H 330.615 4.0201 1.26355 0
M  V30 3434 H 329.339 2.83181 1.62715 0
M  V30 3435 H 327.998 3.65 -0.342159 0
M  V30 3436 H 327.646 4.64744 1.92412 0
M  V30 3437 H 327.346 5.84143 0.636477 0
M  V30 3438 H 328.87 5.90151 1.56697 0
M  V30 3439 H 330.284 5.69076 -0.694671 0
M  V30 3440 H 328.681 5.81671 -1.47577 0
M  V30 3441 H 329.751 4.46534 -1.89038 0
M  V30 3442 N 331.094 0.475555 1.50254 0
M  V30 3443 C 332.026 -0.352649 2.26471 0
M  V30 3444 C 333.039 -0.953165 1.3198 0
M  V30 3445 O 334.228 -0.840815 1.57457 0
M  V30 3446 C 331.328 -1.50902 3.0345 0
M  V30 3447 C 330.501 -1.02047 4.25329 0
M  V30 3448 C 329.56 -2.05142 4.84565 0
M  V30 3449 O 328.586 -1.63023 5.45355 0
M  V30 3450 N 329.788 -3.37987 4.71959 0
M  V30 3451 H 332.553 0.300767 2.98187 0
M  V30 3452 H 330.114 0.306598 1.5897 0
M  V30 3453 H 332.106 -2.19572 3.39956 0
M  V30 3454 H 330.676 -2.06705 2.34504 0
M  V30 3455 H 329.896 -0.159507 3.93877 0
M  V30 3456 H 331.184 -0.672061 5.04342 0
M  V30 3457 H 330.582 -3.74913 4.23623 0
M  V30 3458 H 329.139 -4.02443 5.12721 0
M  V30 3459 N 332.573 -1.56217 0.208337 0
M  V30 3460 C 333.819 -1.98242 -0.427552 0
M  V30 3461 C 334.152 -1.09554 -1.60348 0
M  V30 3462 O 333.427 -0.15035 -1.93918 0
M  V30 3463 C 333.71 -3.4931 -0.874907 0
M  V30 3464 C 333.563 -4.48773 0.303751 0
M  V30 3465 C 334.882 -4.04424 -1.73577 0
M  V30 3466 H 332.001 -0.720744 -0.153936 0
M  V30 3467 H 334.643 -1.87586 0.30192 0
M  V30 3468 H 332.793 -3.58522 -1.49648 0
M  V30 3469 H 334.465 -4.51586 0.941682 0
M  V30 3470 H 332.708 -4.23194 0.953375 0
M  V30 3471 H 333.379 -5.51976 -0.0519883 0
M  V30 3472 H 335.855 -3.98075 -1.21143 0
M  V30 3473 H 334.731 -5.1047 -2.01771 0
M  V30 3474 H 334.992 -3.50494 -2.69456 0
M  V30 3475 N 334.051 0.0651679 -1.57465 0
M  V30 3476 C 335.297 0.764193 -1.87851 0
M  V30 3477 C 335.63 1.76889 -0.801495 0
M  V30 3478 O 334.905 1.93594 0.187528 0
M  V30 3479 C 335.188 1.46625 -3.28897 0
M  V30 3480 C 335.041 0.477515 -4.47258 0
M  V30 3481 C 336.36 2.4095 -3.68281 0
M  V30 3482 H 333.479 0.276351 -0.683227 0
M  V30 3483 H 336.121 0.0272868 -1.8998 0
M  V30 3484 H 334.271 2.09438 -3.27212 0
M  V30 3485 H 335.943 -0.145922 -4.61069 0
M  V30 3486 H 334.186 -0.206576 -4.33308 0
M  V30 3487 H 334.857 1.0065 -5.42746 0
M  V30 3488 H 337.333 1.88209 -3.71102 0
M  V30 3489 H 336.209 2.87072 -4.67847 0
M  V30 3490 H 336.47 3.26049 -2.98571 0
M  V30 3491 N 335.529 1.53961 0.336706 0
M  V30 3492 C 336.757 1.75483 1.09605 0
M  V30 3493 C 337.172 0.4972 1.82136 0
M  V30 3494 O 336.529 -0.53149 1.74589 0
M  V30 3495 C 336.58 2.93943 2.10428 0
M  V30 3496 O 336.301 4.14842 1.40846 0
M  V30 3497 C 337.802 3.27571 2.98684 0
M  V30 3498 H 335.022 0.586166 0.326574 0
M  V30 3499 H 337.566 2.00808 0.38683 0
M  V30 3500 H 335.721 2.70929 2.76905 0
M  V30 3501 H 336.135 4.81383 2.08255 0
M  V30 3502 H 337.609 4.13791 3.6535 0
M  V30 3503 H 338.086 2.44168 3.65074 0
M  V30 3504 H 338.692 3.52615 2.37787 0
M  V30 3505 N 337.007 -0.598083 1.45811 0
M  V30 3506 C 337.97 -1.69018 1.54808 0
M  V30 3507 C 338.97 -1.55037 0.426652 0
M  V30 3508 O 340.16 -1.59932 0.690456 0
M  V30 3509 C 337.292 -3.0835 1.45371 0
M  V30 3510 H 338.485 -1.62403 2.52121 0
M  V30 3511 H 336.038 -0.814626 1.33392 0
M  V30 3512 H 336.773 -3.20534 0.492793 0
M  V30 3513 H 336.558 -3.19907 2.26721 0
M  V30 3514 H 338.048 -3.8788 1.54721 0
M  V30 3515 N 338.485 -1.33259 -0.841409 0
M  V30 3516 C 339.435 -1.19872 -1.93945 0
M  V30 3517 C 340.419 -0.102269 -1.60575 0
M  V30 3518 O 341.611 -0.330114 -1.73894 0
M  V30 3519 C 338.74 -0.937517 -3.30251 0
M  V30 3520 C 337.826 -2.07629 -3.69799 0
M  V30 3521 N 338.217 -3.32604 -3.81062 0
M  V30 3522 C 336.515 -1.98242 -3.9952 0
M  V30 3523 C 337.216 -4.07275 -4.15333 0
M  V30 3524 N 336.192 -3.35691 -4.27566 0
M  V30 3525 H 339.994 -2.14604 -2.00805 0
M  V30 3526 H 337.508 -1.2523 -1.03398 0
M  V30 3527 H 339.505 -0.822545 -4.08705 0
M  V30 3528 H 338.165 0.00128798 -3.247 0
M  V30 3529 H 339.176 -3.67382 -3.65035 0
M  V30 3530 H 335.853 -1.12005 -4.02195 0
M  V30 3531 H 337.243 -5.1511 -4.31406 0
M  V30 3532 N 339.963 1.05934 -1.16686 0
M  V30 3533 C 341.193 1.82226 -0.973515 0
M  V30 3534 C 341.601 1.8297 0.481532 0
M  V30 3535 O 340.944 1.25009 1.34604 0
M  V30 3536 C 341.006 3.29897 -1.42858 0
M  V30 3537 C 340.67 3.52849 -2.90425 0
M  V30 3538 C 341.667 3.45595 -3.88407 0
M  V30 3539 C 339.352 3.80053 -3.28428 0
M  V30 3540 C 341.346 3.65217 -5.22394 0
M  V30 3541 C 339.033 3.99325 -4.62583 0
M  V30 3542 C 340.031 3.91905 -5.59374 0
M  V30 3543 O 339.719 4.10647 -6.91104 0
M  V30 3544 H 339.451 0.581314 -0.345036 0
M  V30 3545 H 342.005 1.3453 -1.55212 0
M  V30 3546 H 340.235 3.78472 -0.793477 0
M  V30 3547 H 341.924 3.87692 -1.20207 0
M  V30 3548 H 342.69 3.24564 -3.60393 0
M  V30 3549 H 338.569 3.84936 -2.53664 0
M  V30 3550 H 342.113 3.59341 -5.9793 0
M  V30 3551 H 338.01 4.19846 -4.90306 0
M  V30 3552 H 338.778 4.27915 -6.97733 0
M  V30 3553 N 341.441 0.965919 1.2453 0
M  V30 3554 C 342.857 0.67216 1.44756 0
M  V30 3555 C 343.057 -0.766609 1.86347 0
M  V30 3556 O 342.113 -1.5407 2.00047 0
M  V30 3557 C 343.426 1.65473 2.51076 0
M  V30 3558 C 344.974 1.66716 2.64905 0
M  V30 3559 C 345.449 2.63766 3.74421 0
M  V30 3560 N 346.94 2.62198 3.81846 0
M  V30 3561 C 347.675 3.33966 4.66106 0
M  V30 3562 N 347.171 4.15245 5.54566 0
M  V30 3563 N 348.964 3.22799 4.60171 0
M  V30 3564 H 341.115 1.89553 0.958293 0
M  V30 3565 H 343.378 0.815979 0.482579 0
M  V30 3566 H 343.084 2.68296 2.27399 0
M  V30 3567 H 342.958 1.4261 3.49202 0
M  V30 3568 H 345.345 0.646057 2.87941 0
M  V30 3569 H 345.426 1.93642 1.67142 0
M  V30 3570 H 345.07 3.6601 3.52135 0
M  V30 3571 H 345 2.34121 4.71694 0
M  V30 3572 H 347.491 2.032 3.18619 0
M  V30 3573 H 347.804 4.66898 6.15814 0
M  V30 3574 H 346.149 4.1934 5.54237 0
M  V30 3575 H 349.34 2.58764 3.90075 0
M  V30 3576 H 349.513 3.78994 5.25612 0
M  V30 3577 N 342.919 -1.39368 0.735821 0
M  V30 3578 C 344.147 -2.04795 0.294393 0
M  V30 3579 C 344.562 -1.55478 -1.07107 0
M  V30 3580 O 343.919 -0.720038 -1.67695 0
M  V30 3581 C 343.97 -3.6035 0.288071 0
M  V30 3582 O 343.691 -4.07852 1.59963 0
M  V30 3583 C 345.192 -4.42976 -0.169422 0
M  V30 3584 H 342.412 -0.658571 0.128551 0
M  V30 3585 H 344.956 -1.78399 0.999701 0
M  V30 3586 H 343.111 -3.85645 -0.368355 0
M  V30 3587 H 343.525 -5.02181 1.51375 0
M  V30 3588 H 344.999 -5.51864 -0.122687 0
M  V30 3589 H 345.476 -4.22068 -1.21472 0
M  V30 3590 H 346.082 -4.22832 0.457469 0
M  V30 3591 N 344.397 -0.483516 -1.5 0
M  V30 3592 C 345.622 0.0667119 -2.07293 0
M  V30 3593 C 346.047 1.3164 -1.3436 0
M  V30 3594 O 345.405 1.76945 -0.394987 0
M  V30 3595 C 345.453 0.321126 -3.59167 0
M  V30 3596 O 344.557 1.39927 -3.87936 0
M  V30 3597 H 343.898 -0.0184758 -0.663743 0
M  V30 3598 H 346.428 -0.678125 -1.93035 0
M  V30 3599 H 346.438 0.557906 -4.04168 0
M  V30 3600 H 345.113 -0.592007 -4.11665 0
M  V30 3601 H 343.69 1.14882 -3.54763 0
M  V30 3602 N 345.875 1.56104 -0.216619 0
M  V30 3603 C 347.286 1.844 0.292128 0
M  V30 3604 C 347.637 1.13788 1.59833 0
M  V30 3605 O 346.762 0.405888 2.12559 0
M  V30 3606 C 347.357 3.3452 0.53681 0
M  V30 3607 C 345.916 3.63151 0.989876 0
M  V30 3608 C 345.063 2.77255 0.0502302 0
M  V30 3609 H 348.014 1.52481 -0.439926 0
M  V30 3610 H 348.035 3.54459 1.38345 0
M  V30 3611 H 347.547 3.85885 -0.414031 0
M  V30 3612 H 345.648 3.17238 1.95425 0
M  V30 3613 H 345.761 4.71177 0.867698 0
M  V30 3614 H 344.125 2.48555 0.556117 0
M  V30 3615 H 344.908 3.31416 -0.89544 0
M  V30 3616 N 347.353 -0.0568162 1.57498 0
M  V30 3617 C 348.6 -0.753104 1.87975 0
M  V30 3618 C 348.928 -1.76815 0.81035 0
M  V30 3619 O 348.183 -1.94756 -0.19199 0
M  V30 3620 C 348.482 -1.48359 3.25153 0
M  V30 3621 C 348.148 -0.60713 4.46794 0
M  V30 3622 C 346.81 -0.365642 4.79809 0
M  V30 3623 C 349.162 -0.000305978 5.212 0
M  V30 3624 C 346.49 0.491905 5.84634 0
M  V30 3625 C 348.842 0.844781 6.26934 0
M  V30 3626 C 347.506 1.096 6.58441 0
M  V30 3627 H 346.776 -0.27558 0.687849 0
M  V30 3628 H 349.423 -0.0135173 1.91495 0
M  V30 3629 H 347.728 -2.29577 3.17492 0
M  V30 3630 H 349.425 -2.02739 3.45974 0
M  V30 3631 H 346.015 -0.805487 4.20963 0
M  V30 3632 H 350.199 -0.173961 4.95995 0
M  V30 3633 H 345.455 0.695131 6.07436 0
M  V30 3634 H 349.629 1.32165 6.83744 0
M  V30 3635 H 347.256 1.76224 7.39492 0
M  V30 3636 N 348.832 -1.54138 -0.328536 0
M  V30 3637 C 350.079 -1.72105 -1.06706 0
M  V30 3638 C 350.407 -0.492111 -1.88171 0
M  V30 3639 O 349.662 0.526153 -1.88494 0
M  V30 3640 C 349.961 -2.9457 -2.02393 0
M  V30 3641 C 349.627 -4.29544 -1.37122 0
M  V30 3642 C 348.289 -4.6624 -1.19052 0
M  V30 3643 C 350.641 -5.1333 -0.902331 0
M  V30 3644 C 347.969 -5.84325 -0.527331 0
M  V30 3645 C 350.321 -6.32094 -0.252988 0
M  V30 3646 C 348.985 -6.67473 -0.0600901 0
M  V30 3647 H 348.255 -0.629775 -0.390466 0
M  V30 3648 H 350.902 -1.88372 -0.34473 0
M  V30 3649 H 349.207 -2.72969 -2.81061 0
M  V30 3650 H 350.904 -3.05665 -2.59557 0
M  V30 3651 H 347.494 -4.0067 -1.52188 0
M  V30 3652 H 351.678 -4.855 -1.02974 0
M  V30 3653 H 346.934 -6.103 -0.366634 0
M  V30 3654 H 351.108 -6.96299 0.118366 0
M  V30 3655 H 348.735 -7.58832 0.455828 0
M  V30 3656 N 350.31 0.590341 -1.46126 0
M  V30 3657 C 351.535 1.37991 -1.54833 0
M  V30 3658 C 351.96 1.87163 -0.187506 0
M  V30 3659 O 351.318 1.61133 0.831008 0
M  V30 3660 C 351.366 2.54867 -2.55098 0
M  V30 3661 O 350.47 3.56061 -2.08073 0
M  V30 3662 H 349.811 0.411265 -0.521303 0
M  V30 3663 H 352.341 0.716819 -1.91632 0
M  V30 3664 H 352.351 3.01886 -2.74461 0
M  V30 3665 H 351.026 2.18429 -3.53923 0
M  V30 3666 H 349.603 3.15574 -1.98664 0
M  V30 3667 N 351.788 1.33704 0.83433 0
M  V30 3668 C 353.034 1.25603 1.59222 0
M  V30 3669 C 353.367 -0.176659 1.93395 0
M  V30 3670 O 352.642 -1.11915 1.59076 0
M  V30 3671 C 352.925 2.13576 2.89926 0
M  V30 3672 C 352.778 3.65326 2.62406 0
M  V30 3673 C 354.097 2.01238 3.91397 0
M  V30 3674 H 351.216 0.457613 0.577719 0
M  V30 3675 H 353.858 1.63848 0.961972 0
M  V30 3676 H 352.008 1.8109 3.43713 0
M  V30 3677 H 353.68 4.08124 2.15017 0
M  V30 3678 H 351.923 3.8698 1.96033 0
M  V30 3679 H 352.594 4.22232 3.55562 0
M  V30 3680 H 355.07 2.29738 3.46929 0
M  V30 3681 H 353.946 2.65036 4.80673 0
M  V30 3682 H 354.207 0.985951 4.30966 0
M  V30 3683 N 353.266 -1.05314 1.17247 0
M  V30 3684 C 354.496 -1.81707 0.983166 0
M  V30 3685 C 354.904 -1.83222 -0.471822 0
M  V30 3686 O 354.247 -1.25721 -1.3394 0
M  V30 3687 C 354.309 -3.29134 1.44606 0
M  V30 3688 C 353.973 -3.51304 2.92292 0
M  V30 3689 C 354.97 -3.4353 3.90235 0
M  V30 3690 C 352.655 -3.78306 3.30439 0
M  V30 3691 C 354.649 -3.62442 5.24323 0
M  V30 3692 C 352.336 -3.96866 4.64694 0
M  V30 3693 C 353.334 -3.88933 5.61445 0
M  V30 3694 O 353.022 -4.06976 6.93272 0
M  V30 3695 H 352.754 -0.579476 0.348114 0
M  V30 3696 H 355.308 -1.33705 1.55924 0
M  V30 3697 H 353.538 -3.78046 0.813537 0
M  V30 3698 H 355.227 -3.87049 1.22262 0
M  V30 3699 H 355.993 -3.22648 3.62109 0
M  V30 3700 H 351.872 -3.83585 2.55702 0
M  V30 3701 H 355.416 -3.56165 5.99827 0
M  V30 3702 H 351.313 -4.1724 4.92525 0
M  V30 3703 H 352.081 -4.24209 6.99992 0
M  V30 3704 N 354.744 -0.972509 -1.24016 0
M  V30 3705 C 355.99 -0.637978 -1.92504 0
M  V30 3706 C 356.323 0.825383 -1.75787 0
M  V30 3707 O 355.598 1.59442 -1.11393 0
M  V30 3708 C 355.881 -1.01942 -3.45369 0
M  V30 3709 C 355.734 -2.53983 -3.71231 0
M  V30 3710 C 357.053 -0.55751 -4.36555 0
M  V30 3711 H 354.172 -0.233248 -0.699117 0
M  V30 3712 H 356.814 -1.21238 -1.46292 0
M  V30 3713 H 354.964 -0.530656 -3.84859 0
M  V30 3714 H 356.636 -3.10374 -3.41271 0
M  V30 3715 H 354.879 -2.96968 -3.16216 0
M  V30 3716 H 355.55 -2.75723 -4.78206 0
M  V30 3717 H 358.026 -0.977029 -4.04467 0
M  V30 3718 H 356.902 -0.85292 -5.42233 0
M  V30 3719 H 357.163 0.542328 -4.38761 0
M  V30 3720 N 356.222 1.38976 -0.743202 0
M  V30 3721 C 357.447 2.05161 -0.303936 0
M  V30 3722 C 357.872 1.55677 1.05576 0
M  V30 3723 O 357.23 0.704131 1.67068 0
M  V30 3724 C 357.278 3.59138 -0.324373 0
M  V30 3725 O 356.382 4.06668 0.685204 0
M  V30 3726 H 355.723 0.649815 -0.136518 0
M  V30 3727 H 358.253 1.77852 -1.01142 0
M  V30 3728 H 358.263 4.07639 -0.171618 0
M  V30 3729 H 356.938 3.94515 -1.31647 0
M  V30 3730 H 355.515 3.69561 0.497913 0
M  V30 3731 N 357.7 0.491464 1.49741 0
M  V30 3732 C 358.663 -0.280906 2.27472 0
M  V30 3733 C 359.663 -0.902454 1.33088 0
M  V30 3734 O 360.853 -0.768465 1.56334 0
M  V30 3735 C 357.985 -1.40209 3.10732 0
M  V30 3736 H 359.178 0.401056 2.97206 0
M  V30 3737 H 356.731 0.246131 1.5435 0
M  V30 3738 H 357.466 -2.11849 2.45541 0
M  V30 3739 H 357.251 -0.961969 3.80117 0
M  V30 3740 H 358.741 -1.9464 3.69466 0
M  V30 3741 N 359.178 -1.55987 0.224894 0
M  V30 3742 C 360.455 -1.90232 -0.455083 0
M  V30 3743 C 360.835 -1.14269 -1.77499 0
M  V30 3744 O 360.183 -0.253079 -2.27094 0
M  V30 3745 C 360.393 -3.42993 -0.644758 0
M  V30 3746 C 361.741 -4.13821 -0.950669 0
M  V30 3747 O 362.765 -3.4861 -0.731423 0
M  V30 3748 O 361.624 -5.29128 -1.36695 0
M  V30 3749 H 358.718 -0.79108 -0.241084 0
M  V30 3750 H 361.264 -1.67581 0.267327 0
M  V30 3751 H 360.036 -3.90252 0.28613 0
M  V30 3752 H 359.659 -3.71434 -1.41853 0
M  V30 3753 N 360.656 0.0484629 -1.57525 0
M  V30 3754 C 361.881 0.759177 -1.93006 0
M  V30 3755 C 362.306 1.69125 -0.823317 0
M  V30 3756 O 361.664 1.79931 0.222364 0
M  V30 3757 C 361.712 1.50899 -3.27509 0
M  V30 3758 O 360.816 2.62112 -3.18388 0
M  V30 3759 H 360.157 0.205564 -0.631379 0
M  V30 3760 H 362.687 0.00972959 -2.04598 0
M  V30 3761 H 362.697 1.88317 -3.6194 0
M  V30 3762 H 361.372 0.825269 -4.0763 0
M  V30 3763 H 359.949 2.27379 -2.95556 0
M  V30 3764 N 362.134 1.5431 0.320358 0
M  V30 3765 C 363.081 1.83918 1.39438 0
M  V30 3766 C 364.051 0.686525 1.51248 0
M  V30 3767 O 365.236 0.933269 1.66417 0
M  V30 3768 C 362.376 2.075 2.75749 0
M  V30 3769 C 361.489 3.35177 2.72544 0
M  V30 3770 C 360.624 3.48704 4.00723 0
M  V30 3771 C 359.663 4.70244 3.91838 0
M  V30 3772 N 358.8 4.80679 5.11754 0
M  V30 3773 H 363.64 2.75544 1.13489 0
M  V30 3774 H 361.177 1.36459 0.549309 0
M  V30 3775 H 363.135 2.19166 3.54996 0
M  V30 3776 H 361.765 1.19163 3 0
M  V30 3777 H 360.817 3.32233 1.85271 0
M  V30 3778 H 362.129 4.24534 2.61863 0
M  V30 3779 H 361.283 3.59928 4.88402 0
M  V30 3780 H 360.022 2.57445 4.14214 0
M  V30 3781 H 359.027 4.59072 3.02544 0
M  V30 3782 H 360.252 5.6289 3.7991 0
M  V30 3783 H 358.198 3.92337 5.25745 0
M  V30 3784 H 358.115 5.64007 5.0342 0
M  V30 3785 H 359.383 4.96239 6.01138 0
M  V30 3786 N 363.613 -0.582584 1.46437 0
M  V30 3787 C 364.561 -1.71272 1.5738 0
M  V30 3788 C 365.555 -1.63524 0.44229 0
M  V30 3789 O 366.761 -1.69016 0.619166 0
M  V30 3790 H 363.136 -0.566273 0.494813 0
M  V30 3791 H 365.107 -1.59174 2.52401 0
M  V30 3792 C 363.856 -3.09658 1.58136 0
M  V30 3793 H 363.179 -3.16291 2.44541 0
M  V30 3794 H 364.619 -3.88494 1.69847 0
M  V30 3795 C 363.078 -3.3547 0.310026 0
M  V30 3796 O 363.608 -3.97199 -0.599683 0
M  V30 3797 N 361.814 -2.89925 0.197901 0
M  V30 3798 H 361.361 -2.39873 0.93909 0
M  V30 3799 H 361.319 -3.07568 -0.65185 0
M  V30 3800 N 365.091 -1.34144 -0.827227 0
M  V30 3801 C 366.316 -1.29476 -1.62021 0
M  V30 3802 C 366.741 0.129292 -1.87655 0
M  V30 3803 O 366.099 1.08967 -1.449 0
M  V30 3804 C 366.147 -2.08702 -2.94068 0
M  V30 3805 O 365.251 -1.45359 -3.85933 0
M  V30 3806 H 364.592 -0.444881 -0.492927 0
M  V30 3807 H 367.122 -1.76882 -1.02829 0
M  V30 3808 H 367.132 -2.19898 -3.43669 0
M  V30 3809 H 365.807 -3.12241 -2.74734 0
M  V30 3810 H 364.384 -1.42879 -3.44442 0
M  V30 3811 N 366.569 1.04691 -1.17803 0
M  V30 3812 C 367.517 2.14665 -0.895635 0
M  V30 3813 C 368.511 1.68806 0.141679 0
M  V30 3814 O 369.717 1.79999 -0.00587914 0
M  V30 3815 H 366.092 0.701038 -0.272121 0
M  V30 3816 H 368.063 2.35685 -1.83017 0
M  V30 3817 C 366.812 3.45019 -0.430962 0
M  V30 3818 H 366.135 3.8071 -1.22064 0
M  V30 3819 H 367.575 4.23125 -0.272301 0
M  V30 3820 C 366.034 3.25943 0.852207 0
M  V30 3821 O 366.564 3.5296 1.91786 0
M  V30 3822 N 364.77 2.79304 0.802346 0
M  V30 3823 H 364.317 2.57518 -0.0650788 0
M  V30 3824 H 364.275 2.66921 1.66134 0
M  V30 3825 N 368.047 0.979072 1.23499 0
M  V30 3826 C 369.272 0.664845 1.96455 0
M  V30 3827 C 369.697 -0.761287 1.72006 0
M  V30 3828 O 369.055 -1.51837 0.990713 0
M  V30 3829 C 369.103 0.959479 3.47601 0
M  V30 3830 O 368.207 0.0508168 4.12369 0
M  V30 3831 H 367.548 0.250185 0.615064 0
M  V30 3832 H 370.078 1.31231 1.5697 0
M  V30 3833 H 370.088 0.895642 3.98048 0
M  V30 3834 H 368.763 1.99876 3.64723 0
M  V30 3835 H 367.34 0.16895 3.72517 0
M  V30 3836 N 369.525 -1.3858 0.750561 0
M  V30 3837 C 370.473 -2.32339 0.110162 0
M  V30 3838 C 371.467 -1.53864 -0.708674 0
M  V30 3839 O 372.673 -1.69417 -0.608112 0
M  V30 3840 H 369.048 -0.751812 0.0168275 0
M  V30 3841 H 371.019 -2.83959 0.917053 0
M  V30 3842 C 369.768 -3.39043 -0.771067 0
M  V30 3843 H 369.091 -3.99517 -0.150374 0
M  V30 3844 H 370.531 -4.07061 -1.1865 0
M  V30 3845 C 368.99 -2.77365 -1.91234 0
M  V30 3846 O 369.52 -2.66434 -3.00626 0
M  V30 3847 N 367.726 -2.35219 -1.70646 0
M  V30 3848 H 367.273 -2.4431 -0.81673 0
M  V30 3849 H 367.231 -1.94294 -2.47178 0
M  V30 3850 N 371.003 -0.499398 -1.49478 0
M  V30 3851 C 372.249 0.0457576 -2.02748 0
M  V30 3852 C 372.582 1.36793 -1.37846 0
M  V30 3853 O 371.857 1.87596 -0.513601 0
M  V30 3854 C 372.14 0.199986 -3.59544 0
M  V30 3855 C 371.993 -1.1452 -4.34977 0
M  V30 3856 C 373.312 0.94137 -4.29914 0
M  V30 3857 H 370.431 0.0151552 -0.736844 0
M  V30 3858 H 373.073 -0.650498 -1.78518 0
M  V30 3859 H 371.223 0.793007 -3.8032 0
M  V30 3860 H 372.895 -1.77697 -4.25701 0
M  V30 3861 H 371.138 -1.73488 -3.97598 0
M  V30 3862 H 371.809 -0.990607 -5.43039 0
M  V30 3863 H 374.285 0.43844 -4.13784 0
M  V30 3864 H 373.161 1.01812 -5.39375 0
M  V30 3865 H 373.422 1.98471 -3.95046 0
M  V30 3866 N 372.481 1.55866 -0.233164 0
M  V30 3867 C 373.73 1.97779 0.39579 0
M  V30 3868 C 374.043 1.12419 1.60066 0
M  V30 3869 O 375.249 1.44283 2.29988 0
M  V30 3870 C 373.705 3.5188 0.755556 0
M  V30 3871 C 373.313 4.45959 -0.427152 0
M  V30 3872 C 375.057 4.02479 1.34946 0
M  V30 3873 C 372.964 5.91383 -0.0443043 0
M  V30 3874 H 371.894 0.738592 0.15165 0
M  V30 3875 H 374.545 1.80486 -0.331212 0
M  V30 3876 H 372.927 3.64816 1.5403 0
M  V30 3877 H 374.101 4.44776 -1.20462 0
M  V30 3878 H 372.416 4.05765 -0.935068 0
M  V30 3879 H 375.013 5.08637 1.649 0
M  V30 3880 H 375.356 3.49014 2.26925 0
M  V30 3881 H 375.889 3.92813 0.62791 0
M  V30 3882 H 372.628 6.48857 -0.930874 0
M  V30 3883 H 372.148 5.95734 0.697238 0
M  V30 3884 H 373.827 6.45893 0.378334 0
M  V30 3885 N 373.959 -0.0401083 1.57549 0
M  V30 3886 C 374.891 -1.07149 2.02612 0
M  V30 3887 C 375.904 -1.33126 0.937085 0
M  V30 3888 O 377.093 -1.30808 1.21456 0
M  V30 3889 C 374.193 -2.41561 2.37701 0
M  V30 3890 C 373.366 -2.35096 3.68848 0
M  V30 3891 C 372.425 -3.51867 3.91249 0
M  V30 3892 O 371.451 -3.3186 4.62447 0
M  V30 3893 N 372.653 -4.73351 3.36035 0
M  V30 3894 H 375.418 -0.687485 2.91708 0
M  V30 3895 H 372.979 -0.228248 1.60283 0
M  V30 3896 H 374.971 -3.18379 2.49833 0
M  V30 3897 H 373.541 -2.71846 1.54332 0
M  V30 3898 H 372.761 -1.4345 3.67173 0
M  V30 3899 H 374.049 -2.27908 4.54901 0
M  V30 3900 H 373.447 -4.92507 2.78304 0
M  V30 3901 H 372.004 -5.47572 3.53565 0
M  V30 3902 N 375.437 -1.54477 -0.31217 0
M  V30 3903 C 376.683 -1.73483 -1.0503 0
M  V30 3904 C 377.016 -0.513125 -1.87298 0
M  V30 3905 O 376.291 0.489864 -1.8823 0
M  V30 3906 C 376.574 -3.01723 -1.96558 0
M  V30 3907 C 376.427 -4.3417 -1.17545 0
M  V30 3908 C 377.746 -3.25772 -2.95907 0
M  V30 3909 H 374.865 -0.631222 -0.380432 0
M  V30 3910 H 377.507 -1.87184 -0.325932 0
M  V30 3911 H 375.657 -2.90174 -2.58324 0
M  V30 3912 H 377.329 -4.5762 -0.581513 0
M  V30 3913 H 375.572 -4.31159 -0.477925 0
M  V30 3914 H 376.243 -5.20143 -1.84811 0
M  V30 3915 H 378.719 -3.36857 -2.44267 0
M  V30 3916 H 377.595 -4.16838 -3.57123 0
M  V30 3917 H 377.856 -2.43537 -3.68974 0
M  V30 3918 N 376.915 0.57481 -1.46744 0
M  V30 3919 C 378.192 1.3352 -1.4294 0
M  V30 3920 C 378.572 2.10775 -0.117009 0
M  V30 3921 O 377.92 2.09966 0.901474 0
M  V30 3922 C 378.13 2.25456 -2.66403 0
M  V30 3923 C 379.478 2.87035 -3.12883 0
M  V30 3924 O 380.502 2.35766 -2.67007 0
M  V30 3925 O 379.361 3.80179 -3.92589 0
M  V30 3926 H 376.455 0.600318 -0.568812 0
M  V30 3927 H 379.001 0.595171 -1.58921 0
M  V30 3928 H 377.773 1.67851 -3.53471 0
M  V30 3929 H 377.396 3.06785 -2.52921 0
M  V30 3930 N 378.394 1.34581 0.820102 0
M  V30 3931 C 379.326 1.22236 1.93884 0
M  V30 3932 C 380.339 0.148776 1.62119 0
M  V30 3933 O 381.528 0.400877 1.7394 0
M  V30 3934 C 378.628 0.856542 3.27897 0
M  V30 3935 C 377.801 2.02569 3.87666 0
M  V30 3936 C 376.86 1.63782 5.00062 0
M  V30 3937 O 375.886 2.35477 5.18208 0
M  V30 3938 N 377.088 0.553611 5.77854 0
M  V30 3939 H 379.853 2.18615 2.05006 0
M  V30 3940 H 377.414 1.27573 0.99683 0
M  V30 3941 H 379.406 0.578806 4.0054 0
M  V30 3942 H 377.976 -0.0171518 3.12595 0
M  V30 3943 H 377.196 2.468 3.07382 0
M  V30 3944 H 378.484 2.80752 4.24329 0
M  V30 3945 H 377.882 -0.0423528 5.65684 0
M  V30 3946 H 376.439 0.335614 6.50935 0
M  V30 3947 N 379.872 -1.04064 1.18357 0
M  V30 3948 C 381.097 -1.81454 1.00445 0
M  V30 3949 C 381.522 -1.82823 -0.442423 0
M  V30 3950 O 380.88 -1.24555 -1.31741 0
M  V30 3951 C 380.928 -3.24925 1.56384 0
M  V30 3952 O 380.032 -4.04856 0.785209 0
M  V30 3953 H 379.373 -0.560604 0.355835 0
M  V30 3954 H 381.903 -1.31059 1.57114 0
M  V30 3955 H 381.913 -3.75702 1.59097 0
M  V30 3956 H 380.588 -3.23244 2.61699 0
M  V30 3957 H 379.165 -3.63537 0.830399 0
M  V30 3958 N 381.35 -0.985608 -1.22978 0
M  V30 3959 C 382.598 -0.656087 -1.91154 0
M  V30 3960 C 382.919 0.813561 -1.77218 0
M  V30 3961 O 382.189 1.58244 -1.1548 0
M  V30 3962 H 380.769 -0.239674 -0.707506 0
M  V30 3963 H 383.431 -1.25054 -1.49491 0
M  V30 3964 H 382.527 -0.912253 -2.9847 0
M  V30 3965 N 382.828 1.3818 -0.7579 0
M  V30 3966 C 383.758 2.33027 -0.148597 0
M  V30 3967 C 384.739 1.55085 0.69875 0
M  V30 3968 O 385.924 1.83384 0.639053 0
M  V30 3969 C 383.054 3.3928 0.742034 0
M  V30 3970 C 382.008 4.28 -0.00291946 0
M  V30 3971 C 381.334 5.25146 1.00625 0
M  V30 3972 C 382.634 5.08938 -1.17385 0
M  V30 3973 H 384.328 2.84231 -0.940909 0
M  V30 3974 H 381.874 1.36659 -0.453908 0
M  V30 3975 H 383.827 4.046 1.17799 0
M  V30 3976 H 382.551 2.86569 1.56671 0
M  V30 3977 H 381.21 3.64192 -0.419504 0
M  V30 3978 H 380.858 4.68721 1.8251 0
M  V30 3979 H 380.558 5.85361 0.512428 0
M  V30 3980 H 382.082 5.93342 1.44143 0
M  V30 3981 H 383.496 5.67474 -0.815224 0
M  V30 3982 H 381.893 5.7841 -1.59882 0
M  V30 3983 H 382.963 4.42424 -1.98468 0
M  V30 3984 N 384.306 0.507319 1.49211 0
M  V30 3985 C 385.554 -0.0348839 2.0207 0
M  V30 3986 C 385.875 -1.36898 1.38866 0
M  V30 3987 O 385.145 -1.88133 0.546151 0
M  V30 3988 H 383.725 -0.0158812 0.746831 0
M  V30 3989 H 386.387 0.665998 1.83168 0
M  V30 3990 H 385.483 -0.159917 3.1169 0
M  V30 3991 N 385.784 -1.5574 0.241426 0
M  V30 3992 C 386.714 -2.24133 -0.654722 0
M  V30 3993 C 387.695 -1.21974 -1.1856 0
M  V30 3994 O 388.88 -1.50612 -1.22595 0
M  V30 3995 C 386.01 -2.93659 -1.85423 0
M  V30 3996 C 384.964 -4.0246 -1.45636 0
M  V30 3997 C 384.29 -4.59383 -2.73626 0
M  V30 3998 C 385.59 -5.18468 -0.631506 0
M  V30 3999 H 387.284 -2.99281 -0.0844353 0
M  V30 4000 H 384.83 -1.43947 -0.0391707 0
M  V30 4001 H 386.783 -3.40203 -2.48676 0
M  V30 4002 H 385.507 -2.15991 -2.44981 0
M  V30 4003 H 384.166 -3.56676 -0.847202 0
M  V30 4004 H 383.814 -3.78422 -3.3137 0
M  V30 4005 H 383.514 -5.32826 -2.4773 0
M  V30 4006 H 385.038 -5.08658 -3.37786 0
M  V30 4007 H 386.452 -5.61272 -1.1682 0
M  V30 4008 H 384.849 -5.98266 -0.468831 0
M  V30 4009 H 385.919 -4.8358 0.357506 0
M  V30 4010 N 387.262 0.0317525 -1.57568 0
M  V30 4011 C 388.673 0.578692 -1.77505 0
M  V30 4012 C 389.024 1.75749 -0.872164 0
M  V30 4013 O 388.149 2.16298 -0.0663106 0
M  V30 4014 C 388.744 1.05658 -3.21904 0
M  V30 4015 C 387.303 1.54906 -3.43047 0
M  V30 4016 C 386.45 0.485939 -2.73009 0
M  V30 4017 H 389.401 -0.194475 -1.57504 0
M  V30 4018 H 389.422 1.92404 -3.28269 0
M  V30 4019 H 388.934 0.198422 -3.87592 0
M  V30 4020 H 387.035 2.42915 -2.82529 0
M  V30 4021 H 387.148 1.59841 -4.5165 0
M  V30 4022 H 385.512 0.940354 -2.36705 0
M  V30 4023 H 386.295 -0.362709 -3.41379 0
M  V30 4024 N 388.74 1.54641 0.303973 0
M  V30 4025 C 389.965 1.78092 1.06292 0
M  V30 4026 C 390.39 0.537342 1.80262 0
M  V30 4027 O 389.748 -0.511993 1.7392 0
M  V30 4028 C 389.796 2.98612 2.02147 0
M  V30 4029 O 388.9 2.71528 3.10397 0
M  V30 4030 H 388.241 0.589548 0.305497 0
M  V30 4031 H 390.771 2.01716 0.3423 0
M  V30 4032 H 390.781 3.265 2.44667 0
M  V30 4033 H 389.456 3.88785 1.47714 0
M  V30 4034 H 388.033 2.54648 2.72413 0
M  V30 4035 N 390.218 -0.567019 1.47046 0
M  V30 4036 C 391.634 -0.891975 1.32348 0
M  V30 4037 C 391.834 -1.99154 0.306616 0
M  V30 4038 O 390.89 -2.50883 -0.28532 0
M  V30 4039 C 392.203 -1.29449 2.7141 0
M  V30 4040 C 393.751 -1.40646 2.79621 0
M  V30 4041 C 394.226 -1.84257 4.19301 0
M  V30 4042 N 395.717 -1.91424 4.21795 0
M  V30 4043 C 396.452 -2.26476 5.26779 0
M  V30 4044 N 395.948 -2.60211 6.42077 0
M  V30 4045 N 397.741 -2.27166 5.14152 0
M  V30 4046 H 389.892 0.159074 2.11803 0
M  V30 4047 H 392.155 0.00849752 0.947962 0
M  V30 4048 H 391.861 -0.560448 3.47206 0
M  V30 4049 H 391.735 -2.25273 3.02542 0
M  V30 4050 H 394.122 -2.13133 2.04104 0
M  V30 4051 H 394.203 -0.430339 2.52154 0
M  V30 4052 H 393.847 -1.12343 4.95319 0
M  V30 4053 H 393.777 -2.82855 4.44185 0
M  V30 4054 H 396.268 -1.6778 3.38612 0
M  V30 4055 H 396.581 -2.85956 7.17948 0
M  V30 4056 H 394.926 -2.57813 6.45413 0
M  V30 4057 H 398.117 -2.00244 4.23107 0
M  V30 4058 H 398.29 -2.54154 5.96079 0
M  V30 4059 N 391.696 -1.35014 -0.812953 0
M  V30 4060 C 392.973 -1.18502 -1.55617 0
M  V30 4061 C 393.353 0.238421 -2.09749 0
M  V30 4062 O 392.701 1.2411 -1.91857 0
M  V30 4063 C 392.911 -2.24783 -2.66971 0
M  V30 4064 C 394.259 -2.60268 -3.35478 0
M  V30 4065 O 395.283 -2.23648 -2.77236 0
M  V30 4066 O 394.142 -3.2321 -4.40678 0
M  V30 4067 H 391.236 -0.459984 -0.687272 0
M  V30 4068 H 393.782 -1.46677 -0.853464 0
M  V30 4069 H 392.554 -3.20284 -2.24798 0
M  V30 4070 H 392.177 -1.97841 -3.44884 0
M  V30 4071 N 393.175 1.03435 -1.18907 0
M  V30 4072 C 394.405 1.8012 -1.01195 0
M  V30 4073 C 394.813 1.8395 0.442613 0
M  V30 4074 O 394.156 1.27836 1.31923 0
M  V30 4075 C 394.218 3.26792 -1.49823 0
M  V30 4076 C 393.882 3.46609 -2.97844 0
M  V30 4077 C 394.879 3.37278 -3.95651 0
M  V30 4078 C 392.564 3.73001 -3.36416 0
M  V30 4079 C 394.558 3.54054 -5.30023 0
M  V30 4080 C 392.245 3.89423 -4.70949 0
M  V30 4081 C 393.243 3.79951 -5.67562 0
M  V30 4082 O 392.931 3.95895 -6.99659 0
M  V30 4083 H 392.663 0.573865 -0.357289 0
M  V30 4084 H 395.217 1.31207 -1.58031 0
M  V30 4085 H 393.447 3.76703 -0.873578 0
M  V30 4086 H 395.136 3.85055 -1.28404 0
M  V30 4087 H 395.902 3.16846 -3.67197 0
M  V30 4088 H 391.781 3.79469 -2.61772 0
M  V30 4089 H 395.325 3.46577 -6.05417 0
M  V30 4090 H 391.222 4.09351 -4.99101 0
M  V30 4091 H 391.99 4.13019 -7.06653 0
M  V30 4092 N 394.653 0.992116 1.22453 0
M  V30 4093 C 395.883 0.684949 1.94915 0
M  V30 4094 C 396.291 -0.754292 1.73514 0
M  V30 4095 O 395.634 -1.52056 1.03076 0
M  V30 4096 C 395.696 0.910054 3.47791 0
M  V30 4097 C 395.36 2.33363 3.92926 0
M  V30 4098 C 396.357 3.31308 4.00663 0
M  V30 4099 C 394.042 2.66785 4.25595 0
M  V30 4100 C 396.036 4.6075 4.40441 0
M  V30 4101 C 393.723 3.96446 4.65053 0
M  V30 4102 C 394.721 4.9324 4.72444 0
M  V30 4103 O 394.409 6.20584 5.1101 0
M  V30 4104 H 394.141 0.25258 0.62704 0
M  V30 4105 H 396.695 1.32939 1.56577 0
M  V30 4106 H 394.925 0.208443 3.86138 0
M  V30 4107 H 396.614 0.598257 4.01467 0
M  V30 4108 H 397.38 3.0682 3.75615 0
M  V30 4109 H 393.259 1.92148 4.19047 0
M  V30 4110 H 396.803 5.363 4.46126 0
M  V30 4111 H 392.7 4.20724 4.89552 0
M  V30 4112 H 393.468 6.24509 5.29085 0
M  V30 4113 N 396.131 -1.37776 0.765217 0
M  V30 4114 C 397.061 -2.32945 0.160953 0
M  V30 4115 C 398.042 -1.55454 -0.690516 0
M  V30 4116 O 399.227 -1.83721 -0.629318 0
M  V30 4117 C 396.357 -3.39669 -0.724031 0
M  V30 4118 C 395.311 -4.27992 0.0256173 0
M  V30 4119 C 394.637 -5.25673 -0.978383 0
M  V30 4120 C 395.937 -5.08309 1.20082 0
M  V30 4121 H 397.631 -2.83728 0.955969 0
M  V30 4122 H 395.177 -1.36416 0.461149 0
M  V30 4123 H 397.13 -4.05219 -1.15652 0
M  V30 4124 H 395.854 -2.87396 -1.5515 0
M  V30 4125 H 394.513 -3.63964 0.438812 0
M  V30 4126 H 394.161 -4.69682 -1.80022 0
M  V30 4127 H 393.861 -5.85625 -0.481378 0
M  V30 4128 H 395.385 -5.94098 -1.40995 0
M  V30 4129 H 396.799 -5.67034 0.845307 0
M  V30 4130 H 395.196 -5.77554 1.62947 0
M  V30 4131 H 396.266 -4.41365 2.00811 0
M  V30 4132 N 397.609 -0.515225 -1.4894 0
M  V30 4133 C 398.557 0.269115 -2.31038 0
M  V30 4134 C 399.551 0.949443 -1.40292 0
M  V30 4135 O 400.757 0.87551 -1.57273 0
M  V30 4136 H 397.132 0.10565 -0.744542 0
M  V30 4137 H 399.103 -0.443096 -2.95092 0
M  V30 4138 C 397.852 1.31213 -3.21991 0
M  V30 4139 H 397.175 0.798034 -3.91754 0
M  V30 4140 H 398.615 1.83263 -3.82349 0
M  V30 4141 C 397.074 2.33791 -2.42576 0
M  V30 4142 O 397.604 3.3995 -2.14003 0
M  V30 4143 N 395.81 2.06625 -2.0434 0
M  V30 4144 H 395.357 1.20314 -2.27777 0
M  V30 4145 H 395.315 2.75483 -1.51514 0
M  V30 4146 N 399.087 1.5561 -0.249682 0
M  V30 4147 C 400.034 2.21496 0.648694 0
M  V30 4148 C 401.004 1.17977 1.16921 0
M  V30 4149 O 402.189 1.46434 1.22318 0
M  V30 4150 C 399.329 2.92039 1.83868 0
M  V30 4151 C 398.442 4.10219 1.35442 0
M  V30 4152 C 397.577 4.6847 2.50419 0
M  V30 4153 C 396.616 5.78893 1.98869 0
M  V30 4154 N 395.753 6.31315 3.07223 0
M  V30 4155 H 400.593 2.97892 0.0801582 0
M  V30 4156 H 398.13 1.47074 0.0278031 0
M  V30 4157 H 400.088 3.31138 2.53778 0
M  V30 4158 H 398.718 2.18111 2.37965 0
M  V30 4159 H 397.77 3.76413 0.54928 0
M  V30 4160 H 399.082 4.89927 0.936649 0
M  V30 4161 H 398.236 5.10158 3.28366 0
M  V30 4162 H 396.975 3.87984 2.95499 0
M  V30 4163 H 395.98 5.3668 1.19393 0
M  V30 4164 H 397.205 6.61232 1.54755 0
M  V30 4165 H 395.151 5.53733 3.51732 0
M  V30 4166 H 395.068 7.06224 2.69784 0
M  V30 4167 H 396.336 6.77662 3.8522 0
M  V30 4168 N 400.565 -0.0233959 1.57583 0
M  V30 4169 C 401.793 -0.724682 1.93794 0
M  V30 4170 C 402.208 -1.68588 0.849912 0
M  V30 4171 O 401.565 -1.81676 -0.173204 0
M  V30 4172 C 401.616 -1.47684 3.29957 0
M  V30 4173 O 401.337 -0.554222 4.3458 0
M  V30 4174 C 402.838 -2.27477 3.80485 0
M  V30 4175 H 400.058 -0.203317 0.639455 0
M  V30 4176 H 402.602 0.0207653 2.04489 0
M  V30 4177 H 400.757 -2.17412 3.20641 0
M  V30 4178 H 401.171 -1.08232 5.13212 0
M  V30 4179 H 402.645 -2.7564 4.78254 0
M  V30 4180 H 403.122 -3.09144 3.11972 0
M  V30 4181 H 403.728 -1.62813 3.92902 0
M  V30 4182 N 402.043 -1.548 -0.295768 0
M  V30 4183 C 402.953 -1.89177 -1.38742 0
M  V30 4184 C 403.969 -0.786481 -1.55211 0
M  V30 4185 O 405.145 -1.08344 -1.69775 0
M  V30 4186 C 402.21 -2.13663 -2.73036 0
M  V30 4187 C 401.271 -3.37349 -2.65508 0
M  V30 4188 C 400.504 -3.60658 -3.93398 0
M  V30 4189 O 400.727 -2.86882 -4.93006 0
M  V30 4190 O 399.661 -4.54179 -3.94975 0
M  V30 4191 H 403.487 -2.82059 -1.12589 0
M  V30 4192 H 401.072 -1.41056 -0.492295 0
M  V30 4193 H 402.954 -2.3094 -3.52484 0
M  V30 4194 H 401.629 -1.23967 -2.99022 0
M  V30 4195 H 400.536 -3.25431 -1.84514 0
M  V30 4196 H 401.869 -4.27192 -2.44474 0
M  V30 4197 N 403.521 0.559213 -1.47345 0
M  V30 4198 C 404.469 1.68747 -1.60085 0
M  V30 4199 C 405.463 1.628 -0.46825 0
M  V30 4200 O 406.669 1.68009 -0.645977 0
M  V30 4201 H 403.044 0.558329 -0.503759 0
M  V30 4202 H 405.015 1.55138 -2.54902 0
M  V30 4203 C 403.764 3.07103 -1.63042 0
M  V30 4204 H 403.087 3.12361 -2.49541 0
M  V30 4205 H 404.527 3.85743 -1.76006 0
M  V30 4206 C 402.986 3.34935 -0.363357 0
M  V30 4207 O 403.516 3.98102 0.536416 0
M  V30 4208 N 401.722 2.89574 -0.244 0
M  V30 4209 H 401.269 2.38348 -0.977133 0
M  V30 4210 H 401.227 3.08566 0.602836 0
M  V30 4211 N 404.999 1.35443 0.805782 0
M  V30 4212 C 405.909 1.30546 1.94923 0
M  V30 4213 C 406.925 0.210233 1.72725 0
M  V30 4214 O 408.101 0.43975 1.9654 0
M  V30 4215 C 405.166 1.07782 3.29521 0
M  V30 4216 C 404.227 2.26625 3.64609 0
M  V30 4217 C 403.46 2.04938 4.92784 0
M  V30 4218 O 403.683 1.01624 5.61274 0
M  V30 4219 O 402.617 2.9232 5.26149 0
M  V30 4220 H 406.443 2.26779 2.02002 0
M  V30 4221 H 404.028 1.15823 0.943682 0
M  V30 4222 H 405.91 0.969392 4.10098 0
M  V30 4223 H 404.585 0.146003 3.23371 0
M  V30 4224 H 403.492 2.43033 2.84404 0
M  V30 4225 H 404.825 3.18257 3.75464 0
M  V30 4226 N 406.477 -1.02803 1.19454 0
M  V30 4227 C 407.424 -2.11099 0.933046 0
M  V30 4228 C 408.394 -1.65571 -0.132447 0
M  V30 4229 O 409.579 -1.90797 0.00987576 0
M  V30 4230 C 406.719 -3.41763 0.478747 0
M  V30 4231 C 405.832 -4.00833 1.6111 0
M  V30 4232 C 404.967 -5.19511 1.10825 0
M  V30 4233 C 404.006 -5.70639 2.21445 0
M  V30 4234 N 403.143 -6.80589 1.72461 0
M  V30 4235 H 407.983 -2.32804 1.86028 0
M  V30 4236 H 405.52 -1.14179 0.927441 0
M  V30 4237 H 407.478 -4.16736 0.196745 0
M  V30 4238 H 406.108 -3.20166 -0.411493 0
M  V30 4239 H 405.16 -3.23066 2.00829 0
M  V30 4240 H 406.472 -4.34794 2.4445 0
M  V30 4241 H 405.626 -6.01645 0.781533 0
M  V30 4242 H 404.365 -4.87086 0.244606 0
M  V30 4243 H 403.37 -4.87116 2.54947 0
M  V30 4244 H 404.595 -6.05102 3.08267 0
M  V30 4245 H 402.541 -6.50016 0.884056 0
M  V30 4246 H 402.458 -7.13681 2.49389 0
M  V30 4247 H 403.726 -7.66317 1.42755 0
M  V30 4248 N 407.956 -0.998596 -1.21925 0
M  V30 4249 C 409.202 -0.678667 -1.91107 0
M  V30 4250 C 409.535 0.78791 -1.77498 0
M  V30 4251 O 408.81 1.57043 -1.1475 0
M  V30 4252 C 409.093 -1.09245 -3.43129 0
M  V30 4253 C 408.946 -2.61801 -3.6576 0
M  V30 4254 C 410.265 -0.649984 -4.35274 0
M  V30 4255 H 407.384 -0.248025 -0.694012 0
M  V30 4256 H 410.026 -1.24314 -1.43688 0
M  V30 4257 H 408.176 -0.612171 -3.83647 0
M  V30 4258 H 409.848 -3.17543 -3.34611 0
M  V30 4259 H 408.091 -3.03609 -3.09845 0
M  V30 4260 H 408.762 -2.85804 -4.7225 0
M  V30 4261 H 411.238 -1.0626 -4.02303 0
M  V30 4262 H 410.114 -0.967743 -5.40302 0
M  V30 4263 H 410.375 0.449139 -4.39813 0
M  V30 4264 N 409.434 1.37368 -0.772513 0
M  V30 4265 C 410.364 2.32856 -0.173304 0
M  V30 4266 C 411.345 1.55818 0.682262 0
M  V30 4267 O 412.53 1.84052 0.619566 0
M  V30 4268 C 409.66 3.40048 0.706007 0
M  V30 4269 C 408.614 4.27973 -0.0483144 0
M  V30 4270 C 407.94 5.26184 0.950491 0
M  V30 4271 C 409.24 5.07665 -1.22776 0
M  V30 4272 H 410.934 2.83217 -0.971002 0
M  V30 4273 H 408.48 1.3617 -0.468377 0
M  V30 4274 H 410.433 4.05827 1.13501 0
M  V30 4275 H 409.157 2.88214 1.53623 0
M  V30 4276 H 407.816 3.63726 -0.458107 0
M  V30 4277 H 407.464 4.7063 1.77529 0
M  V30 4278 H 407.164 5.85872 0.450314 0
M  V30 4279 H 408.688 5.94838 1.37842 0
M  V30 4280 H 410.102 5.66578 -0.875366 0
M  V30 4281 H 408.499 5.76681 -1.66007 0
M  V30 4282 H 409.569 4.40294 -2.03149 0
M  V30 4283 N 410.912 0.523116 1.48665 0
M  V30 4284 C 412.14 -0.0096312 2.06898 0
M  V30 4285 C 412.555 -1.28784 1.38059 0
M  V30 4286 O 411.912 -1.76453 0.465893 0
M  V30 4287 C 411.963 -0.244386 3.60673 0
M  V30 4288 O 411.684 0.983172 4.26925 0
M  V30 4289 C 413.185 -0.818289 4.35682 0
M  V30 4290 H 410.405 0.0304161 0.67031 0
M  V30 4291 H 412.949 0.726799 1.91149 0
M  V30 4292 H 411.104 -0.930847 3.76051 0
M  V30 4293 H 411.518 0.759653 5.1897 0
M  V30 4294 H 412.992 -0.93201 5.44075 0
M  V30 4295 H 413.469 -1.82153 3.99646 0
M  V30 4296 H 414.075 -0.168609 4.24966 0
M  V30 4297 N 412.39 -1.55475 0.257931 0
M  V30 4298 C 413.638 -1.98813 -0.363009 0
M  V30 4299 C 413.959 -1.14757 -1.57657 0
M  V30 4300 O 413.229 -0.232956 -1.9451 0
M  V30 4301 H 411.809 -0.734308 -0.137113 0
M  V30 4302 H 414.471 -1.9156 0.359281 0
M  V30 4303 H 413.567 -3.04941 -0.664634 0
M  V30 4304 N 413.868 0.0150385 -1.57593 0
M  V30 4305 C 415.098 0.713359 -1.93894 0
M  V30 4306 C 415.506 1.68663 -0.857289 0
M  V30 4307 O 414.849 1.82876 0.173788 0
M  V30 4308 C 414.911 1.51348 -3.26089 0
M  V30 4309 C 414.575 0.703451 -4.51554 0
M  V30 4310 C 415.572 -0.00237924 -5.199 0
M  V30 4311 C 413.257 0.653854 -4.98026 0
M  V30 4312 C 415.251 -0.746955 -6.33008 0
M  V30 4313 C 412.938 -0.0944578 -6.11027 0
M  V30 4314 C 413.936 -0.793609 -6.78374 0
M  V30 4315 O 413.624 -1.52974 -7.89211 0
M  V30 4316 H 413.356 0.204637 -0.644282 0
M  V30 4317 H 415.91 -0.0276411 -2.05381 0
M  V30 4318 H 414.14 2.29862 -3.10967 0
M  V30 4319 H 415.829 2.09572 -3.47612 0
M  V30 4320 H 416.595 0.0268803 -4.84993 0
M  V30 4321 H 412.474 1.18756 -4.45441 0
M  V30 4322 H 416.018 -1.2932 -6.85509 0
M  V30 4323 H 411.915 -0.125591 -6.45378 0
M  V30 4324 H 412.683 -1.44488 -8.05646 0
M  V30 4325 N 415.346 1.54954 0.287554 0
M  V30 4326 C 416.276 1.89839 1.35954 0
M  V30 4327 C 417.257 0.758675 1.52244 0
M  V30 4328 O 418.442 1.01557 1.65529 0
M  V30 4329 C 415.572 2.15753 2.72154 0
M  V30 4330 C 414.526 3.3159 2.70614 0
M  V30 4331 C 413.852 3.42952 4.10229 0
M  V30 4332 C 415.152 4.68359 2.31165 0
M  V30 4333 H 416.846 2.79625 1.07007 0
M  V30 4334 H 414.392 1.3454 0.513316 0
M  V30 4335 H 416.345 2.38743 3.47246 0
M  V30 4336 H 415.069 1.22752 3.02654 0
M  V30 4337 H 413.728 3.08545 1.97979 0
M  V30 4338 H 413.376 2.47443 4.37928 0
M  V30 4339 H 413.076 4.20826 4.10097 0
M  V30 4340 H 414.6 3.68218 4.87081 0
M  V30 4341 H 416.014 4.9099 2.95976 0
M  V30 4342 H 414.411 5.49044 2.42221 0
M  V30 4343 H 415.481 4.68165 1.26291 0
M  V30 4344 N 416.824 -0.551391 1.4764 0
M  V30 4345 C 417.772 -1.67896 1.60978 0
M  V30 4346 C 418.766 -1.62549 0.476877 0
M  V30 4347 O 419.972 -1.67664 0.654878 0
M  V30 4348 H 416.347 -0.555649 0.506713 0
M  V30 4349 H 418.318 -1.53784 2.55721 0
M  V30 4350 C 417.067 -3.06234 1.64669 0
M  V30 4351 H 416.39 -3.11033 2.51194 0
M  V30 4352 H 417.83 -3.84804 1.7805 0
M  V30 4353 C 416.289 -3.34737 0.381115 0
M  V30 4354 O 416.819 -3.98381 -0.515297 0
M  V30 4355 N 415.025 -2.8944 0.259354 0
M  V30 4356 H 414.572 -2.37827 0.98976 0
M  V30 4357 H 414.53 -3.08882 -0.586464 0
M  V30 4358 N 418.302 -1.35869 -0.798587 0
M  V30 4359 C 419.532 -1.32529 -1.58491 0
M  V30 4360 C 419.94 0.0975405 -1.88948 0
M  V30 4361 O 419.283 1.06224 -1.49874 0
M  V30 4362 C 419.345 -2.07247 -2.9375 0
M  V30 4363 C 419.009 -3.56391 -2.86068 0
M  V30 4364 C 420.006 -4.50824 -2.58947 0
M  V30 4365 C 417.691 -3.9915 -3.04933 0
M  V30 4366 C 419.685 -5.85993 -2.5078 0
M  V30 4367 C 417.372 -5.34413 -2.96389 0
M  V30 4368 C 418.37 -6.27646 -2.69349 0
M  V30 4369 O 418.058 -7.60426 -2.60782 0
M  V30 4370 H 417.79 -0.456529 -0.498556 0
M  V30 4371 H 420.344 -1.79425 -0.999799 0
M  V30 4372 H 418.574 -1.55001 -3.54276 0
M  V30 4373 H 420.263 -1.96883 -3.54954 0
M  V30 4374 H 421.029 -4.19104 -2.44084 0
M  V30 4375 H 416.908 -3.26961 -3.24989 0
M  V30 4376 H 420.452 -6.58735 -2.29595 0
M  V30 4377 H 416.349 -5.65743 -3.10813 0
M  V30 4378 H 417.117 -7.70444 -2.76331 0
M  V30 4379 N 419.78 1.02168 -1.19998 0
M  V30 4380 C 420.713 2.10232 -0.887558 0
M  V30 4381 C 421.691 1.61827 0.158317 0
M  V30 4382 O 422.875 1.88471 0.0330249 0
M  V30 4383 C 420.002 3.37092 -0.32964 0
M  V30 4384 C 419.048 4.0438 -1.3557 0
M  V30 4385 S 419.881 4.48956 -2.91888 0
M  V30 4386 C 421.037 5.79024 -2.37658 0
M  V30 4387 H 421.27 2.36409 -1.80272 0
M  V30 4388 H 418.803 1.15211 -1.0279 0
M  V30 4389 H 420.761 4.10498 -0.0142824 0
M  V30 4390 H 419.422 3.08996 0.563941 0
M  V30 4391 H 418.615 4.95632 -0.9146 0
M  V30 4392 H 418.217 3.37176 -1.61828 0
M  V30 4393 H 420.509 6.53942 -1.77103 0
M  V30 4394 H 421.452 6.27924 -3.27287 0
M  V30 4395 H 421.86 5.35043 -1.79971 0
M  V30 4396 N 421.258 1.00505 1.21394 0
M  V30 4397 C 422.504 0.688793 1.90745 0
M  V30 4398 C 422.837 -0.778486 1.77914 0
M  V30 4399 O 422.112 -1.56433 1.15581 0
M  V30 4400 C 422.395 1.11063 3.42545 0
M  V30 4401 C 422.248 2.63737 3.64367 0
M  V30 4402 C 423.567 0.673059 4.34923 0
M  V30 4403 H 420.686 0.251702 0.692687 0
M  V30 4404 H 423.328 1.25074 1.43026 0
M  V30 4405 H 421.478 0.632508 3.83317 0
M  V30 4406 H 423.15 3.19313 3.32922 0
M  V30 4407 H 421.393 3.05248 3.08231 0
M  V30 4408 H 422.064 2.88305 4.70727 0
M  V30 4409 H 424.54 1.08392 4.01734 0
M  V30 4410 H 423.416 0.996383 5.39781 0
M  V30 4411 H 423.677 -0.425808 4.40045 0
M  V30 4412 N 422.737 -1.36956 0.779787 0
M  V30 4413 C 423.669 -2.28833 0.129639 0
M  V30 4414 C 424.682 -1.4902 -0.655511 0
M  V30 4415 O 425.871 -1.71578 -0.492279 0
M  V30 4416 C 422.971 -3.2833 -0.839792 0
M  V30 4417 C 422.144 -4.3727 -0.10675 0
M  V30 4418 C 421.203 -5.16789 -0.990717 0
M  V30 4419 O 420.229 -5.67406 -0.451516 0
M  V30 4420 N 421.431 -5.32294 -2.3161 0
M  V30 4421 H 424.196 -2.85268 0.918803 0
M  V30 4422 H 421.757 -1.49019 0.632841 0
M  V30 4423 H 423.749 -3.78413 -1.43477 0
M  V30 4424 H 422.319 -2.72605 -1.52988 0
M  V30 4425 H 421.539 -3.88478 0.669216 0
M  V30 4426 H 422.827 -5.07229 0.399464 0
M  V30 4427 H 422.225 -4.92768 -2.77843 0
M  V30 4428 H 420.782 -5.85656 -2.86095 0
M  V30 4429 N 424.215 -0.530993 -1.48385 0
M  V30 4430 C 425.145 0.219985 -2.32461 0
M  V30 4431 C 426.126 0.934111 -1.42156 0
M  V30 4432 O 427.311 0.919694 -1.71042 0
M  V30 4433 C 424.441 1.26674 -3.23375 0
M  V30 4434 C 423.395 0.67069 -4.22712 0
M  V30 4435 C 422.721 1.82017 -5.02766 0
M  V30 4436 C 424.021 -0.358268 -5.2107 0
M  V30 4437 H 425.715 -0.48187 -2.95497 0
M  V30 4438 H 423.261 -0.233182 -1.42099 0
M  V30 4439 H 425.214 1.80006 -3.81019 0
M  V30 4440 H 423.938 1.99818 -2.58341 0
M  V30 4441 H 422.597 0.158878 -3.66256 0
M  V30 4442 H 422.245 2.54002 -4.34157 0
M  V30 4443 H 421.945 1.42727 -5.70003 0
M  V30 4444 H 423.469 2.35725 -5.63264 0
M  V30 4445 H 424.883 0.0880081 -5.73232 0
M  V30 4446 H 423.28 -0.66861 -5.96364 0
M  V30 4447 H 424.35 -1.26367 -4.68145 0
M  V30 4448 N 425.693 1.55336 -0.266172 0
M  V30 4449 C 426.941 1.99003 0.35246 0
M  V30 4450 C 427.262 1.15591 1.57047 0
M  V30 4451 O 426.532 0.243268 1.94384 0
M  V30 4452 H 425.112 0.735025 0.133217 0
M  V30 4453 H 427.774 1.91367 -0.369434 0
M  V30 4454 H 426.87 3.05289 0.648453 0
M  V30 4455 N 427.171 -0.0066808 1.57599 0
M  V30 4456 C 428.118 -1.00024 2.08 0
M  V30 4457 C 429.088 -1.34549 0.973943 0
M  V30 4458 O 430.273 -1.44502 1.24595 0
M  V30 4459 C 427.413 -2.2891 2.58252 0
M  V30 4460 C 426.526 -2.00346 3.82734 0
M  V30 4461 C 425.661 -3.23265 4.21513 0
M  V30 4462 C 424.7 -2.90357 5.3885 0
M  V30 4463 N 423.837 -4.05793 5.72954 0
M  V30 4464 H 428.677 -0.563499 2.92624 0
M  V30 4465 H 426.214 -0.266592 1.44664 0
M  V30 4466 H 428.172 -3.04247 2.85464 0
M  V30 4467 H 426.802 -2.70265 1.76512 0
M  V30 4468 H 425.854 -1.15406 3.62471 0
M  V30 4469 H 427.166 -1.72086 4.68175 0
M  V30 4470 H 426.32 -4.06953 4.49971 0
M  V30 4471 H 425.059 -3.54657 3.34768 0
M  V30 4472 H 424.064 -2.05075 5.10122 0
M  V30 4473 H 425.289 -2.60219 6.27266 0
M  V30 4474 H 423.235 -4.37094 4.89167 0
M  V30 4475 H 423.152 -3.81034 6.52954 0
M  V30 4476 H 424.42 -4.90289 6.06001 0
M  V30 4477 N 428.649 -1.55105 -0.279332 0
M  V30 4478 C 429.579 -1.90557 -1.34945 0
M  V30 4479 C 430.56 -0.766738 -1.51839 0
M  V30 4480 O 431.745 -1.02434 -1.64988 0
M  V30 4481 C 428.875 -2.17193 -2.71006 0
M  V30 4482 C 427.829 -3.33021 -2.68851 0
M  V30 4483 C 427.155 -3.45123 -4.08405 0
M  V30 4484 C 428.455 -4.69578 -2.28678 0
M  V30 4485 H 430.149 -2.80188 -1.05522 0
M  V30 4486 H 427.695 -1.34811 -0.506173 0
M  V30 4487 H 429.648 -2.40581 -3.45975 0
M  V30 4488 H 428.372 -1.24355 -3.01999 0
M  V30 4489 H 427.031 -3.0959 -1.9634 0
M  V30 4490 H 426.679 -2.49762 -4.3661 0
M  V30 4491 H 426.379 -4.22995 -4.07859 0
M  V30 4492 H 427.903 -3.70796 -4.85121 0
M  V30 4493 H 429.317 -4.92553 -2.93368 0
M  V30 4494 H 427.714 -5.5032 -2.39306 0
M  V30 4495 H 428.784 -4.68828 -1.23807 0
M  V30 4496 N 430.127 0.543554 -1.4793 0
M  V30 4497 C 431.057 1.65888 -1.64327 0
M  V30 4498 C 432.038 1.62818 -0.492383 0
M  V30 4499 O 433.223 1.80226 -0.723338 0
M  V30 4500 C 430.353 3.04506 -1.67013 0
M  V30 4501 C 429.307 3.2243 -2.81466 0
M  V30 4502 C 428.633 4.61972 -2.69233 0
M  V30 4503 C 429.933 3.06496 -4.22915 0
M  V30 4504 H 431.627 1.52421 -2.57698 0
M  V30 4505 H 429.173 0.731849 -1.24016 0
M  V30 4506 H 431.126 3.82391 -1.77074 0
M  V30 4507 H 429.85 3.18964 -0.70212 0
M  V30 4508 H 428.509 2.46957 -2.70938 0
M  V30 4509 H 428.157 4.73247 -1.7043 0
M  V30 4510 H 427.857 4.74911 -3.46025 0
M  V30 4511 H 429.381 5.41974 -2.81242 0
M  V30 4512 H 430.795 3.74186 -4.34348 0
M  V30 4513 H 429.192 3.30938 -5.006 0
M  V30 4514 H 430.262 2.03077 -4.40327 0
M  V30 4515 N 431.605 1.3629 0.791371 0
M  V30 4516 C 432.853 1.30154 1.5461 0
M  V30 4517 C 433.174 -0.119409 1.94634 0
M  V30 4518 O 432.444 -1.05924 1.64794 0
M  V30 4519 H 431.024 0.478784 0.573389 0
M  V30 4520 H 433.686 1.70565 0.94306 0
M  V30 4521 H 432.782 1.92762 2.45457 0
M  V30 4522 N 433.083 -1.0153 1.20538 0
M  V30 4523 C 434.331 -1.74803 1.01432 0
M  V30 4524 C 434.652 -1.8963 -0.454456 0
M  V30 4525 O 433.922 -1.43975 -1.32846 0
M  V30 4526 H 432.502 -0.647598 0.372324 0
M  V30 4527 H 435.164 -1.22402 1.5167 0
M  V30 4528 H 434.26 -2.75114 1.47373 0
M  V30 4529 N 434.561 -1.01147 -1.20859 0
M  V30 4530 C 435.809 -0.696486 -1.89719 0
M  V30 4531 C 436.13 0.775788 -1.78904 0
M  V30 4532 O 435.4 1.55759 -1.18811 0
M  V30 4533 H 433.98 -0.254628 -0.702263 0
M  V30 4534 H 436.642 -1.28197 -1.46804 0
M  V30 4535 H 435.738 -0.975357 -2.96468 0
M  V30 4536 N 436.039 1.36541 -0.78704 0
M  V30 4537 C 437.316 1.9355 -0.282424 0
M  V30 4538 C 437.696 1.71919 1.22503 0
M  V30 4539 O 437.044 1.07677 2.01539 0
M  V30 4540 C 437.254 3.4246 -0.672462 0
M  V30 4541 C 438.602 4.19582 -0.650863 0
M  V30 4542 O 439.626 3.50889 -0.612789 0
M  V30 4543 O 438.485 5.42106 -0.691623 0
M  V30 4544 H 435.579 0.824091 -0.0693 0
M  V30 4545 H 438.125 1.45736 -0.869423 0
M  V30 4546 H 436.897 3.51851 -1.71221 0
M  V30 4547 H 436.52 3.97556 -0.0592211 0
M  V30 4548 N 437.518 0.538854 1.48102 0
M  V30 4549 C 438.428 -0.222648 2.33541 0
M  V30 4550 C 439.444 -0.930225 1.47047 0
M  V30 4551 O 440.62 -0.903211 1.80011 0
M  V30 4552 C 437.685 -1.25064 3.23357 0
M  V30 4553 C 436.746 -0.552469 4.2573 0
M  V30 4554 C 435.979 -1.53149 5.11254 0
M  V30 4555 O 436.202 -2.76487 4.9891 0
M  V30 4556 O 435.136 -1.06602 5.92385 0
M  V30 4557 H 438.962 0.477707 2.99919 0
M  V30 4558 H 436.547 0.299669 1.46364 0
M  V30 4559 H 438.429 -1.8445 3.78888 0
M  V30 4560 H 437.104 -1.93325 2.59629 0
M  V30 4561 H 436.011 0.082114 3.7401 0
M  V30 4562 H 437.344 0.0883526 4.92121 0
M  V30 4563 N 438.996 -1.55193 0.274407 0
M  V30 4564 C 439.906 -2.26164 -0.623473 0
M  V30 4565 C 440.922 -1.28729 -1.17068 0
M  V30 4566 O 442.098 -1.61663 -1.20112 0
M  V30 4567 C 439.163 -2.96833 -1.7914 0
M  V30 4568 C 438.224 -4.09745 -1.28093 0
M  V30 4569 C 437.457 -4.77034 -2.3932 0
M  V30 4570 O 437.68 -4.4353 -3.5866 0
M  V30 4571 O 436.614 -5.64996 -2.07516 0
M  V30 4572 H 440.44 -3.03661 -0.0485661 0
M  V30 4573 H 438.025 -1.49341 0.0418382 0
M  V30 4574 H 439.907 -3.41248 -2.4724 0
M  V30 4575 H 438.582 -2.22253 -2.35341 0
M  V30 4576 H 437.489 -3.69787 -0.566416 0
M  V30 4577 H 438.822 -4.86224 -0.764683 0
M  V30 4578 N 440.474 -0.00167713 -1.576 0
M  V30 4579 C 441.437 0.974046 -2.07473 0
M  V30 4580 C 442.437 1.27143 -0.984444 0
M  V30 4581 O 443.627 1.21633 -1.24703 0
M  V30 4582 C 440.759 2.29849 -2.51759 0
M  V30 4583 H 441.952 0.54262 -2.9495 0
M  V30 4584 H 439.505 0.245829 -1.54355 0
M  V30 4585 H 440.24 2.77677 -1.67529 0
M  V30 4586 H 440.025 2.09584 -3.31386 0
M  V30 4587 H 441.515 2.9984 -2.90664 0
M  V30 4588 N 441.952 1.55251 0.271103 0
M  V30 4589 C 443.201 1.75151 1.00025 0
M  V30 4590 C 443.514 0.561041 1.87381 0
M  V30 4591 O 444.72 0.642506 2.63788 0
M  V30 4592 C 443.176 3.09999 1.82835 0
M  V30 4593 C 442.784 4.3662 1.00336 0
M  V30 4594 C 444.528 3.39249 2.55168 0
M  V30 4595 C 442.435 5.62506 1.82595 0
M  V30 4596 H 441.365 0.652877 0.377183 0
M  V30 4597 H 444.016 1.81708 0.255843 0
M  V30 4598 H 442.398 2.97485 2.61378 0
M  V30 4599 H 443.572 4.60055 0.261959 0
M  V30 4600 H 441.887 4.14527 0.394486 0
M  V30 4601 H 444.484 4.3051 3.1712 0
M  V30 4602 H 444.827 2.59467 3.2555 0
M  V30 4603 H 445.36 3.52869 1.83653 0
M  V30 4604 H 442.099 6.45041 1.16631 0
M  V30 4605 H 441.619 5.43211 2.54327 0
M  V30 4606 H 443.298 6.00875 2.39913 0
M  V30 4607 N 443.43 -0.535701 1.48216 0
M  V30 4608 C 444.846 -0.863701 1.3421 0
M  V30 4609 C 445.046 -1.98458 0.34879 0
M  V30 4610 O 444.102 -2.51432 -0.23204 0
M  V30 4611 C 445.415 -1.23662 2.74095 0
M  V30 4612 C 446.963 -1.34683 2.82541 0
M  V30 4613 C 447.438 -1.75322 4.23115 0
M  V30 4614 N 448.929 -1.82434 4.2576 0
M  V30 4615 C 449.664 -2.15252 5.31464 0
M  V30 4616 N 449.16 -2.46533 6.47452 0
M  V30 4617 N 450.953 -2.16209 5.18855 0
M  V30 4618 H 443.104 0.203965 2.11418 0
M  V30 4619 H 445.367 0.0286033 0.947568 0
M  V30 4620 H 445.073 -0.486674 3.48316 0
M  V30 4621 H 444.947 -2.18805 3.07253 0
M  V30 4622 H 447.334 -2.08756 2.08579 0
M  V30 4623 H 447.415 -0.376756 2.5301 0
M  V30 4624 H 447.059 -1.01812 4.97591 0
M  V30 4625 H 446.989 -2.7337 4.50085 0
M  V30 4626 H 449.48 -1.6056 3.42095 0
M  V30 4627 H 449.793 -2.70662 7.23852 0
M  V30 4628 H 448.138 -2.44065 6.50736 0
M  V30 4629 H 451.329 -1.91224 4.2726 0
M  V30 4630 H 451.502 -2.41453 6.01335 0
M  V30 4631 N 444.908 -1.36708 -0.784132 0
M  V30 4632 C 446.319 -1.27947 -1.35965 0
M  V30 4633 C 446.67 0.0784013 -1.96043 0
M  V30 4634 O 445.795 0.979989 -1.92938 0
M  V30 4635 C 446.39 -2.31689 -2.47195 0
M  V30 4636 C 444.949 -2.26601 -3.00548 0
M  V30 4637 C 444.096 -2.16184 -1.73666 0
M  V30 4638 H 447.047 -1.4751 -0.585358 0
M  V30 4639 H 447.068 -1.95638 -3.26352 0
M  V30 4640 H 446.58 -3.30506 -2.03439 0
M  V30 4641 H 444.681 -1.31268 -3.48711 0
M  V30 4642 H 444.794 -3.19508 -3.57004 0
M  V30 4643 H 443.158 -1.62524 -1.96107 0
M  V30 4644 H 443.941 -3.16896 -1.32031 0
M  V30 4645 N 446.386 1.0089 -1.21074 0
M  V30 4646 C 447.318 2.09737 -0.924291 0
M  V30 4647 C 448.331 1.62546 0.0909809 0
M  V30 4648 O 449.52 1.77942 -0.141021 0
M  V30 4649 C 446.62 3.36922 -0.36559 0
M  V30 4650 C 445.793 4.13216 -1.43426 0
M  V30 4651 C 444.852 5.18696 -0.885496 0
M  V30 4652 O 443.878 5.47176 -1.56801 0
M  V30 4653 N 445.08 5.79718 0.301227 0
M  V30 4654 H 447.845 2.34895 -1.8613 0
M  V30 4655 H 445.406 1.17341 -1.11546 0
M  V30 4656 H 447.398 4.04697 0.0158407 0
M  V30 4657 H 445.968 3.08952 0.476149 0
M  V30 4658 H 445.188 3.40301 -1.9897 0
M  V30 4659 H 446.476 4.60967 -2.15376 0
M  V30 4660 H 445.874 5.58926 0.872849 0
M  V30 4661 H 444.431 6.48804 0.624211 0
M  V30 4662 N 447.864 1.01787 1.20321 0
M  V30 4663 C 448.797 0.533882 2.21867 0
M  V30 4664 C 449.775 -0.419361 1.57099 0
M  V30 4665 O 450.959 -0.339062 1.85426 0
M  V30 4666 C 448.086 -0.222899 3.37966 0
M  V30 4667 C 447.132 0.680091 4.21043 0
M  V30 4668 S 447.965 2.14997 4.90445 0
M  V30 4669 C 449.121 1.40339 6.09964 0
M  V30 4670 H 449.354 1.39429 2.62577 0
M  V30 4671 H 446.887 0.826867 1.30393 0
M  V30 4672 H 448.845 -0.653425 4.05266 0
M  V30 4673 H 447.506 -1.0589 2.95713 0
M  V30 4674 H 446.699 0.0964704 5.03908 0
M  V30 4675 H 446.301 1.04845 3.59004 0
M  V30 4676 H 448.593 0.68407 6.74038 0
M  V30 4677 H 449.536 2.20823 6.72787 0
M  V30 4678 H 449.944 0.905716 5.57187 0
M  V30 4679 N 449.342 -1.36122 0.79427 0
M  V30 4680 C 450.274 -2.28683 0.153903 0
M  V30 4681 C 451.287 -1.49707 -0.639669 0
M  V30 4682 O 452.476 -1.7209 -0.474054 0
M  V30 4683 C 449.576 -3.29202 -0.804921 0
M  V30 4684 C 448.749 -4.37358 -0.060366 0
M  V30 4685 C 447.808 -5.17811 -0.935849 0
M  V30 4686 O 446.834 -5.67853 -0.391309 0
M  V30 4687 N 448.036 -5.34721 -2.25951 0
M  V30 4688 H 450.801 -2.84278 0.949008 0
M  V30 4689 H 448.362 -1.4834 0.648611 0
M  V30 4690 H 450.354 -3.79914 -1.39455 0
M  V30 4691 H 448.924 -2.74212 -1.50088 0
M  V30 4692 H 448.144 -3.87746 0.710382 0
M  V30 4693 H 449.432 -5.06777 0.45324 0
M  V30 4694 H 448.83 -4.95687 -2.72601 0
M  V30 4695 H 447.387 -5.88657 -2.79867 0
M  V30 4696 N 450.82 -0.546701 -1.47814 0
M  V30 4697 C 451.752 0.244196 -2.27895 0
M  V30 4698 C 452.765 0.88911 -1.36377 0
M  V30 4699 O 453.954 0.764733 -1.61289 0
M  V30 4700 C 451.054 1.36252 -3.10304 0
M  V30 4701 C 450.227 0.816382 -4.29714 0
M  V30 4702 C 449.286 1.81789 -4.93801 0
M  V30 4703 O 448.312 1.36818 -5.52512 0
M  V30 4704 N 449.514 3.15085 -4.87547 0
M  V30 4705 H 452.279 -0.442694 -2.96412 0
M  V30 4706 H 449.84 -0.382095 -1.57327 0
M  V30 4707 H 451.832 2.03102 -3.50045 0
M  V30 4708 H 450.402 1.95281 -2.44099 0
M  V30 4709 H 449.622 -0.0285981 -3.9419 0
M  V30 4710 H 450.91 0.430668 -5.06974 0
M  V30 4711 H 450.308 3.54275 -4.41028 0
M  V30 4712 H 448.865 3.77522 -5.31339 0
M  V30 4713 N 452.299 1.55045 -0.282633 0
M  V30 4714 C 453.548 1.98938 0.332667 0
M  V30 4715 C 453.861 1.17455 1.56409 0
M  V30 4716 O 455.067 1.51527 2.25282 0
M  V30 4717 C 453.523 3.54105 0.643226 0
M  V30 4718 C 453.131 4.44374 -0.568814 0
M  V30 4719 C 454.875 4.06569 1.22074 0
M  V30 4720 C 452.782 5.90943 -0.232426 0
M  V30 4721 H 451.712 0.743043 0.128075 0
M  V30 4722 H 454.363 1.79341 -0.388464 0
M  V30 4723 H 452.745 3.69532 1.42346 0
M  V30 4724 H 453.919 4.40718 -1.34551 0
M  V30 4725 H 452.234 4.02585 -1.06369 0
M  V30 4726 H 454.831 5.13626 1.48635 0
M  V30 4727 H 455.174 3.56057 2.15707 0
M  V30 4728 H 455.707 3.94612 0.502621 0
M  V30 4729 H 452.446 6.45567 -1.13683 0
M  V30 4730 H 451.966 5.9765 0.507357 0
M  V30 4731 H 453.645 6.4677 0.172657 0
M  V30 4732 N 453.777 0.010035 1.57597 0
M  V30 4733 C 454.707 -0.976857 2.12084 0
M  V30 4734 C 455.688 -1.35191 1.03235 0
M  V30 4735 O 456.873 -1.43389 1.3097 0
M  V30 4736 C 454.003 -2.26548 2.63236 0
M  V30 4737 C 452.957 -2.03175 3.76701 0
M  V30 4738 C 452.283 -3.38138 4.14206 0
M  V30 4739 C 453.583 -1.38625 5.03568 0
M  V30 4740 H 455.277 -0.523145 2.94794 0
M  V30 4741 H 452.823 -0.250195 1.4181 0
M  V30 4742 H 454.776 -2.95952 2.99984 0
M  V30 4743 H 453.5 -2.74051 1.77661 0
M  V30 4744 H 452.159 -1.36195 3.40362 0
M  V30 4745 H 451.807 -3.83363 3.25641 0
M  V30 4746 H 451.507 -3.23312 4.90656 0
M  V30 4747 H 453.031 -4.08841 4.53521 0
M  V30 4748 H 454.445 -1.98 5.38023 0
M  V30 4749 H 452.842 -1.34256 5.84889 0
M  V30 4750 H 453.912 -0.356722 4.83586 0
M  V30 4751 N 455.255 -1.55392 -0.262866 0
M  V30 4752 C 456.532 -1.67204 -1.01499 0
M  V30 4753 C 456.912 -0.545186 -2.03939 0
M  V30 4754 O 456.26 0.453467 -2.23955 0
M  V30 4755 C 456.47 -3.06847 -1.6627 0
M  V30 4756 C 457.818 -3.64928 -2.17054 0
M  V30 4757 O 458.842 -3.09545 -1.76239 0
M  V30 4758 O 457.701 -4.61984 -2.91947 0
M  V30 4759 H 454.795 -0.679467 -0.471438 0
M  V30 4760 H 457.341 -1.67729 -0.257918 0
M  V30 4761 H 456.113 -3.80309 -0.920915 0
M  V30 4762 H 455.736 -3.10266 -2.48638 0
M  V30 4763 N 456.733 0.527833 -1.48498 0
M  V30 4764 C 457.98 1.28354 -1.56625 0
M  V30 4765 C 458.308 1.93 -0.241096 0
M  V30 4766 O 457.563 1.79967 0.768798 0
M  V30 4767 C 457.862 2.39275 -2.65485 0
M  V30 4768 C 457.528 1.92268 -4.07853 0
M  V30 4769 C 456.19 1.79166 -4.46602 0
M  V30 4770 C 458.542 1.56771 -4.97064 0
M  V30 4771 C 455.87 1.28905 -5.72364 0
M  V30 4772 C 458.222 1.07972 -6.23318 0
M  V30 4773 C 456.886 0.934887 -6.60921 0
M  V30 4774 H 456.156 0.469682 -0.573131 0
M  V30 4775 H 458.803 0.588781 -1.82224 0
M  V30 4776 H 457.108 3.1443 -2.33754 0
M  V30 4777 H 458.805 2.974 -2.68988 0
M  V30 4778 H 455.395 2.03417 -3.77252 0
M  V30 4779 H 459.579 1.65753 -4.67803 0
M  V30 4780 H 454.835 1.16381 -6.00221 0
M  V30 4781 H 459.009 0.795775 -6.91838 0
M  V30 4782 H 456.636 0.543231 -7.58257 0
M  V30 4783 N 458.211 1.37122 0.776871 0
M  V30 4784 C 459.121 1.34651 1.9211 0
M  V30 4785 C 460.137 0.246824 1.7224 0
M  V30 4786 O 461.313 0.48134 1.95563 0
M  V30 4787 C 458.378 1.14748 3.2716 0
M  V30 4788 C 457.439 2.34308 3.5972 0
M  V30 4789 C 456.672 2.15345 4.88326 0
M  V30 4790 O 456.895 1.13507 5.58992 0
M  V30 4791 O 455.829 3.03414 5.1983 0
M  V30 4792 H 459.655 2.31013 1.97146 0
M  V30 4793 H 457.24 1.17799 0.918901 0
M  V30 4794 H 459.122 1.05616 4.0795 0
M  V30 4795 H 457.797 0.214562 3.22988 0
M  V30 4796 H 456.704 2.49011 2.79185 0
M  V30 4797 H 458.037 3.26149 3.68629 0
M  V30 4798 N 459.689 -1.00246 1.21608 0
M  V30 4799 C 460.917 -1.77631 1.06089 0
M  V30 4800 C 461.332 -1.84746 -0.38916 0
M  V30 4801 O 460.689 -1.31068 -1.26994 0
M  V30 4802 C 460.74 -3.21415 1.65453 0
M  V30 4803 O 460.461 -3.14703 3.04785 0
M  V30 4804 C 461.962 -4.15289 1.55079 0
M  V30 4805 H 459.182 -0.558162 0.37242 0
M  V30 4806 H 461.726 -1.26093 1.60999 0
M  V30 4807 H 459.881 -3.70053 1.14629 0
M  V30 4808 H 460.295 -4.05056 3.33212 0
M  V30 4809 H 461.769 -5.13965 2.01355 0
M  V30 4810 H 462.246 -4.36279 0.505665 0
M  V30 4811 H 462.852 -3.72543 2.05163 0
M  V30 4812 N 461.167 -1.02423 -1.1978 0
M  V30 4813 C 462.13 -0.605703 -2.21052 0
M  V30 4814 C 463.13 0.328209 -1.57415 0
M  V30 4815 O 464.32 0.115853 -1.73814 0
M  V30 4816 C 461.452 0.114366 -3.40708 0
M  V30 4817 H 462.645 -1.5017 -2.59594 0
M  V30 4818 H 460.198 -0.814888 -1.33376 0
M  V30 4819 H 460.933 1.02492 -3.07678 0
M  V30 4820 H 460.718 -0.556641 -3.88129 0
M  V30 4821 H 462.208 0.394272 -4.15735 0
M  V30 4822 N 462.645 1.35699 -0.801477 0
M  V30 4823 C 463.575 2.32436 -0.222658 0
M  V30 4824 C 464.556 1.5723 0.649057 0
M  V30 4825 O 465.741 1.85324 0.580387 0
M  V30 4826 C 462.871 3.41469 0.633719 0
M  V30 4827 C 461.825 4.27774 -0.139083 0
M  V30 4828 C 461.151 5.28082 0.838666 0
M  V30 4829 C 462.451 5.04946 -1.33517 0
M  V30 4830 H 464.145 2.81094 -1.03086 0
M  V30 4831 H 461.691 1.35146 -0.497155 0
M  V30 4832 H 463.644 4.08143 1.04868 0
M  V30 4833 H 462.368 2.91408 1.47475 0
M  V30 4834 H 461.027 3.62673 -0.535156 0
M  V30 4835 H 460.675 4.7429 1.67506 0
M  V30 4836 H 460.375 5.86695 0.32594 0
M  V30 4837 H 461.899 5.97628 1.25194 0
M  V30 4838 H 463.313 5.64593 -0.995349 0
M  V30 4839 H 461.71 5.7303 -1.78202 0
M  V30 4840 H 462.78 4.35886 -2.12442 0
M  V30 4841 N 464.123 0.554532 1.47522 0
M  V30 4842 C 465.086 -0.184174 2.28459 0
M  V30 4843 C 466.086 -0.845195 1.36796 0
M  V30 4844 O 467.276 -0.701467 1.59452 0
M  V30 4845 C 464.408 -1.26903 3.16399 0
M  V30 4846 H 465.601 0.526751 2.95238 0
M  V30 4847 H 463.154 0.311375 1.53167 0
M  V30 4848 H 463.889 -2.01244 2.54306 0
M  V30 4849 H 463.674 -0.799883 3.83854 0
M  V30 4850 H 465.164 -1.78794 3.77389 0
M  V30 4851 N 465.601 -1.54893 0.290851 0
M  V30 4852 C 466.549 -2.24579 -0.605576 0
M  V30 4853 C 467.543 -1.24824 -1.14522 0
M  V30 4854 O 468.749 -1.42706 -1.09704 0
M  V30 4855 H 465.124 -0.720946 -0.213872 0
M  V30 4856 H 467.095 -2.984 0.0048173 0
M  V30 4857 C 465.844 -2.99224 -1.77088 0
M  V30 4858 H 465.167 -3.75782 -1.36484 0
M  V30 4859 H 466.607 -3.51281 -2.3744 0
M  V30 4860 C 465.066 -2.05602 -2.66888 0
M  V30 4861 O 465.596 -1.61745 -3.67698 0
M  V30 4862 N 463.802 -1.71771 -2.34399 0
M  V30 4863 H 463.349 -2.07633 -1.52468 0
M  V30 4864 H 463.307 -1.09403 -2.94751 0
M  V30 4865 N 467.08 -0.0183926 -1.57589 0
M  V30 4866 C 468.329 0.66185 -1.90532 0
M  V30 4867 C 468.642 1.73904 -0.895366 0
M  V30 4868 O 469.848 2.47518 -1.11566 0
M  V30 4869 C 468.304 1.22844 -3.38286 0
M  V30 4870 C 467.912 0.185103 -4.47617 0
M  V30 4871 C 469.656 1.88581 -3.80312 0
M  V30 4872 C 467.563 0.762723 -5.86461 0
M  V30 4873 H 466.493 0.250972 -0.711006 0
M  V30 4874 H 469.144 -0.0819435 -1.83317 0
M  V30 4875 H 467.526 2.0235 -3.40398 0
M  V30 4876 H 468.7 -0.58671 -4.5705 0
M  V30 4877 H 467.015 -0.372889 -4.14727 0
M  V30 4878 H 469.612 2.32735 -4.81392 0
M  V30 4879 H 469.955 2.72408 -3.14801 0
M  V30 4880 H 470.488 1.15782 -3.80578 0
M  V30 4881 H 467.227 -0.0371713 -6.55489 0
M  V30 4882 H 466.747 1.50327 -5.80656 0
M  V30 4883 H 468.426 1.25576 -6.34697 0
M  V30 4884 N 468.558 1.5553 0.254621 0
M  V30 4885 C 469.786 1.81046 1.00149 0
M  V30 4886 C 470.201 0.593047 1.79244 0
M  V30 4887 O 469.558 -0.438196 1.77161 0
M  V30 4888 C 469.609 3.04684 1.94551 0
M  V30 4889 O 469.33 4.21725 1.18658 0
M  V30 4890 C 470.831 3.42943 2.80901 0
M  V30 4891 H 468.051 0.602653 0.295044 0
M  V30 4892 H 470.595 2.02576 0.279842 0
M  V30 4893 H 468.75 2.85226 2.62154 0
M  V30 4894 H 469.164 4.91746 1.82445 0
M  V30 4895 H 470.638 4.32576 3.42902 0
M  V30 4896 H 471.115 2.63176 3.51617 0
M  V30 4897 H 471.721 3.64724 2.18762 0
M  V30 4898 N 470.036 -0.519951 1.48776 0
M  V30 4899 C 471.285 -1.27175 1.56555 0
M  V30 4900 C 471.598 -1.9401 0.248869 0
M  V30 4901 O 472.804 -2.70725 0.205004 0
M  V30 4902 C 471.26 -2.30811 2.76142 0
M  V30 4903 C 470.868 -1.7 4.14493 0
M  V30 4904 C 472.612 -3.06937 2.9324 0
M  V30 4905 C 470.519 -2.71635 5.25327 0
M  V30 4906 H 469.449 -0.478329 0.582853 0
M  V30 4907 H 472.1 -0.547916 1.75129 0
M  V30 4908 H 470.482 -3.06274 2.51023 0
M  V30 4909 H 471.656 -1.00658 4.49672 0
M  V30 4910 H 469.971 -1.06331 4.02595 0
M  V30 4911 H 472.568 -3.82905 3.73213 0
M  V30 4912 H 472.911 -3.63409 2.03075 0
M  V30 4913 H 473.444 -2.38589 3.18308 0
M  V30 4914 H 470.183 -2.1997 6.1749 0
M  V30 4915 H 469.703 -3.39275 4.94624 0
M  V30 4916 H 471.382 -3.34429 5.53865 0
M  V30 4917 N 471.514 -1.37532 -0.769588 0
M  V30 4918 C 472.925 -1.29382 -1.346 0
M  V30 4919 C 473.276 0.0576039 -1.96115 0
M  V30 4920 O 472.401 0.95947 -1.93967 0
M  V30 4921 C 472.996 -2.34298 -2.44724 0
M  V30 4922 C 471.555 -2.29776 -2.98128 0
M  V30 4923 C 470.702 -2.18013 -1.71364 0
M  V30 4924 H 473.653 -1.48123 -0.56968 0
M  V30 4925 H 473.674 -1.99089 -3.24259 0
M  V30 4926 H 473.186 -3.32645 -1.99922 0
M  V30 4927 H 471.287 -1.34959 -3.47299 0
M  V30 4928 H 471.4 -3.23276 -3.53595 0
M  V30 4929 H 469.764 -1.64595 -1.94372 0
M  V30 4930 H 470.547 -3.18278 -1.28662 0
M  V30 4931 N 472.992 0.995999 -1.22138 0
M  V30 4932 C 473.924 2.08745 -0.946485 0
M  V30 4933 C 474.937 1.62633 0.0737356 0
M  V30 4934 O 476.126 1.77782 -0.159886 0
M  V30 4935 C 473.226 3.36516 -0.401305 0
M  V30 4936 C 472.399 4.11672 -1.47801 0
M  V30 4937 C 471.458 5.17728 -0.940461 0
M  V30 4938 O 470.484 5.45482 -1.62596 0
M  V30 4939 N 471.686 5.80005 0.239723 0
M  V30 4940 H 474.451 2.32908 -1.88611 0
M  V30 4941 H 472.012 1.16152 -1.12785 0
M  V30 4942 H 474.004 4.04691 -0.0270837 0
M  V30 4943 H 472.574 3.0944 0.443354 0
M  V30 4944 H 471.794 3.38171 -2.02568 0
M  V30 4945 H 473.082 4.58657 -2.20253 0
M  V30 4946 H 472.48 5.5982 0.813518 0
M  V30 4947 H 471.037 6.4943 0.555361 0
M  V30 4948 N 474.47 1.03057 1.19235 0
M  V30 4949 C 475.38 0.622922 2.26179 0
M  V30 4950 C 476.396 -0.346113 1.70523 0
M  V30 4951 O 477.572 -0.203572 2.00369 0
M  V30 4952 C 474.637 -0.0182063 3.46695 0
M  V30 4953 C 473.698 0.998546 4.17526 0
M  V30 4954 C 472.931 0.387917 5.32288 0
M  V30 4955 O 473.154 -0.808668 5.64639 0
M  V30 4956 O 472.088 1.1116 5.91546 0
M  V30 4957 H 475.914 1.51363 2.63292 0
M  V30 4958 H 473.499 0.800856 1.26122 0
M  V30 4959 H 475.381 -0.375606 4.19723 0
M  V30 4960 H 474.056 -0.882895 3.11427 0
M  V30 4961 H 472.963 1.40756 3.4661 0
M  V30 4962 H 474.296 1.83366 4.56769 0
M  V30 4963 N 475.948 -1.35272 0.808662 0
M  V30 4964 C 476.895 -2.29764 0.218482 0
M  V30 4965 C 477.865 -1.52911 -0.648652 0
M  V30 4966 O 479.05 -1.81341 -0.593297 0
M  V30 4967 C 476.19 -3.39388 -0.625282 0
M  V30 4968 C 475.303 -4.31202 0.262516 0
M  V30 4969 C 474.438 -5.27919 -0.589451 0
M  V30 4970 C 473.477 -6.11371 0.298617 0
M  V30 4971 N 472.614 -7.0022 -0.513443 0
M  V30 4972 H 477.454 -2.79645 1.02968 0
M  V30 4973 H 474.991 -1.37629 0.519303 0
M  V30 4974 H 476.949 -4.01615 -1.12966 0
M  V30 4975 H 475.579 -2.90777 -1.40173 0
M  V30 4976 H 474.631 -3.69962 0.885013 0
M  V30 4977 H 475.943 -4.89748 0.945971 0
M  V30 4978 H 475.097 -5.95529 -1.15888 0
M  V30 4979 H 473.836 -4.69875 -1.30647 0
M  V30 4980 H 472.841 -5.42707 0.880301 0
M  V30 4981 H 474.066 -6.71494 1.01352 0
M  V30 4982 H 472.012 -6.44662 -1.21439 0
M  V30 4983 H 471.929 -7.55917 0.111922 0
M  V30 4984 H 473.197 -7.72175 -1.06608 0
M  V30 4985 N 477.426 -0.562348 -1.47226 0
M  V30 4986 C 478.842 -0.222492 -1.58042 0
M  V30 4987 C 479.042 1.27505 -1.56028 0
M  V30 4988 O 478.098 2.05555 -1.46641 0
M  V30 4989 C 479.411 -0.853694 -2.88327 0
M  V30 4990 C 480.959 -0.825397 -3.01921 0
M  V30 4991 C 481.434 -1.43576 -4.34914 0
M  V30 4992 N 482.925 -1.39918 -4.41562 0
M  V30 4993 C 483.66 -1.84103 -5.43041 0
M  V30 4994 N 483.156 -2.36167 -6.51304 0
M  V30 4995 N 484.949 -1.75142 -5.34118 0
M  V30 4996 H 477.1 -1.53525 -1.46778 0
M  V30 4997 H 479.363 -0.640527 -0.698877 0
M  V30 4998 H 479.069 -1.90635 -2.95552 0
M  V30 4999 H 478.943 -0.34977 -3.75575 0
M  V30 5000 H 481.33 0.218583 -2.94289 0
M  V30 5001 H 481.411 -1.36713 -2.16202 0
M  V30 5002 H 481.055 -2.47884 -4.43301 0
M  V30 5003 H 480.985 -0.869427 -5.19373 0
M  V30 5004 H 483.476 -1.0184 -3.63919 0
M  V30 5005 H 483.789 -2.67793 -7.24919 0
M  V30 5006 H 482.134 -2.40181 -6.52179 0
M  V30 5007 H 485.325 -1.34241 -4.48439 0
M  V30 5008 H 485.498 -2.09895 -6.13065 0
M  V30 5009 N 478.904 1.54736 -0.299062 0
M  V30 5010 C 480.32 1.59507 0.0543849 0
M  V30 5011 C 480.52 1.31606 1.52585 0
M  V30 5012 O 479.576 1.08853 2.27832 0
M  V30 5013 C 480.889 2.98751 -0.34181 0
M  V30 5014 C 482.437 3.1165 -0.290414 0
M  V30 5015 C 482.912 4.53199 -0.661402 0
M  V30 5016 N 484.403 4.59114 -0.613863 0
M  V30 5017 C 485.138 5.66709 -0.873417 0
M  V30 5018 N 484.634 6.82349 -1.19884 0
M  V30 5019 N 486.427 5.56369 -0.800608 0
M  V30 5020 H 478.578 1.71133 -1.25806 0
M  V30 5021 H 480.841 0.799186 -0.509908 0
M  V30 5022 H 480.547 3.24085 -1.36608 0
M  V30 5023 H 480.421 3.75961 0.305508 0
M  V30 5024 H 482.808 2.86066 0.724605 0
M  V30 5025 H 482.889 2.366 -0.972327 0
M  V30 5026 H 482.533 4.79513 -1.67422 0
M  V30 5027 H 482.463 5.26583 0.0425612 0
M  V30 5028 H 484.954 3.76053 -0.3732 0
M  V30 5029 H 485.267 7.60326 -1.38291 0
M  V30 5030 H 483.612 6.83906 -1.23685 0
M  V30 5031 H 486.803 4.64904 -0.546045 0
M  V30 5032 H 486.976 6.40139 -1.00626 0
M  V30 5033 N 480.382 0.0267497 1.57577 0
M  V30 5034 C 481.659 -0.690926 1.82991 0
M  V30 5035 C 482.039 -1.90471 0.910164 0
M  V30 5036 O 481.387 -2.28474 -0.0347985 0
M  V30 5037 C 481.597 -1.07139 3.32148 0
M  V30 5038 C 482.945 -1.46402 3.98562 0
M  V30 5039 O 483.969 -1.16443 3.36629 0
M  V30 5040 O 482.828 -2.02214 5.07712 0
M  V30 5041 H 479.922 -0.338747 0.75444 0
M  V30 5042 H 482.468 0.0542506 1.69613 0
M  V30 5043 H 481.24 -0.207394 3.9075 0
M  V30 5044 H 480.863 -1.87481 3.50623 0
M  V30 5045 N 481.861 -1.55662 -0.24637 0
M  V30 5046 C 482.771 -1.93495 -1.32653 0
M  V30 5047 C 483.787 -0.835462 -1.5263 0
M  V30 5048 O 484.963 -1.1369 -1.66242 0
M  V30 5049 C 482.028 -2.22242 -2.66101 0
M  V30 5050 C 481.089 -3.45625 -2.54641 0
M  V30 5051 C 480.322 -3.72991 -3.81724 0
M  V30 5052 O 480.545 -3.02421 -4.8363 0
M  V30 5053 O 479.479 -4.66515 -3.80325 0
M  V30 5054 H 483.305 -2.85498 -1.03559 0
M  V30 5055 H 480.89 -1.42551 -0.44717 0
M  V30 5056 H 482.772 -2.42037 -3.44958 0
M  V30 5057 H 481.447 -1.33417 -2.94926 0
M  V30 5058 H 480.354 -3.31136 -1.74067 0
M  V30 5059 H 481.687 -4.34754 -2.3076 0
M  V30 5060 N 483.339 0.512053 -1.4905 0
M  V30 5061 C 484.249 1.64139 -1.67617 0
M  V30 5062 C 485.265 1.64786 -0.558701 0
M  V30 5063 O 486.441 1.8341 -0.832034 0
M  V30 5064 C 483.506 3.00548 -1.72835 0
M  V30 5065 C 482.567 3.10615 -2.96339 0
M  V30 5066 C 481.8 4.40517 -3.01298 0
M  V30 5067 O 482.023 5.28671 -2.14157 0
M  V30 5068 O 480.957 4.55325 -3.93653 0
M  V30 5069 H 484.783 1.51407 -2.63267 0
M  V30 5070 H 482.368 0.687131 -1.32661 0
M  V30 5071 H 484.25 3.81641 -1.78683 0
M  V30 5072 H 482.925 3.13566 -0.803616 0
M  V30 5073 H 481.832 2.2875 -2.96014 0
M  V30 5074 H 483.165 3.0252 -3.88256 0
M  V30 5075 N 484.817 1.37938 0.762283 0
M  V30 5076 C 485.747 1.37176 1.88958 0
M  V30 5077 C 486.728 0.238945 1.68413 0
M  V30 5078 O 487.913 0.440726 1.89133 0
M  V30 5079 C 485.043 1.18742 3.2637 0
M  V30 5080 C 483.997 2.29136 3.61498 0
M  V30 5081 C 483.323 1.95816 4.97554 0
M  V30 5082 C 484.623 3.71363 3.6727 0
M  V30 5083 H 486.317 2.31509 1.89853 0
M  V30 5084 H 483.863 1.11438 0.912005 0
M  V30 5085 H 485.816 1.16837 4.04879 0
M  V30 5086 H 484.54 0.208683 3.25933 0
M  V30 5087 H 483.199 2.30213 2.85303 0
M  V30 5088 H 482.847 0.964475 4.93667 0
M  V30 5089 H 482.547 2.69745 5.22026 0
M  V30 5090 H 484.071 1.95513 5.78452 0
M  V30 5091 H 485.485 3.72364 4.35911 0
M  V30 5092 H 483.882 4.44425 4.03245 0
M  V30 5093 H 484.952 4.04305 2.67704 0
M  V30 5094 N 486.295 -0.989507 1.22664 0
M  V30 5095 C 487.544 -1.72375 1.04737 0
M  V30 5096 C 487.857 -1.91096 -0.417316 0
M  V30 5097 O 489.063 -2.6188 -0.716334 0
M  V30 5098 C 487.519 -3.10161 1.82561 0
M  V30 5099 C 487.127 -2.99358 3.333 0
M  V30 5100 C 488.871 -3.87607 1.73093 0
M  V30 5101 C 486.778 -4.32319 4.03552 0
M  V30 5102 H 485.708 -0.646326 0.388302 0
M  V30 5103 H 488.359 -1.10437 1.46546 0
M  V30 5104 H 486.741 -3.728 1.33552 0
M  V30 5105 H 487.915 -2.45863 3.89728 0
M  V30 5106 H 486.23 -2.35392 3.43481 0
M  V30 5107 H 488.827 -4.86025 2.22899 0
M  V30 5108 H 489.17 -4.10509 0.691976 0
M  V30 5109 H 489.703 -3.31652 2.19663 0
M  V30 5110 H 486.442 -4.14616 5.07714 0
M  V30 5111 H 485.962 -4.85714 3.51911 0
M  V30 5112 H 487.641 -5.01051 4.09337 0
M  V30 5113 N 487.773 -1.03688 -1.18687 0
M  V30 5114 C 489.003 -0.756819 -1.92239 0
M  V30 5115 C 489.411 0.689374 -1.76194 0
M  V30 5116 O 488.754 1.48126 -1.08648 0
M  V30 5117 C 488.816 -1.03851 -3.44173 0
M  V30 5118 C 488.48 -2.47785 -3.83994 0
M  V30 5119 C 489.477 -3.4595 -3.88091 0
M  V30 5120 C 487.162 -2.82397 -4.154 0
M  V30 5121 C 489.156 -4.76779 -4.23038 0
M  V30 5122 C 486.843 -4.13433 -4.50018 0
M  V30 5123 C 487.841 -5.10434 -4.53813 0
M  V30 5124 O 487.529 -6.39122 -4.87625 0
M  V30 5125 H 487.261 -0.275678 -0.617234 0
M  V30 5126 H 489.815 -1.38658 -1.51536 0
M  V30 5127 H 488.045 -0.351612 -3.85098 0
M  V30 5128 H 489.734 -0.746846 -3.9897 0
M  V30 5129 H 490.5 -3.20549 -3.63969 0
M  V30 5130 H 486.379 -2.07568 -4.11627 0
M  V30 5131 H 489.923 -5.52488 -4.25914 0
M  V30 5132 H 485.82 -4.38604 -4.736 0
M  V30 5133 H 486.588 -6.43715 -5.05542 0
M  V30 5134 N 489.251 1.34841 -0.815825 0
M  V30 5135 C 490.201 2.27075 -0.205169 0
M  V30 5136 C 491.185 1.48205 0.626414 0
M  V30 5137 O 492.377 1.70306 0.482157 0
M  V30 5138 C 489.506 3.37322 0.637871 0
M  V30 5139 C 488.592 4.23609 -0.203948 0
M  V30 5140 N 488.983 4.89558 -1.27149 0
M  V30 5141 C 487.281 4.45998 0.0128971 0
M  V30 5142 C 487.982 5.53597 -1.7862 0
M  V30 5143 N 486.958 5.32535 -1.0912 0
M  V30 5144 H 490.76 2.75563 -1.02187 0
M  V30 5145 H 488.274 1.48477 -0.657912 0
M  V30 5146 H 490.271 4.02359 1.09146 0
M  V30 5147 H 488.931 2.90385 1.45281 0
M  V30 5148 H 489.942 4.9077 -1.65423 0
M  V30 5149 H 486.619 4.09837 0.79624 0
M  V30 5150 H 488.009 6.16184 -2.67892 0
M  V30 5151 N 490.729 0.570148 1.46925 0
M  V30 5152 C 491.676 -0.170257 2.30171 0
M  V30 5153 C 492.646 -0.896099 1.39855 0
M  V30 5154 O 493.831 -0.889248 1.68811 0
M  V30 5155 C 490.971 -1.18605 3.24079 0
M  V30 5156 C 490.084 -0.464947 4.29491 0
M  V30 5157 C 489.219 -1.46716 5.10537 0
M  V30 5158 C 488.258 -0.731758 6.0771 0
M  V30 5159 N 487.395 -1.68142 6.81669 0
M  V30 5160 H 492.235 0.545713 2.92961 0
M  V30 5161 H 489.772 0.280938 1.44392 0
M  V30 5162 H 491.73 -1.78771 3.76957 0
M  V30 5163 H 490.36 -1.86989 2.63125 0
M  V30 5164 H 489.412 0.251506 3.79568 0
M  V30 5165 H 490.724 0.110548 4.98677 0
M  V30 5166 H 489.878 -2.14199 5.6763 0
M  V30 5167 H 488.617 -2.07658 4.41282 0
M  V30 5168 H 487.622 -0.0430787 5.49783 0
M  V30 5169 H 488.847 -0.127904 6.7898 0
M  V30 5170 H 486.793 -2.27918 6.15134 0
M  V30 5171 H 486.71 -1.15841 7.47072 0
M  V30 5172 H 487.978 -2.347 7.43328 0
M  V30 5173 N 492.207 -1.54576 0.307264 0
M  V30 5174 C 493.453 -2.0056 -0.300612 0
M  V30 5175 C 493.786 -1.1953 -1.53057 0
M  V30 5176 O 493.061 -0.27337 -1.92569 0
M  V30 5177 C 493.344 -3.54167 -0.650987 0
M  V30 5178 C 493.197 -4.45933 0.588539 0
M  V30 5179 C 494.516 -4.14645 -1.47506 0
M  V30 5180 H 491.635 -0.729075 -0.107788 0
M  V30 5181 H 494.277 -1.85286 0.420606 0
M  V30 5182 H 492.427 -3.67313 -1.26544 0
M  V30 5183 H 494.099 -4.44683 1.22697 0
M  V30 5184 H 492.342 -4.16274 1.22058 0
M  V30 5185 H 493.013 -5.51189 0.299153 0
M  V30 5186 H 495.489 -4.04973 -0.955821 0
M  V30 5187 H 494.365 -5.22269 -1.68899 0
M  V30 5188 H 494.626 -3.66921 -2.4662 0
M  V30 5189 N 493.685 -0.035106 -1.57561 0
M  V30 5190 C 494.913 0.652258 -1.9635 0
M  V30 5191 C 495.328 1.65317 -0.911897 0
M  V30 5192 O 494.685 1.82194 0.105657 0
M  V30 5193 C 494.736 1.35337 -3.35211 0
M  V30 5194 O 494.457 0.392548 -4.36338 0
M  V30 5195 C 495.958 2.13199 -3.88666 0
M  V30 5196 H 493.178 0.179444 -0.646561 0
M  V30 5197 H 495.722 -0.0966459 -2.04271 0
M  V30 5198 H 493.877 2.05362 -3.28489 0
M  V30 5199 H 494.291 0.891097 -5.16875 0
M  V30 5200 H 495.765 2.577 -4.88154 0
M  V30 5201 H 496.242 2.97353 -3.23231 0
M  V30 5202 H 496.848 1.48118 -3.98674 0
M  V30 5203 N 495.163 1.55791 0.238111 0
M  V30 5204 C 496.126 1.90239 1.27835 0
M  V30 5205 C 497.126 0.779552 1.4064 0
M  V30 5206 O 498.316 1.04747 1.3919 0
M  V30 5207 C 495.448 2.13859 2.65475 0
M  V30 5208 H 496.641 2.83262 0.985034 0
M  V30 5209 H 494.194 1.48818 0.477799 0
M  V30 5210 H 494.929 1.23334 2.99932 0
M  V30 5211 H 494.714 2.95643 2.57561 0
M  V30 5212 H 496.204 2.41664 3.40571 0
M  V30 5213 N 496.642 -0.504142 1.49319 0
M  V30 5214 C 497.605 -1.5883 1.65244 0
M  V30 5215 C 498.605 -1.52009 0.524386 0
M  V30 5216 O 499.795 -1.55218 0.79077 0
M  V30 5217 C 496.927 -2.98481 1.64687 0
M  V30 5218 H 498.12 -1.4604 2.61939 0
M  V30 5219 H 495.673 -0.728144 1.38303 0
M  V30 5220 H 496.408 -3.16751 0.695644 0
M  V30 5221 H 496.193 -3.0484 2.46607 0
M  V30 5222 H 497.683 -3.77256 1.79075 0
M  V30 5223 N 498.12 -1.38341 -0.754957 0
M  V30 5224 C 499.03 -1.3769 -1.89944 0
M  V30 5225 C 500.046 -0.274194 -1.71826 0
M  V30 5226 O 501.222 -0.512391 -1.94773 0
M  V30 5227 C 498.287 -1.19938 -3.25293 0
M  V30 5228 C 497.348 -2.40001 -3.55946 0
M  V30 5229 C 496.581 -2.23087 -4.84838 0
M  V30 5230 O 496.804 -1.22386 -5.57116 0
M  V30 5231 O 495.738 -3.11646 -5.14937 0
M  V30 5232 H 499.564 -2.3412 -1.93446 0
M  V30 5233 H 497.149 -1.19246 -0.900044 0
M  V30 5234 H 499.031 -1.12093 -4.06218 0
M  V30 5235 H 497.706 -0.265919 -3.22606 0
M  V30 5236 H 496.613 -2.53421 -2.75188 0
M  V30 5237 H 497.946 -3.31973 -3.63394 0
M  V30 5238 N 499.598 0.982988 -1.23187 0
M  V30 5239 C 500.528 2.09301 -1.03515 0
M  V30 5240 C 501.509 1.70035 0.0471136 0
M  V30 5241 O 502.694 1.93847 -0.117029 0
M  V30 5242 C 499.824 3.4167 -0.622791 0
M  V30 5243 C 498.778 3.94828 -1.65211 0
M  V30 5244 C 498.104 5.23362 -1.09527 0
M  V30 5245 C 499.404 4.2439 -3.04451 0
M  V30 5246 H 501.098 2.26016 -1.96359 0
M  V30 5247 H 498.644 1.08611 -0.945501 0
M  V30 5248 H 500.597 4.18746 -0.472233 0
M  V30 5249 H 499.321 3.24811 0.341329 0
M  V30 5250 H 497.98 3.19895 -1.79061 0
M  V30 5251 H 497.628 5.02852 -0.122211 0
M  V30 5252 H 497.328 5.59895 -1.783 0
M  V30 5253 H 498.852 6.03062 -0.956511 0
M  V30 5254 H 500.266 4.92225 -2.93917 0
M  V30 5255 H 498.663 4.72118 -3.70438 0
M  V30 5256 H 499.733 3.31765 -3.53638 0
M  V30 5257 N 501.076 1.04316 1.18135 0
M  V30 5258 C 502.008 0.594444 2.21357 0
M  V30 5259 C 503.021 -0.337215 1.59269 0
M  V30 5260 O 504.21 -0.131337 1.78016 0
M  V30 5261 C 501.31 -0.151251 3.38562 0
M  V30 5262 C 500.483 0.788907 4.30227 0
M  V30 5263 C 499.542 0.0860572 5.2613 0
M  V30 5264 O 498.568 0.717302 5.64662 0
M  V30 5265 N 499.77 -1.17969 5.68387 0
M  V30 5266 H 502.535 1.48227 2.60478 0
M  V30 5267 H 500.096 0.92396 1.32946 0
M  V30 5268 H 502.088 -0.631352 3.99745 0
M  V30 5269 H 500.658 -0.940639 2.98112 0
M  V30 5270 H 499.878 1.44882 3.6661 0
M  V30 5271 H 501.166 1.42738 4.88368 0
M  V30 5272 H 500.564 -1.71302 5.3914 0
M  V30 5273 H 499.121 -1.60402 6.31755 0
M  V30 5274 N 502.554 -1.34406 0.822964 0
M  V30 5275 C 503.782 -2.02508 0.424039 0
M  V30 5276 C 504.197 -1.61975 -0.970022 0
M  V30 5277 O 503.554 -0.825228 -1.62777 0
M  V30 5278 C 503.605 -3.57789 0.516657 0
M  V30 5279 O 503.326 -3.96853 1.85577 0
M  V30 5280 C 504.827 -4.43157 0.112637 0
M  V30 5281 H 502.047 -0.649063 0.170173 0
M  V30 5282 H 504.591 -1.7168 1.11113 0
M  V30 5283 H 502.746 -3.87207 -0.122353 0
M  V30 5284 H 503.16 -4.91538 1.83005 0
M  V30 5285 H 504.634 -5.51527 0.228526 0
M  V30 5286 H 505.111 -4.28939 -0.943837 0
M  V30 5287 H 505.717 -4.19067 0.725449 0
M  V30 5288 N 504.032 -0.577932 -1.46621 0
M  V30 5289 C 504.962 0.145917 -2.33044 0
M  V30 5290 C 505.943 0.888412 -1.45056 0
M  V30 5291 O 507.128 0.864812 -1.73881 0
M  V30 5292 C 504.258 1.16322 -3.27241 0
M  V30 5293 C 503.212 0.535868 -4.24632 0
M  V30 5294 C 502.538 1.65929 -5.08303 0
M  V30 5295 C 503.838 -0.523861 -5.19666 0
M  V30 5296 H 505.532 -0.575636 -2.93814 0
M  V30 5297 H 503.078 -0.278272 -1.41286 0
M  V30 5298 H 505.031 1.67793 -3.86553 0
M  V30 5299 H 503.755 1.91498 -2.64567 0
M  V30 5300 H 502.414 0.0422759 -3.66576 0
M  V30 5301 H 502.062 2.40061 -4.42018 0
M  V30 5302 H 501.762 1.2452 -5.74255 0
M  V30 5303 H 503.286 2.17686 -5.70478 0
M  V30 5304 H 504.7 -0.0944059 -5.73222 0
M  V30 5305 H 503.097 -0.858 -5.93935 0
M  V30 5306 H 504.167 -1.41197 -4.63887 0
M  V30 5307 N 505.51 1.54411 -0.315457 0
M  V30 5308 C 506.473 2.22713 0.54142 0
M  V30 5309 C 507.473 1.2179 1.04995 0
M  V30 5310 O 508.663 1.46426 0.943667 0
M  V30 5311 C 505.795 2.92485 1.75116 0
M  V30 5312 H 506.988 2.99849 -0.0555508 0
M  V30 5313 H 504.541 1.56159 -0.0664453 0
M  V30 5314 H 505.276 2.19466 2.38758 0
M  V30 5315 H 505.061 3.66483 1.39401 0
M  V30 5316 H 506.551 3.44548 2.35959 0
M  V30 5317 N 506.988 0.0434614 1.5754 0
M  V30 5318 C 508.399 -0.493343 1.80064 0
M  V30 5319 C 508.75 -1.71388 0.955023 0
M  V30 5320 O 507.875 -2.15736 0.169434 0
M  V30 5321 C 508.47 -0.90179 3.26578 0
M  V30 5322 C 507.029 -1.38362 3.50047 0
M  V30 5323 C 506.176 -0.355129 2.75017 0
M  V30 5324 H 509.127 0.2694 1.56397 0
M  V30 5325 H 509.148 -1.76523 3.37075 0
M  V30 5326 H 508.66 -0.013271 3.88098 0
M  V30 5327 H 506.761 -2.29159 2.93798 0
M  V30 5328 H 506.874 -1.3811 4.58762 0
M  V30 5329 H 505.238 -0.826348 2.40922 0
M  V30 5330 H 506.021 0.525172 3.39259 0
M  V30 5331 N 508.466 -1.55915 -0.229846 0
M  V30 5332 C 509.429 -1.90914 -1.26824 0
M  V30 5333 C 510.429 -0.786999 -1.40225 0
M  V30 5334 O 511.619 -1.05484 -1.38632 0
M  V30 5335 C 508.751 -2.15264 -2.64337 0
M  V30 5336 H 509.944 -2.8378 -0.969998 0
M  V30 5337 H 507.497 -1.49069 -0.4699 0
M  V30 5338 H 508.232 -1.24923 -2.99274 0
M  V30 5339 H 508.017 -2.97005 -2.55989 0
M  V30 5340 H 509.507 -2.43467 -3.39284 0
M  V30 5341 N 509.944 0.496216 -1.49584 0
M  V30 5342 C 511.193 1.24668 -1.58558 0
M  V30 5343 C 511.506 1.9359 -0.279703 0
M  V30 5344 O 512.712 2.70365 -0.248048 0
M  V30 5345 C 511.168 2.26388 -2.79779 0
M  V30 5346 C 510.776 1.63384 -4.17145 0
M  V30 5347 C 512.52 3.02233 -2.98086 0
M  V30 5348 C 510.427 2.63243 -5.29582 0
M  V30 5349 H 509.357 0.468995 -0.590389 0
M  V30 5350 H 512.008 0.519985 -1.75978 0
M  V30 5351 H 510.39 3.02241 -2.55863 0
M  V30 5352 H 511.564 0.93491 -4.51216 0
M  V30 5353 H 509.879 0.999121 -4.04236 0
M  V30 5354 H 512.476 3.76919 -3.79257 0
M  V30 5355 H 512.819 3.60132 -2.08831 0
M  V30 5356 H 513.352 2.33495 -3.22063 0
M  V30 5357 H 510.091 2.10119 -6.20911 0
M  V30 5358 H 509.611 3.31363 -4.99959 0
M  V30 5359 H 511.29 3.25575 -5.59115 0
M  V30 5360 N 511.423 1.38739 0.74761 0
M  V30 5361 C 512.371 1.36573 1.88283 0
M  V30 5362 C 513.365 0.250712 1.67534 0
M  V30 5363 O 514.571 0.420073 1.7503 0
M  V30 5364 H 510.946 0.42619 0.619569 0
M  V30 5365 H 512.917 2.32356 1.87226 0
M  V30 5366 C 511.666 1.21361 3.25832 0
M  V30 5367 H 510.989 2.06424 3.42388 0
M  V30 5368 H 512.429 1.23901 4.05493 0
M  V30 5369 C 510.888 -0.0790099 3.36807 0
M  V30 5370 O 511.418 -1.05385 3.8763 0
M  V30 5371 N 509.624 -0.13785 2.90273 0
M  V30 5372 H 509.171 0.656128 2.49104 0
M  V30 5373 H 509.129 -1.00228 2.97996 0
M  V30 5374 N 512.901 -0.976442 1.23707 0
M  V30 5375 C 514.147 -1.72158 1.08319 0
M  V30 5376 C 514.502 -1.88701 -0.375445 0
M  V30 5377 O 513.795 -1.43107 -1.274 0
M  V30 5378 C 513.989 -3.11814 1.74662 0
M  V30 5379 C 513.818 -3.08892 3.26827 0
M  V30 5380 C 512.588 -3.13861 3.96004 0
M  V30 5381 C 514.786 -2.9175 4.2354 0
M  V30 5382 N 512.768 -3.00867 5.35119 0
M  V30 5383 C 514.139 -2.8696 5.49595 0
M  V30 5384 C 516.194 -2.76265 4.14225 0
M  V30 5385 C 514.897 -2.68268 6.67401 0
M  V30 5386 C 516.923 -2.58938 5.317 0
M  V30 5387 C 516.285 -2.54849 6.56682 0
M  V30 5388 H 512.384 -0.638896 0.450927 0
M  V30 5389 H 514.968 -1.15835 1.56494 0
M  V30 5390 H 513.139 -3.66347 1.29014 0
M  V30 5391 H 514.871 -3.74984 1.52215 0
M  V30 5392 H 511.626 -3.22198 3.4711 0
M  V30 5393 H 512.05 -2.97634 6.08065 0
M  V30 5394 H 516.692 -2.78213 3.18366 0
M  V30 5395 H 514.41 -2.65063 7.63392 0
M  V30 5396 H 517.996 -2.47914 5.26336 0
M  V30 5397 H 516.876 -2.41611 7.46052 0
M  V30 5398 N 514.379 -1.04941 -1.1758 0
M  V30 5399 C 515.309 -0.669172 -2.23706 0
M  V30 5400 C 516.29 0.331835 -1.66832 0
M  V30 5401 O 517.475 0.209988 -1.93061 0
M  V30 5402 C 514.605 -0.0404889 -3.47276 0
M  V30 5403 C 513.559 -0.965983 -4.16957 0
M  V30 5404 C 512.885 -0.201312 -5.34321 0
M  V30 5405 C 514.185 -2.28902 -4.69469 0
M  V30 5406 H 515.879 -1.55639 -2.55767 0
M  V30 5407 H 513.425 -0.749793 -1.22939 0
M  V30 5408 H 515.378 0.237298 -4.20731 0
M  V30 5409 H 514.102 0.881658 -3.14475 0
M  V30 5410 H 512.761 -1.22829 -3.45411 0
M  V30 5411 H 512.409 0.723519 -4.97769 0
M  V30 5412 H 512.109 -0.817968 -5.81879 0
M  V30 5413 H 513.633 0.0692499 -6.10561 0
M  V30 5414 H 515.047 -2.07132 -5.34574 0
M  V30 5415 H 513.444 -2.85942 -5.27596 0
M  V30 5416 H 514.514 -2.92937 -3.86414 0
M  V30 5417 N 515.857 1.33968 -0.830081 0
M  V30 5418 C 517.268 1.80439 -0.479455 0
M  V30 5419 C 517.619 1.68756 1.00079 0
M  V30 5420 O 516.744 1.23171 1.77927 0
M  V30 5421 C 517.339 3.27611 -0.863505 0
M  V30 5422 C 515.898 3.72133 -0.565145 0
M  V30 5423 C 515.045 2.55549 -1.07657 0
M  V30 5424 H 517.996 1.21614 -1.0196 0
M  V30 5425 H 518.017 3.8012 -0.170083 0
M  V30 5426 H 517.529 3.36082 -1.94089 0
M  V30 5427 H 515.63 3.69196 0.502536 0
M  V30 5428 H 515.743 4.65963 -1.11422 0
M  V30 5429 H 514.107 2.49788 -0.497807 0
M  V30 5430 H 514.89 2.66786 -2.16055 0
M  V30 5431 N 517.335 0.585699 1.46312 0
M  V30 5432 C 518.582 0.0724211 2.0237 0
M  V30 5433 C 518.91 -1.28868 1.45683 0
M  V30 5434 O 518.165 -1.85853 0.612945 0
M  V30 5435 C 518.464 -0.0401312 3.57377 0
M  V30 5436 C 518.13 1.25376 4.33119 0
M  V30 5437 C 516.792 1.60824 4.5353 0
M  V30 5438 C 519.144 2.10987 4.76586 0
M  V30 5439 C 516.472 2.81676 5.14661 0
M  V30 5440 C 518.824 3.31068 5.39052 0
M  V30 5441 C 517.488 3.66794 5.5769 0
M  V30 5442 H 516.758 0.0265007 0.740526 0
M  V30 5443 H 519.405 0.762935 1.75646 0
M  V30 5444 H 517.71 -0.813791 3.83255 0
M  V30 5445 H 519.407 -0.453078 3.98432 0
M  V30 5446 H 515.997 0.967808 4.1753 0
M  V30 5447 H 520.181 1.84904 4.60569 0
M  V30 5448 H 515.437 3.0949 5.27282 0
M  V30 5449 H 519.611 3.97672 5.71691 0
M  V30 5450 H 517.238 4.60529 6.04828 0
M  V30 5451 N 518.813 -1.54241 0.323641 0
M  V30 5452 C 519.743 -2.27289 -0.534993 0
M  V30 5453 C 520.724 -1.28087 -1.11927 0
M  V30 5454 O 521.909 -1.56899 -1.14439 0
M  V30 5455 C 519.039 -3.03075 -1.69596 0
M  V30 5456 C 517.993 -4.09614 -1.24098 0
M  V30 5457 C 517.319 -4.73242 -2.4889 0
M  V30 5458 C 518.619 -5.21087 -0.355789 0
M  V30 5459 H 520.313 -2.99308 0.0743257 0
M  V30 5460 H 517.859 -1.43952 0.0371874 0
M  V30 5461 H 519.812 -3.52907 -2.30293 0
M  V30 5462 H 518.536 -2.28673 -2.33187 0
M  V30 5463 H 517.195 -3.60666 -0.656945 0
M  V30 5464 H 516.843 -3.95455 -3.10845 0
M  V30 5465 H 516.543 -5.45209 -2.19138 0
M  V30 5466 H 518.067 -5.25848 -3.10348 0
M  V30 5467 H 519.481 -5.66675 -0.869042 0
M  V30 5468 H 517.878 -5.9991 -0.151045 0
M  V30 5469 H 518.948 -4.81005 0.613339 0
M  V30 5470 N 520.291 -0.0518155 -1.57515 0
M  V30 5471 C 521.239 0.940195 -2.12751 0
M  V30 5472 C 522.233 1.3218 -1.05948 0
M  V30 5473 O 523.439 1.30138 -1.24355 0
M  V30 5474 H 519.814 0.321066 -0.680015 0
M  V30 5475 H 521.785 0.449217 -2.94999 0
M  V30 5476 C 520.534 2.2055 -2.68799 0
M  V30 5477 H 519.857 1.92066 -3.50643 0
M  V30 5478 H 521.297 2.88119 -3.11068 0
M  V30 5479 C 519.756 2.95061 -1.62605 0
M  V30 5480 O 520.286 3.88025 -1.03921 0
M  V30 5481 N 518.492 2.57804 -1.34111 0
M  V30 5482 H 518.039 1.82281 -1.8202 0
M  V30 5483 H 517.997 3.07964 -0.632872 0
M  V30 5484 N 521.769 1.56035 0.221574 0
M  V30 5485 C 522.997 1.8313 0.962864 0
M  V30 5486 C 523.412 0.630934 1.77946 0
M  V30 5487 O 522.769 -0.400519 1.78051 0
M  V30 5488 C 522.82 3.08742 1.88045 0
M  V30 5489 O 522.541 4.24147 1.09686 0
M  V30 5490 C 524.042 3.48824 2.73563 0
M  V30 5491 H 521.262 0.608775 0.282194 0
M  V30 5492 H 523.806 2.03124 0.23681 0
M  V30 5493 H 521.961 2.90723 2.56045 0
M  V30 5494 H 522.375 4.95505 1.71974 0
M  V30 5495 H 523.849 4.39752 3.3365 0
M  V30 5496 H 524.326 2.70575 3.45956 0
M  V30 5497 H 524.932 3.69282 2.10976 0
M  V30 5498 N 523.247 -0.488276 1.49845 0
M  V30 5499 C 524.496 -1.23826 1.59217 0
M  V30 5500 C 524.809 -1.93439 0.289966 0
M  V30 5501 O 526.015 -2.70229 0.262382 0
M  V30 5502 C 524.471 -2.24902 2.80976 0
M  V30 5503 C 524.079 -1.6117 4.18005 0
M  V30 5504 C 525.823 -3.00648 2.99685 0
M  V30 5505 C 523.73 -2.60431 5.3097 0
M  V30 5506 H 522.66 -0.465858 0.592868 0
M  V30 5507 H 525.311 -0.510645 1.76252 0
M  V30 5508 H 523.693 -3.0088 2.57463 0
M  V30 5509 H 524.867 -0.910968 4.51706 0
M  V30 5510 H 523.182 -0.97767 4.0476 0
M  V30 5511 H 525.779 -3.74903 3.81251 0
M  V30 5512 H 526.122 -3.5902 2.10738 0
M  V30 5513 H 526.655 -2.31784 3.23297 0
M  V30 5514 H 523.394 -2.06823 6.22017 0
M  V30 5515 H 522.914 -3.28707 5.01709 0
M  V30 5516 H 524.593 -3.22606 5.60834 0
M  V30 5517 N 524.725 -1.39134 -0.740242 0
M  V30 5518 C 525.972 -1.36071 -1.49969 0
M  V30 5519 C 526.3 0.0450245 -1.94448 0
M  V30 5520 O 525.555 1.02482 -1.66721 0
M  V30 5521 C 525.854 -2.27457 -2.75678 0
M  V30 5522 C 525.52 -3.75185 -2.50094 0
M  V30 5523 C 524.182 -4.15439 -2.42825 0
M  V30 5524 C 526.534 -4.68643 -2.28086 0
M  V30 5525 C 523.862 -5.4722 -2.11584 0
M  V30 5526 C 526.214 -6.00695 -1.98363 0
M  V30 5527 C 524.878 -6.40018 -1.8956 0
M  V30 5528 H 524.148 -0.497921 -0.548777 0
M  V30 5529 H 526.795 -1.71599 -0.85007 0
M  V30 5530 H 525.1 -1.8503 -3.45356 0
M  V30 5531 H 526.797 -2.22384 -3.33686 0
M  V30 5532 H 523.387 -3.43279 -2.56627 0
M  V30 5533 H 527.571 -4.3838 -2.32672 0
M  V30 5534 H 522.827 -5.76615 -2.03287 0
M  V30 5535 H 527.001 -6.72644 -1.80341 0
M  V30 5536 H 524.628 -7.42051 -1.65117 0
M  V30 5537 N 526.204 0.969867 -1.24223 0
M  V30 5538 C 527.434 1.74502 -1.106 0
M  V30 5539 C 527.842 1.86038 0.344483 0
M  V30 5540 O 527.185 1.3465 1.24961 0
M  V30 5541 C 527.247 3.18391 -1.66935 0
M  V30 5542 C 526.911 3.30334 -3.15798 0
M  V30 5543 C 527.908 3.15832 -4.12973 0
M  V30 5544 C 525.593 3.54644 -3.55715 0
M  V30 5545 C 527.587 3.25461 -5.48045 0
M  V30 5546 C 525.274 3.63912 -4.90929 0
M  V30 5547 C 526.272 3.49332 -5.86904 0
M  V30 5548 O 525.96 3.58251 -7.1966 0
M  V30 5549 H 525.692 0.554119 -0.387206 0
M  V30 5550 H 528.246 1.22646 -1.64764 0
M  V30 5551 H 526.476 3.71543 -1.07203 0
M  V30 5552 H 528.165 3.77707 -1.48634 0
M  V30 5553 H 528.931 2.96937 -3.83476 0
M  V30 5554 H 524.81 3.65059 -2.81519 0
M  V30 5555 H 528.354 3.13998 -6.22937 0
M  V30 5556 H 524.251 3.82319 -5.20098 0
M  V30 5557 H 525.019 3.7498 -7.27552 0
M  V30 5558 N 527.682 1.05563 1.17022 0
M  V30 5559 C 529.093 0.793475 1.69 0
M  V30 5560 C 529.444 -0.683882 1.83895 0
M  V30 5561 O 528.569 -1.53116 1.5292 0
M  V30 5562 C 529.164 1.43376 3.06967 0
M  V30 5563 C 527.723 1.21956 3.56095 0
M  V30 5564 C 526.87 1.51494 2.3226 0
M  V30 5565 H 529.821 1.22008 1.01487 0
M  V30 5566 H 529.842 0.845068 3.70997 0
M  V30 5567 H 529.354 2.50899 2.96093 0
M  V30 5568 H 527.455 0.163749 3.7224 0
M  V30 5569 H 527.568 1.92713 4.38633 0
M  V30 5570 H 525.932 0.935175 2.3691 0
M  V30 5571 H 526.715 2.60159 2.23992 0
M  V30 5572 N 529.16 -1.33526 0.837174 0
M  V30 5573 C 530.406 -1.9813 0.432704 0
M  V30 5574 C 530.739 -1.66168 -1.00508 0
M  V30 5575 O 530.014 -0.94069 -1.70239 0
M  V30 5576 C 530.297 -3.54151 0.651834 0
M  V30 5577 C 530.15 -3.95806 2.13676 0
M  V30 5578 C 531.469 -4.39993 0.0968937 0
M  V30 5579 H 528.588 -0.719713 0.15869 0
M  V30 5580 H 531.23 -1.58193 1.05237 0
M  V30 5581 H 529.38 -3.88301 0.124369 0
M  V30 5582 H 531.052 -3.71921 2.72896 0
M  V30 5583 H 529.295 -3.45599 2.62191 0
M  V30 5584 H 529.966 -5.0447 2.24084 0
M  V30 5585 H 532.442 -4.12479 0.547733 0
M  V30 5586 H 531.318 -5.48186 0.279917 0
M  V30 5587 H 531.579 -4.3066 -0.9992 0
M  V30 5588 N 530.638 -0.59345 -1.46 0
M  V30 5589 C 531.548 0.135817 -2.34207 0
M  V30 5590 C 532.564 0.875008 -1.50398 0
M  V30 5591 O 533.74 0.835778 -1.83239 0
M  V30 5592 C 530.805 1.12977 -3.27776 0
M  V30 5593 C 529.866 0.394081 -4.27487 0
M  V30 5594 C 529.099 1.34068 -5.16586 0
M  V30 5595 O 529.322 2.5778 -5.08828 0
M  V30 5596 O 528.256 0.845426 -5.95933 0
M  V30 5597 H 532.082 -0.588691 -2.9794 0
M  V30 5598 H 529.667 -0.353784 -1.45151 0
M  V30 5599 H 531.549 1.70261 -3.85473 0
M  V30 5600 H 530.224 1.83556 -2.66625 0
M  V30 5601 H 529.131 -0.220869 -3.73447 0
M  V30 5602 H 530.464 -0.270939 -4.91454 0
M  V30 5603 N 532.116 1.54067 -0.331816 0
M  V30 5604 C 533.365 1.99895 0.269209 0
M  V30 5605 C 533.678 1.22371 1.52593 0
M  V30 5606 O 534.884 1.58618 2.20347 0
M  V30 5607 C 533.34 3.55972 0.530244 0
M  V30 5608 C 532.948 4.4234 -0.709901 0
M  V30 5609 C 534.692 4.10247 1.09077 0
M  V30 5610 C 532.599 5.89905 -0.420312 0
M  V30 5611 H 531.529 0.746741 0.104371 0
M  V30 5612 H 534.18 1.78014 -0.445324 0
M  V30 5613 H 532.562 3.73873 1.30518 0
M  V30 5614 H 533.736 4.36215 -1.48504 0
M  V30 5615 H 532.051 3.98997 -1.19123 0
M  V30 5616 H 534.648 5.18095 1.32219 0
M  V30 5617 H 534.991 3.62739 2.0427 0
M  V30 5618 H 535.524 3.96011 0.376824 0
M  V30 5619 H 532.263 6.41623 -1.34164 0
M  V30 5620 H 531.783 5.98962 0.316962 0
M  V30 5621 H 533.462 6.46991 -0.0331956 0
M  V30 5622 N 533.594 0.0601682 1.57485 0
M  V30 5623 C 534.542 -0.928899 2.13247 0
M  V30 5624 C 535.536 -1.31616 1.06647 0
M  V30 5625 O 536.742 -1.29476 1.25043 0
M  V30 5626 H 533.117 -0.317455 0.681708 0
M  V30 5627 H 535.088 -0.433566 2.95233 0
M  V30 5628 C 533.837 -2.19121 2.69965 0
M  V30 5629 H 533.16 -1.90204 3.51657 0
M  V30 5630 H 534.6 -2.86465 3.12592 0
M  V30 5631 C 533.059 -2.94195 1.64168 0
M  V30 5632 O 533.589 -3.87468 1.05978 0
M  V30 5633 N 531.795 -2.57089 1.35476 0
M  V30 5634 H 531.342 -1.81314 1.82984 0
M  V30 5635 H 531.3 -3.07624 0.649196 0
M  V30 5636 N 535.072 -1.5615 -0.213296 0
M  V30 5637 C 535.982 -1.96265 -1.28519 0
M  V30 5638 C 536.998 -0.86765 -1.50824 0
M  V30 5639 O 538.174 -1.17191 -1.63793 0
M  V30 5640 C 535.239 -2.27836 -2.61327 0
M  V30 5641 C 534.3 -3.50949 -2.47252 0
M  V30 5642 C 533.533 -3.81004 -3.73727 0
M  V30 5643 O 533.756 -3.12612 -4.77106 0
M  V30 5644 O 532.69 -4.74477 -3.70344 0
M  V30 5645 H 536.516 -2.87631 -0.974795 0
M  V30 5646 H 534.101 -1.43467 -0.416832 0
M  V30 5647 H 535.983 -2.49299 -3.39747 0
M  V30 5648 H 534.658 -1.39643 -2.9203 0
M  V30 5649 H 533.565 -3.34754 -1.67004 0
M  V30 5650 H 534.898 -4.39551 -2.21486 0
M  V30 5651 N 536.55 0.480323 -1.50102 0
M  V30 5652 C 537.775 1.26126 -1.64642 0
M  V30 5653 C 538.2 1.85257 -0.325823 0
M  V30 5654 O 537.558 1.66854 0.709194 0
M  V30 5655 C 537.606 2.35243 -2.73301 0
M  V30 5656 O 536.71 3.39646 -2.33911 0
M  V30 5657 H 536.051 0.371463 -0.550374 0
M  V30 5658 H 538.581 0.572696 -1.96421 0
M  V30 5659 H 538.591 2.80695 -2.96098 0
M  V30 5660 H 537.266 1.91574 -3.6915 0
M  V30 5661 H 535.843 2.99969 -2.21525 0
M  V30 5662 N 538.028 1.39524 0.732853 0
M  V30 5663 C 538.938 1.40695 1.87729 0
M  V30 5664 C 539.954 0.301496 1.71368 0
M  V30 5665 O 541.13 0.543313 1.93933 0
M  V30 5666 C 538.195 1.25098 3.23344 0
M  V30 5667 C 537.256 2.45634 3.52083 0
M  V30 5668 C 536.489 2.30772 4.81228 0
M  V30 5669 O 536.712 1.31233 5.55098 0
M  V30 5670 O 535.646 3.19799 5.09914 0
M  V30 5671 H 539.472 2.37168 1.89697 0
M  V30 5672 H 537.057 1.20663 0.880959 0
M  V30 5673 H 538.939 1.18541 4.04383 0
M  V30 5674 H 537.614 0.317209 3.22142 0
M  V30 5675 H 536.521 2.57767 2.71122 0
M  V30 5676 H 537.854 3.37712 3.58066 0
M  V30 5677 N 539.506 -0.963266 1.24736 0
M  V30 5678 C 540.917 -1.52145 1.08207 0
M  V30 5679 C 541.268 -1.93142 -0.345061 0
M  V30 5680 O 540.393 -1.77769 -1.23399 0
M  V30 5681 C 540.988 -2.76486 1.95808 0
M  V30 5682 C 539.547 -3.28646 1.8349 0
M  V30 5683 C 538.694 -2.01529 1.90476 0
M  V30 5684 H 541.645 -0.781083 1.38148 0
M  V30 5685 H 541.666 -3.49986 1.49297 0
M  V30 5686 H 541.178 -2.46617 2.99669 0
M  V30 5687 H 539.279 -3.63357 0.824787 0
M  V30 5688 H 539.392 -3.97246 2.67829 0
M  V30 5689 H 537.756 -2.16442 1.34258 0
M  V30 5690 H 538.539 -1.7402 2.95926 0
M  V30 5691 N 540.985 -1.06182 -1.16461 0
M  V30 5692 C 542.234 -0.772927 -1.86303 0
M  V30 5693 C 542.547 0.703187 -1.82523 0
M  V30 5694 O 543.753 1.10641 -2.47933 0
M  V30 5695 C 542.209 -1.33249 -3.34324 0
M  V30 5696 C 541.817 -2.83876 -3.46581 0
M  V30 5697 C 543.561 -1.12108 -4.09429 0
M  V30 5698 C 541.468 -3.33082 -4.88682 0
M  V30 5699 H 540.398 -0.285452 -0.697878 0
M  V30 5700 H 543.049 -1.28039 -1.31447 0
M  V30 5701 H 541.431 -0.7528 -3.88779 0
M  V30 5702 H 542.605 -3.47786 -3.02293 0
M  V30 5703 H 540.92 -3.03671 -2.84909 0
M  V30 5704 H 543.517 -1.46361 -5.14279 0
M  V30 5705 H 543.86 -0.0593832 -4.16258 0
M  V30 5706 H 544.393 -1.6665 -3.6121 0
M  V30 5707 H 541.132 -4.38726 -4.87032 0
M  V30 5708 H 540.652 -2.73919 -5.33599 0
M  V30 5709 H 542.331 -3.28344 -5.57494 0
M  V30 5710 N 542.463 1.3308 -0.844243 0
M  V30 5711 C 543.709 1.97898 -0.443206 0
M  V30 5712 C 544.042 1.66699 0.99625 0
M  V30 5713 O 543.317 0.949704 1.69738 0
M  V30 5714 C 543.6 3.53801 -0.670606 0
M  V30 5715 C 543.453 3.94667 -2.15772 0
M  V30 5716 C 544.772 4.39936 -0.120226 0
M  V30 5717 H 541.891 0.718861 -0.162504 0
M  V30 5718 H 544.533 1.57633 -1.06075 0
M  V30 5719 H 542.683 3.88229 -0.14496 0
M  V30 5720 H 544.355 3.70469 -2.74865 0
M  V30 5721 H 542.598 3.44203 -2.6402 0
M  V30 5722 H 543.269 5.03275 -2.26757 0
M  V30 5723 H 545.745 4.12183 -0.5696 0
M  V30 5724 H 544.621 5.4803 -0.308984 0
M  V30 5725 H 544.882 4.31184 0.976347 0
M  V30 5726 N 543.941 0.601185 1.45683 0
M  V30 5727 C 545.187 0.0940202 2.02582 0
M  V30 5728 C 545.52 -1.26972 1.46941 0
M  V30 5729 O 544.795 -1.83613 0.641612 0
M  V30 5730 C 545.078 0.0481715 3.60068 0
M  V30 5731 C 544.931 1.44212 4.26055 0
M  V30 5732 C 546.25 -0.642975 4.35378 0
M  V30 5733 H 543.369 0.0356404 0.736138 0
M  V30 5734 H 546.011 0.771929 1.73612 0
M  V30 5735 H 544.161 -0.529128 3.8488 0
M  V30 5736 H 545.833 2.06601 4.12449 0
M  V30 5737 H 544.076 2.00465 3.84703 0
M  V30 5738 H 544.747 1.36234 5.34925 0
M  V30 5739 H 547.223 -0.152351 4.15821 0
M  V30 5740 H 546.099 -0.644141 5.45107 0
M  V30 5741 H 546.36 -1.70785 4.0778 0
M  V30 5742 N 545.419 -1.53889 0.339982 0
M  V30 5743 C 546.649 -2.04973 -0.258738 0
M  V30 5744 C 547.057 -1.21485 -1.45045 0
M  V30 5745 O 546.4 -0.2422 -1.82096 0
M  V30 5746 C 546.462 -3.51783 -0.740853 0
M  V30 5747 C 546.126 -4.55802 0.330734 0
M  V30 5748 C 547.123 -5.06512 1.17226 0
M  V30 5749 C 544.808 -4.99966 0.483637 0
M  V30 5750 C 546.802 -5.99963 2.15227 0
M  V30 5751 C 544.489 -5.93229 1.46704 0
M  V30 5752 C 545.487 -6.43115 2.29981 0
M  V30 5753 O 545.175 -7.34545 3.26649 0
M  V30 5754 H 544.907 -0.673807 -0.0544037 0
M  V30 5755 H 547.461 -1.99492 0.489107 0
M  V30 5756 H 545.691 -3.54717 -1.53988 0
M  V30 5757 H 547.38 -3.85857 -1.25973 0
M  V30 5758 H 548.146 -4.73158 1.0652 0
M  V30 5759 H 544.025 -4.6074 -0.15471 0
M  V30 5760 H 547.569 -6.38825 2.80265 0
M  V30 5761 H 543.466 -6.25998 1.57468 0
M  V30 5762 H 544.234 -7.52468 3.22078 0
M  V30 5763 N 546.897 -0.0685191 -1.57451 0
M  V30 5764 C 548.174 0.642167 -1.84758 0
M  V30 5765 C 548.554 1.87991 -0.960344 0
M  V30 5766 O 547.902 2.28485 -0.0257894 0
M  V30 5767 C 548.112 0.982946 -3.34872 0
M  V30 5768 C 549.46 1.35784 -4.02303 0
M  V30 5769 O 550.484 1.07477 -3.39598 0
M  V30 5770 O 549.343 1.88681 -5.12895 0
M  V30 5771 H 546.437 0.318625 -0.763156 0
M  V30 5772 H 548.983 -0.0992015 -1.6941 0
M  V30 5773 H 547.755 0.10372 -3.91163 0
M  V30 5774 H 547.378 1.78119 -3.55471 0
M  V30 5775 N 548.375 1.56261 0.205012 0
M  V30 5776 C 549.322 1.93754 1.25411 0
M  V30 5777 C 550.292 0.796826 1.45739 0
M  V30 5778 O 551.477 1.05414 1.59036 0
M  V30 5779 C 548.617 2.27383 2.59598 0
M  V30 5780 C 547.73 3.5447 2.46931 0
M  V30 5781 C 546.865 3.77468 3.73753 0
M  V30 5782 C 545.904 4.98014 3.55877 0
M  V30 5783 N 545.041 5.17316 4.74688 0
M  V30 5784 H 549.881 2.83203 0.92737 0
M  V30 5785 H 547.418 1.40158 0.446574 0
M  V30 5786 H 549.376 2.44895 3.37761 0
M  V30 5787 H 548.006 1.41088 2.90335 0
M  V30 5788 H 547.058 3.45061 1.60116 0
M  V30 5789 H 548.37 4.42789 2.29651 0
M  V30 5790 H 547.524 3.95165 4.60358 0
M  V30 5791 H 546.263 2.87461 3.93976 0
M  V30 5792 H 545.268 4.80249 2.67657 0
M  V30 5793 H 546.493 5.8952 3.37109 0
M  V30 5794 H 544.439 4.30255 4.95194 0
M  V30 5795 H 544.356 5.99796 4.60197 0
M  V30 5796 H 545.624 5.39463 5.62672 0
M  V30 5797 N 549.853 -0.472356 1.50355 0
M  V30 5798 C 550.763 -1.59637 1.7191 0
M  V30 5799 C 551.779 -1.63247 0.602195 0
M  V30 5800 O 552.955 -1.81139 0.880369 0
M  V30 5801 C 550.02 -2.9586 1.80742 0
M  V30 5802 C 549.081 -3.02649 3.04471 0
M  V30 5803 C 548.314 -4.32374 3.12872 0
M  V30 5804 O 548.537 -5.22807 2.28099 0
M  V30 5805 O 547.471 -4.44728 4.05587 0
M  V30 5806 H 551.297 -1.44373 2.67189 0
M  V30 5807 H 548.882 -0.651717 1.34436 0
M  V30 5808 H 550.764 -3.7677 1.88739 0
M  V30 5809 H 549.439 -3.11325 0.88647 0
M  V30 5810 H 548.346 -2.20821 3.01975 0
M  V30 5811 H 549.679 -2.92119 3.9614 0
M  V30 5812 N 551.331 -1.39911 -0.725443 0
M  V30 5813 C 552.561 -1.40744 -1.51244 0
M  V30 5814 C 552.969 -0.00275403 -1.892 0
M  V30 5815 O 552.312 0.981299 -1.55294 0
M  V30 5816 C 552.374 -2.22527 -2.82351 0
M  V30 5817 C 552.038 -3.71053 -2.66774 0
M  V30 5818 C 553.035 -4.63916 -2.34686 0
M  V30 5819 C 550.72 -4.14753 -2.83347 0
M  V30 5820 C 552.714 -5.98463 -2.19366 0
M  V30 5821 C 550.401 -5.49372 -2.67644 0
M  V30 5822 C 551.399 -6.41042 -2.357 0
M  V30 5823 O 551.087 -7.73181 -2.20107 0
M  V30 5824 H 550.819 -0.482314 -0.473655 0
M  V30 5825 H 553.373 -1.84472 -0.903284 0
M  V30 5826 H 551.603 -1.73563 -3.45562 0
M  V30 5827 H 553.292 -2.15421 -3.44018 0
M  V30 5828 H 554.058 -4.31453 -2.21525 0
M  V30 5829 H 549.937 -3.43728 -3.072 0
M  V30 5830 H 553.481 -6.69979 -1.94354 0
M  V30 5831 H 549.378 -5.81424 -2.80387 0
M  V30 5832 H 550.146 -7.84008 -2.35103 0
M  V30 5833 N 552.809 0.956637 -1.25245 0
M  V30 5834 C 553.739 2.07058 -1.07931 0
M  V30 5835 C 554.72 1.70096 0.0110361 0
M  V30 5836 O 555.905 1.93555 -0.158121 0
M  V30 5837 C 553.035 3.40272 -0.695124 0
M  V30 5838 C 551.989 3.91235 -1.73549 0
M  V30 5839 C 551.315 5.20921 -1.20604 0
M  V30 5840 C 552.615 4.17837 -3.13385 0
M  V30 5841 H 554.309 2.218 -2.01109 0
M  V30 5842 H 551.855 1.06581 -0.968326 0
M  V30 5843 H 553.808 4.1765 -0.560949 0
M  V30 5844 H 552.532 3.25462 0.272355 0
M  V30 5845 H 551.191 3.16025 -1.85807 0
M  V30 5846 H 550.839 5.02479 -0.228846 0
M  V30 5847 H 550.539 5.55987 -1.90136 0
M  V30 5848 H 552.063 6.00897 -1.08421 0
M  V30 5849 H 553.477 4.8588 -3.04292 0
M  V30 5850 H 551.874 4.64154 -3.80369 0
M  V30 5851 H 552.944 3.2419 -3.60595 0
M  V30 5852 N 554.287 1.06798 1.15896 0
M  V30 5853 C 555.197 0.694564 2.24083 0
M  V30 5854 C 556.213 -0.291687 1.71538 0
M  V30 5855 O 557.389 -0.139723 2.00915 0
M  V30 5856 C 554.454 0.0921014 3.46578 0
M  V30 5857 C 553.515 1.13087 4.14137 0
M  V30 5858 C 552.748 0.557064 5.30785 0
M  V30 5859 O 552.971 -0.628623 5.66925 0
M  V30 5860 O 551.905 1.29924 5.8771 0
M  V30 5861 H 555.731 1.59663 2.58344 0
M  V30 5862 H 553.316 0.840575 1.2351 0
M  V30 5863 H 555.198 -0.241884 4.20705 0
M  V30 5864 H 553.873 -0.78337 3.14078 0
M  V30 5865 H 552.78 1.51712 3.41957 0
M  V30 5866 H 554.113 1.97805 4.50704 0
M  V30 5867 N 555.766 -1.3263 0.851289 0
M  V30 5868 C 556.698 -2.27824 0.250757 0
M  V30 5869 C 557.711 -1.52285 -0.575598 0
M  V30 5870 O 558.9 -1.73946 -0.400638 0
M  V30 5871 C 556 -3.3232 -0.664571 0
M  V30 5872 C 555.173 -4.37221 0.125187 0
M  V30 5873 C 554.232 -5.21314 -0.715385 0
M  V30 5874 O 553.258 -5.69002 -0.150111 0
M  V30 5875 N 554.46 -5.43823 -2.03069 0
M  V30 5876 H 557.225 -2.79997 1.06873 0
M  V30 5877 H 554.786 -1.45455 0.710943 0
M  V30 5878 H 556.778 -3.85486 -1.23216 0
M  V30 5879 H 555.348 -2.80331 -1.38323 0
M  V30 5880 H 554.568 -3.84384 0.874199 0
M  V30 5881 H 555.856 -5.04399 0.667774 0
M  V30 5882 H 555.254 -5.06803 -2.51332 0
M  V30 5883 H 553.811 -5.99998 -2.54648 0
M  V30 5884 N 557.244 -0.608902 -1.45362 0
M  V30 5885 C 558.493 -0.10218 -2.01441 0
M  V30 5886 C 558.806 1.27546 -1.48295 0
M  V30 5887 O 560.012 1.87498 -1.96359 0
M  V30 5888 C 558.468 -0.131985 -3.59658 0
M  V30 5889 C 558.076 -1.50956 -4.21801 0
M  V30 5890 C 559.82 0.319427 -4.23296 0
M  V30 5891 C 557.727 -1.49568 -5.72174 0
M  V30 5892 H 556.657 -0.0344314 -0.753213 0
M  V30 5893 H 559.308 -0.764426 -1.6682 0
M  V30 5894 H 557.69 0.596939 -3.91475 0
M  V30 5895 H 558.864 -2.26029 -4.01556 0
M  V30 5896 H 557.179 -1.90318 -3.70362 0
M  V30 5897 H 559.776 0.349013 -5.3356 0
M  V30 5898 H 560.119 1.34237 -3.94064 0
M  V30 5899 H 560.652 -0.356273 -3.96201 0
M  V30 5900 H 557.391 -2.49626 -6.06108 0
M  V30 5901 H 556.911 -0.787542 -5.94607 0
M  V30 5902 H 558.59 -1.21989 -6.35396 0
M  V30 5903 N 558.722 1.53707 -0.348139 0
M  V30 5904 C 559.947 2.05877 0.250883 0
M  V30 5905 C 560.372 1.22115 1.43072 0
M  V30 5906 O 559.73 0.235986 1.79758 0
M  V30 5907 C 559.778 3.54886 0.639416 0
M  V30 5908 O 558.882 3.73948 1.73888 0
M  V30 5909 H 558.223 0.662754 0.040653 0
M  V30 5910 H 560.753 1.98303 -0.503685 0
M  V30 5911 H 560.763 3.97601 0.915295 0
M  V30 5912 H 559.438 4.153 -0.223386 0
M  V30 5913 H 558.015 3.43134 1.45991 0
M  V30 5914 N 560.2 0.0768682 1.57412 0
M  V30 5915 C 561.428 -0.59997 1.9801 0
M  V30 5916 C 561.843 -1.62842 0.955408 0
M  V30 5917 O 561.2 -1.8241 -0.057314 0
M  V30 5918 C 561.251 -1.26401 3.38681 0
M  V30 5919 O 560.972 -0.276723 4.37225 0
M  V30 5920 C 562.473 -2.0282 3.94182 0
M  V30 5921 H 559.693 -0.162239 0.651091 0
M  V30 5922 H 562.237 0.150771 2.03943 0
M  V30 5923 H 560.392 -1.96581 3.33819 0
M  V30 5924 H 560.806 -0.753744 5.19056 0
M  V30 5925 H 562.28 -2.44667 4.94815 0
M  V30 5926 H 562.757 -2.88678 3.31001 0
M  V30 5927 H 563.363 -1.37496 4.02461 0
M  V30 5928 N 561.678 -1.56367 -0.196722 0
M  V30 5929 C 562.608 -1.97442 -1.24655 0
M  V30 5930 C 563.589 -0.846147 -1.47561 0
M  V30 5931 O 564.774 -1.11035 -1.59326 0
M  V30 5932 C 561.904 -2.31253 -2.59112 0
M  V30 5933 C 560.858 -3.46804 -2.50821 0
M  V30 5934 C 560.184 -3.66286 -3.89536 0
M  V30 5935 C 561.484 -4.8104 -2.03465 0
M  V30 5936 H 563.178 -2.85388 -0.905216 0
M  V30 5937 H 560.724 -1.37304 -0.434002 0
M  V30 5938 H 562.677 -2.58583 -3.32736 0
M  V30 5939 H 561.401 -1.40188 -2.94983 0
M  V30 5940 H 560.06 -3.19563 -1.79653 0
M  V30 5941 H 559.708 -2.72555 -4.22756 0
M  V30 5942 H 559.408 -4.4402 -3.84864 0
M  V30 5943 H 560.932 -3.9599 -4.64784 0
M  V30 5944 H 562.346 -5.07411 -2.66846 0
M  V30 5945 H 560.743 -5.62232 -2.09798 0
M  V30 5946 H 561.813 -4.74732 -0.98781 0
M  V30 5947 N 563.156 0.464375 -1.50603 0
M  V30 5948 C 564.405 1.21277 -1.61167 0
M  V30 5949 C 564.718 1.92953 -0.320704 0
M  V30 5950 O 565.924 2.69778 -0.30534 0
M  V30 5951 C 564.38 2.20403 -2.84518 0
M  V30 5952 C 563.988 1.54499 -4.20516 0
M  V30 5953 C 565.732 2.95843 -3.0443 0
M  V30 5954 C 563.639 2.51951 -5.35047 0
M  V30 5955 H 562.569 0.456367 -0.600204 0
M  V30 5956 H 565.22 0.48254 -1.77042 0
M  V30 5957 H 563.602 2.96746 -2.62217 0
M  V30 5958 H 564.776 0.83899 -4.53098 0
M  V30 5959 H 563.091 0.913152 -4.06264 0
M  V30 5960 H 565.688 3.6879 -3.87167 0
M  V30 5961 H 566.031 3.55622 -2.16423 0
M  V30 5962 H 566.564 2.26611 -3.26944 0
M  V30 5963 H 563.303 1.96901 -6.25228 0
M  V30 5964 H 562.823 3.20683 -5.06875 0
M  V30 5965 H 564.502 3.13643 -5.65895 0
M  V30 5966 N 564.634 1.40294 0.718013 0
M  V30 5967 C 565.582 1.40536 1.85344 0
M  V30 5968 C 566.576 0.286192 1.66965 0
M  V30 5969 O 567.782 0.457105 1.74099 0
M  V30 5970 H 564.157 0.439236 0.61039 0
M  V30 5971 H 566.128 2.36275 1.82255 0
M  V30 5972 C 564.877 1.28245 3.23185 0
M  V30 5973 H 564.2 2.1364 3.37932 0
M  V30 5974 H 565.64 1.32474 4.02774 0
M  V30 5975 C 564.099 -0.0075503 3.36899 0
M  V30 5976 O 564.629 -0.971391 3.89778 0
M  V30 5977 N 562.835 -0.0762479 2.905 0
M  V30 5978 H 562.382 0.708819 2.47656 0
M  V30 5979 H 562.34 -0.938846 3.00055 0
M  V30 5980 N 566.112 -0.949982 1.2575 0
M  V30 5981 C 567.34 -1.72972 1.13527 0
M  V30 5982 C 567.755 -1.8623 -0.310453 0
M  V30 5983 O 567.112 -1.36336 -1.2132 0
M  V30 5984 C 567.163 -3.14108 1.78936 0
M  V30 5985 O 566.884 -3.01493 3.17858 0
M  V30 5986 C 568.385 -4.08338 1.72554 0
M  V30 5987 H 565.605 -0.541864 0.395758 0
M  V30 5988 H 568.149 -1.19151 1.66202 0
M  V30 5989 H 566.304 -3.64858 1.30221 0
M  V30 5990 H 566.718 -3.90559 3.50092 0
M  V30 5991 H 568.192 -5.04963 2.22973 0
M  V30 5992 H 568.669 -4.33742 0.690251 0
M  V30 5993 H 569.275 -3.63506 2.2078 0
M  V30 5994 N 567.59 -1.07411 -1.15328 0
M  V30 5995 C 568.818 -0.818782 -1.90009 0
M  V30 5996 C 569.233 0.628072 -1.78047 0
M  V30 5997 O 568.59 1.43085 -1.13282 0
M  V30 5998 C 568.641 -1.21874 -3.40337 0
M  V30 5999 O 568.362 -2.60883 -3.51954 0
M  V30 6000 C 569.863 -0.992796 -4.3204 0
M  V30 6001 H 567.083 -0.296007 -0.60218 0
M  V30 6002 H 569.627 -1.43073 -1.46117 0
M  V30 6003 H 567.782 -0.651103 -3.81889 0
M  V30 6004 H 568.196 -2.77216 -4.45255 0
M  V30 6005 H 569.67 -1.32215 -5.35932 0
M  V30 6006 H 570.147 0.0708331 -4.39143 0
M  V30 6007 H 570.753 -1.54537 -3.9623 0
M  V30 6008 N 569.068 1.32177 -0.85831 0
M  V30 6009 C 570.345 1.91781 -0.384624 0
M  V30 6010 C 570.725 1.78171 1.13217 0
M  V30 6011 O 570.073 1.18209 1.95548 0
M  V30 6012 C 570.283 3.38414 -0.853047 0
M  V30 6013 C 571.631 4.15542 -0.872359 0
M  V30 6014 O 572.655 3.47148 -0.797926 0
M  V30 6015 O 571.514 5.37678 -0.978009 0
M  V30 6016 H 568.608 0.819259 -0.112886 0
M  V30 6017 H 571.154 1.40923 -0.945453 0
M  V30 6018 H 569.926 3.4228 -1.89632 0
M  V30 6019 H 569.549 3.96683 -0.269874 0
M  V30 6020 N 570.547 0.616602 1.45037 0
M  V30 6021 C 571.963 0.280994 1.57107 0
M  V30 6022 C 572.163 -1.21627 1.60653 0
M  V30 6023 O 571.219 -1.9997 1.54169 0
M  V30 6024 C 572.532 0.960116 2.8496 0
M  V30 6025 C 574.08 0.936884 2.98649 0
M  V30 6026 C 574.555 1.59619 4.29285 0
M  V30 6027 N 576.046 1.5621 4.36065 0
M  V30 6028 C 576.781 2.04131 5.35834 0
M  V30 6029 N 576.277 2.60177 6.4209 0
M  V30 6030 N 578.07 1.94845 5.27249 0
M  V30 6031 H 570.221 1.58867 1.40979 0
M  V30 6032 H 572.484 0.666024 0.674623 0
M  V30 6033 H 572.19 2.01473 2.88273 0
M  V30 6034 H 572.064 0.488921 3.74018 0
M  V30 6035 H 574.451 -0.109209 2.94898 0
M  V30 6036 H 574.532 1.44643 2.10979 0
M  V30 6037 H 574.176 2.64166 4.33796 0
M  V30 6038 H 574.106 1.06159 5.15789 0
M  V30 6039 H 576.597 1.15276 3.59889 0
M  V30 6040 H 576.91 2.94513 7.1448 0
M  V30 6041 H 575.255 2.64221 6.42816 0
M  V30 6042 H 578.446 1.50792 4.43147 0
M  V30 6043 H 578.619 2.32504 6.04852 0
M  V30 6044 N 572.025 -1.5352 0.356285 0
M  V30 6045 C 573.265 -2.03027 -0.23649 0
M  V30 6046 C 573.629 -1.23813 -1.46746 0
M  V30 6047 O 574.83 -1.63281 -2.13525 0
M  V30 6048 C 573.101 -3.53442 -0.530415 0
M  V30 6049 S 574.66 -4.24836 -1.09819 0
M  V30 6050 H 571.478 -0.707591 -0.0695378 0
M  V30 6051 H 574.08 -1.89077 0.496999 0
M  V30 6052 H 572.784 -4.087 0.373114 0
M  V30 6053 H 572.315 -3.71536 -1.29323 0
M  V30 6054 H 574.33 -4.35228 -2.38309 0
M  V30 6055 N 573.503 -0.0852151 -1.57369 0
M  V30 6056 C 574.433 0.874556 -2.16503 0
M  V30 6057 C 575.414 1.30111 -1.09568 0
M  V30 6058 O 576.599 1.36977 -1.37662 0
M  V30 6059 C 573.729 2.13731 -2.73745 0
M  V30 6060 C 572.683 1.84971 -3.85966 0
M  V30 6061 C 572.009 3.17991 -4.29867 0
M  V30 6062 C 573.309 1.14442 -5.09608 0
M  V30 6063 H 575.003 0.381899 -2.96954 0
M  V30 6064 H 572.549 0.18225 -1.42842 0
M  V30 6065 H 574.502 2.81302 -3.13763 0
M  V30 6066 H 573.226 2.65263 -1.90534 0
M  V30 6067 H 571.885 1.19801 -3.46473 0
M  V30 6068 H 571.533 3.6739 -3.4356 0
M  V30 6069 H 571.233 2.99534 -5.05523 0
M  V30 6070 H 572.757 3.86737 -4.72511 0
M  V30 6071 H 574.171 1.72105 -5.46857 0
M  V30 6072 H 572.568 1.06197 -5.90629 0
M  V30 6073 H 573.638 0.12559 -4.84737 0
M  V30 6074 N 574.981 1.5647 0.188427 0
M  V30 6075 C 575.911 1.98101 1.23606 0
M  V30 6076 C 576.892 0.853961 1.47111 0
M  V30 6077 O 578.077 1.11879 1.58735 0
M  V30 6078 C 575.207 2.32624 2.57882 0
M  V30 6079 C 574.161 3.48129 2.48978 0
M  V30 6080 C 573.487 3.68347 3.87588 0
M  V30 6081 C 574.787 4.82112 2.00911 0
M  V30 6082 H 576.481 2.85864 0.890068 0
M  V30 6083 H 574.027 1.37532 0.426714 0
M  V30 6084 H 575.98 2.60343 3.3136 0
M  V30 6085 H 574.704 1.41751 2.94235 0
M  V30 6086 H 573.363 3.20511 1.77956 0
M  V30 6087 H 573.011 2.74793 4.21305 0
M  V30 6088 H 572.711 4.46055 3.82503 0
M  V30 6089 H 574.235 3.98449 4.62678 0
M  V30 6090 H 575.649 5.08819 2.64151 0
M  V30 6091 H 574.046 5.63337 2.06814 0
M  V30 6092 H 575.116 4.75249 0.96262 0
M  V30 6093 N 576.459 -0.456382 1.50847 0
M  V30 6094 C 577.407 -1.57318 1.71329 0
M  V30 6095 C 578.401 -1.59187 0.579287 0
M  V30 6096 O 579.607 -1.6316 0.76018 0
M  V30 6097 H 575.982 -0.5223 0.541024 0
M  V30 6098 H 577.953 -1.3721 2.64983 0
M  V30 6099 C 576.702 -2.95142 1.83811 0
M  V30 6100 H 576.025 -2.94428 2.70467 0
M  V30 6101 H 577.465 -3.72702 2.02161 0
M  V30 6102 C 575.924 -3.31636 0.593224 0
M  V30 6103 O 576.454 -4.00852 -0.260898 0
M  V30 6104 N 574.66 -2.87205 0.442902 0
M  V30 6105 H 574.207 -2.31051 1.13901 0
M  V30 6106 H 574.165 -3.11986 -0.38884 0
M  V30 6107 N 577.937 -1.40673 -0.710563 0
M  V30 6108 C 578.885 -1.41517 -1.84596 0
M  V30 6109 C 579.879 -0.295043 -1.66811 0
M  V30 6110 O 581.085 -0.466331 -1.73854 0
M  V30 6111 H 577.46 -0.442467 -0.608052 0
M  V30 6112 H 579.431 -2.37238 -1.80999 0
M  V30 6113 C 578.18 -1.29957 -3.225 0
M  V30 6114 H 577.503 -2.15429 -3.36794 0
M  V30 6115 H 578.943 -1.34608 -4.02066 0
M  V30 6116 C 577.402 -0.0103164 -3.36898 0
M  V30 6117 O 577.932 0.950707 -3.90288 0
M  V30 6118 N 576.138 0.0608409 -2.90536 0
M  V30 6119 H 575.685 -0.721943 -2.47277 0
M  V30 6120 H 575.643 0.92292 -3.00549 0
M  V30 6121 N 579.415 0.9433 -1.26252 0
M  V30 6122 C 580.645 1.72117 -1.14277 0
M  V30 6123 C 581.053 1.86726 0.304944 0
M  V30 6124 O 580.396 1.3727 1.22076 0
M  V30 6125 C 580.458 3.14778 -1.73651 0
M  V30 6126 C 580.122 3.23561 -3.22734 0
M  V30 6127 C 581.119 3.07001 -4.19579 0
M  V30 6128 C 578.804 3.47019 -3.63157 0
M  V30 6129 C 580.798 3.13763 -5.54826 0
M  V30 6130 C 578.485 3.53416 -4.98538 0
M  V30 6131 C 579.483 3.36804 -5.94182 0
M  V30 6132 O 579.171 3.42906 -7.27098 0
M  V30 6133 H 578.903 0.545781 -0.398873 0
M  V30 6134 H 581.457 1.19123 -1.67328 0
M  V30 6135 H 579.687 3.69186 -1.1506 0
M  V30 6136 H 581.376 3.74469 -1.56613 0
M  V30 6137 H 582.142 2.88736 -3.89688 0
M  V30 6138 H 578.021 3.59006 -2.89199 0
M  V30 6139 H 581.565 3.00714 -6.29458 0
M  V30 6140 H 577.462 3.71201 -5.28091 0
M  V30 6141 H 578.23 3.59463 -7.35342 0
M  V30 6142 N 580.893 1.08022 1.14757 0
M  V30 6143 C 581.826 0.650738 2.18725 0
M  V30 6144 C 582.804 -0.335496 1.59101 0
M  V30 6145 O 583.988 -0.240295 1.86962 0
M  V30 6146 C 581.115 -0.0434377 3.38672 0
M  V30 6147 C 580.161 0.90232 4.16846 0
M  V30 6148 S 580.994 2.40693 4.78359 0
M  V30 6149 C 582.15 1.72475 6.01667 0
M  V30 6150 H 582.383 1.53152 2.54817 0
M  V30 6151 H 579.916 0.894823 1.25826 0
M  V30 6152 H 581.874 -0.437684 4.0816 0
M  V30 6153 H 580.535 -0.900659 3.0091 0
M  V30 6154 H 579.728 0.363445 5.02688 0
M  V30 6155 H 579.33 1.23728 3.52941 0
M  V30 6156 H 581.622 1.0404 6.69464 0
M  V30 6157 H 582.565 2.56175 6.60136 0
M  V30 6158 H 582.973 1.19979 5.51602 0
M  V30 6159 N 582.371 -1.3172 0.865308 0
M  V30 6160 C 583.62 -1.96145 0.470098 0
M  V30 6161 C 583.933 -1.69182 -0.981674 0
M  V30 6162 O 585.139 -2.27431 -1.48281 0
M  V30 6163 C 583.595 -3.51129 0.789732 0
M  V30 6164 C 583.203 -3.86938 2.25795 0
M  V30 6165 C 584.947 -4.2197 0.462765 0
M  V30 6166 C 582.854 -5.35012 2.52024 0
M  V30 6167 H 581.784 -0.734105 0.172065 0
M  V30 6168 H 584.435 -1.49959 1.05757 0
M  V30 6169 H 582.817 -3.95781 0.131571 0
M  V30 6170 H 583.991 -3.5326 2.95879 0
M  V30 6171 H 582.306 -3.29149 2.55049 0
M  V30 6172 H 584.903 -5.30904 0.636019 0
M  V30 6173 H 585.246 -4.12005 -0.59645 0
M  V30 6174 H 585.779 -3.82936 1.07727 0
M  V30 6175 H 582.518 -5.50008 3.56611 0
M  V30 6176 H 582.038 -5.70058 1.8653 0
M  V30 6177 H 583.717 -6.0222 2.36515 0
M  V30 6178 N 583.85 -0.624285 -1.44708 0
M  V30 6179 C 585.096 -0.13473 -2.02953 0
M  V30 6180 C 585.451 1.22724 -1.48178 0
M  V30 6181 O 584.744 1.80109 -0.653542 0
M  V30 6182 C 584.938 -0.0546353 -3.57358 0
M  V30 6183 C 584.767 -1.40729 -4.27113 0
M  V30 6184 C 583.537 -1.99231 -4.64365 0
M  V30 6185 C 585.735 -2.33968 -4.58 0
M  V30 6186 N 583.716 -3.27803 -5.19055 0
M  V30 6187 C 585.088 -3.47149 -5.137 0
M  V30 6188 C 587.143 -2.33132 -4.39948 0
M  V30 6189 C 585.846 -4.59682 -5.53249 0
M  V30 6190 C 587.872 -3.44724 -4.8054 0
M  V30 6191 C 587.234 -4.56629 -5.36348 0
M  V30 6192 H 583.332 -0.0930617 -0.776443 0
M  V30 6193 H 585.917 -0.826286 -1.76297 0
M  V30 6194 H 584.088 0.606183 -3.8364 0
M  V30 6195 H 585.82 0.443116 -4.02267 0
M  V30 6196 H 582.575 -1.52251 -4.4846 0
M  V30 6197 H 582.999 -3.93519 -5.50883 0
M  V30 6198 H 587.641 -1.47868 -3.961 0
M  V30 6199 H 585.359 -5.4566 -5.96054 0
M  V30 6200 H 588.945 -3.45245 -4.68291 0
M  V30 6201 H 587.825 -5.41551 -5.67179 0
M  V30 6202 N 585.328 1.53329 -0.364422 0
M  V30 6203 C 586.276 2.27212 0.497737 0
M  V30 6204 C 587.27 1.30146 1.08437 0
M  V30 6205 O 588.476 1.47778 1.0277 0
M  V30 6206 H 584.851 0.730329 0.179232 0
M  V30 6207 H 586.822 2.98037 -0.147182 0
M  V30 6208 C 585.571 3.07333 1.6261 0
M  V30 6209 H 584.894 3.81866 1.184 0
M  V30 6210 H 586.334 3.62209 2.20409 0
M  V30 6211 C 584.793 2.18102 2.56775 0
M  V30 6212 O 585.323 1.79104 3.59562 0
M  V30 6213 N 583.529 1.82759 2.25937 0
M  V30 6214 H 583.076 2.14671 1.42387 0
M  V30 6215 H 583.034 1.23342 2.89196 0
M  V30 6216 N 586.806 0.0935595 1.57322 0
M  V30 6217 C 587.736 -0.863062 2.16964 0
M  V30 6218 C 588.717 -1.29528 1.10256 0
M  V30 6219 O 589.902 -1.36245 1.38387 0
M  V30 6220 C 587.032 -2.12276 2.74875 0
M  V30 6221 C 585.986 -1.82921 3.86942 0
M  V30 6222 C 585.312 -3.15707 4.31548 0
M  V30 6223 C 586.612 -1.11737 5.10208 0
M  V30 6224 H 588.306 -0.366145 2.97153 0
M  V30 6225 H 585.852 -0.174673 1.42937 0
M  V30 6226 H 587.805 -2.79634 3.1525 0
M  V30 6227 H 586.529 -2.64248 1.91938 0
M  V30 6228 H 585.188 -1.17961 3.47103 0
M  V30 6229 H 584.836 -3.65563 3.45504 0
M  V30 6230 H 584.536 -2.96849 5.07104 0
M  V30 6231 H 586.06 -3.84226 4.74555 0
M  V30 6232 H 587.474 -1.69203 5.47762 0
M  V30 6233 H 585.871 -1.03064 5.91183 0
M  V30 6234 H 586.941 -0.0998818 4.84797 0
M  V30 6235 N 588.284 -1.56567 -0.180126 0
M  V30 6236 C 589.53 -1.81761 -0.899497 0
M  V30 6237 C 589.863 -0.670015 -1.82276 0
M  V30 6238 O 589.138 0.328575 -1.91705 0
M  V30 6239 C 589.421 -3.17296 -1.7028 0
M  V30 6240 C 589.274 -4.4257 -0.803255 0
M  V30 6241 C 590.593 -3.49678 -2.67233 0
M  V30 6242 H 587.712 -0.661192 -0.325567 0
M  V30 6243 H 590.354 -1.89272 -0.16612 0
M  V30 6244 H 588.504 -3.11023 -2.32802 0
M  V30 6245 H 590.176 -4.60902 -0.191585 0
M  V30 6246 H 588.419 -4.33658 -0.110796 0
M  V30 6247 H 589.09 -5.33935 -1.40064 0
M  V30 6248 H 591.566 -3.56347 -2.14839 0
M  V30 6249 H 590.442 -4.45605 -3.20511 0
M  V30 6250 H 590.703 -2.73932 -3.47007 0
M  V30 6251 N 589.762 0.448376 -1.51087 0
M  V30 6252 C 591.178 0.783984 -1.39017 0
M  V30 6253 C 591.378 1.96087 -0.463904 0
M  V30 6254 O 590.434 2.52357 0.0850534 0
M  V30 6255 C 591.747 1.07471 -2.80839 0
M  V30 6256 C 593.295 1.17981 -2.89913 0
M  V30 6257 C 593.77 1.50354 -4.32617 0
M  V30 6258 N 595.261 1.57301 -4.35673 0
M  V30 6259 C 595.996 1.839 -5.4311 0
M  V30 6260 N 595.492 2.08365 -6.60724 0
M  V30 6261 N 597.285 1.8559 -5.30578 0
M  V30 6262 H 589.436 -0.326881 -2.0987 0
M  V30 6263 H 591.699 -0.0838006 -0.944289 0
M  V30 6264 H 591.405 0.282768 -3.50561 0
M  V30 6265 H 591.279 2.00519 -3.19487 0
M  V30 6266 H 593.666 1.9624 -2.20395 0
M  V30 6267 H 593.747 0.228603 -2.54776 0
M  V30 6268 H 593.391 0.726273 -5.0268 0
M  V30 6269 H 593.321 2.46663 -4.65258 0
M  V30 6270 H 595.812 1.40342 -3.50874 0
M  V30 6271 H 596.125 2.27999 -7.38401 0
M  V30 6272 H 594.47 2.0571 -6.63859 0
M  V30 6273 H 597.661 1.65989 -4.37682 0
M  V30 6274 H 597.834 2.05983 -6.1439 0
M  V30 6275 N 591.24 1.41047 0.703093 0
M  V30 6276 C 592.187 1.42302 1.81711 0
M  V30 6277 C 593.157 0.278336 1.63751 0
M  V30 6278 O 594.342 0.478266 1.84709 0
M  V30 6279 C 591.482 1.30362 3.19531 0
M  V30 6280 C 590.595 2.54638 3.48975 0
M  V30 6281 C 589.73 2.35047 4.76368 0
M  V30 6282 C 588.769 3.54837 4.98756 0
M  V30 6283 N 587.906 3.34363 6.1737 0
M  V30 6284 H 592.746 2.37516 1.79973 0
M  V30 6285 H 590.283 1.1795 0.878983 0
M  V30 6286 H 592.241 1.21443 3.99134 0
M  V30 6287 H 590.871 0.387602 3.20464 0
M  V30 6288 H 589.923 2.74037 2.63833 0
M  V30 6289 H 591.235 3.43766 3.61423 0
M  V30 6290 H 590.389 2.23552 5.64012 0
M  V30 6291 H 589.128 1.43363 4.66153 0
M  V30 6292 H 588.133 3.66795 4.09563 0
M  V30 6293 H 589.358 4.47464 5.10835 0
M  V30 6294 H 587.304 2.45373 6.08382 0
M  V30 6295 H 587.221 4.17063 6.30551 0
M  V30 6296 H 588.489 3.26626 7.07768 0
M  V30 6297 N 592.718 -0.936591 1.26751 0
M  V30 6298 C 593.946 -1.71758 1.15355 0
M  V30 6299 C 594.361 -1.86549 -0.290683 0
M  V30 6300 O 593.718 -1.37616 -1.19868 0
M  V30 6301 C 593.769 -3.12193 1.82258 0
M  V30 6302 O 593.49 -2.98105 3.21038 0
M  V30 6303 C 594.991 -4.06485 1.76875 0
M  V30 6304 H 592.211 -0.537636 0.401483 0
M  V30 6305 H 594.755 -1.17382 1.67457 0
M  V30 6306 H 592.91 -3.63456 1.34083 0
M  V30 6307 H 593.324 -3.86824 3.54214 0
M  V30 6308 H 594.798 -5.02569 2.28316 0
M  V30 6309 H 595.275 -4.32986 0.736216 0
M  V30 6310 H 595.881 -3.61144 2.24623 0
M  V30 6311 N 594.196 -1.08629 -1.14182 0
M  V30 6312 C 595.421 -0.83902 -1.89671 0
M  V30 6313 C 595.846 0.603332 -1.78161 0
M  V30 6314 O 595.204 1.42301 -1.12339 0
M  V30 6315 C 595.252 -1.26854 -3.37551 0
M  V30 6316 O 594.356 -0.42188 -4.10236 0
M  V30 6317 H 593.697 -0.304545 -0.590041 0
M  V30 6318 H 596.227 -1.4483 -1.44518 0
M  V30 6319 H 596.237 -1.25038 -3.88368 0
M  V30 6320 H 594.912 -2.31901 -3.45246 0
M  V30 6321 H 593.489 -0.503654 -3.69483 0
M  V30 6322 N 595.674 1.31259 -0.872281 0
M  V30 6323 C 596.899 2.0133 -0.498099 0
M  V30 6324 C 597.324 1.65031 0.902568 0
M  V30 6325 O 596.682 0.860164 1.59596 0
M  V30 6326 C 596.73 3.54411 -0.665205 0
M  V30 6327 O 595.834 4.11347 0.294473 0
M  V30 6328 H 595.175 0.633844 -0.197832 0
M  V30 6329 H 597.705 1.67402 -1.17633 0
M  V30 6330 H 597.715 4.04147 -0.559373 0
M  V30 6331 H 596.39 3.80171 -1.68651 0
M  V30 6332 H 594.967 3.72624 0.143403 0
M  V30 6333 N 597.152 0.631951 1.44375 0
M  V30 6334 C 598.399 0.136767 2.02038 0
M  V30 6335 C 598.727 -1.24168 1.49709 0
M  V30 6336 O 597.982 -1.83809 0.671763 0
M  V30 6337 C 598.281 0.0735861 3.57324 0
M  V30 6338 C 597.947 1.39092 4.28911 0
M  V30 6339 C 596.609 1.75171 4.48184 0
M  V30 6340 C 598.961 2.26042 4.69632 0
M  V30 6341 C 596.289 2.97907 5.05439 0
M  V30 6342 C 598.641 3.4805 5.28246 0
M  V30 6343 C 597.305 3.84351 5.45738 0
M  V30 6344 H 596.575 0.0500466 0.739308 0
M  V30 6345 H 599.222 0.818429 1.7313 0
M  V30 6346 H 597.527 -0.691449 3.8565 0
M  V30 6347 H 599.224 -0.326091 3.99672 0
M  V30 6348 H 595.814 1.10015 4.1424 0
M  V30 6349 H 599.998 1.99463 4.54454 0
M  V30 6350 H 595.254 3.26108 5.17169 0
M  V30 6351 H 599.428 4.15658 5.5875 0
M  V30 6352 H 597.055 4.79538 5.8987 0
M  V30 6353 N 598.631 -1.53133 0.372548 0
M  V30 6354 C 599.561 -2.28876 -0.462412 0
M  V30 6355 C 600.542 -1.31583 -1.07796 0
M  V30 6356 O 601.727 -1.60461 -1.09389 0
M  V30 6357 C 598.857 -3.08317 -1.59868 0
M  V30 6358 C 597.811 -4.13355 -1.11003 0
M  V30 6359 C 597.137 -4.8092 -2.33708 0
M  V30 6360 C 598.437 -5.21955 -0.18983 0
M  V30 6361 H 600.131 -2.9892 0.169511 0
M  V30 6362 H 597.677 -1.43761 0.0829658 0
M  V30 6363 H 599.63 -3.60055 -2.18949 0
M  V30 6364 H 598.354 -2.35976 -2.25794 0
M  V30 6365 H 597.013 -3.62573 -0.541869 0
M  V30 6366 H 596.661 -4.05144 -2.98106 0
M  V30 6367 H 596.361 -5.51904 -2.01682 0
M  V30 6368 H 597.885 -5.35455 -2.93462 0
M  V30 6369 H 599.299 -5.69153 -0.688319 0
M  V30 6370 H 597.696 -6.00087 0.0398887 0
M  V30 6371 H 598.766 -4.78811 0.766057 0
M  V30 6372 N 600.109 -0.101901 -1.5727 0
M  V30 6373 C 601.386 0.602832 -1.86079 0
M  V30 6374 C 601.766 1.85912 -1 0
M  V30 6375 O 601.114 2.28379 -0.0742488 0
M  V30 6376 C 601.324 0.911694 -3.36881 0
M  V30 6377 C 602.672 1.2722 -4.05093 0
M  V30 6378 O 603.696 1.0025 -3.41802 0
M  V30 6379 O 602.555 1.7776 -5.16782 0
M  V30 6380 H 599.649 0.302366 -0.769743 0
M  V30 6381 H 602.195 -0.135113 -1.69161 0
M  V30 6382 H 600.967 0.0207256 -3.91295 0
M  V30 6383 H 600.59 1.70538 -3.59169 0
M  V30 6384 N 601.587 1.56661 0.17182 0
M  V30 6385 C 602.519 1.92934 1.2373 0
M  V30 6386 C 603.532 0.822385 1.40502 0
M  V30 6387 O 604.721 1.10083 1.40514 0
M  V30 6388 C 601.821 2.16651 2.60607 0
M  V30 6389 C 600.994 3.47878 2.6514 0
M  V30 6390 C 600.053 3.60429 3.83377 0
M  V30 6391 O 599.079 4.33051 3.69398 0
M  V30 6392 N 600.281 2.95241 4.99813 0
M  V30 6393 H 603.046 2.84931 0.929205 0
M  V30 6394 H 600.607 1.5781 0.361588 0
M  V30 6395 H 602.599 2.22312 3.38171 0
M  V30 6396 H 601.169 1.3104 2.83809 0
M  V30 6397 H 600.389 3.53879 1.73675 0
M  V30 6398 H 601.677 4.34232 2.6518 0
M  V30 6399 H 601.075 2.3611 5.14071 0
M  V30 6400 H 599.632 3.06499 5.75241 0
M  V30 6401 N 603.065 -0.440357 1.51323 0
M  V30 6402 C 604.481 -0.7766 1.39431 0
M  V30 6403 C 604.681 -1.95838 0.474296 0
M  V30 6404 O 603.737 -2.52398 -0.0716692 0
M  V30 6405 C 605.05 -1.05981 2.81405 0
M  V30 6406 C 606.598 -1.16442 2.90534 0
M  V30 6407 C 607.073 -1.48058 4.33408 0
M  V30 6408 N 608.564 -1.54988 4.36501 0
M  V30 6409 C 609.299 -1.81017 5.44078 0
M  V30 6410 N 608.795 -2.04858 6.61819 0
M  V30 6411 N 610.588 -1.82774 5.31554 0
M  V30 6412 H 602.739 0.338006 2.09693 0
M  V30 6413 H 605.002 0.0888072 0.943831 0
M  V30 6414 H 604.708 -0.264173 3.50706 0
M  V30 6415 H 604.582 -1.98822 3.20546 0
M  V30 6416 H 606.969 -1.95068 2.21432 0
M  V30 6417 H 607.05 -0.215088 2.54894 0
M  V30 6418 H 606.694 -0.699605 5.03059 0
M  V30 6419 H 606.624 -2.44192 4.66559 0
M  V30 6420 H 609.115 -1.38479 3.51613 0
M  V30 6421 H 609.428 -2.2408 7.396 0
M  V30 6422 H 607.773 -2.02187 6.6494 0
M  V30 6423 H 610.964 -1.63665 4.38556 0
M  V30 6424 H 611.137 -2.02722 6.15474 0
M  V30 6425 N 604.543 -1.41418 -0.695603 0
M  V30 6426 C 605.79 -1.40774 -1.45564 0
M  V30 6427 C 606.118 -0.0168604 -1.94493 0
M  V30 6428 O 605.373 0.971259 -1.69897 0
M  V30 6429 C 605.672 -2.36112 -2.68302 0
M  V30 6430 C 605.338 -3.82952 -2.38031 0
M  V30 6431 C 604 -4.22954 -2.29486 0
M  V30 6432 C 606.352 -4.75662 -2.13061 0
M  V30 6433 C 603.68 -5.53674 -1.94067 0
M  V30 6434 C 606.032 -6.06702 -1.79151 0
M  V30 6435 C 604.696 -6.45725 -1.69102 0
M  V30 6436 H 603.966 -0.515128 -0.532658 0
M  V30 6437 H 606.613 -1.74216 -0.795047 0
M  V30 6438 H 604.918 -1.95924 -3.39295 0
M  V30 6439 H 606.615 -2.32887 -3.26442 0
M  V30 6440 H 603.205 -3.5127 -2.45576 0
M  V30 6441 H 607.389 -4.45561 -2.18608 0
M  V30 6442 H 602.645 -5.8279 -1.8484 0
M  V30 6443 H 606.819 -6.78041 -1.5885 0
M  V30 6444 H 604.446 -7.46929 -1.41426 0
M  V30 6445 N 606.021 0.929856 -1.27246 0
M  V30 6446 C 606.953 2.03434 -1.0558 0
M  V30 6447 C 607.966 1.62795 -0.0125762 0
M  V30 6448 O 609.155 1.76685 -0.2539 0
M  V30 6449 C 606.255 3.33915 -0.57912 0
M  V30 6450 C 605.428 4.03259 -1.69415 0
M  V30 6451 C 604.487 5.12014 -1.21357 0
M  V30 6452 O 603.513 5.36097 -1.91282 0
M  V30 6453 N 604.715 5.8046 -0.0680622 0
M  V30 6454 H 607.48 2.22583 -2.00691 0
M  V30 6455 H 605.041 1.1001 -1.18783 0
M  V30 6456 H 607.033 4.03978 -0.241563 0
M  V30 6457 H 605.603 3.11355 0.278703 0
M  V30 6458 H 604.823 3.26958 -2.20209 0
M  V30 6459 H 606.111 4.46337 -2.44255 0
M  V30 6460 H 605.509 5.63345 0.515626 0
M  V30 6461 H 604.066 6.51461 0.210332 0
M  V30 6462 N 607.499 1.09233 1.13605 0
M  V30 6463 C 608.776 0.739633 1.81077 0
M  V30 6464 C 609.156 -0.775595 1.96336 0
M  V30 6465 O 608.504 -1.69726 1.52988 0
M  V30 6466 C 608.714 1.47636 3.16235 0
M  V30 6467 C 610.062 1.64087 3.91613 0
M  V30 6468 O 611.086 1.43871 3.25852 0
M  V30 6469 O 609.945 1.97511 5.0956 0
M  V30 6470 H 607.039 0.265464 0.783236 0
M  V30 6471 H 609.585 1.19441 1.20549 0
M  V30 6472 H 608.357 2.50818 3.00344 0
M  V30 6473 H 607.98 1.01362 3.84462 0
M  V30 6474 N 608.977 -1.30795 0.87923 0
M  V30 6475 C 609.94 -2.26563 0.346676 0
M  V30 6476 C 610.94 -1.52578 -0.507597 0
M  V30 6477 O 612.13 -1.71318 -0.315575 0
M  V30 6478 C 609.262 -3.37115 -0.506611 0
M  V30 6479 H 610.455 -2.75183 1.19223 0
M  V30 6480 H 608.008 -1.41886 0.655598 0
M  V30 6481 H 608.743 -2.93802 -1.37299 0
M  V30 6482 H 608.528 -3.91959 0.105218 0
M  V30 6483 H 610.018 -4.08412 -0.871192 0
M  V30 6484 N 610.455 -0.639598 -1.44038 0
M  V30 6485 C 611.732 -0.078012 -1.95444 0
M  V30 6486 C 612.112 1.39847 -1.58133 0
M  V30 6487 O 611.46 2.11714 -0.859614 0
M  V30 6488 C 611.67 -0.309832 -3.47622 0
M  V30 6489 C 613.018 -0.207521 -4.24093 0
M  V30 6490 O 614.042 -0.241653 -3.55379 0
M  V30 6491 O 612.901 -0.119641 -5.46369 0
M  V30 6492 H 609.995 0.0174534 -0.826816 0
M  V30 6493 H 612.541 -0.711891 -1.54046 0
M  V30 6494 H 611.313 -1.33401 -3.67858 0
M  V30 6495 H 610.936 0.357777 -3.95987 0
M  V30 6496 N 611.933 1.52934 -0.380664 0
M  V30 6497 C 612.843 2.29921 0.466192 0
M  V30 6498 C 613.859 1.36488 1.07922 0
M  V30 6499 O 615.035 1.69553 1.0869 0
M  V30 6500 C 612.1 3.08468 1.58266 0
M  V30 6501 C 611.161 4.17595 0.995627 0
M  V30 6502 C 610.394 4.92387 2.05889 0
M  V30 6503 O 610.617 4.67184 3.27254 0
M  V30 6504 O 609.551 5.77949 1.68102 0
M  V30 6505 H 613.377 3.03274 -0.160735 0
M  V30 6506 H 610.962 1.48698 -0.144617 0
M  V30 6507 H 612.844 3.57469 2.23145 0
M  V30 6508 H 611.519 2.37937 2.19471 0
M  V30 6509 H 610.426 3.72811 0.310332 0
M  V30 6510 H 611.759 4.90336 0.427918 0
M  V30 6511 N 613.412 0.11024 1.57214 0
M  V30 6512 C 614.359 -0.843195 2.14846 0
M  V30 6513 C 615.329 -1.26954 1.07107 0
M  V30 6514 O 616.514 -1.34861 1.34971 0
M  V30 6515 C 613.654 -2.09123 2.74521 0
M  V30 6516 C 612.767 -1.71404 3.96541 0
M  V30 6517 C 611.902 -2.91107 4.44331 0
M  V30 6518 C 610.941 -2.49586 5.58903 0
M  V30 6519 N 610.078 -3.62175 6.01477 0
M  V30 6520 H 614.918 -0.344886 2.95998 0
M  V30 6521 H 612.455 -0.15855 1.46243 0
M  V30 6522 H 614.413 -2.82234 3.07246 0
M  V30 6523 H 613.043 -2.56427 1.96074 0
M  V30 6524 H 612.095 -0.88201 3.70033 0
M  V30 6525 H 613.407 -1.36884 4.7965 0
M  V30 6526 H 612.561 -3.72454 4.78919 0
M  V30 6527 H 611.3 -3.28848 3.60153 0
M  V30 6528 H 610.305 -1.6667 5.23929 0
M  V30 6529 H 611.53 -2.12973 6.4484 0
M  V30 6530 H 609.476 -3.99605 5.20242 0
M  V30 6531 H 609.393 -3.3155 6.79419 0
M  V30 6532 H 610.661 -4.43987 6.407 0
M  V30 6533 N 614.89 -1.56749 -0.16351 0
M  V30 6534 C 616.137 -1.82434 -0.878866 0
M  V30 6535 C 616.465 -0.688557 -1.81904 0
M  V30 6536 O 615.72 0.323644 -1.93005 0
M  V30 6537 C 616.019 -3.14342 -1.70071 0
M  V30 6538 C 615.685 -4.41647 -0.908775 0
M  V30 6539 C 614.347 -4.76224 -0.690236 0
M  V30 6540 C 616.699 -5.19998 -0.353815 0
M  V30 6541 C 614.027 -5.86624 0.0942374 0
M  V30 6542 C 616.379 -6.3122 0.41761 0
M  V30 6543 C 615.043 -6.64358 0.646879 0
M  V30 6544 H 614.313 -0.667574 -0.3216 0
M  V30 6545 H 616.96 -1.90963 -0.14337 0
M  V30 6546 H 615.265 -3.0119 -2.50583 0
M  V30 6547 H 616.962 -3.31426 -2.25738 0
M  V30 6548 H 613.552 -4.1453 -1.08916 0
M  V30 6549 H 617.736 -4.93673 -0.509975 0
M  V30 6550 H 612.992 -6.10751 0.281529 0
M  V30 6551 H 617.166 -6.91133 0.854849 0
M  V30 6552 H 614.793 -7.49742 1.25662 0
M  V30 6553 N 616.368 0.432326 -1.51554 0
M  V30 6554 C 617.301 1.54525 -1.6792 0
M  V30 6555 C 618.279 1.53831 -0.526764 0
M  V30 6556 O 619.463 1.72884 -0.751233 0
M  V30 6557 C 616.59 2.931 -1.69736 0
M  V30 6558 C 615.636 3.11799 -2.91005 0
M  V30 6559 S 616.469 2.87565 -4.51737 0
M  V30 6560 C 617.625 4.28412 -4.56305 0
M  V30 6561 H 617.858 1.4041 -2.62054 0
M  V30 6562 H 615.391 0.622357 -1.41301 0
M  V30 6563 H 617.349 3.72974 -1.71467 0
M  V30 6564 H 616.01 3.04574 -0.767705 0
M  V30 6565 H 615.203 4.13127 -2.8869 0
M  V30 6566 H 614.805 2.39757 -2.87041 0
M  V30 6567 H 617.097 5.21692 -4.32254 0
M  V30 6568 H 618.04 4.35758 -5.58141 0
M  V30 6569 H 618.448 4.12301 -3.85576 0
M  V30 6570 N 617.846 1.41785 0.688094 0
M  V30 6571 C 618.756 1.46596 1.83158 0
M  V30 6572 C 619.772 0.355862 1.70322 0
M  V30 6573 O 620.948 0.604737 1.92106 0
M  V30 6574 C 618.013 1.35322 3.192 0
M  V30 6575 C 617.074 2.56711 3.4409 0
M  V30 6576 C 616.307 2.45965 4.73642 0
M  V30 6577 O 616.53 1.48827 5.50642 0
M  V30 6578 O 615.464 3.35859 4.99482 0
M  V30 6579 H 619.29 2.43083 1.82056 0
M  V30 6580 H 616.875 1.23404 0.842126 0
M  V30 6581 H 618.757 1.31347 4.00407 0
M  V30 6582 H 617.432 0.419536 3.2097 0
M  V30 6583 H 616.339 2.66262 2.62784 0
M  V30 6584 H 617.672 3.48933 3.47141 0
M  V30 6585 N 619.324 -0.923095 1.27737 0
M  V30 6586 C 620.57 -1.67375 1.14514 0
M  V30 6587 C 620.903 -1.91751 -0.307424 0
M  V30 6588 O 620.178 -1.51119 -1.22447 0
M  V30 6589 C 620.461 -3.03745 1.9342 0
M  V30 6590 C 620.314 -2.86581 3.46686 0
M  V30 6591 C 621.633 -4.04144 1.74228 0
M  V30 6592 H 618.752 -0.607427 0.417374 0
M  V30 6593 H 621.394 -1.07089 1.56946 0
M  V30 6594 H 619.544 -3.55204 1.5736 0
M  V30 6595 H 621.216 -2.42203 3.92601 0
M  V30 6596 H 619.459 -2.21829 3.72793 0
M  V30 6597 H 620.13 -3.83381 3.97143 0
M  V30 6598 H 622.606 -3.61712 2.05678 0
M  V30 6599 H 621.482 -4.97543 2.31824 0
M  V30 6600 H 621.743 -4.36661 0.691373 0
M  V30 6601 N 620.802 -1.09834 -1.13024 0
M  V30 6602 C 621.735 -0.685453 -2.17662 0
M  V30 6603 C 622.713 0.310142 -1.59615 0
M  V30 6604 O 623.897 0.21052 -1.87321 0
M  V30 6605 C 621.024 -0.0104476 -3.38698 0
M  V30 6606 C 620.07 -0.968522 -4.15358 0
M  V30 6607 S 620.903 -2.48272 -4.74469 0
M  V30 6608 C 622.059 -1.82025 -5.98847 0
M  V30 6609 H 622.292 -1.57187 -2.52348 0
M  V30 6610 H 619.825 -0.914728 -1.24387 0
M  V30 6611 H 621.783 0.372694 -4.08805 0
M  V30 6612 H 620.444 0.852673 -3.02305 0
M  V30 6613 H 619.637 -0.443373 -5.02046 0
M  V30 6614 H 619.239 -1.29327 -3.50928 0
M  V30 6615 H 621.531 -1.14678 -6.67724 0
M  V30 6616 H 622.474 -2.66645 -6.55977 0
M  V30 6617 H 622.882 -1.2874 -5.49624 0
M  V30 6618 N 622.28 1.30327 -0.886154 0
M  V30 6619 C 623.51 1.99964 -0.519421 0
M  V30 6620 C 623.918 1.66593 0.89686 0
M  V30 6621 O 623.261 0.899886 1.60149 0
M  V30 6622 C 623.323 3.54187 -0.615795 0
M  V30 6623 C 622.987 4.11078 -1.9966 0
M  V30 6624 C 623.984 4.26985 -2.96614 0
M  V30 6625 C 621.669 4.46429 -2.30231 0
M  V30 6626 C 623.663 4.77456 -4.22273 0
M  V30 6627 C 621.35 4.966 -3.56135 0
M  V30 6628 C 622.348 5.12066 -4.5197 0
M  V30 6629 O 622.036 5.61154 -5.7564 0
M  V30 6630 H 621.768 0.645979 -0.199217 0
M  V30 6631 H 624.322 1.67154 -1.19368 0
M  V30 6632 H 622.552 3.86528 0.115448 0
M  V30 6633 H 624.241 4.05065 -0.26017 0
M  V30 6634 H 625.007 3.99975 -2.74308 0
M  V30 6635 H 620.886 4.33658 -1.56404 0
M  V30 6636 H 624.43 4.89444 -4.97082 0
M  V30 6637 H 620.327 5.23045 -3.78277 0
M  V30 6638 H 621.095 5.79494 -5.78039 0
M  V30 6639 N 623.758 0.647228 1.43697 0
M  V30 6640 C 625.006 0.157876 2.01482 0
M  V30 6641 C 625.327 -1.23039 1.51282 0
M  V30 6642 O 624.597 -1.82071 0.722982 0
M  V30 6643 H 623.177 0.0553745 0.744945 0
M  V30 6644 H 625.839 0.83755 1.75986 0
M  V30 6645 H 624.935 0.137895 3.11795 0
M  V30 6646 N 625.236 -1.5273 0.388769 0
M  V30 6647 C 626.464 -2.05992 -0.193677 0
M  V30 6648 C 626.879 -1.26053 -1.40557 0
M  V30 6649 O 626.236 -0.307049 -1.79898 0
M  V30 6650 C 626.287 -3.57068 -0.564321 0
M  V30 6651 O 626.008 -4.3398 0.599422 0
M  V30 6652 C 627.509 -4.26674 -1.20269 0
M  V30 6653 H 624.729 -0.670358 -0.0293445 0
M  V30 6654 H 627.273 -1.96857 0.553844 0
M  V30 6655 H 625.428 -3.66277 -1.26174 0
M  V30 6656 H 625.842 -5.2367 0.294895 0
M  V30 6657 H 627.316 -5.33625 -1.4124 0
M  V30 6658 H 627.793 -3.81854 -2.16989 0
M  V30 6659 H 628.399 -4.2178 -0.546047 0
M  V30 6660 N 626.714 -0.118576 -1.57153 0
M  V30 6661 C 627.661 0.831789 -2.1529 0
M  V30 6662 C 628.631 1.26385 -1.07778 0
M  V30 6663 O 629.816 1.34144 -1.35684 0
M  V30 6664 C 626.956 2.07664 -2.75626 0
M  V30 6665 C 626.069 1.69298 -3.97444 0
M  V30 6666 C 625.204 2.88747 -4.45868 0
M  V30 6667 C 624.243 2.46619 -5.60219 0
M  V30 6668 N 623.38 3.5898 -6.03389 0
M  V30 6669 H 628.22 0.329183 -2.96176 0
M  V30 6670 H 625.757 0.150792 -1.46325 0
M  V30 6671 H 627.715 2.80601 -3.08738 0
M  V30 6672 H 626.345 2.55384 -1.97431 0
M  V30 6673 H 625.397 0.862374 -3.70496 0
M  V30 6674 H 626.709 1.34338 -4.80369 0
M  V30 6675 H 625.863 3.69909 -4.80887 0
M  V30 6676 H 624.602 3.26933 -3.61892 0
M  V30 6677 H 623.607 1.63889 -5.24805 0
M  V30 6678 H 624.832 2.0955 -6.45961 0
M  V30 6679 H 622.778 3.9684 -5.22354 0
M  V30 6680 H 622.695 3.27942 -6.81168 0
M  V30 6681 H 623.963 4.40583 -6.43045 0
M  V30 6682 N 628.193 1.56834 0.155195 0
M  V30 6683 C 629.14 1.97646 1.19184 0
M  V30 6684 C 630.11 0.842788 1.4313 0
M  V30 6685 O 631.295 1.1042 1.55602 0
M  V30 6686 C 628.435 2.35527 2.52232 0
M  V30 6687 C 627.548 3.62147 2.35529 0
M  V30 6688 C 626.683 3.89167 3.61555 0
M  V30 6689 C 625.722 5.09084 3.39853 0
M  V30 6690 N 624.859 5.32156 4.5799 0
M  V30 6691 H 629.699 2.8601 0.836802 0
M  V30 6692 H 627.236 1.41507 0.401758 0
M  V30 6693 H 629.194 2.55516 3.29799 0
M  V30 6694 H 627.824 1.50253 2.85699 0
M  V30 6695 H 626.876 3.4998 1.49057 0
M  V30 6696 H 628.188 4.49871 2.15448 0
M  V30 6697 H 627.342 4.09611 4.47553 0
M  V30 6698 H 626.081 2.9985 3.84632 0
M  V30 6699 H 625.086 4.88522 2.52243 0
M  V30 6700 H 626.311 5.99947 3.18183 0
M  V30 6701 H 624.257 4.45791 4.81255 0
M  V30 6702 H 624.174 6.14133 4.40882 0
M  V30 6703 H 625.442 5.57091 5.45225 0
M  V30 6704 N 629.671 -0.424282 1.51781 0
M  V30 6705 C 630.899 -1.1947 1.68921 0
M  V30 6706 C 631.314 -1.84683 0.39213 0
M  V30 6707 O 630.671 -1.71261 -0.630554 0
M  V30 6708 C 630.722 -2.26909 2.81416 0
M  V30 6709 O 630.443 -1.64361 4.061 0
M  V30 6710 C 631.944 -3.16945 3.09937 0
M  V30 6711 H 629.164 -0.359591 0.566511 0
M  V30 6712 H 631.708 -0.501139 1.98265 0
M  V30 6713 H 629.863 -2.91959 2.54635 0
M  V30 6714 H 630.277 -2.35468 4.68674 0
M  V30 6715 H 631.751 -3.88437 3.922 0
M  V30 6716 H 632.228 -3.78451 2.22871 0
M  V30 6717 H 632.834 -2.57581 3.38426 0
M  V30 6718 N 631.149 -1.42148 -0.680565 0
M  V30 6719 C 632.389 -1.4379 -1.45271 0
M  V30 6720 C 632.753 -0.0504426 -1.91934 0
M  V30 6721 O 633.954 0.0583916 -2.68737 0
M  V30 6722 C 632.225 -2.42904 -2.62168 0
M  V30 6723 S 633.784 -2.63201 -3.51099 0
M  V30 6724 H 630.602 -0.509185 -0.496237 0
M  V30 6725 H 633.204 -1.78706 -0.792744 0
M  V30 6726 H 631.908 -3.4249 -2.26116 0
M  V30 6727 H 631.439 -2.09394 -3.33043 0
M  V30 6728 H 633.454 -1.91068 -4.57938 0
M  V30 6729 N 632.627 0.916307 -1.28225 0
M  V30 6730 C 633.557 2.0352 -1.14464 0
M  V30 6731 C 634.538 1.70045 -0.0430844 0
M  V30 6732 O 635.723 1.92954 -0.219619 0
M  V30 6733 C 632.853 3.37889 -0.803027 0
M  V30 6734 C 631.807 3.85516 -1.85908 0
M  V30 6735 C 631.133 5.1682 -1.37116 0
M  V30 6736 C 632.433 4.07655 -3.26519 0
M  V30 6737 H 634.127 2.1529 -2.08064 0
M  V30 6738 H 631.673 1.03446 -1.00174 0
M  V30 6739 H 633.626 4.15654 -0.693537 0
M  V30 6740 H 632.35 3.26164 0.168674 0
M  V30 6741 H 631.009 3.09953 -1.95767 0
M  V30 6742 H 630.657 5.01497 -0.38859 0
M  V30 6743 H 630.357 5.49657 -2.07728 0
M  V30 6744 H 631.881 5.97143 -1.27484 0
M  V30 6745 H 633.295 4.75953 -3.19596 0
M  V30 6746 H 631.692 4.51818 -3.94943 0
M  V30 6747 H 632.762 3.12553 -3.70727 0
M  V30 6748 N 634.105 1.10431 1.1244 0
M  V30 6749 C 635.516 0.864439 1.65482 0
M  V30 6750 C 635.867 -0.60527 1.8663 0
M  V30 6751 O 634.992 -1.46492 1.59276 0
M  V30 6752 C 635.587 1.56267 3.0061 0
M  V30 6753 C 634.146 1.3695 3.50602 0
M  V30 6754 C 633.293 1.61209 2.25626 0
M  V30 6755 H 636.244 1.26203 0.962209 0
M  V30 6756 H 636.265 1.00166 3.67079 0
M  V30 6757 H 635.777 2.63231 2.85186 0
M  V30 6758 H 633.878 0.321481 3.71211 0
M  V30 6759 H 633.991 2.11143 4.30064 0
M  V30 6760 H 632.355 1.03482 2.32731 0
M  V30 6761 H 633.138 2.69425 2.12756 0
M  V30 6762 N 635.583 -1.29855 0.893053 0
M  V30 6763 C 636.999 -1.48366 0.588199 0
M  V30 6764 C 637.199 -1.81654 -0.872018 0
M  V30 6765 O 636.255 -1.909 -1.65268 0
M  V30 6766 C 637.568 -2.60136 1.5083 0
M  V30 6767 C 639.116 -2.74014 1.51279 0
M  V30 6768 C 639.591 -3.88905 2.41902 0
M  V30 6769 N 641.082 -3.96228 2.39911 0
M  V30 6770 C 641.817 -4.84458 3.06738 0
M  V30 6771 N 641.313 -5.77426 3.8282 0
M  V30 6772 N 643.106 -4.77894 2.95929 0
M  V30 6773 H 635.257 -1.06522 1.83757 0
M  V30 6774 H 637.52 -0.528495 0.787018 0
M  V30 6775 H 637.226 -2.42383 2.54839 0
M  V30 6776 H 637.1 -3.56793 1.22388 0
M  V30 6777 H 639.487 -2.91167 0.480179 0
M  V30 6778 H 639.568 -1.77952 1.83757 0
M  V30 6779 H 639.212 -3.72508 3.45253 0
M  V30 6780 H 639.142 -4.84322 2.06737 0
M  V30 6781 H 641.633 -3.29728 1.84629 0
M  V30 6782 H 641.946 -6.41529 4.30883 0
M  V30 6783 H 640.291 -5.77332 3.86927 0
M  V30 6784 H 643.482 -4.04248 2.36012 0
M  V30 6785 H 643.655 -5.46444 3.48286 0
M  V30 6786 N 637.061 -0.65484 -1.43351 0
M  V30 6787 C 638.307 -0.177749 -2.02622 0
M  V30 6788 C 638.662 1.19553 -1.50748 0
M  V30 6789 O 637.955 1.78683 -0.691599 0
M  V30 6790 C 638.149 -0.130424 -3.57162 0
M  V30 6791 C 637.978 -1.49757 -4.24032 0
M  V30 6792 C 636.748 -2.09036 -4.60035 0
M  V30 6793 C 638.946 -2.4363 -4.52934 0
M  V30 6794 N 636.928 -3.3874 -5.11985 0
M  V30 6795 C 638.299 -3.57968 -5.0622 0
M  V30 6796 C 640.354 -2.42412 -4.34903 0
M  V30 6797 C 639.057 -4.71314 -5.43374 0
M  V30 6798 C 641.083 -3.5484 -4.7312 0
M  V30 6799 C 640.445 -4.67903 -5.26541 0
M  V30 6800 H 636.544 -0.10951 -0.774294 0
M  V30 6801 H 639.128 -0.863495 -1.74505 0
M  V30 6802 H 637.299 0.524671 -3.8484 0
M  V30 6803 H 639.031 0.35769 -4.03116 0
M  V30 6804 H 635.786 -1.61729 -4.4513 0
M  V30 6805 H 636.21 -4.05116 -5.42412 0
M  V30 6806 H 640.852 -1.56236 -3.92874 0
M  V30 6807 H 638.57 -5.5818 -5.84346 0
M  V30 6808 H 642.156 -3.55101 -4.60863 0
M  V30 6809 H 641.036 -5.5346 -5.55564 0
M  V30 6810 N 638.539 1.52521 -0.396863 0
M  V30 6811 C 639.486 2.26671 0.434624 0
M  V30 6812 C 640.456 1.28584 1.05144 0
M  V30 6813 O 641.641 1.57426 1.07804 0
M  V30 6814 C 638.781 3.08234 1.55196 0
M  V30 6815 C 637.894 4.21261 0.957262 0
M  V30 6816 C 637.029 4.90205 2.04627 0
M  V30 6817 C 636.068 5.95213 1.42787 0
M  V30 6818 N 635.205 6.57723 2.45651 0
M  V30 6819 H 640.045 2.973 -0.204139 0
M  V30 6820 H 637.582 1.46669 -0.112505 0
M  V30 6821 H 639.54 3.53819 2.2106 0
M  V30 6822 H 638.17 2.398 2.16092 0
M  V30 6823 H 637.222 3.79935 0.188005 0
M  V30 6824 H 638.534 4.96624 0.465416 0
M  V30 6825 H 637.688 5.39133 2.78246 0
M  V30 6826 H 636.427 4.14383 2.57174 0
M  V30 6827 H 635.432 5.45616 0.676968 0
M  V30 6828 H 636.657 6.72972 0.910255 0
M  V30 6829 H 634.603 5.84737 2.97353 0
M  V30 6830 H 634.52 7.28723 2.01243 0
M  V30 6831 H 635.788 7.11293 3.18876 0
M  V30 6832 N 640.017 0.126909 1.57088 0
M  V30 6833 C 641.264 -0.529168 1.95464 0
M  V30 6834 C 641.592 -1.6618 1.01067 0
M  V30 6835 O 640.847 -1.95667 0.0360254 0
M  V30 6836 C 641.146 -1.095 3.40212 0
M  V30 6837 C 640.812 -0.0829015 4.50824 0
M  V30 6838 C 639.474 0.195377 4.80803 0
M  V30 6839 C 641.826 0.606411 5.1766 0
M  V30 6840 C 639.154 1.16912 5.74933 0
M  V30 6841 C 641.506 1.56884 6.12838 0
M  V30 6842 C 640.17 1.85502 6.41206 0
M  V30 6843 H 639.44 -0.193636 0.715252 0
M  V30 6844 H 642.087 0.209489 1.90351 0
M  V30 6845 H 640.392 -1.91058 3.42059 0
M  V30 6846 H 642.089 -1.61087 3.67222 0
M  V30 6847 H 638.679 -0.309979 4.27478 0
M  V30 6848 H 642.863 0.404597 4.94648 0
M  V30 6849 H 638.119 1.3975 5.95214 0
M  V30 6850 H 642.293 2.10859 6.6371 0
M  V30 6851 H 639.92 2.61109 7.13951 0
M  V30 6852 N 641.495 -1.56914 -0.146875 0
M  V30 6853 C 642.735 -1.85163 -0.86568 0
M  V30 6854 C 643.099 -0.711215 -1.78342 0
M  V30 6855 O 644.3 -0.874754 -2.54168 0
M  V30 6856 C 642.571 -3.18593 -1.61967 0
M  V30 6857 S 644.13 -3.68397 -2.38388 0
M  V30 6858 H 640.948 -0.6494 -0.289483 0
M  V30 6859 H 643.55 -1.95096 -0.125679 0
M  V30 6860 H 642.254 -3.99562 -0.93694 0
M  V30 6861 H 641.785 -3.11666 -2.40058 0
M  V30 6862 H 643.8 -3.37672 -3.63582 0
M  V30 6863 N 642.974 0.416227 -1.52004 0
M  V30 6864 C 644.22 1.16555 -1.6596 0
M  V30 6865 C 644.553 1.90347 -0.384906 0
M  V30 6866 O 643.828 1.84474 0.616405 0
M  V30 6867 C 644.111 2.1657 -2.87696 0
M  V30 6868 C 643.964 1.46722 -4.25197 0
M  V30 6869 C 645.283 3.17321 -3.04951 0
M  V30 6870 H 642.402 0.422369 -0.603965 0
M  V30 6871 H 645.044 0.452141 -1.84542 0
M  V30 6872 H 643.194 2.77411 -2.71985 0
M  V30 6873 H 644.866 0.89056 -4.52622 0
M  V30 6874 H 643.109 0.769263 -4.26925 0
M  V30 6875 H 643.78 2.19665 -5.0641 0
M  V30 6876 H 646.256 2.66552 -3.19514 0
M  V30 6877 H 645.132 3.84573 -3.91656 0
M  V30 6878 H 645.393 3.84643 -2.17951 0
M  V30 6879 N 644.452 1.42507 0.673017 0
M  V30 6880 C 645.677 1.4668 1.46627 0
M  V30 6881 C 646.102 0.080066 1.8793 0
M  V30 6882 O 645.46 -0.921879 1.56112 0
M  V30 6883 C 645.508 2.40091 2.69051 0
M  V30 6884 O 644.612 1.8735 3.67387 0
M  V30 6885 H 643.953 0.496908 0.44043 0
M  V30 6886 H 646.483 1.87215 0.825334 0
M  V30 6887 H 646.493 2.56731 3.17101 0
M  V30 6888 H 645.168 3.4084 2.3833 0
M  V30 6889 H 643.745 1.80274 3.26429 0
M  V30 6890 N 645.93 -0.909495 1.28709 0
M  V30 6891 C 647.207 -1.63865 1.06806 0
M  V30 6892 C 647.587 -2.07445 -0.391143 0
M  V30 6893 O 646.935 -1.82269 -1.37805 0
M  V30 6894 C 647.145 -2.82692 2.04661 0
M  V30 6895 C 648.493 -3.5361 2.35042 0
M  V30 6896 O 649.517 -2.92847 2.02779 0
M  V30 6897 O 648.376 -4.63131 2.90124 0
M  V30 6898 H 645.47 -0.719065 0.408502 0
M  V30 6899 H 648.016 -0.958424 1.40044 0
M  V30 6900 H 646.788 -2.47614 3.0299 0
M  V30 6901 H 646.411 -3.58426 1.72095 0
M  V30 6902 N 647.408 -1.11026 -1.11852 0
M  V30 6903 C 648.636 -0.878818 -1.87308 0
M  V30 6904 C 649.051 0.57111 -1.79955 0
M  V30 6905 O 648.408 1.39409 -1.17777 0
M  V30 6906 C 648.459 -1.3264 -3.36287 0
M  V30 6907 O 648.18 -2.71948 -3.43476 0
M  V30 6908 C 649.681 -1.12974 -4.28663 0
M  V30 6909 H 646.901 -0.315015 -0.592458 0
M  V30 6910 H 649.445 -1.47649 -1.41492 0
M  V30 6911 H 647.6 -0.772269 -3.79625 0
M  V30 6912 H 648.014 -2.91241 -4.3621 0
M  V30 6913 H 649.488 -1.49198 -5.31454 0
M  V30 6914 H 649.965 -0.0689127 -4.39146 0
M  V30 6915 H 650.571 -1.67064 -3.91113 0
M  V30 6916 N 648.886 1.2938 -0.899927 0
M  V30 6917 C 649.796 2.31462 -0.382437 0
M  V30 6918 C 650.812 1.65956 0.522929 0
M  V30 6919 O 651.988 1.97131 0.412454 0
M  V30 6920 C 649.053 3.44595 0.381472 0
M  V30 6921 C 648.114 4.25692 -0.555444 0
M  V30 6922 C 647.347 5.33422 0.172102 0
M  V30 6923 O 647.57 5.53053 1.396 0
M  V30 6924 O 646.504 5.99939 -0.485491 0
M  V30 6925 H 650.33 2.77706 -1.22934 0
M  V30 6926 H 647.915 1.33821 -0.664259 0
M  V30 6927 H 649.797 4.13474 0.813442 0
M  V30 6928 H 648.472 3.00458 1.20443 0
M  V30 6929 H 647.379 3.59453 -1.03653 0
M  V30 6930 H 648.712 4.73471 -1.34483 0
M  V30 6931 N 650.364 0.662433 1.43002 0
M  V30 6932 C 651.312 -0.035345 2.32573 0
M  V30 6933 C 652.306 -0.803505 1.49131 0
M  V30 6934 O 653.512 -0.712865 1.65282 0
M  V30 6935 H 649.887 -0.0302194 0.751393 0
M  V30 6936 H 651.858 0.737686 2.89138 0
M  V30 6937 C 650.607 -0.981575 3.33557 0
M  V30 6938 H 649.93 -0.399914 3.97795 0
M  V30 6939 H 651.37 -1.43873 3.98844 0
M  V30 6940 C 649.829 -2.08204 2.64863 0
M  V30 6941 O 650.359 -3.16698 2.47113 0
M  V30 6942 N 648.565 -1.85022 2.24088 0
M  V30 6943 H 648.112 -0.967909 2.38724 0
M  V30 6944 H 648.07 -2.58845 1.78457 0
M  V30 6945 N 651.842 -1.52309 0.404946 0
M  V30 6946 C 652.79 -2.28452 -0.437321 0
M  V30 6947 C 653.784 -1.32975 -1.04948 0
M  V30 6948 O 654.99 -1.50451 -0.988159 0
M  V30 6949 H 651.365 -0.734824 -0.159805 0
M  V30 6950 H 653.336 -2.97542 0.22615 0
M  V30 6951 C 652.085 -3.11536 -1.54404 0
M  V30 6952 H 651.408 -3.84871 -1.08233 0
M  V30 6953 H 652.848 -3.67926 -2.10729 0
M  V30 6954 C 651.307 -2.24833 -2.50902 0
M  V30 6955 O 651.837 -1.88574 -3.54687 0
M  V30 6956 N 650.043 -1.88685 -2.21012 0
M  V30 6957 H 649.59 -2.18371 -1.36646 0
M  V30 6958 H 649.548 -1.30966 -2.85824 0
M  V30 6959 N 653.32 -0.135238 -1.57019 0
M  V30 6960 C 654.25 0.805235 -2.19176 0
M  V30 6961 C 655.231 1.2656 -1.13651 0
M  V30 6962 O 656.416 1.32528 -1.4195 0
M  V30 6963 C 653.546 2.04914 -2.80406 0
M  V30 6964 C 652.5 1.72598 -3.91655 0
M  V30 6965 C 651.826 3.04154 -4.39766 0
M  V30 6966 C 653.126 0.981709 -5.12991 0
M  V30 6967 H 654.82 0.287232 -2.98019 0
M  V30 6968 H 652.366 0.136714 -1.4335 0
M  V30 6969 H 654.319 2.71178 -3.22553 0
M  V30 6970 H 653.043 2.59067 -1.98877 0
M  V30 6971 H 651.702 1.08717 -3.50109 0
M  V30 6972 H 651.35 3.56274 -3.55075 0
M  V30 6973 H 651.05 2.83299 -5.14796 0
M  V30 6974 H 652.574 3.71509 -4.84576 0
M  V30 6975 H 653.988 1.5462 -5.52056 0
M  V30 6976 H 652.385 0.873533 -5.93708 0
M  V30 6977 H 653.455 -0.0286887 -4.84892 0
M  V30 6978 N 654.798 1.5699 0.138552 0
M  V30 6979 C 656.046 1.83446 0.848053 0
M  V30 6980 C 656.367 0.71744 1.81322 0
M  V30 6981 O 655.637 -0.260228 1.94164 0
M  V30 6982 H 654.217 0.676792 0.316166 0
M  V30 6983 H 656.879 1.94462 0.130538 0
M  V30 6984 H 655.975 2.78677 1.40518 0
M  V30 6985 N 656.276 -0.40816 1.52223 0
M  V30 6986 C 657.523 -1.15502 1.66329 0
M  V30 6987 C 657.851 -1.90474 0.393701 0
M  V30 6988 O 657.106 -1.85507 -0.623356 0
M  V30 6989 C 657.405 -2.17422 2.83659 0
M  V30 6990 C 657.071 -1.5925 4.21841 0
M  V30 6991 C 655.733 -1.4311 4.59427 0
M  V30 6992 C 658.085 -1.16776 5.0795 0
M  V30 6993 C 655.413 -0.830148 5.80797 0
M  V30 6994 C 657.765 -0.580988 6.29926 0
M  V30 6995 C 656.429 -0.406729 6.6626 0
M  V30 6996 H 655.699 -0.422653 0.608642 0
M  V30 6997 H 658.346 -0.442114 1.86327 0
M  V30 6998 H 656.651 -2.94861 2.58001 0
M  V30 6999 H 658.348 -2.75084 2.9177 0
M  V30 7000 H 654.938 -1.72796 3.92224 0
M  V30 7001 H 659.122 -1.28055 4.79495 0
M  V30 7002 H 654.378 -0.68316 6.07571 0
M  V30 7003 H 658.552 -0.243488 6.95974 0
M  V30 7004 H 656.179 0.0610366 7.60175 0
M  V30 7005 N 657.755 -1.42862 -0.66545 0
M  V30 7006 C 658.718 -1.46756 -1.76055 0
M  V30 7007 C 659.718 -0.353866 -1.56858 0
M  V30 7008 O 660.908 -0.615099 -1.62979 0
M  V30 7009 C 658.04 -1.30829 -3.14796 0
M  V30 7010 H 659.233 -2.44271 -1.73987 0
M  V30 7011 H 656.786 -1.29447 -0.875965 0
M  V30 7012 H 657.521 -0.342733 -3.22484 0
M  V30 7013 H 657.306 -2.11551 -3.30134 0
M  V30 7014 H 658.796 -1.36458 -3.94676 0
M  V30 7015 N 659.233 0.902656 -1.29189 0
M  V30 7016 C 660.163 2.02294 -1.16616 0
M  V30 7017 C 661.144 1.6999 -0.0611175 0
M  V30 7018 O 662.329 1.9271 -0.240072 0
M  V30 7019 C 659.459 3.37018 -0.83882 0
M  V30 7020 C 658.413 3.83522 -1.89986 0
M  V30 7021 C 657.739 5.15337 -1.42589 0
M  V30 7022 C 659.039 4.04169 -3.30824 0
M  V30 7023 H 660.733 2.13071 -2.10336 0
M  V30 7024 H 658.279 1.02378 -1.01266 0
M  V30 7025 H 660.232 4.14895 -0.737584 0
M  V30 7026 H 658.956 3.26325 0.134071 0
M  V30 7027 H 657.615 3.07859 -1.99043 0
M  V30 7028 H 657.263 5.01056 -0.441759 0
M  V30 7029 H 656.963 5.47423 -2.13547 0
M  V30 7030 H 658.487 5.95758 -1.3381 0
M  V30 7031 H 659.901 4.72537 -3.24626 0
M  V30 7032 H 658.298 4.47604 -3.99713 0
M  V30 7033 H 659.368 3.08604 -3.74021 0
M  V30 7034 N 660.711 1.11618 1.11262 0
M  V30 7035 C 661.959 0.864469 1.82678 0
M  V30 7036 C 662.28 -0.611564 1.85162 0
M  V30 7037 O 661.55 -1.44429 1.32352 0
M  V30 7038 H 660.13 0.316821 0.676486 0
M  V30 7039 H 662.792 1.40894 1.34666 0
M  V30 7040 H 661.888 1.23832 2.86482 0
M  V30 7041 N 662.189 -1.289 0.906776 0
M  V30 7042 C 663.6 -1.77336 0.58384 0
M  V30 7043 C 663.951 -1.74304 -0.900697 0
M  V30 7044 O 663.076 -1.33335 -1.70443 0
M  V30 7045 C 663.671 -3.22019 1.05304 0
M  V30 7046 C 662.23 -3.68205 0.781148 0
M  V30 7047 C 661.377 -2.48837 1.22373 0
M  V30 7048 H 664.328 -1.15462 1.08877 0
M  V30 7049 H 664.349 -3.78481 0.391414 0
M  V30 7050 H 663.861 -3.24194 2.13353 0
M  V30 7051 H 661.962 -3.71497 -0.28643 0
M  V30 7052 H 662.075 -4.58675 1.384 0
M  V30 7053 H 660.439 -2.46461 0.642594 0
M  V30 7054 H 661.222 -2.53736 2.31242 0
M  V30 7055 N 663.667 -0.670007 -1.42649 0
M  V30 7056 C 664.6 0.0613623 -2.28117 0
M  V30 7057 C 665.578 0.813414 -1.40792 0
M  V30 7058 O 666.762 0.809529 -1.70232 0
M  V30 7059 C 663.889 1.09399 -3.20546 0
M  V30 7060 C 662.935 0.438064 -4.24244 0
M  V30 7061 S 663.768 -0.800808 -5.29478 0
M  V30 7062 C 664.924 0.23086 -6.25474 0
M  V30 7063 H 665.157 -0.663606 -2.89799 0
M  V30 7064 H 662.69 -0.45939 -1.47407 0
M  V30 7065 H 664.648 1.68469 -3.74337 0
M  V30 7066 H 663.309 1.79137 -2.58009 0
M  V30 7067 H 662.502 1.21707 -4.89084 0
M  V30 7068 H 662.104 -0.0789346 -3.73917 0
M  V30 7069 H 664.396 1.09204 -6.68641 0
M  V30 7070 H 665.339 -0.382945 -7.07064 0
M  V30 7071 H 665.747 0.574191 -5.61572 0
M  V30 7072 N 665.145 1.52092 -0.413018 0
M  V30 7073 C 666.392 2.01855 0.161497 0
M  V30 7074 C 666.72 1.29845 1.44812 0
M  V30 7075 O 665.975 0.394471 1.91683 0
M  V30 7076 C 666.274 3.54529 0.4521 0
M  V30 7077 C 665.94 4.4469 -0.745788 0
M  V30 7078 C 664.602 4.69053 -1.07435 0
M  V30 7079 C 666.954 4.97742 -1.54604 0
M  V30 7080 C 664.282 5.43717 -2.20429 0
M  V30 7081 C 666.634 5.73642 -2.66678 0
M  V30 7082 C 665.298 5.96277 -3.00016 0
M  V30 7083 H 664.568 0.73864 0.0590961 0
M  V30 7084 H 667.215 1.83274 -0.555234 0
M  V30 7085 H 665.52 3.7131 1.25045 0
M  V30 7086 H 667.217 3.90546 0.909647 0
M  V30 7087 H 663.807 4.25907 -0.479725 0
M  V30 7088 H 667.991 4.78824 -1.30543 0
M  V30 7089 H 663.247 5.59462 -2.46602 0
M  V30 7090 H 667.421 6.13746 -3.29072 0
M  V30 7091 H 665.048 6.53913 -3.87688 0
M  V30 7092 N 666.623 0.143563 1.56945 0
M  V30 7093 C 667.869 -0.50916 1.96304 0
M  V30 7094 C 668.202 -1.64741 1.0283 0
M  V30 7095 O 667.477 -1.94374 0.0700361 0
M  V30 7096 C 667.76 -1.0186 3.45393 0
M  V30 7097 C 667.613 0.117923 4.49645 0
M  V30 7098 C 668.932 -1.90151 3.96901 0
M  V30 7099 H 666.051 -0.183608 0.713763 0
M  V30 7100 H 668.693 0.224095 1.88674 0
M  V30 7101 H 666.843 -1.64345 3.52027 0
M  V30 7102 H 668.515 0.754145 4.55094 0
M  V30 7103 H 666.758 0.777568 4.26774 0
M  V30 7104 H 667.429 -0.280187 5.51288 0
M  V30 7105 H 669.905 -1.375 3.92725 0
M  V30 7106 H 668.781 -2.22707 5.0169 0
M  V30 7107 H 669.042 -2.83718 3.39052 0
M  V30 7108 N 668.101 -1.57061 -0.130224 0
M  V30 7109 C 669.048 -1.99517 -1.16024 0
M  V30 7110 C 670.018 -0.865452 -1.41771 0
M  V30 7111 O 671.203 -1.12882 -1.53826 0
M  V30 7112 C 668.343 -2.3951 -2.48453 0
M  V30 7113 C 667.456 -3.65848 -2.29737 0
M  V30 7114 C 666.591 -3.9487 -3.55318 0
M  V30 7115 C 665.63 -5.14426 -3.31711 0
M  V30 7116 N 664.767 -5.39375 -4.49466 0
M  V30 7117 H 669.607 -2.87305 -0.791194 0
M  V30 7118 H 667.144 -1.42129 -0.379195 0
M  V30 7119 H 669.102 -2.60731 -3.25692 0
M  V30 7120 H 667.732 -1.54779 -2.83272 0
M  V30 7121 H 666.784 -3.52307 -1.4347 0
M  V30 7122 H 668.096 -4.53241 -2.08263 0
M  V30 7123 H 667.25 -4.16679 -4.4098 0
M  V30 7124 H 665.989 -3.05931 -3.79813 0
M  V30 7125 H 664.994 -4.92473 -2.44439 0
M  V30 7126 H 666.219 -6.04933 -3.08598 0
M  V30 7127 H 664.165 -4.53391 -4.74102 0
M  V30 7128 H 664.082 -6.21069 -4.31055 0
M  V30 7129 H 665.35 -5.65694 -5.36293 0
M  V30 7130 N 669.579 0.400081 -1.52437 0
M  V30 7131 C 670.542 1.4707 -1.75793 0
M  V30 7132 C 671.542 1.48036 -0.627856 0
M  V30 7133 O 672.732 1.49401 -0.895817 0
M  V30 7134 C 669.864 2.86427 -1.84858 0
M  V30 7135 H 671.057 1.27649 -2.71377 0
M  V30 7136 H 668.61 0.631141 -1.42991 0
M  V30 7137 H 669.345 3.11207 -0.912194 0
M  V30 7138 H 669.13 2.87128 -2.6702 0
M  V30 7139 H 670.62 3.64023 -2.04638 0
M  V30 7140 N 671.057 1.43213 0.657864 0
M  V30 7141 C 672.285 1.48015 1.44566 0
M  V30 7142 C 672.7 0.0965951 1.88553 0
M  V30 7143 O 672.057 -0.892221 1.59203 0
M  V30 7144 C 672.108 2.42199 2.68369 0
M  V30 7145 O 671.829 3.75173 2.26223 0
M  V30 7146 C 673.33 2.56195 3.61772 0
M  V30 7147 H 670.55 0.502861 0.444266 0
M  V30 7148 H 673.094 1.87907 0.806917 0
M  V30 7149 H 671.249 2.05514 3.28394 0
M  V30 7150 H 671.663 4.25776 3.06293 0
M  V30 7151 H 673.137 3.26182 4.4532 0
M  V30 7152 H 673.614 1.60534 4.0881 0
M  V30 7153 H 674.22 2.93671 3.07632 0
M  V30 7154 N 672.536 -0.895792 1.29666 0
M  V30 7155 C 673.783 -1.64664 1.17864 0
M  V30 7156 C 674.111 -1.92631 -0.26902 0
M  V30 7157 O 673.366 -1.53787 -1.21029 0
M  V30 7158 C 673.665 -3.00075 1.94139 0
M  V30 7159 C 673.331 -2.91702 3.43833 0
M  V30 7160 C 671.993 -2.89126 3.84656 0
M  V30 7161 C 674.345 -2.80622 4.39205 0
M  V30 7162 C 671.673 -2.73293 5.1916 0
M  V30 7163 C 674.025 -2.66329 5.73805 0
M  V30 7164 C 672.689 -2.62121 6.1388 0
M  V30 7165 H 671.959 -0.602549 0.431295 0
M  V30 7166 H 674.606 -1.04234 1.60648 0
M  V30 7167 H 672.911 -3.64394 1.43958 0
M  V30 7168 H 674.608 -3.57111 1.82408 0
M  V30 7169 H 671.198 -2.94511 3.11386 0
M  V30 7170 H 675.382 -2.81686 4.08615 0
M  V30 7171 H 670.638 -2.68443 5.49316 0
M  V30 7172 H 674.812 -2.56727 6.47352 0
M  V30 7173 H 672.439 -2.49611 7.18052 0
M  V30 7174 N 674.014 -1.12206 -1.10668 0
M  V30 7175 C 674.977 -0.790867 -2.15123 0
M  V30 7176 C 675.977 0.193618 -1.5963 0
M  V30 7177 O 677.167 -0.0318728 -1.74171 0
M  V30 7178 C 674.299 -0.174797 -3.40452 0
M  V30 7179 H 675.492 -1.7163 -2.45933 0
M  V30 7180 H 673.045 -0.924993 -1.2599 0
M  V30 7181 H 673.78 0.760478 -3.15257 0
M  V30 7182 H 673.565 -0.88358 -3.82015 0
M  V30 7183 H 675.055 0.0405162 -4.1758 0
M  V30 7184 N 675.492 1.28418 -0.913599 0
M  V30 7185 C 676.402 2.31043 -0.406965 0
M  V30 7186 C 677.418 1.66501 0.505298 0
M  V30 7187 O 678.594 1.97558 0.391522 0
M  V30 7188 C 675.659 3.4498 0.344901 0
M  V30 7189 C 674.72 4.25078 -0.600563 0
M  V30 7190 C 673.953 5.33575 0.115516 0
M  V30 7191 O 674.176 5.54503 1.33727 0
M  V30 7192 O 673.11 5.9939 -0.549095 0
M  V30 7193 H 676.936 2.76387 -1.25873 0
M  V30 7194 H 674.521 1.33109 -0.678415 0
M  V30 7195 H 676.403 4.14314 0.769542 0
M  V30 7196 H 675.078 3.01719 1.1725 0
M  V30 7197 H 673.985 3.58334 -1.0746 0
M  V30 7198 H 675.318 4.72018 -1.39497 0
M  V30 7199 N 676.97 0.677563 1.42291 0
M  V30 7200 C 678.247 0.129803 1.95169 0
M  V30 7201 C 678.627 -1.35605 1.61786 0
M  V30 7202 O 677.975 -2.09361 0.915444 0
M  V30 7203 C 678.185 0.401889 3.46678 0
M  V30 7204 C 679.533 0.319889 4.23393 0
M  V30 7205 O 680.557 0.33579 3.54614 0
M  V30 7206 O 679.416 0.264459 5.4586 0
M  V30 7207 H 676.51 0.00447433 0.826988 0
M  V30 7208 H 679.056 0.752483 1.52105 0
M  V30 7209 H 677.828 1.43108 3.64192 0
M  V30 7210 H 677.451 -0.252662 3.96796 0
M  V30 7211 N 678.448 -1.51871 0.421078 0
M  V30 7212 C 679.673 -2.0684 -0.152371 0
M  V30 7213 C 680.098 -1.28802 -1.37083 0
M  V30 7214 O 679.456 -0.321482 -1.78427 0
M  V30 7215 C 679.504 -3.57532 -0.469368 0
M  V30 7216 O 678.608 -3.81818 -1.55848 0
M  V30 7217 H 677.949 -0.663939 -0.00898586 0
M  V30 7218 H 680.479 -1.95674 0.597724 0
M  V30 7219 H 680.489 -4.01515 -0.724553 0
M  V30 7220 H 679.164 -4.13761 0.421276 0
M  V30 7221 H 677.741 -3.49709 -1.29453 0
M  V30 7222 N 679.926 -0.151884 -1.56866 0
M  V30 7223 C 680.873 0.785936 -2.17006 0
M  V30 7224 C 681.843 1.2407 -1.10435 0
M  V30 7225 O 683.028 1.31235 -1.38499 0
M  V30 7226 C 680.168 2.01771 -2.79969 0
M  V30 7227 C 679.281 1.6083 -4.00946 0
M  V30 7228 C 678.416 2.79224 -4.51893 0
M  V30 7229 C 677.455 2.3468 -5.65324 0
M  V30 7230 N 676.592 3.461 -6.10867 0
M  V30 7231 H 681.432 0.266286 -2.96808 0
M  V30 7232 H 678.969 0.11972 -1.46612 0
M  V30 7233 H 680.927 2.73989 -3.14621 0
M  V30 7234 H 679.557 2.51139 -2.02803 0
M  V30 7235 H 678.609 0.783592 -3.72242 0
M  V30 7236 H 679.921 1.24119 -4.83111 0
M  V30 7237 H 679.075 3.59625 -4.88625 0
M  V30 7238 H 677.814 3.19183 -3.68746 0
M  V30 7239 H 676.819 1.52721 -5.28163 0
M  V30 7240 H 678.044 1.95801 -6.5026 0
M  V30 7241 H 675.99 3.85671 -5.30654 0
M  V30 7242 H 675.907 3.1342 -6.87971 0
M  V30 7243 H 677.175 4.26844 -6.52246 0
M  V30 7244 N 681.404 1.57128 0.121893 0
M  V30 7245 C 682.629 1.89254 0.848385 0
M  V30 7246 C 683.054 0.743527 1.72781 0
M  V30 7247 O 682.412 -0.306056 1.78698 0
M  V30 7248 C 682.46 3.20113 1.66012 0
M  V30 7249 O 681.564 3.05815 2.76679 0
M  V30 7250 H 680.905 0.621103 0.234793 0
M  V30 7251 H 683.435 2.0433 0.10516 0
M  V30 7252 H 683.445 3.52761 2.04996 0
M  V30 7253 H 682.12 4.03336 1.01452 0
M  V30 7254 H 680.697 2.84627 2.40918 0
M  V30 7255 N 682.882 -0.391992 1.52647 0
M  V30 7256 C 684.131 -1.13449 1.6677 0
M  V30 7257 C 684.444 -1.91203 0.412399 0
M  V30 7258 O 685.65 -2.68013 0.433707 0
M  V30 7259 C 684.106 -2.06577 2.9471 0
M  V30 7260 C 683.714 -1.3426 4.27409 0
M  V30 7261 C 685.458 -2.80981 3.18198 0
M  V30 7262 C 683.365 -2.26136 5.46458 0
M  V30 7263 H 682.295 -0.427211 0.621295 0
M  V30 7264 H 684.946 -0.397522 1.79142 0
M  V30 7265 H 683.328 -2.83898 2.76076 0
M  V30 7266 H 684.502 -0.621856 4.56585 0
M  V30 7267 H 682.817 -0.718279 4.10158 0
M  V30 7268 H 685.414 -3.49898 4.04321 0
M  V30 7269 H 685.757 -3.44891 2.33144 0
M  V30 7270 H 686.29 -2.10754 3.37383 0
M  V30 7271 H 683.029 -1.66846 6.33911 0
M  V30 7272 H 682.549 -2.96134 5.21598 0
M  V30 7273 H 684.228 -2.86286 5.80215 0
M  V30 7274 N 684.36 -1.4356 -0.65026 0
M  V30 7275 C 685.323 -1.48615 -1.74489 0
M  V30 7276 C 686.323 -0.370483 -1.56474 0
M  V30 7277 O 687.513 -0.632351 -1.62317 0
M  V30 7278 C 684.645 -1.34161 -3.13391 0
M  V30 7279 H 685.838 -2.46103 -1.71387 0
M  V30 7280 H 683.391 -1.30369 -0.862186 0
M  V30 7281 H 684.126 -0.376918 -3.22102 0
M  V30 7282 H 683.911 -2.1504 -3.27872 0
M  V30 7283 H 685.401 -1.40637 -3.93206 0
M  V30 7284 N 685.838 0.888903 -1.30139 0
M  V30 7285 C 687.066 1.67358 -1.21651 0
M  V30 7286 C 687.481 1.87499 0.221246 0
M  V30 7287 O 686.838 1.41969 1.14677 0
M  V30 7288 C 686.889 3.05213 -1.93719 0
M  V30 7289 O 686.61 2.85984 -3.31881 0
M  V30 7290 C 688.111 3.9964 -1.9184 0
M  V30 7291 H 685.331 0.522365 -0.42116 0
M  V30 7292 H 687.875 1.11086 -1.71698 0
M  V30 7293 H 686.03 3.5823 -1.4748 0
M  V30 7294 H 686.444 3.73411 -3.68327 0
M  V30 7295 H 687.918 4.93749 -2.46811 0
M  V30 7296 H 688.395 4.29955 -0.896409 0
M  V30 7297 H 689.001 3.52558 -2.37872 0
M  V30 7298 N 687.317 1.12792 1.10072 0
M  V30 7299 C 688.227 0.812369 2.20086 0
M  V30 7300 C 689.243 -0.200349 1.72843 0
M  V30 7301 O 690.419 -0.0330262 2.01373 0
M  V30 7302 C 687.484 0.275685 3.45602 0
M  V30 7303 C 686.545 1.34881 4.07561 0
M  V30 7304 C 685.778 0.837639 5.27086 0
M  V30 7305 O 686.001 -0.327224 5.69461 0
M  V30 7306 O 684.935 1.60894 5.79997 0
M  V30 7307 H 688.761 1.73133 2.49517 0
M  V30 7308 H 686.346 0.904863 1.18881 0
M  V30 7309 H 688.228 -0.0185375 4.21396 0
M  V30 7310 H 686.903 -0.615783 3.17789 0
M  V30 7311 H 685.81 1.69625 3.33434 0
M  V30 7312 H 687.143 2.21418 4.39585 0
M  V30 7313 N 688.795 -1.27931 0.920396 0
M  V30 7314 C 690.044 -1.93975 0.552867 0
M  V30 7315 C 690.357 -1.73193 -0.909035 0
M  V30 7316 O 691.563 -2.33515 -1.38502 0
M  V30 7317 C 690.019 -3.47463 0.937947 0
M  V30 7318 C 689.627 -3.77013 2.42003 0
M  V30 7319 C 691.371 -4.19628 0.64132 0
M  V30 7320 C 689.278 -5.23841 2.74489 0
M  V30 7321 H 688.208 -0.726146 0.203046 0
M  V30 7322 H 690.859 -1.45339 1.12022 0
M  V30 7323 H 689.241 -3.94867 0.299317 0
M  V30 7324 H 690.415 -3.40393 3.10595 0
M  V30 7325 H 688.73 -3.18035 2.6878 0
M  V30 7326 H 691.327 -5.27729 0.860622 0
M  V30 7327 H 691.67 -4.14164 -0.421168 0
M  V30 7328 H 692.203 -3.78022 1.23872 0
M  V30 7329 H 688.942 -5.34388 3.79618 0
M  V30 7330 H 688.462 -5.61634 2.1054 0
M  V30 7331 H 690.141 -5.91647 2.61845 0
M  V30 7332 N 690.273 -0.685099 -1.4193 0
M  V30 7333 C 691.522 -0.208816 -2.00616 0
M  V30 7334 C 691.835 1.19506 -1.54847 0
M  V30 7335 O 693.041 1.76826 -2.06021 0
M  V30 7336 C 691.497 -0.322446 -3.58453 0
M  V30 7337 C 691.105 -1.73102 -4.13206 0
M  V30 7338 C 692.849 0.0945979 -4.24395 0
M  V30 7339 C 690.756 -1.79687 -5.63442 0
M  V30 7340 H 689.686 -0.0743092 -0.750329 0
M  V30 7341 H 692.337 -0.851778 -1.62533 0
M  V30 7342 H 690.719 0.388588 -3.94089 0
M  V30 7343 H 691.893 -2.46997 -3.8901 0
M  V30 7344 H 690.208 -2.09682 -3.59753 0
M  V30 7345 H 692.805 0.0656937 -5.3466 0
M  V30 7346 H 693.148 1.1316 -4.00625 0
M  V30 7347 H 693.681 -0.56579 -3.93756 0
M  V30 7348 H 690.42 -2.81404 -5.92024 0
M  V30 7349 H 689.94 -1.10162 -5.89597 0
M  V30 7350 H 691.619 -1.55498 -6.28036 0
M  V30 7351 N 691.751 1.51645 -0.429126 0
M  V30 7352 C 692.681 2.30434 0.377148 0
M  V30 7353 C 693.662 1.35493 1.02838 0
M  V30 7354 O 694.847 1.6441 1.03359 0
M  V30 7355 C 691.977 3.14038 1.48315 0
M  V30 7356 C 690.931 4.1719 0.955855 0
M  V30 7357 C 690.257 4.89263 2.15698 0
M  V30 7358 C 691.557 5.223 -0.00402136 0
M  V30 7359 H 693.251 2.98085 -0.280336 0
M  V30 7360 H 690.797 1.43354 -0.136265 0
M  V30 7361 H 692.75 3.67933 2.05435 0
M  V30 7362 H 691.474 2.44193 2.16881 0
M  V30 7363 H 690.133 3.64335 0.406929 0
M  V30 7364 H 689.781 4.15929 2.82864 0
M  V30 7365 H 689.481 5.59009 1.81059 0
M  V30 7366 H 691.005 5.45978 2.73387 0
M  V30 7367 H 692.419 5.71315 0.476607 0
M  V30 7368 H 690.816 5.99525 -0.26258 0
M  V30 7369 H 691.886 4.75638 -0.943236 0
M  V30 7370 N 693.229 0.160201 1.56784 0
M  V30 7371 C 694.139 -0.787167 2.21 0
M  V30 7372 C 695.155 -1.26167 1.19825 0
M  V30 7373 O 696.331 -1.31611 1.52448 0
M  V30 7374 C 693.396 -2.00364 2.8294 0
M  V30 7375 C 692.457 -1.5771 3.99282 0
M  V30 7376 C 691.69 -2.73558 4.58259 0
M  V30 7377 O 691.913 -3.90129 4.16119 0
M  V30 7378 O 690.847 -2.48271 5.48311 0
M  V30 7379 H 694.673 -0.270462 3.02493 0
M  V30 7380 H 692.258 -0.0674666 1.49248 0
M  V30 7381 H 694.14 -2.71529 3.22257 0
M  V30 7382 H 692.815 -2.50961 2.04451 0
M  V30 7383 H 691.722 -0.835274 3.64656 0
M  V30 7384 H 693.055 -1.11815 4.79331 0
M  V30 7385 N 694.707 -1.5719 -0.113559 0
M  V30 7386 C 695.956 -1.84325 -0.818984 0
M  V30 7387 C 696.269 -0.746685 -1.80787 0
M  V30 7388 O 697.475 -0.904596 -2.55987 0
M  V30 7389 C 695.931 -3.26818 -1.50724 0
M  V30 7390 C 695.539 -4.44498 -0.559065 0
M  V30 7391 C 697.283 -3.63196 -2.19748 0
M  V30 7392 C 695.19 -5.7802 -1.25086 0
M  V30 7393 H 694.12 -0.687507 -0.309596 0
M  V30 7394 H 696.771 -1.8336 -0.0717621 0
M  V30 7395 H 695.153 -3.22269 -2.30128 0
M  V30 7396 H 696.327 -4.60356 0.202146 0
M  V30 7397 H 694.642 -4.16393 0.024495 0
M  V30 7398 H 697.239 -4.60226 -2.72206 0
M  V30 7399 H 697.582 -2.90899 -2.97798 0
M  V30 7400 H 698.115 -3.69553 -1.47226 0
M  V30 7401 H 694.854 -6.53501 -0.511539 0
M  V30 7402 H 694.374 -5.66038 -1.98395 0
M  V30 7403 H 696.053 -6.2196 -1.78253 0
M  V30 7404 N 696.185 0.383891 -1.52853 0
M  V30 7405 C 697.132 1.46924 -1.77995 0
M  V30 7406 C 698.102 1.53958 -0.623396 0
M  V30 7407 O 699.287 1.70134 -0.863657 0
M  V30 7408 C 696.427 2.84093 -1.95921 0
M  V30 7409 C 695.54 2.86171 -3.23621 0
M  V30 7410 C 694.675 4.14799 -3.31836 0
M  V30 7411 C 693.714 4.10948 -4.53639 0
M  V30 7412 N 692.851 5.31192 -4.59107 0
M  V30 7413 H 697.691 1.24786 -2.70615 0
M  V30 7414 H 695.228 0.605265 -1.34071 0
M  V30 7415 H 697.186 3.63755 -2.04299 0
M  V30 7416 H 695.816 3.04671 -1.06656 0
M  V30 7417 H 694.868 1.9885 -3.24288 0
M  V30 7418 H 696.18 2.79194 -4.13343 0
M  V30 7419 H 695.334 5.02867 -3.39425 0
M  V30 7420 H 694.073 4.24505 -2.40097 0
M  V30 7421 H 693.078 3.21268 -4.46169 0
M  V30 7422 H 694.303 4.0286 -5.467 0
M  V30 7423 H 692.249 5.41518 -3.70262 0
M  V30 7424 H 692.166 5.26311 -5.42708 0
M  V30 7425 H 693.434 6.21143 -4.70958 0
M  V30 7426 N 697.663 1.43903 0.642637 0
M  V30 7427 C 698.61 1.49881 1.75512 0
M  V30 7428 C 699.58 0.347538 1.62423 0
M  V30 7429 O 700.765 0.556177 1.82514 0
M  V30 7430 C 697.905 1.43797 3.13714 0
M  V30 7431 C 697.018 2.6921 3.37861 0
M  V30 7432 C 696.153 2.5504 4.6597 0
M  V30 7433 C 695.192 3.75671 4.83257 0
M  V30 7434 N 694.329 3.60247 6.02633 0
M  V30 7435 H 699.169 2.44935 1.69737 0
M  V30 7436 H 696.706 1.21572 0.828165 0
M  V30 7437 H 698.664 1.38262 3.93624 0
M  V30 7438 H 697.294 0.523173 3.18532 0
M  V30 7439 H 696.346 2.8498 2.51973 0
M  V30 7440 H 697.658 3.58786 3.46517 0
M  V30 7441 H 696.812 2.47273 5.54023 0
M  V30 7442 H 695.551 1.63006 4.59653 0
M  V30 7443 H 694.556 3.83836 3.93637 0
M  V30 7444 H 695.781 4.68728 4.91397 0
M  V30 7445 H 693.727 2.70955 5.97427 0
M  V30 7446 H 693.644 4.43431 6.12295 0
M  V30 7447 H 694.912 3.56351 6.93278 0
M  V30 7448 N 699.141 -0.881989 1.30609 0
M  V30 7449 C 700.104 -1.96957 1.1722 0
M  V30 7450 C 701.104 -1.60472 0.102598 0
M  V30 7451 O 702.294 -1.70628 0.350943 0
M  V30 7452 C 699.426 -3.31463 0.796572 0
M  V30 7453 H 700.619 -2.10262 2.13846 0
M  V30 7454 H 698.172 -1.06877 1.14048 0
M  V30 7455 H 698.907 -3.23859 -0.169053 0
M  V30 7456 H 698.692 -3.59314 1.56959 0
M  V30 7457 H 700.182 -4.11233 0.72645 0
M  V30 7458 N 700.619 -1.13374 -1.09472 0
M  V30 7459 C 701.866 -0.89519 -1.81639 0
M  V30 7460 C 702.194 0.57868 -1.85692 0
M  V30 7461 O 701.449 1.44426 -1.32059 0
M  V30 7462 C 701.748 -1.42759 -3.2765 0
M  V30 7463 C 701.414 -2.91822 -3.43731 0
M  V30 7464 C 700.076 -3.32521 -3.47827 0
M  V30 7465 C 702.428 -3.87727 -3.48307 0
M  V30 7466 C 699.756 -4.6781 -3.54078 0
M  V30 7467 C 702.108 -5.22859 -3.56091 0
M  V30 7468 C 700.772 -5.63086 -3.58456 0
M  V30 7469 H 700.042 -0.327573 -0.664663 0
M  V30 7470 H 702.689 -1.4156 -1.28969 0
M  V30 7471 H 700.994 -0.827871 -3.82954 0
M  V30 7472 H 702.691 -1.2191 -3.8202 0
M  V30 7473 H 699.281 -2.5935 -3.41226 0
M  V30 7474 H 703.465 -3.57371 -3.44383 0
M  V30 7475 H 698.721 -4.98353 -3.54195 0
M  V30 7476 H 702.895 -5.96989 -3.58577 0
M  V30 7477 H 700.522 -6.67905 -3.63052 0
M  V30 7478 N 702.098 1.27442 -0.927168 0
M  V30 7479 C 703.008 2.30599 -0.431448 0
M  V30 7480 C 704.024 1.67028 0.48761 0
M  V30 7481 O 705.2 1.97962 0.370546 0
M  V30 7482 C 702.265 3.45327 0.308292 0
M  V30 7483 C 701.326 4.24418 -0.645615 0
M  V30 7484 C 700.559 5.33667 0.0589164 0
M  V30 7485 O 700.782 5.5589 1.27838 0
M  V30 7486 O 699.716 5.98774 -0.612638 0
M  V30 7487 H 703.542 2.75036 -1.28797 0
M  V30 7488 H 701.127 1.32382 -0.692495 0
M  V30 7489 H 703.009 4.15107 0.725555 0
M  V30 7490 H 701.684 3.02945 1.14043 0
M  V30 7491 H 700.591 3.57174 -1.11255 0
M  V30 7492 H 701.924 4.70512 -1.44496 0
M  V30 7493 N 703.576 0.692616 1.41565 0
M  V30 7494 C 704.486 0.0258451 2.34586 0
M  V30 7495 C 705.502 -0.769324 1.56069 0
M  V30 7496 O 706.678 -0.707563 1.88562 0
M  V30 7497 C 703.743 -0.901289 3.3478 0
M  V30 7498 C 702.804 -0.0986579 4.29187 0
M  V30 7499 C 702.037 -0.981634 5.24595 0
M  V30 7500 O 702.26 -2.22115 5.25377 0
M  V30 7501 O 701.194 -0.432892 6.00341 0
M  V30 7502 H 705.02 0.792537 2.93177 0
M  V30 7503 H 702.605 0.452935 1.42369 0
M  V30 7504 H 704.487 -1.43302 3.96286 0
M  V30 7505 H 703.162 -1.64752 2.78637 0
M  V30 7506 H 702.069 0.477604 3.71039 0
M  V30 7507 H 703.402 0.608848 4.8842 0
M  V30 7508 N 705.054 -1.51416 0.437162 0
M  V30 7509 C 706.279 -2.0699 -0.130424 0
M  V30 7510 C 706.704 -1.30249 -1.35709 0
M  V30 7511 O 706.062 -0.340388 -1.78076 0
M  V30 7512 C 706.11 -3.5801 -0.43142 0
M  V30 7513 O 705.214 -3.8345 -1.5179 0
M  V30 7514 H 704.555 -0.663997 -0.00194339 0
M  V30 7515 H 707.085 -1.95029 0.618445 0
M  V30 7516 H 707.095 -4.02261 -0.681926 0
M  V30 7517 H 705.77 -4.13291 0.465137 0
M  V30 7518 H 704.347 -3.51062 -1.25737 0
M  V30 7519 N 706.532 -0.168513 -1.56696 0
M  V30 7520 C 707.462 0.758563 -2.20835 0
M  V30 7521 C 708.443 1.24121 -1.1631 0
M  V30 7522 O 709.628 1.29487 -1.4473 0
M  V30 7523 C 706.758 1.9892 -2.8469 0
M  V30 7524 C 705.712 1.64252 -3.95228 0
M  V30 7525 C 705.038 2.94757 -4.46119 0
M  V30 7526 C 706.338 0.872675 -5.14958 0
M  V30 7527 H 708.032 0.223953 -2.98561 0
M  V30 7528 H 705.578 0.106277 -1.43607 0
M  V30 7529 H 707.531 2.64275 -3.28233 0
M  V30 7530 H 706.255 2.5479 -2.04327 0
M  V30 7531 H 704.914 1.01266 -3.52336 0
M  V30 7532 H 704.562 3.48662 -3.62552 0
M  V30 7533 H 704.262 2.72316 -5.2069 0
M  V30 7534 H 705.786 3.61147 -4.92347 0
M  V30 7535 H 707.2 1.42875 -5.55211 0
M  V30 7536 H 705.597 0.747402 -5.95428 0
M  V30 7537 H 706.667 -0.131535 -4.84722 0
M  V30 7538 N 708.01 1.57248 0.105221 0
M  V30 7539 C 709.235 1.90143 0.828264 0
M  V30 7540 C 709.66 0.761811 1.71983 0
M  V30 7541 O 709.018 -0.287086 1.79013 0
M  V30 7542 C 709.066 3.21856 1.62608 0
M  V30 7543 O 708.17 3.08732 2.7342 0
M  V30 7544 H 707.511 0.623558 0.228192 0
M  V30 7545 H 710.041 2.0443 0.0834826 0
M  V30 7546 H 710.051 3.54916 2.01243 0
M  V30 7547 H 708.726 4.0439 0.971687 0
M  V30 7548 H 707.303 2.87167 2.37886 0
M  V30 7549 N 709.488 -0.375779 1.53054 0
M  V30 7550 C 710.716 -1.14036 1.72637 0
M  V30 7551 C 711.131 -1.83342 0.450687 0
M  V30 7552 O 710.488 -1.7318 -0.575749 0
M  V30 7553 C 710.539 -2.17841 2.88492 0
M  V30 7554 O 710.26 -1.51358 4.11123 0
M  V30 7555 C 711.761 -3.06924 3.19863 0
M  V30 7556 H 708.981 -0.341386 0.577665 0
M  V30 7557 H 711.525 -0.437809 1.99759 0
M  V30 7558 H 709.68 -2.8371 2.63794 0
M  V30 7559 H 710.094 -2.20439 4.75928 0
M  V30 7560 H 711.568 -3.75763 4.04359 0
M  V30 7561 H 712.045 -3.71169 2.34798 0
M  V30 7562 H 712.651 -2.46684 3.46449 0
M  V30 7563 N 710.966 -1.44241 -0.634997 0
M  V30 7564 C 711.896 -1.53632 -1.7584 0
M  V30 7565 C 712.877 -0.389603 -1.65578 0
M  V30 7566 O 714.062 -0.609219 -1.84397 0
M  V30 7567 C 711.192 -1.47644 -3.14354 0
M  V30 7568 C 710.146 -2.60752 -3.394 0
M  V30 7569 C 709.472 -2.39817 -4.77904 0
M  V30 7570 C 710.772 -4.02921 -3.32343 0
M  V30 7571 H 712.466 -2.47662 -1.68238 0
M  V30 7572 H 710.012 -1.19197 -0.807969 0
M  V30 7573 H 711.965 -1.52815 -3.92716 0
M  V30 7574 H 710.689 -0.501284 -3.2273 0
M  V30 7575 H 709.348 -2.54965 -2.63417 0
M  V30 7576 H 708.996 -1.40502 -4.82978 0
M  V30 7577 H 708.696 -3.15649 -4.9562 0
M  V30 7578 H 710.22 -2.46799 -5.585 0
M  V30 7579 H 711.634 -4.10098 -4.00615 0
M  V30 7580 H 710.031 -4.78925 -3.61595 0
M  V30 7581 H 711.101 -4.26766 -2.30215 0
M  V30 7582 N 712.444 0.87505 -1.31075 0
M  V30 7583 C 713.391 1.98178 -1.18296 0
M  V30 7584 C 714.361 1.65952 -0.0699923 0
M  V30 7585 O 715.546 1.8926 -0.241951 0
M  V30 7586 C 712.686 3.33399 -0.891024 0
M  V30 7587 C 711.799 3.78253 -2.08684 0
M  V30 7588 C 710.934 5.02166 -1.73212 0
M  V30 7589 C 709.973 5.39455 -2.89231 0
M  V30 7590 N 709.11 6.54549 -2.53989 0
M  V30 7591 H 713.95 2.0844 -2.12971 0
M  V30 7592 H 711.487 1.02047 -1.05948 0
M  V30 7593 H 713.445 4.11246 -0.702338 0
M  V30 7594 H 712.075 3.22794 0.0188799 0
M  V30 7595 H 711.127 2.9623 -2.38646 0
M  V30 7596 H 712.439 4.01821 -2.95536 0
M  V30 7597 H 711.593 5.87666 -1.50777 0
M  V30 7598 H 710.332 4.80491 -0.83544 0
M  V30 7599 H 709.337 4.52477 -3.12321 0
M  V30 7600 H 710.562 5.63098 -3.79601 0
M  V30 7601 H 708.508 6.3443 -1.66838 0
M  V30 7602 H 708.425 6.78035 -3.34372 0
M  V30 7603 H 709.693 7.43254 -2.34934 0
M  V30 7604 N 713.922 1.13953 1.08869 0
M  V30 7605 C 715.168 0.916103 1.81602 0
M  V30 7606 C 715.523 -0.551633 1.84322 0
M  V30 7607 O 714.816 -1.40322 1.30462 0
M  V30 7608 C 715.01 1.44495 3.26888 0
M  V30 7609 C 714.839 2.96257 3.38322 0
M  V30 7610 C 713.609 3.64658 3.49789 0
M  V30 7611 C 715.807 3.94156 3.30372 0
M  V30 7612 N 713.789 5.04379 3.49965 0
M  V30 7613 C 715.16 5.20101 3.37484 0
M  V30 7614 C 717.215 3.86342 3.14077 0
M  V30 7615 C 715.918 6.39145 3.29979 0
M  V30 7616 C 717.944 5.04927 3.07901 0
M  V30 7617 C 717.306 6.29738 3.1561 0
M  V30 7618 H 713.405 0.388701 0.678554 0
M  V30 7619 H 715.989 1.44879 1.3007 0
M  V30 7620 H 714.16 0.939102 3.76876 0
M  V30 7621 H 715.892 1.16193 3.87661 0
M  V30 7622 H 712.647 3.15196 3.5348 0
M  V30 7623 H 713.071 5.77305 3.53622 0
M  V30 7624 H 717.713 2.90726 3.06982 0
M  V30 7625 H 715.431 7.3501 3.35836 0
M  V30 7626 H 719.017 5.00626 2.9642 0
M  V30 7627 H 717.897 7.19958 3.10854 0
M  V30 7628 N 715.4 -1.26948 0.933913 0
M  V30 7629 C 716.333 -2.24977 0.382169 0
M  V30 7630 C 717.311 -1.53893 -0.524949 0
M  V30 7631 O 718.495 -1.82699 -0.464048 0
M  V30 7632 C 715.622 -3.35676 -0.451615 0
M  V30 7633 C 714.668 -4.24686 0.392947 0
M  V30 7634 S 715.501 -5.03898 1.81237 0
M  V30 7635 C 716.657 -6.18078 0.986443 0
M  V30 7636 H 716.89 -2.71429 1.21299 0
M  V30 7637 H 714.423 -1.35701 0.736523 0
M  V30 7638 H 716.381 -3.99901 -0.926797 0
M  V30 7639 H 715.042 -2.8785 -1.25703 0
M  V30 7640 H 714.235 -5.03402 -0.245533 0
M  V30 7641 H 713.837 -3.65288 0.802537 0
M  V30 7642 H 716.129 -6.77125 0.225321 0
M  V30 7643 H 717.072 -6.86216 1.74682 0
M  V30 7644 H 717.48 -5.62047 0.525711 0
M  V30 7645 N 716.879 -0.700114 -1.41195 0
M  V30 7646 C 718.156 -0.160836 -1.94938 0
M  V30 7647 C 718.536 1.33014 -1.63922 0
M  V30 7648 O 717.884 2.07878 -0.948636 0
M  V30 7649 C 718.094 -0.456991 -3.45995 0
M  V30 7650 C 719.442 -0.387207 -4.22831 0
M  V30 7651 O 720.466 -0.392164 -3.54035 0
M  V30 7652 O 719.325 -0.351267 -5.4537 0
M  V30 7653 H 716.419 -0.0176304 -0.826812 0
M  V30 7654 H 718.965 -0.776586 -1.50888 0
M  V30 7655 H 717.737 -1.48884 -3.61869 0
M  V30 7656 H 717.36 0.189503 -3.97148 0
M  V30 7657 N 718.357 1.51182 -0.445186 0
M  V30 7658 C 719.267 2.31692 0.368255 0
M  V30 7659 C 720.283 1.40942 1.02036 0
M  V30 7660 O 721.459 1.74011 1.01401 0
M  V30 7661 C 718.524 3.14903 1.45041 0
M  V30 7662 C 717.585 4.21442 0.817615 0
M  V30 7663 C 716.818 5.00677 1.8482 0
M  V30 7664 O 717.041 4.80644 3.07145 0
M  V30 7665 O 715.975 5.84559 1.43438 0
M  V30 7666 H 719.801 3.0232 -0.289219 0
M  V30 7667 H 717.386 1.47951 -0.207555 0
M  V30 7668 H 719.268 3.66612 2.07783 0
M  V30 7669 H 717.943 2.47031 2.09182 0
M  V30 7670 H 716.85 3.73791 0.151931 0
M  V30 7671 H 718.183 4.9171 0.219564 0
M  V30 7672 N 719.835 0.176821 1.56605 0
M  V30 7673 C 720.745 -0.763682 2.21822 0
M  V30 7674 C 721.761 -1.24889 1.21156 0
M  V30 7675 O 722.937 -1.29987 1.53836 0
M  V30 7676 C 720.002 -1.97352 2.8505 0
M  V30 7677 C 719.063 -1.53466 4.00932 0
M  V30 7678 C 718.296 -2.68682 4.61135 0
M  V30 7679 O 718.519 -3.85694 4.20234 0
M  V30 7680 O 717.453 -2.42442 5.50913 0
M  V30 7681 H 721.279 -0.238363 3.02763 0
M  V30 7682 H 718.864 -0.0516331 1.49311 0
M  V30 7683 H 720.746 -2.68096 3.25119 0
M  V30 7684 H 719.421 -2.48779 2.07101 0
M  V30 7685 H 718.328 -0.796551 3.65521 0
M  V30 7686 H 719.661 -1.06724 4.8049 0
M  V30 7687 N 721.313 -1.57302 -0.09688 0
M  V30 7688 C 722.541 -1.90202 -0.814295 0
M  V30 7689 C 722.956 -0.770344 -1.72369 0
M  V30 7690 O 722.313 0.257764 -1.8067 0
M  V30 7691 C 722.364 -3.22708 -1.62916 0
M  V30 7692 O 722.085 -4.31522 -0.756343 0
M  V30 7693 C 723.586 -3.69459 -2.44979 0
M  V30 7694 H 720.806 -0.629275 -0.232925 0
M  V30 7695 H 723.35 -2.04364 -0.0746482 0
M  V30 7696 H 721.505 -3.1015 -2.32133 0
M  V30 7697 H 721.919 -5.07604 -1.32054 0
M  V30 7698 H 723.393 -4.64875 -2.9765 0
M  V30 7699 H 723.87 -2.97211 -3.23361 0
M  V30 7700 H 724.476 -3.84879 -1.80964 0
M  V30 7701 N 722.791 0.367657 -1.53252 0
M  V30 7702 C 724.207 0.709191 -1.42978 0
M  V30 7703 C 724.407 1.93352 -0.567193 0
M  V30 7704 O 723.463 2.52453 -0.0488349 0
M  V30 7705 C 724.776 0.924338 -2.86141 0
M  V30 7706 C 726.324 1.02448 -2.95759 0
M  V30 7707 C 726.799 1.27211 -4.39979 0
M  V30 7708 N 728.29 1.33986 -4.43398 0
M  V30 7709 C 729.025 1.54852 -5.52095 0
M  V30 7710 N 728.521 1.73049 -6.7084 0
M  V30 7711 N 730.314 1.57205 -5.39669 0
M  V30 7712 H 722.465 -0.437669 -2.07842 0
M  V30 7713 H 724.728 -0.133737 -0.938519 0
M  V30 7714 H 724.434 0.0965455 -3.51567 0
M  V30 7715 H 724.308 1.83302 -3.29667 0
M  V30 7716 H 726.695 1.84282 -2.30487 0
M  V30 7717 H 726.776 0.0932301 -2.5563 0
M  V30 7718 H 726.42 0.458792 -5.05824 0
M  V30 7719 H 726.35 2.21654 -4.77679 0
M  V30 7720 H 728.841 1.21545 -3.5782 0
M  V30 7721 H 729.154 1.88538 -7.49449 0
M  V30 7722 H 727.499 1.70231 -6.7383 0
M  V30 7723 H 730.69 1.42555 -4.45865 0
M  V30 7724 H 730.863 1.73126 -6.24445 0
M  V30 7725 N 724.269 1.44576 0.627338 0
M  V30 7726 C 725.216 1.51734 1.73912 0
M  V30 7727 C 726.186 0.364745 1.62046 0
M  V30 7728 O 727.371 0.575503 1.81914 0
M  V30 7729 C 724.511 1.47116 3.12171 0
M  V30 7730 C 723.624 2.72778 3.34986 0
M  V30 7731 C 722.759 2.59968 4.63239 0
M  V30 7732 C 721.798 3.80776 4.79245 0
M  V30 7733 N 720.935 3.66618 5.98778 0
M  V30 7734 H 725.775 2.46722 1.6713 0
M  V30 7735 H 723.312 1.22444 0.815224 0
M  V30 7736 H 725.27 1.42429 3.92135 0
M  V30 7737 H 723.9 0.556928 3.17959 0
M  V30 7738 H 722.952 2.87637 2.48936 0
M  V30 7739 H 724.264 3.62441 3.42692 0
M  V30 7740 H 723.418 2.53135 5.51369 0
M  V30 7741 H 722.157 1.67872 4.57898 0
M  V30 7742 H 721.162 3.87989 3.89544 0
M  V30 7743 H 722.387 4.73913 4.86398 0
M  V30 7744 H 720.333 2.77277 5.9452 0
M  V30 7745 H 720.25 4.499 6.07557 0
M  V30 7746 H 721.518 3.63684 6.89459 0
M  V30 7747 N 725.747 -0.868086 1.31537 0
M  V30 7748 C 726.972 -1.65926 1.24432 0
M  V30 7749 C 727.397 -1.87169 -0.186936 0
M  V30 7750 O 726.755 -1.4148 -1.13371 0
M  V30 7751 C 726.803 -3.00347 1.9956 0
M  V30 7752 O 725.907 -3.90221 1.33422 0
M  V30 7753 H 725.248 -0.506375 0.429512 0
M  V30 7754 H 727.778 -1.0822 1.73637 0
M  V30 7755 H 727.788 -3.50269 2.09226 0
M  V30 7756 H 726.463 -2.84205 3.03645 0
M  V30 7757 H 725.04 -3.48672 1.32219 0
M  V30 7758 N 727.225 -1.14528 -1.08264 0
M  V30 7759 C 728.188 -0.83632 -2.13397 0
M  V30 7760 C 729.188 0.159715 -1.60005 0
M  V30 7761 O 730.378 -0.0688098 -1.74064 0
M  V30 7762 C 727.51 -0.246973 -3.40004 0
M  V30 7763 H 728.703 -1.76808 -2.42237 0
M  V30 7764 H 726.256 -0.951509 -1.24 0
M  V30 7765 H 726.991 0.693436 -3.168 0
M  V30 7766 H 726.776 -0.964412 -3.80055 0
M  V30 7767 H 728.266 -0.0480679 -4.17572 0
M  V30 7768 N 728.703 1.26451 -0.940633 0
M  V30 7769 C 729.65 2.264 -0.448497 0
M  V30 7770 C 730.62 1.5866 0.491546 0
M  V30 7771 O 731.805 1.86389 0.407874 0
M  V30 7772 C 728.945 3.43956 0.280715 0
M  V30 7773 C 728.058 4.26374 -0.694937 0
M  V30 7774 C 727.193 5.31171 0.0554186 0
M  V30 7775 C 726.232 6.05266 -0.912091 0
M  V30 7776 N 725.369 7.01833 -0.193524 0
M  V30 7777 H 730.209 2.67869 -1.30576 0
M  V30 7778 H 727.746 1.31707 -0.655112 0
M  V30 7779 H 729.704 4.10941 0.71994 0
M  V30 7780 H 728.334 3.03403 1.10212 0
M  V30 7781 H 727.386 3.59183 -1.25267 0
M  V30 7782 H 728.698 4.77748 -1.43382 0
M  V30 7783 H 727.852 6.04166 0.553951 0
M  V30 7784 H 726.591 4.80634 0.827183 0
M  V30 7785 H 725.596 5.31099 -1.42175 0
M  V30 7786 H 726.821 6.57893 -1.68385 0
M  V30 7787 H 724.767 6.53607 0.559758 0
M  V30 7788 H 724.684 7.50957 -0.871744 0
M  V30 7789 H 725.952 7.78983 0.283932 0
M  V30 7790 N 730.181 0.707592 1.40822 0
M  V30 7791 C 731.091 0.0507246 2.34545 0
M  V30 7792 C 732.107 -0.752727 1.56876 0
M  V30 7793 O 733.283 -0.687524 1.89302 0
M  V30 7794 C 730.348 -0.865731 3.35717 0
M  V30 7795 C 729.409 -0.0531313 4.29267 0
M  V30 7796 C 728.642 -0.925939 5.25606 0
M  V30 7797 O 728.865 -2.16531 5.27703 0
M  V30 7798 O 727.799 -0.369194 6.00767 0
M  V30 7799 H 731.625 0.823587 2.9232 0
M  V30 7800 H 729.21 0.46801 1.4188 0
M  V30 7801 H 731.092 -1.39091 3.97783 0
M  V30 7802 H 729.767 -1.61788 2.80368 0
M  V30 7803 H 728.674 0.516931 3.70511 0
M  V30 7804 H 730.007 0.660617 4.87747 0
M  V30 7805 N 731.66 -1.50943 0.453197 0
M  V30 7806 C 732.607 -2.28128 -0.350197 0
M  V30 7807 C 733.577 -1.32398 -1.00299 0
M  V30 7808 O 734.762 -1.61319 -1.01887 0
M  V30 7809 C 731.902 -3.13782 -1.43649 0
M  V30 7810 C 731.015 -4.24523 -0.800255 0
M  V30 7811 C 730.15 -4.97462 -1.86293 0
M  V30 7812 C 729.189 -6.00102 -1.20598 0
M  V30 7813 N 728.326 -6.66387 -2.21071 0
M  V30 7814 H 733.166 -2.96337 0.31434 0
M  V30 7815 H 730.703 -1.46151 0.166863 0
M  V30 7816 H 732.661 -3.6178 -2.07776 0
M  V30 7817 H 731.291 -2.47655 -2.07044 0
M  V30 7818 H 730.343 -3.80371 -0.0468651 0
M  V30 7819 H 731.655 -4.98009 -0.280777 0
M  V30 7820 H 730.809 -5.49088 -2.58044 0
M  V30 7821 H 729.548 -4.23642 -2.41617 0
M  V30 7822 H 728.553 -5.47753 -0.474 0
M  V30 7823 H 729.778 -6.75887 -0.659859 0
M  V30 7824 H 727.724 -5.9537 -2.75446 0
M  V30 7825 H 727.641 -7.3569 -1.74058 0
M  V30 7826 H 728.909 -7.22638 -2.92257 0
M  V30 7827 N 733.138 -0.185124 -1.56509 0
M  V30 7828 C 734.101 0.72591 -2.17401 0
M  V30 7829 C 735.101 1.14819 -1.12575 0
M  V30 7830 O 736.291 1.0629 -1.38015 0
M  V30 7831 C 733.423 1.98979 -2.76803 0
M  V30 7832 H 734.616 0.195588 -2.99262 0
M  V30 7833 H 732.169 0.0644772 -1.56167 0
M  V30 7834 H 732.904 2.56287 -1.98714 0
M  V30 7835 H 732.689 1.69583 -3.53531 0
M  V30 7836 H 734.179 2.63966 -3.23592 0
M  V30 7837 N 734.616 1.57351 0.0885366 0
M  V30 7838 C 735.893 1.77449 0.822873 0
M  V30 7839 C 736.273 0.768463 1.96616 0
M  V30 7840 O 735.621 -0.201757 2.27608 0
M  V30 7841 C 735.831 3.23425 1.31137 0
M  V30 7842 C 737.179 3.86791 1.75152 0
M  V30 7843 O 738.203 3.27215 1.40745 0
M  V30 7844 O 737.062 4.91568 2.38794 0
M  V30 7845 H 734.156 0.727653 0.393002 0
M  V30 7846 H 736.702 1.69556 0.0699095 0
M  V30 7847 H 735.474 3.88188 0.49254 0
M  V30 7848 H 735.097 3.35977 2.12615 0
M  V30 7849 N 736.094 -0.359525 1.53444 0
M  V30 7850 C 737.057 -1.42357 1.7963 0
M  V30 7851 C 738.057 -1.46319 0.666884 0
M  V30 7852 O 739.247 -1.46974 0.935113 0
M  V30 7853 C 736.379 -2.81425 1.92387 0
M  V30 7854 H 737.572 -1.20409 2.74666 0
M  V30 7855 H 735.125 -0.593007 1.44614 0
M  V30 7856 H 735.86 -3.08679 0.994384 0
M  V30 7857 H 735.645 -2.79947 2.74539 0
M  V30 7858 H 737.135 -3.5847 2.14218 0
M  V30 7859 N 737.572 -1.44907 -0.619662 0
M  V30 7860 C 738.821 -1.47569 -1.37501 0
M  V30 7861 C 739.134 -0.116707 -1.95252 0
M  V30 7862 O 740.34 -0.020909 -2.71492 0
M  V30 7863 C 738.796 -2.59851 -2.49009 0
M  V30 7864 C 738.404 -4.02008 -1.97722 0
M  V30 7865 C 740.148 -2.71746 -3.2612 0
M  V30 7866 C 738.055 -5.05693 -3.0664 0
M  V30 7867 H 736.985 -0.549068 -0.51676 0
M  V30 7868 H 739.636 -1.71009 -0.665437 0
M  V30 7869 H 738.018 -2.29671 -3.22594 0
M  V30 7870 H 739.192 -4.41809 -1.30925 0
M  V30 7871 H 737.507 -3.94456 -1.33392 0
M  V30 7872 H 740.104 -3.46382 -4.07337 0
M  V30 7873 H 740.447 -1.77959 -3.76346 0
M  V30 7874 H 740.98 -3.01392 -2.5963 0
M  V30 7875 H 737.719 -6.01148 -2.61345 0
M  V30 7876 H 737.239 -4.70473 -3.72042 0
M  V30 7877 H 738.918 -5.29906 -3.71226 0
M  V30 7878 N 739.05 0.861098 -1.31996 0
M  V30 7879 C 740.28 1.64501 -1.24992 0
M  V30 7880 C 740.688 1.88288 0.185576 0
M  V30 7881 O 740.031 1.44756 1.131 0
M  V30 7882 C 740.093 3.03098 -1.93319 0
M  V30 7883 C 739.757 3.02381 -3.42658 0
M  V30 7884 C 740.754 2.79696 -4.38254 0
M  V30 7885 C 738.439 3.23221 -3.84491 0
M  V30 7886 C 740.433 2.77843 -5.73657 0
M  V30 7887 C 738.12 3.20996 -5.20005 0
M  V30 7888 C 739.118 2.98335 -6.14398 0
M  V30 7889 O 738.806 2.95971 -7.47433 0
M  V30 7890 H 738.538 0.519309 -0.432775 0
M  V30 7891 H 741.092 1.08241 -1.74565 0
M  V30 7892 H 739.322 3.61121 -1.38306 0
M  V30 7893 H 741.011 3.63751 -1.8011 0
M  V30 7894 H 741.777 2.63368 -4.07262 0
M  V30 7895 H 737.656 3.39887 -3.11445 0
M  V30 7896 H 741.2 2.60074 -6.47308 0
M  V30 7897 H 737.097 3.36865 -5.50629 0
M  V30 7898 H 737.865 3.1197 -7.56714 0
M  V30 7899 N 740.528 1.15101 1.07655 0
M  V30 7900 C 741.476 0.840714 2.16875 0
M  V30 7901 C 742.47 -0.184594 1.68391 0
M  V30 7902 O 743.676 -0.0399315 1.79956 0
M  V30 7903 H 740.051 0.254192 0.707736 0
M  V30 7904 H 742.022 1.76959 2.40266 0
M  V30 7905 C 740.771 0.343018 3.46004 0
M  V30 7906 H 740.094 1.12335 3.83694 0
M  V30 7907 H 741.534 0.16453 4.23681 0
M  V30 7908 C 739.993 -0.934881 3.23669 0
M  V30 7909 O 740.523 -2.00706 3.47965 0
M  V30 7910 N 738.729 -0.873167 2.77172 0
M  V30 7911 H 738.276 -0.000479072 2.576 0
M  V30 7912 H 738.234 -1.72873 2.62607 0
M  V30 7913 N 742.006 -1.2595 0.947325 0
M  V30 7914 C 742.939 -2.24559 0.406009 0
M  V30 7915 C 743.917 -1.54441 -0.508598 0
M  V30 7916 O 745.101 -1.83181 -0.444644 0
M  V30 7917 C 742.228 -3.36136 -0.415987 0
M  V30 7918 C 741.274 -4.24245 0.437969 0
M  V30 7919 S 742.107 -5.01948 1.86572 0
M  V30 7920 C 743.263 -6.16997 1.05194 0
M  V30 7921 H 743.496 -2.70128 1.24171 0
M  V30 7922 H 741.029 -1.34912 0.750874 0
M  V30 7923 H 742.987 -4.00861 -0.88433 0
M  V30 7924 H 741.648 -2.89167 -1.22643 0
M  V30 7925 H 740.841 -5.03634 -0.192127 0
M  V30 7926 H 740.443 -3.64416 0.841235 0
M  V30 7927 H 742.735 -6.76848 0.297126 0
M  V30 7928 H 743.678 -6.84324 1.8195 0
M  V30 7929 H 744.086 -5.61458 0.585294 0
M  V30 7930 N 743.484 -0.715051 -1.40445 0
M  V30 7931 C 744.733 -0.251322 -2.00128 0
M  V30 7932 C 745.046 1.16194 -1.57347 0
M  V30 7933 O 746.252 1.72416 -2.09726 0
M  V30 7934 C 744.708 -0.398407 -3.57688 0
M  V30 7935 C 744.316 -1.81828 -4.09442 0
M  V30 7936 C 746.06 0.00455625 -4.245 0
M  V30 7937 C 743.967 -1.91598 -5.59503 0
M  V30 7938 H 742.897 -0.0902081 -0.748584 0
M  V30 7939 H 745.548 -0.886062 -1.6069 0
M  V30 7940 H 743.93 0.304908 -3.94824 0
M  V30 7941 H 745.104 -2.55193 -3.83684 0
M  V30 7942 H 743.419 -2.17266 -3.55225 0
M  V30 7943 H 746.016 -0.0477303 -5.34679 0
M  V30 7944 H 746.359 1.04636 -4.02935 0
M  V30 7945 H 746.892 -0.649184 -3.92467 0
M  V30 7946 H 743.631 -2.93898 -5.85922 0
M  V30 7947 H 743.151 -1.22644 -5.87127 0
M  V30 7948 H 744.83 -1.68785 -6.24596 0
M  V30 7949 N 744.962 1.50701 -0.461195 0
M  V30 7950 C 746.21 2.01867 0.0970051 0
M  V30 7951 C 746.531 1.34591 1.41104 0
M  V30 7952 O 745.801 0.488041 1.89723 0
M  V30 7953 H 744.381 0.74599 0.0388392 0
M  V30 7954 H 747.043 1.85129 -0.609357 0
M  V30 7955 H 746.139 3.11051 0.255688 0
M  V30 7956 N 746.441 0.193421 1.56409 0
M  V30 7957 C 747.671 -0.450783 2.01622 0
M  V30 7958 C 748.079 -1.5585 1.07273 0
M  V30 7959 O 747.422 -1.83569 0.0694875 0
M  V30 7960 C 747.484 -1.06913 3.43235 0
M  V30 7961 C 747.148 -0.100352 4.5689 0
M  V30 7962 C 748.145 0.689633 5.15306 0
M  V30 7963 C 745.83 0.0102436 5.02299 0
M  V30 7964 C 747.824 1.5772 6.17579 0
M  V30 7965 C 745.511 0.901368 6.04416 0
M  V30 7966 C 746.509 1.68341 6.61929 0
M  V30 7967 O 746.197 2.5596 7.62063 0
M  V30 7968 H 745.929 -0.117671 0.66568 0
M  V30 7969 H 748.483 0.2989 2.03214 0
M  V30 7970 H 746.713 -1.86736 3.38624 0
M  V30 7971 H 748.402 -1.61781 3.72266 0
M  V30 7972 H 749.168 0.614485 4.81092 0
M  V30 7973 H 745.047 -0.58829 4.57231 0
M  V30 7974 H 748.591 2.18805 6.62397 0
M  V30 7975 H 744.488 0.977637 6.38054 0
M  V30 7976 H 745.256 2.49721 7.79475 0
M  V30 7977 N 747.919 -1.57396 -0.0801906 0
M  V30 7978 C 749.33 -1.75642 -0.633002 0
M  V30 7979 C 749.681 -0.817708 -1.78348 0
M  V30 7980 O 748.806 0.000233743 -2.164 0
M  V30 7981 C 749.401 -3.18502 -1.15507 0
M  V30 7982 C 747.96 -3.38121 -1.65381 0
M  V30 7983 C 747.107 -2.71386 -0.569661 0
M  V30 7984 H 750.058 -1.58027 0.145949 0
M  V30 7985 H 750.079 -3.22198 -2.02408 0
M  V30 7986 H 749.591 -3.86799 -0.317515 0
M  V30 7987 H 747.692 -2.74926 -2.51488 0
M  V30 7988 H 747.805 -4.46521 -1.73654 0
M  V30 7989 H 746.169 -2.33702 -1.0127 0
M  V30 7990 H 746.952 -3.42332 0.257561 0
M  V30 7991 N 749.397 0.351382 -1.53633 0
M  V30 7992 C 750.345 1.45142 -1.8176 0
M  V30 7993 C 751.339 1.54819 -0.687571 0
M  V30 7994 O 752.545 1.57536 -0.870772 0
M  V30 7995 H 748.92 0.483789 -0.575719 0
M  V30 7996 H 750.891 1.1863 -2.73806 0
M  V30 7997 C 749.64 2.81779 -2.03706 0
M  V30 7998 H 748.963 2.75097 -2.90107 0
M  V30 7999 H 750.403 3.5789 -2.27356 0
M  V30 8000 C 748.862 3.26762 -0.820271 0
M  V30 8001 O 749.392 4.01697 -0.0158603 0
M  V30 8002 N 747.598 2.83472 -0.639699 0
M  V30 8003 H 747.145 2.22655 -1.29547 0
M  V30 8004 H 747.103 3.13924 0.172995 0
M  V30 8005 N 750.875 1.45233 0.611969 0
M  V30 8006 C 752.122 1.49021 1.37109 0
M  V30 8007 C 752.45 0.130227 1.94064 0
M  V30 8008 O 751.705 -0.870551 1.75271 0
M  V30 8009 C 752.004 2.51353 2.54079 0
M  V30 8010 C 751.67 3.96178 2.15299 0
M  V30 8011 C 750.332 4.35614 2.04436 0
M  V30 8012 C 752.684 4.87275 1.84966 0
M  V30 8013 C 750.012 5.64047 1.61456 0
M  V30 8014 C 752.364 6.16115 1.43474 0
M  V30 8015 C 751.028 6.54486 1.31167 0
M  V30 8016 H 750.298 0.545307 0.501719 0
M  V30 8017 H 752.945 1.78555 0.692122 0
M  V30 8018 H 751.25 2.15372 3.27295 0
M  V30 8019 H 752.947 2.51523 3.12309 0
M  V30 8020 H 749.537 3.6499 2.24678 0
M  V30 8021 H 753.721 4.57548 1.92258 0
M  V30 8022 H 748.977 5.92575 1.50547 0
M  V30 8023 H 753.151 6.86149 1.19048 0
M  V30 8024 H 750.778 7.53904 0.97637 0
M  V30 8025 N 752.353 -0.854086 1.3245 0
M  V30 8026 C 753.602 -1.60318 1.22397 0
M  V30 8027 C 753.915 -1.9444 -0.212664 0
M  V30 8028 O 755.121 -2.67991 -0.435066 0
M  V30 8029 C 753.577 -2.8909 2.1437 0
M  V30 8030 C 753.185 -2.62391 3.63119 0
M  V30 8031 C 754.929 -3.67104 2.13155 0
M  V30 8032 C 752.836 -3.87167 4.47052 0
M  V30 8033 H 751.766 -0.601586 0.454544 0
M  V30 8034 H 754.417 -0.943023 1.57415 0
M  V30 8035 H 752.799 -3.56567 1.72268 0
M  V30 8036 H 753.973 -2.03222 4.13567 0
M  V30 8037 H 752.288 -1.97706 3.66471 0
M  V30 8038 H 754.885 -4.59696 2.731 0
M  V30 8039 H 755.228 -4.00876 1.12268 0
M  V30 8040 H 755.761 -3.06533 2.5354 0
M  V30 8041 H 752.5 -3.58536 5.48755 0
M  V30 8042 H 752.02 -4.45729 4.01355 0
M  V30 8043 H 753.699 -4.549 4.60081 0
M  V30 8044 N 753.831 -1.1567 -1.07043 0
M  V30 8045 C 754.764 -0.799867 -2.13723 0
M  V30 8046 C 755.742 0.225098 -1.61034 0
M  V30 8047 O 756.926 0.11093 -1.88173 0
M  V30 8048 C 754.053 -0.18997 -3.38167 0
M  V30 8049 C 753.099 -1.18733 -4.0964 0
M  V30 8050 S 753.932 -2.73074 -4.60642 0
M  V30 8051 C 755.088 -2.13512 -5.88356 0
M  V30 8052 H 755.321 -1.70342 -2.43661 0
M  V30 8053 H 752.854 -0.979377 -1.19363 0
M  V30 8054 H 754.812 0.155471 -4.10205 0
M  V30 8055 H 753.473 0.691229 -3.064 0
M  V30 8056 H 752.666 -0.708873 -4.9899 0
M  V30 8057 H 752.268 -1.47747 -3.43579 0
M  V30 8058 H 754.56 -1.49911 -6.60706 0
M  V30 8059 H 755.503 -3.01042 -6.40921 0
M  V30 8060 H 755.911 -1.57693 -5.42027 0
M  V30 8061 N 755.309 1.25446 -0.953992 0
M  V30 8062 C 756.586 1.884 -0.525823 0
M  V30 8063 C 756.966 1.86079 0.996891 0
M  V30 8064 O 756.314 1.32389 1.8624 0
M  V30 8065 C 756.524 3.31154 -1.10172 0
M  V30 8066 C 757.872 4.07926 -1.17819 0
M  V30 8067 O 758.896 3.40273 -1.05323 0
M  V30 8068 O 757.755 5.28942 -1.37415 0
M  V30 8069 H 754.849 0.808629 -0.173345 0
M  V30 8070 H 757.395 1.33522 -1.04738 0
M  V30 8071 H 756.167 3.27271 -2.14499 0
M  V30 8072 H 755.79 3.93588 -0.56338 0
M  V30 8073 N 756.787 0.722489 1.40064 0
M  V30 8074 C 758.198 0.336507 1.83642 0
M  V30 8075 C 758.549 -1.13002 1.6039 0
M  V30 8076 O 757.674 -1.87036 1.08842 0
M  V30 8077 C 758.269 0.603985 3.33373 0
M  V30 8078 C 756.828 0.271637 3.75419 0
M  V30 8079 C 755.975 0.872898 2.63203 0
M  V30 8080 H 758.926 0.921108 1.29233 0
M  V30 8081 H 758.947 -0.128471 3.80283 0
M  V30 8082 H 758.459 1.67141 3.50265 0
M  V30 8083 H 756.56 -0.790455 3.64119 0
M  V30 8084 H 756.673 0.745457 4.73265 0
M  V30 8085 H 755.037 0.300431 2.52922 0
M  V30 8086 H 755.82 1.94473 2.82905 0
M  V30 8087 N 758.265 -1.50454 0.469181 0
M  V30 8088 C 759.212 -2.28486 -0.325982 0
M  V30 8089 C 760.182 -1.33455 -0.988893 0
M  V30 8090 O 761.367 -1.6239 -1.0017 0
M  V30 8091 C 758.507 -3.15288 -1.40313 0
M  V30 8092 C 757.62 -4.25348 -0.755183 0
M  V30 8093 C 756.755 -4.9941 -1.81006 0
M  V30 8094 C 755.794 -6.01348 -1.14226 0
M  V30 8095 N 754.931 -6.68695 -2.1399 0
M  V30 8096 H 759.771 -2.95987 0.345753 0
M  V30 8097 H 757.308 -1.45965 0.182355 0
M  V30 8098 H 759.266 -3.63964 -2.03927 0
M  V30 8099 H 757.896 -2.49837 -2.04405 0
M  V30 8100 H 756.948 -3.80399 -0.00651901 0
M  V30 8101 H 758.26 -4.98279 -0.227941 0
M  V30 8102 H 757.414 -5.51794 -2.52206 0
M  V30 8103 H 756.153 -4.26181 -2.3711 0
M  V30 8104 H 755.158 -5.48225 -0.415876 0
M  V30 8105 H 756.383 -6.76548 -0.588135 0
M  V30 8106 H 754.329 -5.98258 -2.69115 0
M  V30 8107 H 754.246 -7.37495 -1.66246 0
M  V30 8108 H 755.514 -7.25697 -2.84576 0
M  V30 8109 N 759.743 -0.201713 -1.56304 0
M  V30 8110 C 760.653 0.728296 -2.23009 0
M  V30 8111 C 761.669 1.22945 -1.23128 0
M  V30 8112 O 762.845 1.27523 -1.55884 0
M  V30 8113 C 759.91 1.92792 -2.88153 0
M  V30 8114 C 758.971 1.47068 -4.03323 0
M  V30 8115 C 758.204 2.61312 -4.65351 0
M  V30 8116 O 758.427 3.7896 -4.26317 0
M  V30 8117 O 757.361 2.33646 -5.54701 0
M  V30 8118 H 761.187 0.190166 -3.03104 0
M  V30 8119 H 758.772 0.0278725 -1.49374 0
M  V30 8120 H 760.654 2.6289 -3.29343 0
M  V30 8121 H 759.329 2.45452 -2.11033 0
M  V30 8122 H 758.236 0.738299 -3.66742 0
M  V30 8123 H 759.569 0.990666 -4.82127 0
M  V30 8124 N 761.222 1.57436 0.0718424 0
M  V30 8125 C 762.152 2.06724 1.08571 0
M  V30 8126 C 763.133 0.960731 1.40371 0
M  V30 8127 O 764.318 1.23345 1.49999 0
M  V30 8128 C 761.448 2.51112 2.39916 0
M  V30 8129 C 760.402 3.65639 2.22469 0
M  V30 8130 C 759.728 3.96082 3.59198 0
M  V30 8131 C 761.028 4.95687 1.64596 0
M  V30 8132 H 762.722 2.91679 0.675569 0
M  V30 8133 H 760.268 1.40319 0.32352 0
M  V30 8134 H 762.221 2.84206 3.11135 0
M  V30 8135 H 760.945 1.63186 2.8291 0
M  V30 8136 H 759.604 3.32828 1.53691 0
M  V30 8137 H 759.252 3.05287 3.99761 0
M  V30 8138 H 758.952 4.73199 3.48362 0
M  V30 8139 H 760.476 4.31672 4.31847 0
M  V30 8140 H 761.89 5.27011 2.25681 0
M  V30 8141 H 760.287 5.77126 1.64457 0
M  V30 8142 H 761.357 4.8108 0.60744 0
M  V30 8143 N 762.7 -0.34323 1.53817 0
M  V30 8144 C 763.977 -1.10047 1.61706 0
M  V30 8145 C 764.357 -2.06495 0.438514 0
M  V30 8146 O 763.705 -2.21297 -0.569188 0
M  V30 8147 C 763.915 -1.81985 2.97796 0
M  V30 8148 C 765.263 -2.35717 3.53161 0
M  V30 8149 O 766.287 -1.9208 2.99973 0
M  V30 8150 O 765.146 -3.15551 4.46195 0
M  V30 8151 H 762.24 -0.506096 0.654061 0
M  V30 8152 H 764.786 -0.344697 1.66162 0
M  V30 8153 H 763.558 -1.11722 3.75012 0
M  V30 8154 H 763.181 -2.64419 2.96931 0
M  V30 8155 N 764.178 -1.45556 -0.604258 0
M  V30 8156 C 765.125 -1.54482 -1.71476 0
M  V30 8157 C 766.095 -0.390479 -1.61445 0
M  V30 8158 O 767.28 -0.604371 -1.80975 0
M  V30 8159 C 764.42 -1.52064 -3.09791 0
M  V30 8160 C 763.533 -2.78073 -3.30604 0
M  V30 8161 C 762.668 -2.67304 -4.59044 0
M  V30 8162 C 761.707 -3.88352 -4.73127 0
M  V30 8163 N 760.844 -3.76098 -5.9287 0
M  V30 8164 H 765.684 -2.49349 -1.63184 0
M  V30 8165 H 763.221 -1.23725 -0.795641 0
M  V30 8166 H 765.179 -1.48649 -3.89819 0
M  V30 8167 H 763.809 -0.607442 -3.17033 0
M  V30 8168 H 762.861 -2.91561 -2.44329 0
M  V30 8169 H 764.173 -3.67847 -3.36883 0
M  V30 8170 H 763.327 -2.61875 -5.47272 0
M  V30 8171 H 762.066 -1.75135 -4.55169 0
M  V30 8172 H 761.071 -3.94137 -3.83322 0
M  V30 8173 H 762.296 -4.81591 -4.78797 0
M  V30 8174 H 760.242 -2.867 -5.90033 0
M  V30 8175 H 760.159 -4.59509 -6.00323 0
M  V30 8176 H 761.427 -3.74607 -6.83586 0
M  V30 8177 N 765.656 0.84705 -1.32902 0
M  V30 8178 C 766.902 1.60414 -1.24078 0
M  V30 8179 C 767.235 1.93217 0.195105 0
M  V30 8180 O 766.51 1.58001 1.13428 0
M  V30 8181 C 766.793 2.91951 -2.108 0
M  V30 8182 C 766.646 2.6588 -3.62805 0
M  V30 8183 C 767.965 3.93299 -1.97494 0
M  V30 8184 H 765.084 0.58206 -0.452079 0
M  V30 8185 H 767.726 0.977562 -1.62922 0
M  V30 8186 H 765.876 3.45425 -1.77802 0
M  V30 8187 H 767.548 2.18902 -4.06054 0
M  V30 8188 H 765.791 1.99716 -3.85092 0
M  V30 8189 H 766.462 3.59574 -4.1882 0
M  V30 8190 H 768.938 3.49105 -2.26417 0
M  V30 8191 H 767.814 4.8318 -2.60438 0
M  V30 8192 H 768.075 4.31887 -0.944782 0
M  V30 8193 N 767.134 1.16236 1.06428 0
M  V30 8194 C 768.381 0.943034 1.79201 0
M  V30 8195 C 768.709 -0.529243 1.87161 0
M  V30 8196 O 767.964 -1.40874 1.35842 0
M  V30 8197 C 768.263 1.51396 3.2375 0
M  V30 8198 C 767.929 3.00833 3.35873 0
M  V30 8199 C 766.591 3.41626 3.38888 0
M  V30 8200 C 768.943 3.96825 3.37904 0
M  V30 8201 C 766.271 4.77033 3.4155 0
M  V30 8202 C 768.623 5.32116 3.42104 0
M  V30 8203 C 767.287 5.72392 3.43401 0
M  V30 8204 H 766.557 0.34508 0.655744 0
M  V30 8205 H 769.204 1.44929 1.25171 0
M  V30 8206 H 767.509 0.929114 3.80624 0
M  V30 8207 H 769.206 1.31996 3.78653 0
M  V30 8208 H 765.796 2.68306 3.3423 0
M  V30 8209 H 769.98 3.66376 3.34787 0
M  V30 8210 H 765.236 5.07569 3.40858 0
M  V30 8211 H 769.41 6.06286 3.42623 0
M  V30 8212 H 767.037 6.77296 3.45216 0
M  V30 8213 N 768.612 -1.24939 0.960631 0
M  V30 8214 C 769.56 -2.27659 0.47686 0
M  V30 8215 C 770.554 -1.63148 -0.455961 0
M  V30 8216 O 771.76 -1.76911 -0.332029 0
M  V30 8217 H 768.135 -0.739651 0.135723 0
M  V30 8218 H 770.106 -2.65844 1.35534 0
M  V30 8219 C 768.855 -3.46976 -0.224191 0
M  V30 8220 H 768.178 -3.96854 0.484471 0
M  V30 8221 H 769.618 -4.20717 -0.526615 0
M  V30 8222 C 768.077 -3.04159 -1.44876 0
M  V30 8223 O 768.607 -3.10697 -2.54618 0
M  V30 8224 N 766.813 -2.59284 -1.31226 0
M  V30 8225 H 766.36 -2.54164 -0.419361 0
M  V30 8226 H 766.318 -2.31 -2.13275 0
M  V30 8227 N 770.09 -0.729906 -1.39679 0
M  V30 8228 C 771.367 -0.202149 -1.94553 0
M  V30 8229 C 771.747 1.29507 -1.66707 0
M  V30 8230 O 771.095 2.05819 -0.992517 0
M  V30 8231 C 771.305 -0.530279 -3.44948 0
M  V30 8232 C 772.653 -0.476808 -4.21914 0
M  V30 8233 O 773.677 -0.467171 -3.53123 0
M  V30 8234 O 772.536 -0.466869 -5.44502 0
M  V30 8235 H 769.63 -0.0351644 -0.826252 0
M  V30 8236 H 772.176 -0.808417 -1.49207 0
M  V30 8237 H 770.948 -1.56526 -3.5863 0
M  V30 8238 H 770.571 0.10522 -3.97461 0
M  V30 8239 N 771.568 1.50203 -0.477153 0
M  V30 8240 C 772.798 2.0647 0.0731427 0
M  V30 8241 C 773.206 1.3405 1.33518 0
M  V30 8242 O 772.549 0.405164 1.79176 0
M  V30 8243 C 772.611 3.57025 0.421121 0
M  V30 8244 C 772.275 4.50973 -0.739765 0
M  V30 8245 C 773.272 4.939 -1.62353 0
M  V30 8246 C 770.957 4.93581 -0.93181 0
M  V30 8247 C 772.951 5.78149 -2.6837 0
M  V30 8248 C 770.638 5.77612 -1.99519 0
M  V30 8249 C 771.636 6.19798 -2.86949 0
M  V30 8250 O 771.324 7.02152 -3.91456 0
M  V30 8251 H 771.056 0.675969 -0.00648243 0
M  V30 8252 H 773.61 1.94278 -0.66673 0
M  V30 8253 H 771.84 3.67141 1.21426 0
M  V30 8254 H 773.529 3.95632 0.907213 0
M  V30 8255 H 774.295 4.61646 -1.48687 0
M  V30 8256 H 770.174 4.60262 -0.260739 0
M  V30 8257 H 773.718 6.10997 -3.36643 0
M  V30 8258 H 769.615 6.09279 -2.13189 0
M  V30 8259 H 770.383 7.20414 -3.88518 0
M  V30 8260 N 773.046 0.209999 1.56195 0
M  V30 8261 C 774.274 -0.429996 2.02382 0
M  V30 8262 C 774.689 -1.54159 1.08998 0
M  V30 8263 O 774.046 -1.82239 0.0974856 0
M  V30 8264 C 774.097 -0.972433 3.48175 0
M  V30 8265 O 773.818 0.0948231 4.37997 0
M  V30 8266 C 775.319 -1.68683 4.09952 0
M  V30 8267 H 772.539 -0.106475 0.662498 0
M  V30 8268 H 775.083 0.323072 2.01932 0
M  V30 8269 H 773.238 -1.67582 3.49278 0
M  V30 8270 H 773.652 -0.31113 5.23576 0
M  V30 8271 H 775.126 -2.01851 5.13771 0
M  V30 8272 H 775.603 -2.59587 3.54276 0
M  V30 8273 H 776.209 -1.02893 4.12666 0
M  V30 8274 N 774.524 -1.57472 -0.0634922 0
M  V30 8275 C 775.487 -2.03268 -1.059 0
M  V30 8276 C 776.487 -0.931028 -1.31105 0
M  V30 8277 O 777.677 -1.19567 -1.26686 0
M  V30 8278 C 774.809 -2.42039 -2.40062 0
M  V30 8279 H 776.002 -2.92454 -0.664119 0
M  V30 8280 H 773.555 -1.53206 -0.309444 0
M  V30 8281 H 774.29 -1.55904 -2.84367 0
M  V30 8282 H 774.075 -3.22437 -2.23108 0
M  V30 8283 H 775.565 -2.78017 -3.11603 0
M  V30 8284 N 776.003 0.335068 -1.53997 0
M  V30 8285 C 777.249 1.07594 -1.71905 0
M  V30 8286 C 777.582 1.88039 -0.485264 0
M  V30 8287 O 776.857 1.87482 0.517752 0
M  V30 8288 C 777.14 2.01016 -2.98772 0
M  V30 8289 C 776.993 1.23977 -4.32377 0
M  V30 8290 C 778.312 3.0071 -3.21343 0
M  V30 8291 H 775.431 0.38976 -0.625505 0
M  V30 8292 H 778.073 0.353684 -1.86679 0
M  V30 8293 H 776.223 2.62603 -2.86307 0
M  V30 8294 H 777.895 0.649383 -4.56706 0
M  V30 8295 H 776.138 0.541878 -4.30402 0
M  V30 8296 H 776.809 1.92512 -5.17342 0
M  V30 8297 H 779.285 2.4924 -3.33194 0
M  V30 8298 H 778.161 3.63272 -4.11491 0
M  V30 8299 H 778.422 3.72549 -2.38033 0
M  V30 8300 N 777.481 1.45874 0.596531 0
M  V30 8301 C 778.892 1.44798 1.17857 0
M  V30 8302 C 779.243 0.181443 1.95359 0
M  V30 8303 O 778.368 -0.716336 2.042 0
M  V30 8304 C 778.963 2.62333 2.14398 0
M  V30 8305 C 777.522 2.64342 2.67955 0
M  V30 8306 C 776.669 2.37244 1.43564 0
M  V30 8307 H 779.62 1.53954 0.385222 0
M  V30 8308 H 779.641 2.37063 2.97626 0
M  V30 8309 H 779.153 3.54499 1.57963 0
M  V30 8310 H 777.254 1.76213 3.28298 0
M  V30 8311 H 777.367 3.63897 3.11634 0
M  V30 8312 H 775.731 1.87022 1.72901 0
M  V30 8313 H 776.514 3.31568 0.889805 0
M  V30 8314 N 778.959 -0.83999 1.33349 0
M  V30 8315 C 780.236 -1.57973 1.15342 0
M  V30 8316 C 780.616 -2.09226 -0.280632 0
M  V30 8317 O 779.964 -1.89317 -1.2795 0
M  V30 8318 C 780.174 -2.71446 2.19359 0
M  V30 8319 C 781.522 -3.40654 2.53456 0
M  V30 8320 O 782.546 -2.81686 2.18017 0
M  V30 8321 O 781.405 -4.47101 3.14266 0
M  V30 8322 H 778.499 -0.6964 0.446044 0
M  V30 8323 H 781.045 -0.882843 1.44927 0
M  V30 8324 H 779.817 -2.31205 3.1569 0
M  V30 8325 H 779.44 -3.488 1.90852 0
M  V30 8326 N 780.437 -1.16799 -1.0581 0
M  V30 8327 C 781.367 -0.902241 -2.15364 0
M  V30 8328 C 782.348 0.153351 -1.69407 0
M  V30 8329 O 783.533 0.00442032 -1.94199 0
M  V30 8330 C 780.663 -0.407911 -3.44896 0
M  V30 8331 C 779.617 -1.40197 -4.04387 0
M  V30 8332 C 778.943 -0.765848 -5.29187 0
M  V30 8333 C 780.243 -2.77316 -4.42598 0
M  V30 8334 H 781.937 -1.81841 -2.37853 0
M  V30 8335 H 779.483 -0.875731 -1.14311 0
M  V30 8336 H 781.436 -0.20945 -4.20879 0
M  V30 8337 H 780.16 0.54378 -3.22041 0
M  V30 8338 H 778.819 -1.58707 -3.30466 0
M  V30 8339 H 778.467 0.192482 -5.02632 0
M  V30 8340 H 778.167 -1.42939 -5.69949 0
M  V30 8341 H 779.691 -0.577519 -6.07863 0
M  V30 8342 H 781.105 -2.62561 -5.09642 0
M  V30 8343 H 779.502 -3.4019 -4.94359 0
M  V30 8344 H 780.572 -3.32199 -3.53231 0
M  V30 8345 N 781.915 1.24427 -0.967243 0
M  V30 8346 C 783.145 1.96256 -0.64554 0
M  V30 8347 C 783.553 1.71959 0.789098 0
M  V30 8348 O 782.896 0.999913 1.54102 0
M  V30 8349 C 782.958 3.49553 -0.839798 0
M  V30 8350 C 782.622 3.97548 -2.25399 0
M  V30 8351 C 783.619 4.07257 -3.23168 0
M  V30 8352 C 781.304 4.30884 -2.58156 0
M  V30 8353 C 783.298 4.49635 -4.51782 0
M  V30 8354 C 780.985 4.72946 -3.86996 0
M  V30 8355 C 781.983 4.82286 -4.83621 0
M  V30 8356 O 781.671 5.23409 -6.10162 0
M  V30 8357 H 781.403 0.632002 -0.239895 0
M  V30 8358 H 783.957 1.59224 -1.29757 0
M  V30 8359 H 782.187 3.86479 -0.130603 0
M  V30 8360 H 783.876 4.02591 -0.517249 0
M  V30 8361 H 784.642 3.8172 -2.9919 0
M  V30 8362 H 780.521 4.22833 -1.83666 0
M  V30 8363 H 784.065 4.5684 -5.27203 0
M  V30 8364 H 779.962 4.9793 -4.10775 0
M  V30 8365 H 780.73 5.4156 -6.13722 0
M  V30 8366 N 783.393 0.737304 1.3929 0
M  V30 8367 C 784.64 0.286257 2.00467 0
M  V30 8368 C 784.968 -1.1272 1.58507 0
M  V30 8369 O 784.223 -1.7832 0.806257 0
M  V30 8370 C 784.522 0.338438 3.55794 0
M  V30 8371 C 784.188 1.70524 4.17411 0
M  V30 8372 C 782.85 2.07934 4.33955 0
M  V30 8373 C 785.202 2.60256 4.51571 0
M  V30 8374 C 782.53 3.34578 4.81948 0
M  V30 8375 C 784.882 3.86275 5.00974 0
M  V30 8376 C 783.546 4.23774 5.15725 0
M  V30 8377 H 782.816 0.104749 0.733559 0
M  V30 8378 H 785.463 0.944598 1.66582 0
M  V30 8379 H 783.768 -0.403478 3.89717 0
M  V30 8380 H 785.465 -0.0287255 4.0099 0
M  V30 8381 H 782.055 1.40439 4.04938 0
M  V30 8382 H 786.239 2.32624 4.38406 0
M  V30 8383 H 781.495 3.63572 4.91554 0
M  V30 8384 H 785.669 4.5596 5.26378 0
M  V30 8385 H 783.296 5.21972 5.52674 0
M  V30 8386 N 784.871 -1.49948 0.485112 0
M  V30 8387 C 785.781 -2.32587 -0.306697 0
M  V30 8388 C 786.797 -1.43598 -0.982632 0
M  V30 8389 O 787.973 -1.76638 -0.967519 0
M  V30 8390 C 785.038 -3.18638 -1.3664 0
M  V30 8391 C 784.099 -4.23462 -0.705589 0
M  V30 8392 C 783.332 -5.05401 -1.7148 0
M  V30 8393 O 783.555 -4.88618 -2.94293 0
M  V30 8394 O 782.489 -5.88157 -1.27889 0
M  V30 8395 H 786.315 -3.01447 0.369272 0
M  V30 8396 H 783.9 -1.47349 0.246709 0
M  V30 8397 H 785.782 -3.71992 -1.9799 0
M  V30 8398 H 784.457 -2.52491 -2.02559 0
M  V30 8399 H 783.364 -3.74063 -0.0527733 0
M  V30 8400 H 784.697 -4.92119 -0.0891187 0
M  V30 8401 N 786.349 -0.21828 -1.56081 0
M  V30 8402 C 787.297 0.709679 -2.21509 0
M  V30 8403 C 788.291 1.20221 -1.19346 0
M  V30 8404 O 789.497 1.16241 -1.37433 0
M  V30 8405 H 785.872 0.247271 -0.710184 0
M  V30 8406 H 787.843 0.134386 -2.98097 0
M  V30 8407 C 786.592 1.90853 -2.90638 0
M  V30 8408 H 785.915 1.53865 -3.69006 0
M  V30 8409 H 787.355 2.53568 -3.39822 0
M  V30 8410 C 785.814 2.76189 -1.92929 0
M  V30 8411 O 786.344 3.74842 -1.44416 0
M  V30 8412 N 784.55 2.42157 -1.6065 0
M  V30 8413 H 784.097 1.61987 -2.00294 0
M  V30 8414 H 784.055 2.99534 -0.955347 0
M  V30 8415 N 787.827 1.57504 0.0551401 0
M  V30 8416 C 788.79 2.03826 1.04821 0
M  V30 8417 C 789.79 0.937968 1.30609 0
M  V30 8418 O 790.98 1.20237 1.2605 0
M  V30 8419 C 788.112 2.43309 2.38775 0
M  V30 8420 H 789.305 2.92802 0.6486 0
M  V30 8421 H 786.858 1.53368 0.301315 0
M  V30 8422 H 787.593 1.5741 2.83536 0
M  V30 8423 H 787.378 3.23615 2.21395 0
M  V30 8424 H 788.868 2.79666 3.10124 0
M  V30 8425 N 789.305 -0.326896 1.54172 0
M  V30 8426 C 790.238 -1.42591 1.78166 0
M  V30 8427 C 791.216 -1.49837 0.631484 0
M  V30 8428 O 792.4 -1.67298 0.868544 0
M  V30 8429 C 789.527 -2.8071 1.89524 0
M  V30 8430 C 788.573 -2.91012 3.11792 0
M  V30 8431 S 789.406 -2.55763 4.70474 0
M  V30 8432 C 790.562 -3.9596 4.84733 0
M  V30 8433 H 790.795 -1.22024 2.71104 0
M  V30 8434 H 788.328 -0.523539 1.45253 0
M  V30 8435 H 790.286 -3.60276 1.96753 0
M  V30 8436 H 788.947 -2.98562 0.975696 0
M  V30 8437 H 788.14 -3.92258 3.16464 0
M  V30 8438 H 787.742 -2.19414 3.02876 0
M  V30 8439 H 790.034 -4.90676 4.67166 0
M  V30 8440 H 790.977 -3.96273 5.86833 0
M  V30 8441 H 791.385 -3.8476 4.13062 0
M  V30 8442 N 790.784 -1.46188 -0.588786 0
M  V30 8443 C 792.2 -1.31009 -0.911524 0
M  V30 8444 C 792.4 -0.277017 -1.99587 0
M  V30 8445 O 791.456 0.322532 -2.50432 0
M  V30 8446 C 792.769 -2.69459 -1.33463 0
M  V30 8447 C 794.317 -2.77502 -1.44782 0
M  V30 8448 C 794.792 -4.1652 -1.90461 0
M  V30 8449 N 796.283 -4.18907 -1.97665 0
M  V30 8450 C 797.018 -5.23359 -2.34271 0
M  V30 8451 N 796.514 -6.38143 -2.69714 0
M  V30 8452 N 798.307 -5.10723 -2.34774 0
M  V30 8453 H 790.458 -2.12016 0.127614 0
M  V30 8454 H 792.721 -0.947984 -0.00557599 0
M  V30 8455 H 792.427 -3.46336 -0.611929 0
M  V30 8456 H 792.301 -2.99165 -2.2974 0
M  V30 8457 H 794.688 -2.00917 -2.1614 0
M  V30 8458 H 794.769 -2.51488 -0.467724 0
M  V30 8459 H 794.413 -4.93597 -1.19684 0
M  V30 8460 H 794.343 -4.39937 -2.89418 0
M  V30 8461 H 796.834 -3.36084 -1.72789 0
M  V30 8462 H 797.147 -7.13624 -2.96582 0
M  V30 8463 H 795.492 -6.41514 -2.67366 0
M  V30 8464 H 798.683 -4.20088 -2.06503 0
M  V30 8465 H 798.856 -5.9224 -2.62975 0
M  V30 8466 N 792.262 0.832906 -1.33792 0
M  V30 8467 C 793.509 1.58853 -1.25586 0
M  V30 8468 C 793.837 1.93695 0.176807 0
M  V30 8469 O 793.092 1.59386 1.13554 0
M  V30 8470 C 793.391 2.9047 -2.08235 0
M  V30 8471 C 793.057 2.74965 -3.57358 0
M  V30 8472 C 791.719 2.70444 -3.98012 0
M  V30 8473 C 794.071 2.59347 -4.52093 0
M  V30 8474 C 791.399 2.48212 -5.31608 0
M  V30 8475 C 793.751 2.38649 -5.85858 0
M  V30 8476 C 792.415 2.32533 -6.25687 0
M  V30 8477 H 791.685 0.581285 -0.459553 0
M  V30 8478 H 794.332 0.964501 -1.65438 0
M  V30 8479 H 792.637 3.57111 -1.6118 0
M  V30 8480 H 794.334 3.48001 -1.99239 0
M  V30 8481 H 790.924 2.79319 -3.25083 0
M  V30 8482 H 795.108 2.6187 -4.2159 0
M  V30 8483 H 790.364 2.41929 -5.61498 0
M  V30 8484 H 794.538 2.25549 -6.58863 0
M  V30 8485 H 792.165 2.15067 -7.29143 0
M  V30 8486 N 793.74 1.17359 1.05189 0
M  V30 8487 C 794.987 0.961987 1.78191 0
M  V30 8488 C 795.315 -0.509363 1.87712 0
M  V30 8489 O 794.57 -1.39425 1.37329 0
M  V30 8490 C 794.869 1.54821 3.22126 0
M  V30 8491 C 794.535 3.04378 3.32663 0
M  V30 8492 C 793.197 3.45201 3.35246 0
M  V30 8493 C 795.549 4.00387 3.33677 0
M  V30 8494 C 792.877 4.80629 3.36471 0
M  V30 8495 C 795.229 5.35715 3.36441 0
M  V30 8496 C 793.893 5.76002 3.37311 0
M  V30 8497 H 793.163 0.352016 0.652047 0
M  V30 8498 H 795.81 1.46249 1.23627 0
M  V30 8499 H 794.115 0.969432 3.79617 0
M  V30 8500 H 795.812 1.36004 3.77232 0
M  V30 8501 H 792.402 2.71836 3.31366 0
M  V30 8502 H 796.586 3.69906 3.30882 0
M  V30 8503 H 791.842 5.11155 3.35455 0
M  V30 8504 H 796.016 6.09886 3.36173 0
M  V30 8505 H 793.643 6.80919 3.38013 0
M  V30 8506 N 795.218 -1.23913 0.973828 0
M  V30 8507 C 796.166 -2.27141 0.50098 0
M  V30 8508 C 797.16 -1.63623 -0.438631 0
M  V30 8509 O 798.366 -1.77253 -0.313247 0
M  V30 8510 H 794.741 -0.73817 0.14356 0
M  V30 8511 H 796.712 -2.64392 1.38346 0
M  V30 8512 C 795.461 -3.47195 -0.187377 0
M  V30 8513 H 794.784 -3.96318 0.526535 0
M  V30 8514 H 796.224 -4.21252 -0.481962 0
M  V30 8515 C 794.683 -3.05678 -1.41642 0
M  V30 8516 O 795.213 -3.1338 -2.51309 0
M  V30 8517 N 793.419 -2.60661 -1.28469 0
M  V30 8518 H 792.966 -2.54594 -0.39238 0
M  V30 8519 H 792.924 -2.33249 -2.10813 0
M  V30 8520 N 796.696 -0.74468 -1.38897 0
M  V30 8521 C 797.943 -0.296884 -2.00312 0
M  V30 8522 C 798.271 1.11878 -1.59102 0
M  V30 8523 O 797.526 1.7789 -0.815702 0
M  V30 8524 C 797.825 -0.357302 -3.55609 0
M  V30 8525 C 797.491 -1.72736 -4.16501 0
M  V30 8526 C 796.153 -2.10232 -4.32846 0
M  V30 8527 C 798.505 -2.62647 -4.50184 0
M  V30 8528 C 795.833 -3.3713 -4.80167 0
M  V30 8529 C 798.185 -3.88926 -4.98918 0
M  V30 8530 C 796.849 -4.26503 -5.1347 0
M  V30 8531 H 796.119 -0.108638 -0.732993 0
M  V30 8532 H 798.766 -0.953419 -1.66079 0
M  V30 8533 H 797.071 0.382805 -3.89925 0
M  V30 8534 H 798.768 0.0074596 -4.00999 0
M  V30 8535 H 795.358 -1.42585 -4.04187 0
M  V30 8536 H 799.542 -2.34945 -4.37166 0
M  V30 8537 H 794.798 -3.66174 -4.89619 0
M  V30 8538 H 798.972 -4.58745 -5.23952 0
M  V30 8539 H 796.599 -5.24896 -5.49898 0
M  V30 8540 N 798.174 1.49689 -0.493057 0
M  V30 8541 C 799.399 2.07331 0.0535114 0
M  V30 8542 C 799.824 1.35196 1.30781 0
M  V30 8543 O 799.182 0.406246 1.7669 0
M  V30 8544 C 799.23 3.59364 0.29825 0
M  V30 8545 O 798.334 3.88819 1.37454 0
M  V30 8546 H 797.675 0.663612 -0.0227018 0
M  V30 8547 H 800.205 1.926 -0.690402 0
M  V30 8548 H 800.215 4.04515 0.532159 0
M  V30 8549 H 798.89 4.1128 -0.618207 0
M  V30 8550 H 797.467 3.55487 1.12621 0
M  V30 8551 N 799.652 0.226554 1.55963 0
M  V30 8552 C 800.898 -0.397608 1.99476 0
M  V30 8553 C 801.253 -1.57031 1.11172 0
M  V30 8554 O 800.546 -1.90907 0.162757 0
M  V30 8555 C 800.74 -0.87642 3.46488 0
M  V30 8556 C 800.569 0.248344 4.49014 0
M  V30 8557 C 799.339 0.71638 5.00196 0
M  V30 8558 C 801.537 1.06835 5.03081 0
M  V30 8559 N 799.519 1.81568 5.86435 0
M  V30 8560 C 800.89 2.01641 5.86294 0
M  V30 8561 C 802.945 1.10722 4.85433 0
M  V30 8562 C 801.648 3.0002 6.53743 0
M  V30 8563 C 803.674 2.07921 5.53645 0
M  V30 8564 C 803.036 3.01466 6.3663 0
M  V30 8565 H 799.135 -0.112024 0.773935 0
M  V30 8566 H 801.719 0.339472 1.91718 0
M  V30 8567 H 799.89 -1.58285 3.54684 0
M  V30 8568 H 801.622 -1.47382 3.76909 0
M  V30 8569 H 798.377 0.30409 4.72623 0
M  V30 8570 H 798.801 2.36748 6.34255 0
M  V30 8571 H 803.443 0.397909 4.20923 0
M  V30 8572 H 801.161 3.71911 7.17432 0
M  V30 8573 H 804.747 2.11609 5.41953 0
M  V30 8574 H 803.627 3.75451 6.88481 0
M  V30 8575 N 801.13 -1.57531 -0.0467866 0
M  V30 8576 C 802.546 -1.54451 -0.402107 0
M  V30 8577 C 802.746 -0.950275 -1.77685 0
M  V30 8578 O 801.802 -0.563602 -2.4613 0
M  V30 8579 C 803.115 -2.9899 -0.320212 0
M  V30 8580 C 804.663 -3.10452 -0.398588 0
M  V30 8581 C 805.138 -4.56689 -0.346335 0
M  V30 8582 N 806.629 -4.6142 -0.405666 0
M  V30 8583 C 807.364 -5.72087 -0.387845 0
M  V30 8584 N 806.86 -6.92045 -0.32336 0
M  V30 8585 N 808.653 -5.60404 -0.436263 0
M  V30 8586 H 800.804 -1.94515 0.853087 0
M  V30 8587 H 803.067 -0.891397 0.322669 0
M  V30 8588 H 802.773 -3.46124 0.623794 0
M  V30 8589 H 802.647 -3.60164 -1.1208 0
M  V30 8590 H 805.034 -2.63276 -1.33302 0
M  V30 8591 H 805.115 -2.52142 0.431026 0
M  V30 8592 H 804.759 -5.04527 0.584356 0
M  V30 8593 H 804.689 -5.12889 -1.19382 0
M  V30 8594 H 807.18 -3.75105 -0.458737 0
M  V30 8595 H 807.493 -7.7216 -0.314375 0
M  V30 8596 H 805.838 -6.94396 -0.28967 0
M  V30 8597 H 809.029 -4.65586 -0.48451 0
M  V30 8598 H 809.202 -6.46645 -0.418907 0
M  V30 8599 N 802.608 0.318715 -1.54344 0
M  V30 8600 C 803.854 1.05765 -1.73037 0
M  V30 8601 C 804.187 1.87514 -0.505181 0
M  V30 8602 O 803.462 1.88021 0.497838 0
M  V30 8603 C 803.745 1.97836 -3.00887 0
M  V30 8604 C 803.598 1.19384 -4.33668 0
M  V30 8605 C 804.917 2.97285 -3.24514 0
M  V30 8606 H 802.036 0.383104 -0.629603 0
M  V30 8607 H 804.678 0.333864 -1.87044 0
M  V30 8608 H 802.828 2.59552 -2.89076 0
M  V30 8609 H 804.5 0.600906 -4.57369 0
M  V30 8610 H 802.743 0.496198 -4.30953 0
M  V30 8611 H 803.414 1.87014 -5.19355 0
M  V30 8612 H 805.89 2.45693 -3.35819 0
M  V30 8613 H 804.766 3.58887 -4.15321 0
M  V30 8614 H 805.027 3.70003 -2.41971 0
M  V30 8615 N 804.086 1.46499 0.581025 0
M  V30 8616 C 805.314 1.5547 1.36517 0
M  V30 8617 C 805.729 0.196407 1.87776 0
M  V30 8618 O 805.086 -0.806577 1.63709 0
M  V30 8619 C 805.137 2.56084 2.55154 0
M  V30 8620 O 804.858 3.86637 2.06018 0
M  V30 8621 C 806.359 2.75011 3.47683 0
M  V30 8622 H 803.579 0.525703 0.416986 0
M  V30 8623 H 806.123 1.9192 0.706177 0
M  V30 8624 H 804.278 2.22633 3.17039 0
M  V30 8625 H 804.692 4.41413 2.83292 0
M  V30 8626 H 806.166 3.49329 4.27403 0
M  V30 8627 H 806.643 1.81978 3.99726 0
M  V30 8628 H 807.249 3.09565 2.91632 0
M  V30 8629 N 805.565 -0.825799 1.34232 0
M  V30 8630 C 806.528 -1.91808 1.25468 0
M  V30 8631 C 807.528 -1.59893 0.170567 0
M  V30 8632 O 808.718 -1.68986 0.422996 0
M  V30 8633 C 805.85 -3.27786 0.93644 0
M  V30 8634 H 807.043 -2.01003 2.22571 0
M  V30 8635 H 804.596 -1.01944 1.18479 0
M  V30 8636 H 805.331 -3.24285 -0.0315408 0
M  V30 8637 H 805.116 -3.52333 1.72057 0
M  V30 8638 H 806.606 -4.07782 0.900214 0
M  V30 8639 N 807.043 -1.17915 -1.04565 0
M  V30 8640 C 808.32 -0.881187 -1.74627 0
M  V30 8641 C 808.7 0.617123 -2.01878 0
M  V30 8642 O 808.048 1.57032 -1.65991 0
M  V30 8643 C 808.258 -1.72299 -3.03503 0
M  V30 8644 C 809.606 -1.94688 -3.77335 0
M  V30 8645 O 810.63 -1.6931 -3.13389 0
M  V30 8646 O 809.489 -2.37379 -4.92253 0
M  V30 8647 H 806.583 -0.326864 -0.759664 0
M  V30 8648 H 809.129 -1.28642 -1.10676 0
M  V30 8649 H 807.901 -2.73891 -2.79462 0
M  V30 8650 H 807.524 -1.31593 -3.75192 0
M  V30 8651 N 808.521 1.23394 -0.980386 0
M  V30 8652 C 809.453 2.24146 -0.478657 0
M  V30 8653 C 810.466 1.57303 0.419492 0
M  V30 8654 O 811.655 1.77094 0.223631 0
M  V30 8655 C 808.755 3.3732 0.326913 0
M  V30 8656 C 807.928 4.33744 -0.56436 0
M  V30 8657 C 806.987 5.25866 0.187358 0
M  V30 8658 O 806.013 5.67626 -0.423019 0
M  V30 8659 N 807.215 5.61492 1.47335 0
M  V30 8660 H 809.98 2.67826 -1.34496 0
M  V30 8661 H 807.541 1.37566 -0.853653 0
M  V30 8662 H 809.533 3.95926 0.838148 0
M  V30 8663 H 808.103 2.92823 1.09422 0
M  V30 8664 H 807.323 3.73641 -1.25642 0
M  V30 8665 H 808.611 4.95123 -1.17177 0
M  V30 8666 H 808.009 5.29514 1.99077 0
M  V30 8667 H 806.566 6.2257 1.93002 0
M  V30 8668 N 809.999 0.752036 1.385 0
M  V30 8669 C 810.929 0.138718 2.33088 0
M  V30 8670 C 811.91 -0.705318 1.54788 0
M  V30 8671 O 813.095 -0.646821 1.83112 0
M  V30 8672 C 810.225 -0.75641 3.38963 0
M  V30 8673 C 809.179 -0.0152239 4.27997 0
M  V30 8674 C 808.505 -1.0285 5.24715 0
M  V30 8675 C 809.805 1.15226 5.09431 0
M  V30 8676 H 811.499 0.928852 2.84627 0
M  V30 8677 H 809.045 0.448111 1.3685 0
M  V30 8678 H 810.998 -1.19513 4.04097 0
M  V30 8679 H 809.722 -1.57885 2.85902 0
M  V30 8680 H 808.381 0.404061 3.64366 0
M  V30 8681 H 808.029 -1.84496 4.67943 0
M  V30 8682 H 807.729 -0.537238 5.85139 0
M  V30 8683 H 809.253 -1.46657 5.92726 0
M  V30 8684 H 810.667 0.791161 5.67815 0
M  V30 8685 H 809.064 1.57428 5.79082 0
M  V30 8686 H 810.134 1.9659 4.43261 0
M  V30 8687 N 811.477 -1.49425 0.500989 0
M  V30 8688 C 812.893 -1.58826 0.156951 0
M  V30 8689 C 813.093 -1.50622 -1.33848 0
M  V30 8690 O 812.149 -1.38016 -2.11442 0
M  V30 8691 C 813.462 -2.91611 0.73374 0
M  V30 8692 C 815.01 -3.05076 0.699846 0
M  V30 8693 C 815.485 -4.40479 1.2547 0
M  V30 8694 N 816.976 -4.4697 1.2154 0
M  V30 8695 C 817.711 -5.50189 1.6149 0
M  V30 8696 N 817.207 -6.60512 2.09034 0
M  V30 8697 N 819 -5.40903 1.52907 0
M  V30 8698 H 811.151 -1.53001 1.47324 0
M  V30 8699 H 813.414 -0.724765 0.61108 0
M  V30 8700 H 813.12 -3.03182 1.78251 0
M  V30 8701 H 812.994 -3.767 0.19417 0
M  V30 8702 H 815.381 -2.93134 -0.340085 0
M  V30 8703 H 815.462 -2.2167 1.27656 0
M  V30 8704 H 815.106 -4.53172 2.29341 0
M  V30 8705 H 815.036 -5.22524 0.653921 0
M  V30 8706 H 817.527 -3.67819 0.867043 0
M  V30 8707 H 817.84 -7.35372 2.37588 0
M  V30 8708 H 816.185 -6.61553 2.13008 0
M  V30 8709 H 819.376 -4.53606 1.15583 0
M  V30 8710 H 819.549 -6.21219 1.84365 0
M  V30 8711 N 812.955 -0.234822 -1.55841 0
M  V30 8712 C 813.902 0.6698 -2.20867 0
M  V30 8713 C 814.872 1.18042 -1.16856 0
M  V30 8714 O 816.057 1.23709 -1.45261 0
M  V30 8715 C 813.197 1.86646 -2.90271 0
M  V30 8716 C 812.31 1.39351 -4.08908 0
M  V30 8717 C 811.445 2.54878 -4.66059 0
M  V30 8718 C 810.484 2.04384 -5.76969 0
M  V30 8719 N 809.621 3.13233 -6.28355 0
M  V30 8720 H 814.461 0.10858 -2.97802 0
M  V30 8721 H 811.998 0.041836 -1.4704 0
M  V30 8722 H 813.956 2.56926 -3.28702 0
M  V30 8723 H 812.586 2.40035 -2.15831 0
M  V30 8724 H 811.638 0.585173 -3.75872 0
M  V30 8725 H 812.95 0.983356 -4.89011 0
M  V30 8726 H 812.104 3.33219 -5.07001 0
M  V30 8727 H 810.843 2.99188 -3.85146 0
M  V30 8728 H 809.848 1.24509 -5.35516 0
M  V30 8729 H 811.073 1.61057 -6.59725 0
M  V30 8730 H 809.019 3.57 -5.50352 0
M  V30 8731 H 808.936 2.76511 -7.03618 0
M  V30 8732 H 810.204 3.91669 -6.73955 0
M  V30 8733 N 814.433 1.57553 0.0384317 0
M  V30 8734 C 815.396 2.04927 1.02653 0
M  V30 8735 C 816.396 0.951768 1.29607 0
M  V30 8736 O 817.586 1.21568 1.24768 0
M  V30 8737 C 814.718 2.45828 2.36181 0
M  V30 8738 H 815.911 2.93474 0.617508 0
M  V30 8739 H 813.464 1.53679 0.285031 0
M  V30 8740 H 814.199 1.60408 2.8185 0
M  V30 8741 H 813.984 3.25945 2.1795 0
M  V30 8742 H 815.474 2.82939 3.0714 0
M  V30 8743 N 815.911 -0.310526 1.54511 0
M  V30 8744 C 817.322 -0.884142 1.64438 0
M  V30 8745 C 817.673 -1.88425 0.546855 0
M  V30 8746 O 816.798 -2.14049 -0.31811 0
M  V30 8747 C 817.393 -1.6104 2.9808 0
M  V30 8748 C 815.952 -2.13255 3.1016 0
M  V30 8749 C 815.099 -0.96213 2.60074 0
M  V30 8750 H 818.05 -0.0877666 1.58457 0
M  V30 8751 H 818.071 -2.47541 2.8897 0
M  V30 8752 H 817.583 -0.882255 3.77939 0
M  V30 8753 H 815.684 -2.89145 2.35002 0
M  V30 8754 H 815.797 -2.37361 4.16169 0
M  V30 8755 H 814.161 -1.34501 2.16291 0
M  V30 8756 H 814.944 -0.248098 3.42402 0
M  V30 8757 N 817.389 -1.46805 -0.573248 0
M  V30 8758 C 818.337 -1.58468 -1.70267 0
M  V30 8759 C 819.331 -0.452694 -1.63239 0
M  V30 8760 O 820.537 -0.629915 -1.68618 0
M  V30 8761 H 816.912 -0.498408 -0.56311 0
M  V30 8762 H 818.883 -2.5341 -1.57563 0
M  V30 8763 C 817.632 -1.60104 -3.08645 0
M  V30 8764 H 816.955 -2.4655 -3.14727 0
M  V30 8765 H 818.395 -1.72318 -3.87405 0
M  V30 8766 C 816.854 -0.33138 -3.35266 0
M  V30 8767 O 817.384 0.57438 -3.97572 0
M  V30 8768 N 815.59 -0.216358 -2.89793 0
M  V30 8769 H 815.137 -0.954345 -2.3927 0
M  V30 8770 H 815.095 0.632253 -3.07977 0
M  V30 8771 N 818.867 0.818669 -1.34668 0
M  V30 8772 C 820.283 1.11243 -1.14443 0
M  V30 8773 C 820.483 2.01435 0.0512212 0
M  V30 8774 O 819.539 2.41854 0.725471 0
M  V30 8775 C 820.852 1.75504 -2.4417 0
M  V30 8776 C 822.4 1.8798 -2.50265 0
M  V30 8777 C 822.875 2.55657 -3.80004 0
M  V30 8778 N 824.366 2.63153 -3.81189 0
M  V30 8779 C 825.101 3.16258 -4.78298 0
M  V30 8780 N 824.597 3.69893 -5.85791 0
M  V30 8781 N 826.39 3.14698 -4.65748 0
M  V30 8782 H 818.541 0.218848 -2.1127 0
M  V30 8783 H 820.804 0.159655 -0.934459 0
M  V30 8784 H 820.51 1.16697 -3.31775 0
M  V30 8785 H 820.384 2.75329 -2.57825 0
M  V30 8786 H 822.771 2.45934 -1.63096 0
M  V30 8787 H 822.852 0.870447 -2.40535 0
M  V30 8788 H 822.496 1.98356 -4.67565 0
M  V30 8789 H 822.426 3.57105 -3.87019 0
M  V30 8790 H 824.917 2.2514 -3.03513 0
M  V30 8791 H 825.23 4.08678 -6.55898 0
M  V30 8792 H 823.575 3.68125 -5.89499 0
M  V30 8793 H 826.766 2.72066 -3.80917 0
M  V30 8794 H 826.939 3.5578 -5.41594 0
M  V30 8795 N 820.346 1.18468 1.03938 0
M  V30 8796 C 821.623 0.890435 1.74157 0
M  V30 8797 C 822.003 -0.606409 2.02203 0
M  V30 8798 O 821.351 -1.5615 1.66822 0
M  V30 8799 C 821.561 1.73906 3.02585 0
M  V30 8800 C 822.909 1.96686 3.76297 0
M  V30 8801 O 823.933 1.70969 3.12487 0
M  V30 8802 O 822.792 2.39986 4.90988 0
M  V30 8803 H 819.886 0.330889 0.757919 0
M  V30 8804 H 822.432 1.29228 1.09992 0
M  V30 8805 H 821.204 2.75369 2.78006 0
M  V30 8806 H 820.827 1.33581 3.74489 0
M  V30 8807 N 821.824 -1.22873 0.986916 0
M  V30 8808 C 822.756 -2.23889 0.490537 0
M  V30 8809 C 823.769 -1.57523 -0.411144 0
M  V30 8810 O 824.958 -1.7721 -0.214236 0
M  V30 8811 C 822.058 -3.37488 -0.30902 0
M  V30 8812 C 821.231 -4.33438 0.587354 0
M  V30 8813 C 820.29 -5.25958 -0.159467 0
M  V30 8814 O 819.316 -5.67394 0.453115 0
M  V30 8815 N 820.518 -5.62265 -1.44355 0
M  V30 8816 H 823.283 -2.67109 1.35914 0
M  V30 8817 H 820.844 -1.37111 0.860937 0
M  V30 8818 H 822.836 -3.96365 -0.817139 0
M  V30 8819 H 821.406 -2.934 -1.07868 0
M  V30 8820 H 820.626 -3.72969 1.27622 0
M  V30 8821 H 821.914 -4.94495 1.19801 0
M  V30 8822 H 821.312 -5.30562 -1.96266 0
M  V30 8823 H 819.869 -6.23585 -1.89698 0
M  V30 8824 N 823.302 -0.75937 -1.38099 0
M  V30 8825 C 824.548 -0.327559 -2.00745 0
M  V30 8826 C 824.903 1.08042 -1.592 0
M  V30 8827 O 824.196 1.7306 -0.822236 0
M  V30 8828 C 824.39 -0.394999 -3.55211 0
M  V30 8829 C 824.219 -1.80798 -4.11755 0
M  V30 8830 C 822.989 -2.42585 -4.43262 0
M  V30 8831 C 825.187 -2.76556 -4.33614 0
M  V30 8832 N 823.169 -3.75784 -4.85448 0
M  V30 8833 C 824.54 -3.94532 -4.78273 0
M  V30 8834 C 826.595 -2.74004 -4.15724 0
M  V30 8835 C 825.298 -5.10322 -5.06916 0
M  V30 8836 C 827.324 -3.88957 -4.45496 0
M  V30 8837 C 826.686 -5.05672 -4.90383 0
M  V30 8838 H 822.785 -0.166644 -0.764038 0
M  V30 8839 H 825.369 -0.99056 -1.67619 0
M  V30 8840 H 823.54 0.237761 -3.87672 0
M  V30 8841 H 825.272 0.0576828 -4.04659 0
M  V30 8842 H 822.027 -1.94302 -4.31907 0
M  V30 8843 H 822.451 -4.44234 -5.10867 0
M  V30 8844 H 827.093 -1.84948 -3.80203 0
M  V30 8845 H 824.811 -5.99988 -5.41332 0
M  V30 8846 H 828.397 -3.88308 -4.33253 0
M  V30 8847 H 827.277 -5.93146 -5.1298 0
M  V30 8848 N 824.78 1.49157 -0.508906 0
M  V30 8849 C 826.005 2.07376 0.0315182 0
M  V30 8850 C 826.43 1.36575 1.2934 0
M  V30 8851 O 825.788 0.424963 1.76249 0
M  V30 8852 C 825.836 3.59661 0.260118 0
M  V30 8853 O 824.94 3.90255 1.33322 0
M  V30 8854 H 824.281 0.663334 -0.029739 0
M  V30 8855 H 826.811 1.91857 -0.710791 0
M  V30 8856 H 826.821 4.05056 0.489225 0
M  V30 8857 H 825.496 4.10601 -0.661794 0
M  V30 8858 H 824.073 3.56661 1.08844 0
M  V30 8859 N 826.258 0.243083 1.55714 0
M  V30 8860 C 827.191 -0.698623 2.17243 0
M  V30 8861 C 828.169 -1.1756 1.12331 0
M  V30 8862 O 829.353 -1.25444 1.40699 0
M  V30 8863 C 826.48 -1.94901 2.77004 0
M  V30 8864 C 825.526 -1.61022 3.94936 0
M  V30 8865 S 826.359 -0.716173 5.30689 0
M  V30 8866 C 827.515 -1.97565 5.93901 0
M  V30 8867 H 827.748 -0.175724 2.9678 0
M  V30 8868 H 825.281 0.0275727 1.54375 0
M  V30 8869 H 827.239 -2.66687 3.12071 0
M  V30 8870 H 825.9 -2.44304 1.9742 0
M  V30 8871 H 825.093 -2.5398 4.35328 0
M  V30 8872 H 824.695 -0.972829 3.61126 0
M  V30 8873 H 826.987 -2.92333 6.11186 0
M  V30 8874 H 827.93 -1.61528 6.8943 0
M  V30 8875 H 828.338 -2.126 5.22935 0
M  V30 8876 N 827.736 -1.57571 -0.0300757 0
M  V30 8877 C 828.964 -1.93485 -0.732891 0
M  V30 8878 C 829.379 -0.842758 -1.68947 0
M  V30 8879 O 828.736 0.180904 -1.81601 0
M  V30 8880 C 828.787 -3.29328 -1.49082 0
M  V30 8881 O 828.508 -4.34341 -0.572639 0
M  V30 8882 C 830.009 -3.79517 -2.29088 0
M  V30 8883 H 827.229 -0.638588 -0.206026 0
M  V30 8884 H 829.773 -2.04496 0.0120966 0
M  V30 8885 H 827.928 -3.19716 -2.1877 0
M  V30 8886 H 828.342 -5.12748 -1.10406 0
M  V30 8887 H 829.816 -4.77081 -2.77665 0
M  V30 8888 H 830.293 -3.10659 -3.10464 0
M  V30 8889 H 830.899 -3.92208 -1.64477 0
M  V30 8890 N 829.214 0.302327 -1.54673 0
M  V30 8891 C 830.625 0.875409 -1.64904 0
M  V30 8892 C 830.976 1.88132 -0.55684 0
M  V30 8893 O 830.101 2.14215 0.306754 0
M  V30 8894 C 830.696 1.59457 -2.9893 0
M  V30 8895 C 829.255 2.11607 -3.11287 0
M  V30 8896 C 828.402 0.948324 -2.6058 0
M  V30 8897 H 831.353 0.079362 -1.58501 0
M  V30 8898 H 831.374 2.46005 -2.90279 0
M  V30 8899 H 830.886 0.8622 -3.78402 0
M  V30 8900 H 828.987 2.87895 -2.36532 0
M  V30 8901 H 829.1 2.35151 -4.17422 0
M  V30 8902 H 827.464 1.33352 -2.17001 0
M  V30 8903 H 828.247 0.229936 -3.42529 0
M  V30 8904 N 830.692 1.47107 0.565454 0
M  V30 8905 C 832.103 1.47266 1.1476 0
M  V30 8906 C 832.454 0.222841 1.9493 0
M  V30 8907 O 831.579 -0.672862 2.05673 0
M  V30 8908 C 832.174 2.66822 2.08785 0
M  V30 8909 C 830.733 2.69967 2.62288 0
M  V30 8910 C 829.88 2.40236 1.38499 0
M  V30 8911 H 832.831 1.54736 0.352479 0
M  V30 8912 H 832.852 2.43323 2.92531 0
M  V30 8913 H 832.364 3.5777 1.50408 0
M  V30 8914 H 830.465 1.83137 3.24487 0
M  V30 8915 H 830.578 3.70426 3.03845 0
M  V30 8916 H 828.942 1.90648 1.68895 0
M  V30 8917 H 829.725 3.33381 0.819274 0
M  V30 8918 N 832.17 -0.811516 1.35101 0
M  V30 8919 C 833.103 -1.92872 1.21966 0
M  V30 8920 C 834.081 -1.62236 0.108667 0
M  V30 8921 O 835.265 -1.8647 0.275875 0
M  V30 8922 C 832.392 -3.27152 0.876886 0
M  V30 8923 C 831.438 -3.7674 1.99924 0
M  V30 8924 S 832.271 -3.95132 3.61429 0
M  V30 8925 C 833.427 -5.32322 3.29218 0
M  V30 8926 H 833.66 -2.03718 2.16532 0
M  V30 8927 H 831.193 -0.968352 1.20259 0
M  V30 8928 H 833.151 -4.04729 0.685917 0
M  V30 8929 H 831.812 -3.14059 -0.0506289 0
M  V30 8930 H 831.005 -4.73981 1.71343 0
M  V30 8931 H 830.607 -3.06145 2.14829 0
M  V30 8932 H 832.899 -6.1614 2.8174 0
M  V30 8933 H 833.842 -5.65893 4.25641 0
M  V30 8934 H 834.25 -4.98374 2.65111 0
M  V30 8935 N 833.648 -1.19017 -1.03309 0
M  V30 8936 C 834.894 -0.991681 -1.769 0
M  V30 8937 C 835.227 0.476813 -1.88255 0
M  V30 8938 O 834.502 1.35407 -1.39625 0
M  V30 8939 C 834.785 -1.65627 -3.19749 0
M  V30 8940 C 834.638 -3.19813 -3.1629 0
M  V30 8941 C 835.957 -1.37579 -4.18043 0
M  V30 8942 H 833.076 -0.361674 -0.642153 0
M  V30 8943 H 835.718 -1.46795 -1.20628 0
M  V30 8944 H 833.868 -1.25132 -3.67796 0
M  V30 8945 H 835.54 -3.69494 -2.76174 0
M  V30 8946 H 833.783 -3.51578 -2.54117 0
M  V30 8947 H 834.454 -3.61457 -4.17196 0
M  V30 8948 H 836.93 -1.72679 -3.78578 0
M  V30 8949 H 835.806 -1.86636 -5.16196 0
M  V30 8950 H 836.067 -0.300118 -4.4108 0
M  V30 8951 N 835.127 1.22348 -0.993418 0
M  V30 8952 C 836.075 2.26315 -0.537052 0
M  V30 8953 C 837.069 1.643 0.412545 0
M  V30 8954 O 838.275 1.77729 0.285008 0
M  V30 8955 H 834.65 0.735792 -0.155286 0
M  V30 8956 H 836.621 2.62157 -1.42535 0
M  V30 8957 C 835.37 3.47449 0.132118 0
M  V30 8958 H 834.693 3.9543 -0.589519 0
M  V30 8959 H 836.133 4.21965 0.414884 0
M  V30 8960 C 834.592 3.07893 1.36761 0
M  V30 8961 O 835.122 3.17338 2.46291 0
M  V30 8962 N 833.328 2.62672 1.24305 0
M  V30 8963 H 832.875 2.55186 0.351826 0
M  V30 8964 H 832.833 2.36574 2.07076 0
M  V30 8965 N 836.605 0.766683 1.37694 0
M  V30 8966 C 837.568 0.155849 2.2867 0
M  V30 8967 C 838.568 -0.633509 1.47795 0
M  V30 8968 O 839.758 -0.457844 1.68076 0
M  V30 8969 C 836.89 -0.786965 3.31692 0
M  V30 8970 H 838.083 0.957748 2.84196 0
M  V30 8971 H 835.636 0.534554 1.46875 0
M  V30 8972 H 836.371 -1.61406 2.8128 0
M  V30 8973 H 836.156 -0.223182 3.91464 0
M  V30 8974 H 837.646 -1.20994 3.99688 0
M  V30 8975 N 838.083 -1.48885 0.516809 0
M  V30 8976 C 839.313 -2.06592 -0.018375 0
M  V30 8977 C 839.721 -1.37543 -1.29917 0
M  V30 8978 O 839.064 -0.452527 -1.78039 0
M  V30 8979 C 839.126 -3.58016 -0.326315 0
M  V30 8980 C 838.79 -4.48853 0.859072 0
M  V30 8981 C 839.787 -4.89422 1.75391 0
M  V30 8982 C 837.472 -4.90937 1.06235 0
M  V30 8983 C 839.466 -5.70831 2.83604 0
M  V30 8984 C 837.153 -5.72119 2.14763 0
M  V30 8985 C 838.151 -6.11972 3.03281 0
M  V30 8986 O 837.839 -6.91527 4.09934 0
M  V30 8987 H 837.571 -0.675559 0.0244023 0
M  V30 8988 H 840.125 -1.92442 0.718005 0
M  V30 8989 H 838.355 -3.70231 -1.1165 0
M  V30 8990 H 840.044 -3.97898 -0.801999 0
M  V30 8991 H 840.81 -4.57542 1.60875 0
M  V30 8992 H 836.689 -4.59409 0.382677 0
M  V30 8993 H 840.233 -6.01857 3.52724 0
M  V30 8994 H 836.13 -6.03412 2.29268 0
M  V30 8995 H 836.898 -7.0986 4.07482 0
M  V30 8996 N 839.561 -0.251338 -1.55583 0
M  V30 8997 C 840.791 0.375642 -2.03156 0
M  V30 8998 C 841.199 1.51761 -1.12983 0
M  V30 8999 O 840.542 1.83184 -0.13757 0
M  V30 9000 C 840.604 0.941001 -3.46966 0
M  V30 9001 C 840.268 -0.0692886 -4.56947 0
M  V30 9002 C 841.265 -0.88041 -5.12391 0
M  V30 9003 C 838.95 -0.196661 -5.01915 0
M  V30 9004 C 840.944 -1.80532 -6.11299 0
M  V30 9005 C 838.631 -1.12507 -6.00654 0
M  V30 9006 C 839.629 -1.92792 -6.55225 0
M  V30 9007 O 839.317 -2.84067 -7.52038 0
M  V30 9008 H 839.049 0.0928836 -0.669588 0
M  V30 9009 H 841.603 -0.374115 -2.01964 0
M  V30 9010 H 839.833 1.7404 -3.45322 0
M  V30 9011 H 841.522 1.47853 -3.78014 0
M  V30 9012 H 842.288 -0.792615 -4.78479 0
M  V30 9013 H 838.167 0.418187 -4.59099 0
M  V30 9014 H 841.711 -2.43239 -6.5382 0
M  V30 9015 H 837.608 -1.21377 -6.33986 0
M  V30 9016 H 838.376 -2.78479 -7.6967 0
M  V30 9017 N 841.039 1.57585 0.0217189 0
M  V30 9018 C 842.264 1.94267 0.726309 0
M  V30 9019 C 842.689 0.851904 1.67703 0
M  V30 9020 O 842.047 -0.191792 1.80283 0
M  V30 9021 C 842.095 3.30023 1.45318 0
M  V30 9022 O 841.199 3.22791 2.5667 0
M  V30 9023 H 840.54 0.634777 0.194818 0
M  V30 9024 H 843.07 2.04585 -0.0249985 0
M  V30 9025 H 843.08 3.65084 1.82147 0
M  V30 9026 H 841.755 4.08972 0.755962 0
M  V30 9027 H 840.332 2.99373 2.2233 0
M  V30 9028 N 842.517 -0.29412 1.54831 0
M  V30 9029 C 843.928 -0.866651 1.65366 0
M  V30 9030 C 844.279 -1.87834 0.56681 0
M  V30 9031 O 843.404 -2.14374 -0.295389 0
M  V30 9032 C 843.999 -1.57869 2.99771 0
M  V30 9033 C 842.558 -2.09954 3.12404 0
M  V30 9034 C 841.705 -0.934492 2.6108 0
M  V30 9035 H 844.656 -0.0709551 1.58541 0
M  V30 9036 H 844.677 -2.44462 2.91579 0
M  V30 9037 H 844.189 -0.84212 3.78853 0
M  V30 9038 H 842.29 -2.86637 2.38055 0
M  V30 9039 H 842.403 -2.32934 4.18663 0
M  V30 9040 H 840.767 -1.32199 2.17705 0
M  V30 9041 H 841.55 -0.211768 3.42646 0
M  V30 9042 N 843.995 -1.47404 -0.557645 0
M  V30 9043 C 845.223 -1.57622 -1.34026 0
M  V30 9044 C 845.638 -0.226256 -1.87439 0
M  V30 9045 O 844.995 0.78043 -1.64971 0
M  V30 9046 C 845.046 -2.60111 -2.51047 0
M  V30 9047 O 844.767 -3.89866 -1.99841 0
M  V30 9048 C 846.268 -2.80508 -3.43264 0
M  V30 9049 H 843.488 -0.532271 -0.40857 0
M  V30 9050 H 846.032 -1.93019 -0.675555 0
M  V30 9051 H 844.187 -2.27648 -3.13457 0
M  V30 9052 H 844.601 -4.45864 -2.76234 0
M  V30 9053 H 846.075 -3.56084 -4.21792 0
M  V30 9054 H 846.552 -1.88314 -3.9678 0
M  V30 9055 H 847.158 -3.14166 -2.86671 0
M  V30 9056 N 845.473 0.80434 -1.35529 0
M  V30 9057 C 846.42 1.91629 -1.28635 0
M  V30 9058 C 847.39 1.65348 -0.157862 0
M  V30 9059 O 848.575 1.87711 -0.341934 0
M  V30 9060 C 845.715 3.28207 -1.0665 0
M  V30 9061 C 844.828 3.66659 -2.28441 0
M  V30 9062 C 843.963 4.92279 -1.99588 0
M  V30 9063 C 843.002 5.23365 -3.1742 0
M  V30 9064 N 842.139 6.40165 -2.88328 0
M  V30 9065 H 846.979 1.96858 -2.23721 0
M  V30 9066 H 844.516 0.962871 -1.11208 0
M  V30 9067 H 846.474 4.06945 -0.919343 0
M  V30 9068 H 845.104 3.22441 -0.152253 0
M  V30 9069 H 844.156 2.83164 -2.54013 0
M  V30 9070 H 845.468 3.8559 -3.1642 0
M  V30 9071 H 844.622 5.78847 -1.81715 0
M  V30 9072 H 843.361 4.75387 -1.08896 0
M  V30 9073 H 842.366 4.35285 -3.35867 0
M  V30 9074 H 843.591 5.42185 -4.08916 0
M  V30 9075 H 841.537 6.24694 -2.00233 0
M  V30 9076 H 841.454 6.59357 -3.69843 0
M  V30 9077 H 842.722 7.29755 -2.74002 0
M  V30 9078 N 846.951 1.19563 1.02676 0
M  V30 9079 C 847.899 0.931942 2.13114 0
M  V30 9080 C 848.893 -0.113007 1.69023 0
M  V30 9081 O 850.099 0.0364298 1.79963 0
M  V30 9082 H 846.474 0.283981 0.696318 0
M  V30 9083 H 848.445 1.86991 2.32545 0
M  V30 9084 C 847.194 0.489461 3.44238 0
M  V30 9085 H 846.517 1.28508 3.78584 0
M  V30 9086 H 847.957 0.34408 4.22602 0
M  V30 9087 C 846.416 -0.796761 3.27343 0
M  V30 9088 O 846.946 -1.85767 3.56165 0
M  V30 9089 N 845.152 -0.754824 2.80626 0
M  V30 9090 H 844.699 0.108778 2.5737 0
M  V30 9091 H 844.657 -1.6158 2.69702 0
M  V30 9092 N 848.429 -1.21819 0.999893 0
M  V30 9093 C 849.339 -2.27691 0.565159 0
M  V30 9094 C 850.355 -1.69587 -0.389398 0
M  V30 9095 O 851.531 -1.99786 -0.254499 0
M  V30 9096 C 848.596 -3.46537 -0.106432 0
M  V30 9097 C 847.657 -4.19932 0.891964 0
M  V30 9098 C 846.89 -5.33103 0.252327 0
M  V30 9099 O 847.113 -5.62398 -0.952103 0
M  V30 9100 O 846.047 -5.94184 0.960698 0
M  V30 9101 H 849.873 -2.67059 1.44613 0
M  V30 9102 H 847.458 -1.28119 0.768499 0
M  V30 9103 H 849.34 -4.18631 -0.482301 0
M  V30 9104 H 848.015 -3.09079 -0.961865 0
M  V30 9105 H 846.922 -3.5008 1.3189 0
M  V30 9106 H 848.255 -4.61287 1.71682 0
M  V30 9107 N 849.908 -0.773975 -1.37286 0
M  V30 9108 C 851.157 -0.335977 -1.98882 0
M  V30 9109 C 851.47 1.09416 -1.62134 0
M  V30 9110 O 852.676 1.63366 -2.1685 0
M  V30 9111 C 851.132 -0.549756 -3.55676 0
M  V30 9112 C 850.74 -1.9903 -4.01361 0
M  V30 9113 C 852.484 -0.175493 -4.24137 0
M  V30 9114 C 850.391 -2.15156 -5.50874 0
M  V30 9115 H 849.321 -0.121877 -0.744085 0
M  V30 9116 H 851.972 -0.953419 -1.56787 0
M  V30 9117 H 850.354 0.137175 -3.95762 0
M  V30 9118 H 851.528 -2.71237 -3.72515 0
M  V30 9119 H 849.843 -2.32137 -3.4569 0
M  V30 9120 H 852.44 -0.274463 -5.33995 0
M  V30 9121 H 852.783 0.874524 -4.07011 0
M  V30 9122 H 853.316 -0.815058 -3.89361 0
M  V30 9123 H 850.055 -3.18485 -5.72929 0
M  V30 9124 H 849.575 -1.47435 -5.81397 0
M  V30 9125 H 851.254 -1.95124 -6.16876 0
M  V30 9126 N 851.386 1.48609 -0.524698 0
M  V30 9127 C 852.632 2.02797 0.0113382 0
M  V30 9128 C 852.965 1.40147 1.34433 0
M  V30 9129 O 852.24 0.545368 1.86698 0
M  V30 9130 C 852.523 3.59832 0.138931 0
M  V30 9131 C 852.376 4.32971 -1.21886 0
M  V30 9132 C 853.695 4.3145 0.868265 0
M  V30 9133 H 850.814 0.736995 0.00264645 0
M  V30 9134 H 853.456 1.77388 -0.680704 0
M  V30 9135 H 851.606 3.81612 0.72834 0
M  V30 9136 H 853.278 4.22624 -1.84897 0
M  V30 9137 H 851.521 3.94597 -1.80211 0
M  V30 9138 H 852.192 5.41279 -1.08263 0
M  V30 9139 H 854.668 4.14468 0.368145 0
M  V30 9140 H 853.544 5.41025 0.926428 0
M  V30 9141 H 853.805 3.98358 1.91737 0
M  V30 9142 N 852.864 0.259585 1.55447 0
M  V30 9143 C 854.111 -0.361607 1.99245 0
M  V30 9144 C 854.439 -1.57017 1.14787 0
M  V30 9145 O 853.694 -1.94658 0.201724 0
M  V30 9146 C 853.993 -0.802727 3.48269 0
M  V30 9147 C 853.659 0.299472 4.49904 0
M  V30 9148 C 852.321 0.602157 4.77418 0
M  V30 9149 C 854.673 1.04295 5.10658 0
M  V30 9150 C 852.001 1.65217 5.62957 0
M  V30 9151 C 854.353 2.08257 5.97337 0
M  V30 9152 C 853.017 2.39177 6.23178 0
M  V30 9153 H 852.287 -0.132322 0.72909 0
M  V30 9154 H 854.934 0.370059 1.8789 0
M  V30 9155 H 853.239 -1.61381 3.5702 0
M  V30 9156 H 854.936 -1.29385 3.79553 0
M  V30 9157 H 851.526 0.0534256 4.28567 0
M  V30 9158 H 855.71 0.822358 4.89439 0
M  V30 9159 H 850.966 1.89692 5.81229 0
M  V30 9160 H 855.14 2.6635 6.43452 0
M  V30 9161 H 852.767 3.20677 6.89253 0
M  V30 9162 N 854.342 -1.57594 -0.0133615 0
M  V30 9163 C 855.753 -1.78168 -0.557937 0
M  V30 9164 C 856.104 -0.892616 -1.74719 0
M  V30 9165 O 855.229 -0.0915491 -2.16206 0
M  V30 9166 C 855.824 -3.23115 -1.01894 0
M  V30 9167 C 854.383 -3.44831 -1.50892 0
M  V30 9168 C 853.53 -2.73558 -0.454044 0
M  V30 9169 H 856.481 -1.57266 0.212843 0
M  V30 9170 H 856.502 -3.30493 -1.8856 0
M  V30 9171 H 856.014 -3.87798 -0.153175 0
M  V30 9172 H 854.115 -2.85345 -2.39602 0
M  V30 9173 H 854.228 -4.53485 -1.54559 0
M  V30 9174 H 852.592 -2.37787 -0.912666 0
M  V30 9175 H 853.375 -3.40932 0.402524 0
M  V30 9176 N 855.82 0.285905 -1.54985 0
M  V30 9177 C 856.783 1.33625 -1.86218 0
M  V30 9178 C 857.783 1.42971 -0.735936 0
M  V30 9179 O 858.973 1.42345 -1.00417 0
M  V30 9180 C 856.105 2.71926 -2.05595 0
M  V30 9181 H 857.298 1.07167 -2.80099 0
M  V30 9182 H 854.851 0.523335 -1.47278 0
M  V30 9183 H 855.586 3.03583 -1.14053 0
M  V30 9184 H 855.371 2.6653 -2.87583 0
M  V30 9185 H 856.861 3.47841 -2.31077 0
M  V30 9186 N 857.298 1.47698 0.54982 0
M  V30 9187 C 858.546 1.54397 1.30407 0
M  V30 9188 C 858.867 0.211026 1.93855 0
M  V30 9189 O 858.137 -0.765701 1.80316 0
M  V30 9190 H 856.717 0.568747 0.484289 0
M  V30 9191 H 859.379 1.84042 0.641444 0
M  V30 9192 H 858.475 2.31449 2.09375 0
M  V30 9193 N 858.776 -0.797141 1.35954 0
M  V30 9194 C 860.025 -1.54983 1.29086 0
M  V30 9195 C 860.338 -1.95167 -0.130003 0
M  V30 9196 O 861.544 -2.69596 -0.32101 0
M  V30 9197 C 860 -2.79738 2.26439 0
M  V30 9198 C 859.608 -2.46753 3.73921 0
M  V30 9199 C 861.352 -3.57733 2.28533 0
M  V30 9200 C 859.259 -3.67858 4.63071 0
M  V30 9201 H 858.189 -0.581766 0.479651 0
M  V30 9202 H 860.84 -0.87541 1.61273 0
M  V30 9203 H 859.222 -3.48939 1.87236 0
M  V30 9204 H 860.396 -1.85499 4.21814 0
M  V30 9205 H 858.711 -1.81985 3.74527 0
M  V30 9206 H 861.308 -4.47699 2.92351 0
M  V30 9207 H 861.651 -3.95754 1.29169 0
M  V30 9208 H 862.184 -2.95504 2.66313 0
M  V30 9209 H 858.923 -3.34939 5.63468 0
M  V30 9210 H 858.443 -4.28305 4.19898 0
M  V30 9211 H 860.122 -4.34977 4.78961 0
M  V30 9212 N 860.254 -1.20106 -1.0204 0
M  V30 9213 C 861.184 -0.970301 -2.12385 0
M  V30 9214 C 862.165 0.099378 -1.69809 0
M  V30 9215 O 863.35 -0.057365 -1.94115 0
M  V30 9216 C 860.48 -0.517431 -3.43424 0
M  V30 9217 C 859.434 -1.52992 -3.99722 0
M  V30 9218 C 858.76 -0.933817 -5.26483 0
M  V30 9219 C 860.06 -2.91257 -4.33551 0
M  V30 9220 H 861.754 -1.89316 -2.31948 0
M  V30 9221 H 859.3 -0.911655 -1.11467 0
M  V30 9222 H 861.253 -0.343243 -4.2 0
M  V30 9223 H 859.977 0.441049 -3.23608 0
M  V30 9224 H 858.636 -1.6914 -3.2525 0
M  V30 9225 H 858.284 0.0324763 -5.0299 0
M  V30 9226 H 857.984 -1.60999 -5.65113 0
M  V30 9227 H 859.508 -0.770614 -6.05718 0
M  V30 9228 H 860.922 -2.78642 -5.0103 0
M  V30 9229 H 859.319 -3.55745 -4.83286 0
M  V30 9230 H 860.389 -3.43269 -3.42483 0
M  V30 9231 N 861.732 1.21287 -1.00634 0
M  V30 9232 C 862.664 2.2308 -0.526094 0
M  V30 9233 C 863.677 1.58157 0.386031 0
M  V30 9234 O 864.866 1.77528 0.186016 0
M  V30 9235 C 861.966 3.37937 0.255289 0
M  V30 9236 C 861.139 4.32449 -0.656236 0
M  V30 9237 C 860.198 5.26145 0.0757714 0
M  V30 9238 O 859.224 5.66601 -0.543325 0
M  V30 9239 N 860.426 5.6449 1.35391 0
M  V30 9240 H 863.191 2.64913 -1.40147 0
M  V30 9241 H 860.752 1.35724 -0.882641 0
M  V30 9242 H 862.744 3.97614 0.753977 0
M  V30 9243 H 861.314 2.95078 1.03187 0
M  V30 9244 H 860.534 3.70892 -1.3354 0
M  V30 9245 H 861.822 4.92526 -1.27653 0
M  V30 9246 H 861.22 5.33617 1.878 0
M  V30 9247 H 859.777 6.26524 1.79753 0
M  V30 9248 N 863.21 0.781244 1.36873 0
M  V30 9249 C 864.173 0.180094 2.28491 0
M  V30 9250 C 865.173 -0.617798 1.48458 0
M  V30 9251 O 866.363 -0.439991 1.68552 0
M  V30 9252 C 863.495 -0.751741 3.32508 0
M  V30 9253 H 864.688 0.987837 2.83164 0
M  V30 9254 H 862.241 0.550102 1.463 0
M  V30 9255 H 862.976 -1.58413 2.82977 0
M  V30 9256 H 862.761 -0.181649 3.91679 0
M  V30 9257 H 864.251 -1.16748 4.00949 0
M  V30 9258 N 864.689 -1.48329 0.532571 0
M  V30 9259 C 866.1 -1.86469 0.0927749 0
M  V30 9260 C 866.451 -1.44186 -1.3306 0
M  V30 9261 O 865.576 -0.833741 -1.99694 0
M  V30 9262 C 866.171 -3.38414 0.161588 0
M  V30 9263 C 864.73 -3.75739 -0.223028 0
M  V30 9264 C 863.877 -2.72377 0.520199 0
M  V30 9265 H 866.828 -1.40197 0.743678 0
M  V30 9266 H 866.849 -3.75314 -0.626059 0
M  V30 9267 H 866.361 -3.69159 1.19765 0
M  V30 9268 H 864.462 -3.50608 -1.26113 0
M  V30 9269 H 864.575 -4.78954 0.118385 0
M  V30 9270 H 862.939 -2.54678 -0.0338425 0
M  V30 9271 H 863.722 -3.05965 1.55694 0
M  V30 9272 N 866.167 -0.267825 -1.55308 0
M  V30 9273 C 867.414 0.351036 -1.99434 0
M  V30 9274 C 867.742 1.56406 -1.15618 0
M  V30 9275 O 866.997 1.94548 -0.212045 0
M  V30 9276 C 867.296 0.784247 -3.48689 0
M  V30 9277 C 866.962 -0.323328 -4.49739 0
M  V30 9278 C 865.624 -0.627467 -4.77091 0
M  V30 9279 C 867.976 -1.07002 -5.10098 0
M  V30 9280 C 865.304 -1.682 -5.62073 0
M  V30 9281 C 867.656 -2.11422 -5.96224 0
M  V30 9282 C 866.32 -2.42479 -6.21901 0
M  V30 9283 H 865.59 0.128453 -0.729781 0
M  V30 9284 H 868.237 -0.380018 -1.87692 0
M  V30 9285 H 866.542 1.59485 -3.57871 0
M  V30 9286 H 868.239 1.2737 -3.80234 0
M  V30 9287 H 864.829 -0.0761528 -4.28532 0
M  V30 9288 H 869.013 -0.848302 -4.88996 0
M  V30 9289 H 864.269 -1.92772 -5.80215 0
M  V30 9290 H 868.443 -2.69759 -6.4203 0
M  V30 9291 H 866.07 -3.24328 -6.87543 0
M  V30 9292 N 867.645 1.57599 0.00500368 0
M  V30 9293 C 868.875 1.94344 0.700998 0
M  V30 9294 C 869.283 0.868011 1.68114 0
M  V30 9295 O 868.626 -0.16214 1.82983 0
M  V30 9296 C 868.688 3.27046 1.49268 0
M  V30 9297 C 868.352 4.51992 0.674684 0
M  V30 9298 C 869.349 5.19888 -0.0354833 0
M  V30 9299 C 867.034 4.98432 0.622129 0
M  V30 9300 C 869.028 6.3252 -0.787246 0
M  V30 9301 C 866.715 6.10954 -0.133362 0
M  V30 9302 C 867.713 6.77855 -0.836788 0
M  V30 9303 O 867.401 7.88221 -1.57996 0
M  V30 9304 H 867.133 0.645572 0.20053 0
M  V30 9305 H 869.687 2.0536 -0.040718 0
M  V30 9306 H 867.917 3.12424 2.27877 0
M  V30 9307 H 869.606 3.4894 2.07355 0
M  V30 9308 H 870.372 4.85 -0.00400159 0
M  V30 9309 H 866.251 4.46189 1.15917 0
M  V30 9310 H 869.795 6.84671 -1.33683 0
M  V30 9311 H 865.692 6.45285 -0.166682 0
M  V30 9312 H 866.46 8.0471 -1.49615 0
M  V30 9313 N 869.123 -0.277682 1.55134 0
M  V30 9314 C 870.351 -1.02826 1.7954 0
M  V30 9315 C 870.766 -1.80105 0.566373 0
M  V30 9316 O 870.123 -1.76491 -0.464448 0
M  V30 9317 C 870.174 -1.99053 3.01762 0
M  V30 9318 O 869.895 -1.24906 4.19917 0
M  V30 9319 C 871.396 -2.85961 3.38735 0
M  V30 9320 H 868.616 -0.303958 0.598206 0
M  V30 9321 H 871.16 -0.309884 2.02138 0
M  V30 9322 H 869.315 -2.66359 2.81303 0
M  V30 9323 H 869.729 -1.89725 4.88983 0
M  V30 9324 H 871.203 -3.49286 4.27438 0
M  V30 9325 H 871.68 -3.55486 2.57928 0
M  V30 9326 H 872.286 -2.24152 3.61436 0
M  V30 9327 N 870.601 -1.47988 -0.541979 0
M  V30 9328 C 872.017 -1.33843 -0.869383 0
M  V30 9329 C 872.217 -0.340374 -1.98604 0
M  V30 9330 O 871.273 0.242696 -2.51331 0
M  V30 9331 C 872.586 -2.73568 -1.24823 0
M  V30 9332 C 874.134 -2.81967 -1.3588 0
M  V30 9333 C 874.609 -4.22368 -1.77114 0
M  V30 9334 N 876.1 -4.24983 -1.84237 0
M  V30 9335 C 876.835 -5.30547 -2.17503 0
M  V30 9336 N 876.331 -6.46401 -2.49275 0
M  V30 9337 N 878.124 -5.17933 -2.18406 0
M  V30 9338 H 870.275 -2.11503 0.195001 0
M  V30 9339 H 872.538 -0.947681 0.0245862 0
M  V30 9340 H 872.244 -3.48107 -0.501435 0
M  V30 9341 H 872.118 -3.06322 -2.20106 0
M  V30 9342 H 874.505 -2.07692 -2.09638 0
M  V30 9343 H 874.586 -2.52848 -0.387478 0
M  V30 9344 H 874.23 -4.97155 -1.0392 0
M  V30 9345 H 874.16 -4.48922 -2.75275 0
M  V30 9346 H 876.651 -3.41411 -1.62009 0
M  V30 9347 H 876.964 -7.22698 -2.73729 0
M  V30 9348 H 875.309 -6.49696 -2.46821 0
M  V30 9349 H 878.5 -4.26445 -1.93034 0
M  V30 9350 H 878.673 -6.00307 -2.44 0
M  V30 9351 N 872.079 0.78992 -1.36375 0
M  V30 9352 C 873.304 1.58389 -1.33895 0
M  V30 9353 C 873.729 1.8794 0.0774934 0
M  V30 9354 O 873.087 1.4785 1.0493 0
M  V30 9355 C 873.135 2.88201 -2.16732 0
M  V30 9356 O 872.239 3.81778 -1.55946 0
M  V30 9357 H 871.58 0.480471 -0.458305 0
M  V30 9358 H 874.11 0.979119 -1.79651 0
M  V30 9359 H 874.12 3.37475 -2.29292 0
M  V30 9360 H 872.795 2.66019 -3.19698 0
M  V30 9361 H 871.372 3.40371 -1.52323 0
M  V30 9362 N 873.557 1.20646 1.01402 0
M  V30 9363 C 874.782 1.04462 1.79172 0
M  V30 9364 C 875.207 -0.401588 1.83763 0
M  V30 9365 O 874.565 -1.28934 1.27459 0
M  V30 9366 C 874.613 1.63583 3.21361 0
M  V30 9367 O 873.717 0.875198 4.03006 0
M  V30 9368 H 873.058 0.368235 0.552539 0
M  V30 9369 H 875.588 1.59994 1.27526 0
M  V30 9370 H 875.598 1.67426 3.72065 0
M  V30 9371 H 874.273 2.68835 3.17334 0
M  V30 9372 H 872.85 0.911172 3.61597 0
M  V30 9373 N 875.035 -1.20752 1.01276 0
M  V30 9374 C 876.446 -1.7175 0.732033 0
M  V30 9375 C 876.797 -1.8131 -0.749733 0
M  V30 9376 O 875.922 -1.47301 -1.58529 0
M  V30 9377 C 876.517 -3.11936 1.32217 0
M  V30 9378 C 875.076 -3.6026 1.09039 0
M  V30 9379 C 874.223 -2.37571 1.43022 0
M  V30 9380 H 877.174 -1.0582 1.1827 0
M  V30 9381 H 877.195 -3.73802 0.710771 0
M  V30 9382 H 876.707 -3.04946 2.40061 0
M  V30 9383 H 874.808 -3.72588 0.0294464 0
M  V30 9384 H 874.921 -4.45295 1.76775 0
M  V30 9385 H 873.285 -2.40128 0.849159 0
M  V30 9386 H 874.068 -2.33225 2.51915 0
M  V30 9387 N 876.513 -0.788492 -1.36457 0
M  V30 9388 C 877.46 -0.18435 -2.30063 0
M  V30 9389 C 878.43 0.67128 -1.51931 0
M  V30 9390 O 879.615 0.620152 -1.8044 0
M  V30 9391 C 876.755 0.675596 -3.38422 0
M  V30 9392 C 875.868 -0.198475 -4.31544 0
M  V30 9393 C 875.003 0.667757 -5.26986 0
M  V30 9394 C 874.042 -0.207825 -6.11747 0
M  V30 9395 N 873.179 0.617335 -6.99381 0
M  V30 9396 H 878.019 -0.988056 -2.81143 0
M  V30 9397 H 875.556 -0.498815 -1.38384 0
M  V30 9398 H 877.514 1.18916 -3.99894 0
M  V30 9399 H 876.144 1.44474 -2.88664 0
M  V30 9400 H 875.196 -0.829995 -3.71235 0
M  V30 9401 H 876.508 -0.873163 -4.91098 0
M  V30 9402 H 875.662 1.24716 -5.93743 0
M  V30 9403 H 874.401 1.37607 -4.67884 0
M  V30 9404 H 873.406 -0.799638 -5.43954 0
M  V30 9405 H 874.631 -0.913729 -6.72925 0
M  V30 9406 H 872.577 1.30996 -6.42788 0
M  V30 9407 H 872.494 0.000307255 -7.56 0
M  V30 9408 H 873.762 1.1806 -7.70508 0
M  V30 9409 N 877.991 1.48044 -0.54043 0
M  V30 9410 C 878.954 2.28273 0.205966 0
M  V30 9411 C 879.954 1.35983 0.858209 0
M  V30 9412 O 881.144 1.58776 0.716651 0
M  V30 9413 C 878.276 3.15174 1.29917 0
M  V30 9414 H 879.469 2.95727 -0.498555 0
M  V30 9415 H 877.022 1.53457 -0.296745 0
M  V30 9416 H 877.757 2.52374 2.03661 0
M  V30 9417 H 877.542 3.83074 0.836475 0
M  V30 9418 H 879.032 3.75666 1.82387 0
M  V30 9419 N 879.47 0.276058 1.55163 0
M  V30 9420 C 880.4 -0.604633 2.25536 0
M  V30 9421 C 881.381 -1.15813 1.24585 0
M  V30 9422 O 882.566 -1.1921 1.53306 0
M  V30 9423 C 879.696 -1.78836 2.97716 0
M  V30 9424 C 878.65 -1.36635 4.05604 0
M  V30 9425 C 877.976 -2.63325 4.65364 0
M  V30 9426 C 879.276 -0.515858 5.19746 0
M  V30 9427 H 880.97 -0.0177483 2.99395 0
M  V30 9428 H 878.516 -0.00709627 1.43998 0
M  V30 9429 H 880.469 -2.41036 3.45658 0
M  V30 9430 H 879.193 -2.40109 2.21394 0
M  V30 9431 H 877.852 -0.767541 3.58475 0
M  V30 9432 H 877.5 -3.22858 3.85709 0
M  V30 9433 H 877.2 -2.358 5.38212 0
M  V30 9434 H 878.724 -3.26372 5.16056 0
M  V30 9435 H 880.138 -1.04289 5.63735 0
M  V30 9436 H 878.535 -0.335449 5.99162 0
M  V30 9437 H 879.605 0.465137 4.82664 0
M  V30 9438 N 880.948 -1.576 0.00335426 0
M  V30 9439 C 881.896 -2.09759 -1.00517 0
M  V30 9440 C 882.89 -1.01833 -1.35375 0
M  V30 9441 O 884.096 -1.20294 -1.339 0
M  V30 9442 H 880.471 -0.669821 -0.341825 0
M  V30 9443 H 882.442 -2.93478 -0.539718 0
M  V30 9444 C 881.191 -2.6189 -2.28711 0
M  V30 9445 H 880.514 -3.44571 -2.02758 0
M  V30 9446 H 881.954 -3.02061 -2.97548 0
M  V30 9447 C 880.413 -1.53455 -2.99922 0
M  V30 9448 O 880.943 -0.919402 -3.91037 0
M  V30 9449 N 879.149 -1.2612 -2.61806 0
M  V30 9450 H 878.696 -1.76329 -1.87792 0
M  V30 9451 H 878.654 -0.537872 -3.09765 0
M  V30 9452 N 882.426 0.269451 -1.5528 0
M  V30 9453 C 883.673 1.00058 -1.76053 0
M  V30 9454 C 884.001 1.86156 -0.563592 0
M  V30 9455 O 883.256 1.90366 0.453806 0
M  V30 9456 C 883.555 1.91 -3.02082 0
M  V30 9457 C 883.221 1.20623 -4.34466 0
M  V30 9458 C 881.883 1.01165 -4.70446 0
M  V30 9459 C 884.235 0.705695 -5.164 0
M  V30 9460 C 881.563 0.303865 -5.85913 0
M  V30 9461 C 883.915 0.0114838 -6.32599 0
M  V30 9462 C 882.579 -0.19478 -6.67216 0
M  V30 9463 H 881.849 0.366138 -0.644223 0
M  V30 9464 H 884.496 0.272563 -1.8955 0
M  V30 9465 H 882.801 2.70435 -2.835 0
M  V30 9466 H 884.498 2.47698 -3.15352 0
M  V30 9467 H 881.088 1.36781 -4.06188 0
M  V30 9468 H 885.272 0.84364 -4.89077 0
M  V30 9469 H 880.528 0.133368 -6.11255 0
M  V30 9470 H 884.702 -0.384111 -6.9534 0
M  V30 9471 H 882.329 -0.745201 -7.56539 0
M  V30 9472 N 883.904 1.48273 0.534124 0
M  V30 9473 C 885.152 1.55771 1.28762 0
M  V30 9474 C 885.473 0.231575 1.9362 0
M  V30 9475 O 884.743 -0.746533 1.81118 0
M  V30 9476 H 883.323 0.573851 0.47823 0
M  V30 9477 H 885.985 1.84712 0.621888 0
M  V30 9478 H 885.081 2.33657 2.06908 0
M  V30 9479 N 885.382 -0.782676 1.36792 0
M  V30 9480 C 886.63 -1.53778 1.31136 0
M  V30 9481 C 886.951 -1.94706 -0.107014 0
M  V30 9482 O 886.221 -1.65465 -1.04872 0
M  V30 9483 H 884.801 -0.570328 0.482426 0
M  V30 9484 H 887.463 -0.932181 1.71162 0
M  V30 9485 H 886.559 -2.44224 1.94321 0
M  V30 9486 N 886.86 -1.21182 -1.00761 0
M  V30 9487 C 888.109 -1.02166 -1.73911 0
M  V30 9488 C 888.422 0.445638 -1.90456 0
M  V30 9489 O 889.628 0.755132 -2.60787 0
M  V30 9490 C 888.084 -1.77936 -3.12837 0
M  V30 9491 C 887.692 -3.28819 -3.04273 0
M  V30 9492 C 889.436 -1.67319 -3.90134 0
M  V30 9493 C 887.343 -3.97089 -4.38262 0
M  V30 9494 H 886.273 -0.378665 -0.652019 0
M  V30 9495 H 888.924 -1.44891 -1.12601 0
M  V30 9496 H 887.306 -1.28003 -3.74742 0
M  V30 9497 H 888.48 -3.86035 -2.51622 0
M  V30 9498 H 886.795 -3.39949 -2.40465 0
M  V30 9499 H 889.392 -2.15659 -4.8928 0
M  V30 9500 H 889.735 -0.630959 -4.11491 0
M  V30 9501 H 890.268 -2.14716 -3.34876 0
M  V30 9502 H 887.007 -5.01503 -4.22107 0
M  V30 9503 H 886.527 -3.44662 -4.90885 0
M  V30 9504 H 888.206 -4.01854 -5.07072 0
M  V30 9505 N 888.338 1.20213 -1.01915 0
M  V30 9506 C 889.586 1.89272 -0.708552 0
M  V30 9507 C 889.907 1.79394 0.76438 0
M  V30 9508 O 889.177 1.198 1.54999 0
M  V30 9509 H 887.757 0.700628 -0.259094 0
M  V30 9510 H 890.419 1.45985 -1.29129 0
M  V30 9511 H 889.515 2.95841 -0.994215 0
M  V30 9512 N 889.816 0.795718 1.36037 0
M  V30 9513 C 891.062 0.371574 1.99367 0
M  V30 9514 C 891.395 -1.0557 1.62999 0
M  V30 9515 O 890.67 -1.73051 0.887895 0
M  V30 9516 C 890.953 0.542622 3.55988 0
M  V30 9517 C 890.806 2.01404 4.0219 0
M  V30 9518 C 892.125 -0.0384527 4.40083 0
M  V30 9519 H 889.244 0.136483 0.724252 0
M  V30 9520 H 891.886 1.00323 1.61355 0
M  V30 9521 H 890.036 0.0049053 3.885 0
M  V30 9522 H 891.708 2.6133 3.80137 0
M  V30 9523 H 889.951 2.51439 3.53498 0
M  V30 9524 H 890.622 2.08466 5.11122 0
M  V30 9525 H 893.098 0.420634 4.13968 0
M  V30 9526 H 891.974 0.111214 5.48787 0
M  V30 9527 H 892.235 -1.13116 4.27384 0
M  V30 9528 N 891.294 -1.47756 0.548274 0
M  V30 9529 C 892.54 -2.02789 0.0209265 0
M  V30 9530 C 892.873 -1.42268 -1.32187 0
M  V30 9531 O 892.148 -0.575001 -1.85806 0
M  V30 9532 C 892.431 -3.60007 -0.0816674 0
M  V30 9533 C 892.284 -4.30977 1.28759 0
M  V30 9534 C 893.603 -4.32777 -0.799515 0
M  V30 9535 H 890.722 -0.736944 0.00907884 0
M  V30 9536 H 893.364 -1.76282 0.708839 0
M  V30 9537 H 891.514 -3.82722 -0.667537 0
M  V30 9538 H 893.186 -4.19629 1.91597 0
M  V30 9539 H 891.429 -3.9168 1.86466 0
M  V30 9540 H 892.1 -5.39488 1.16861 0
M  V30 9541 H 894.576 -4.15001 -0.30216 0
M  V30 9542 H 893.452 -5.42431 -0.840239 0
M  V30 9543 H 893.713 -4.01358 -1.85375 0
M  V30 9544 N 892.772 -0.284283 -1.55015 0
M  V30 9545 C 894.018 0.330352 -2.00091 0
M  V30 9546 C 894.351 1.54814 -1.17244 0
M  V30 9547 O 893.626 1.92954 -0.244753 0
M  V30 9548 C 893.909 0.703492 -3.53161 0
M  V30 9549 C 893.762 -0.522275 -4.46758 0
M  V30 9550 C 895.081 1.53645 -4.12409 0
M  V30 9551 H 892.2 0.118599 -0.727395 0
M  V30 9552 H 894.842 -0.393054 -1.8589 0
M  V30 9553 H 892.992 1.31983 -3.65394 0
M  V30 9554 H 894.664 -1.16082 -4.46456 0
M  V30 9555 H 892.907 -1.15865 -4.1804 0
M  V30 9556 H 893.578 -0.217295 -5.51572 0
M  V30 9557 H 896.054 1.01583 -4.0351 0
M  V30 9558 H 894.93 1.76633 -5.19704 0
M  V30 9559 H 895.191 2.5204 -3.63219 0
M  V30 9560 N 894.251 1.57596 -0.0117121 0
M  V30 9561 C 895.499 1.90694 0.669342 0
M  V30 9562 C 895.82 0.886999 1.73659 0
M  V30 9563 O 895.09 -0.0739779 1.9576 0
M  V30 9564 H 893.67 0.703846 0.250219 0
M  V30 9565 H 896.332 1.94821 -0.0554057 0
M  V30 9566 H 895.428 2.90802 1.13316 0
M  V30 9567 N 895.729 -0.261212 1.5542 0
M  V30 9568 C 896.679 -1.32571 1.85496 0
M  V30 9569 C 897.663 -1.44155 0.714722 0
M  V30 9570 O 898.855 -1.47637 0.976336 0
M  V30 9571 C 895.984 -2.68384 2.14067 0
M  V30 9572 C 895.07 -2.60864 3.34381 0
M  V30 9573 N 895.461 -2.22967 4.54004 0
M  V30 9574 C 893.759 -2.91904 3.37206 0
M  V30 9575 C 894.46 -2.25727 5.36118 0
M  V30 9576 N 893.436 -2.64667 4.74818 0
M  V30 9577 H 897.238 -1.02298 2.75522 0
M  V30 9578 H 894.752 -0.469849 1.55455 0
M  V30 9579 H 896.749 -3.45189 2.33774 0
M  V30 9580 H 895.409 -2.99536 1.25332 0
M  V30 9581 H 896.42 -1.94748 4.79889 0
M  V30 9582 H 893.097 -3.2769 2.587 0
M  V30 9583 H 894.487 -1.98889 6.41789 0
M  V30 9584 N 897.207 -1.48554 -0.526253 0
M  V30 9585 C 898.117 -1.66044 -1.65731 0
M  V30 9586 C 899.133 -0.542951 -1.65312 0
M  V30 9587 O 900.309 -0.814495 -1.84195 0
M  V30 9588 C 897.374 -1.69959 -3.02184 0
M  V30 9589 C 896.435 -2.93362 -3.13428 0
M  V30 9590 C 895.668 -2.97081 -4.43372 0
M  V30 9591 O 895.891 -2.09103 -5.3069 0
M  V30 9592 O 894.825 -3.8929 -4.59061 0
M  V30 9593 H 898.651 -2.61811 -1.53912 0
M  V30 9594 H 896.236 -1.31999 -0.699759 0
M  V30 9595 H 898.118 -1.75033 -3.83329 0
M  V30 9596 H 896.793 -0.773658 -3.14319 0
M  V30 9597 H 895.7 -2.93818 -2.31564 0
M  V30 9598 H 897.033 -3.85352 -3.06211 0
M  V30 9599 N 898.685 0.775411 -1.37205 0
M  V30 9600 C 899.615 1.90258 -1.35367 0
M  V30 9601 C 900.596 1.68634 -0.222864 0
M  V30 9602 O 901.781 1.89545 -0.422659 0
M  V30 9603 C 898.911 3.27488 -1.15623 0
M  V30 9604 C 897.865 3.63668 -2.25676 0
M  V30 9605 C 897.191 4.994 -1.91059 0
M  V30 9606 C 898.491 3.70797 -3.67841 0
M  V30 9607 H 900.185 1.92053 -2.29687 0
M  V30 9608 H 897.731 0.922597 -1.10563 0
M  V30 9609 H 899.684 4.05976 -1.12968 0
M  V30 9610 H 898.408 3.26117 -0.177573 0
M  V30 9611 H 897.067 2.87486 -2.2748 0
M  V30 9612 H 896.715 4.94565 -0.917324 0
M  V30 9613 H 896.415 5.24576 -2.64751 0
M  V30 9614 H 897.939 5.80291 -1.89985 0
M  V30 9615 H 899.353 4.39444 -3.68187 0
M  V30 9616 H 897.75 4.07468 -4.40556 0
M  V30 9617 H 898.82 2.71549 -4.01732 0
M  V30 9618 N 900.163 1.21714 1.00117 0
M  V30 9619 C 901.391 1.06278 1.77518 0
M  V30 9620 C 901.806 -0.387193 1.84787 0
M  V30 9621 O 901.163 -1.26854 1.31203 0
M  V30 9622 C 901.214 1.65795 3.21239 0
M  V30 9623 O 900.935 3.05119 3.14378 0
M  V30 9624 C 902.436 1.55521 4.15124 0
M  V30 9625 H 899.656 0.373013 0.557765 0
M  V30 9626 H 902.2 1.61133 1.25922 0
M  V30 9627 H 900.355 1.15022 3.69931 0
M  V30 9628 H 900.769 3.33643 4.04701 0
M  V30 9629 H 902.243 2.01902 5.13751 0
M  V30 9630 H 902.72 0.510307 4.36225 0
M  V30 9631 H 903.326 2.0556 3.72324 0
M  V30 9632 N 901.641 -1.19671 1.02551 0
M  V30 9633 C 902.591 -2.20655 0.574037 0
M  V30 9634 C 903.575 -1.56459 -0.375412 0
M  V30 9635 O 904.767 -1.75901 -0.196929 0
M  V30 9636 C 901.896 -3.43213 -0.0772031 0
M  V30 9637 C 900.982 -4.1456 0.894485 0
M  V30 9638 N 901.373 -4.62147 2.05557 0
M  V30 9639 C 899.671 -4.40196 0.717205 0
M  V30 9640 C 900.372 -5.16899 2.66814 0
M  V30 9641 N 899.348 -5.07496 1.94804 0
M  V30 9642 H 903.15 -2.55124 1.45908 0
M  V30 9643 H 900.664 -1.35707 0.89204 0
M  V30 9644 H 902.661 -4.14797 -0.41824 0
M  V30 9645 H 901.321 -3.10247 -0.957973 0
M  V30 9646 H 902.332 -4.5708 2.43513 0
M  V30 9647 H 899.009 -4.17342 -0.114758 0
M  V30 9648 H 900.399 -5.64032 3.65126 0
M  V30 9649 N 903.119 -0.802921 -1.35613 0
M  V30 9650 C 904.082 -0.216422 -2.28176 0
M  V30 9651 C 905.082 0.594101 -1.49422 0
M  V30 9652 O 906.272 0.41312 -1.6923 0
M  V30 9653 C 903.404 0.698746 -3.33662 0
M  V30 9654 H 904.597 -1.03276 -2.81557 0
M  V30 9655 H 902.15 -0.573307 -1.45406 0
M  V30 9656 H 902.885 1.53891 -2.85461 0
M  V30 9657 H 902.67 0.119314 -3.91918 0
M  V30 9658 H 904.16 1.10354 -4.02755 0
M  V30 9659 N 904.597 1.47463 -0.556102 0
M  V30 9660 C 905.844 2.02475 -0.0316337 0
M  V30 9661 C 906.172 1.43057 1.31777 0
M  V30 9662 O 905.427 0.575376 1.87051 0
M  V30 9663 C 905.726 3.57224 0.112126 0
M  V30 9664 C 905.392 4.35557 -1.16624 0
M  V30 9665 C 904.054 4.56678 -1.51654 0
M  V30 9666 C 906.406 4.8074 -2.01342 0
M  V30 9667 C 903.734 5.20231 -2.7125 0
M  V30 9668 C 906.086 5.45613 -3.2014 0
M  V30 9669 C 904.75 5.64967 -3.55484 0
M  V30 9670 H 904.02 0.74091 -0.0115756 0
M  V30 9671 H 906.667 1.77148 -0.727392 0
M  V30 9672 H 904.972 3.81538 0.890842 0
M  V30 9673 H 906.669 3.97438 0.533261 0
M  V30 9674 H 903.259 4.19395 -0.883489 0
M  V30 9675 H 907.443 4.64201 -1.75587 0
M  V30 9676 H 902.699 5.3341 -2.98804 0
M  V30 9677 H 906.873 5.79587 -3.86073 0
M  V30 9678 H 904.5 6.13984 -4.4825 0
M  V30 9679 N 906.075 0.2925 1.54862 0
M  V30 9680 C 907.352 -0.371946 1.92031 0
M  V30 9681 C 907.732 -1.72363 1.21878 0
M  V30 9682 O 907.08 -2.25779 0.351573 0
M  V30 9683 C 907.29 -0.495027 3.45471 0
M  V30 9684 C 908.638 -0.769855 4.17562 0
M  V30 9685 O 909.662 -0.579168 3.5146 0
M  V30 9686 O 908.521 -1.13561 5.34571 0
M  V30 9687 H 905.615 -0.206463 0.800813 0
M  V30 9688 H 908.161 0.339933 1.6626 0
M  V30 9689 H 906.933 0.455528 3.88639 0
M  V30 9690 H 906.556 -1.2557 3.7725 0
M  V30 9691 N 907.553 -1.57587 0.0200696 0
M  V30 9692 C 908.83 -1.82696 -0.698677 0
M  V30 9693 C 909.21 -0.902082 -1.90855 0
M  V30 9694 O 908.558 0.0444834 -2.28457 0
M  V30 9695 C 908.768 -3.31691 -1.08546 0
M  V30 9696 C 910.116 -3.97938 -1.4809 0
M  V30 9697 O 911.14 -3.36133 -1.17869 0
M  V30 9698 O 909.999 -5.06851 -2.04364 0
M  V30 9699 H 907.093 -0.752997 -0.341942 0
M  V30 9700 H 909.639 -1.69635 0.04706 0
M  V30 9701 H 908.411 -3.90659 -0.223956 0
M  V30 9702 H 908.034 -3.49825 -1.88965 0
M  V30 9703 N 909.032 0.252966 -1.55557 0
M  V30 9704 C 909.964 1.33585 -1.86246 0
M  V30 9705 C 910.977 1.44584 -0.748291 0
M  V30 9706 O 912.166 1.46042 -1.02635 0
M  V30 9707 C 909.266 2.71509 -2.02821 0
M  V30 9708 C 908.439 2.82853 -3.33636 0
M  V30 9709 C 907.498 4.01581 -3.40028 0
M  V30 9710 O 906.524 3.91394 -4.13278 0
M  V30 9711 N 907.726 5.14474 -2.6888 0
M  V30 9712 H 910.491 1.07596 -2.7972 0
M  V30 9713 H 908.052 0.443075 -1.55719 0
M  V30 9714 H 910.044 3.49262 -2.04445 0
M  V30 9715 H 908.614 2.90232 -1.1612 0
M  V30 9716 H 907.834 1.91823 -3.4438 0
M  V30 9717 H 909.122 2.87378 -4.19871 0
M  V30 9718 H 908.52 5.25641 -2.09087 0
M  V30 9719 H 907.077 5.90385 -2.76204 0
M  V30 9720 N 910.51 1.48831 0.518367 0
M  V30 9721 C 911.758 1.57128 1.27103 0
M  V30 9722 C 912.079 0.252098 1.93364 0
M  V30 9723 O 911.349 -0.727281 1.819 0
M  V30 9724 H 909.929 0.578891 0.472116 0
M  V30 9725 H 912.591 1.85361 0.602262 0
M  V30 9726 H 911.687 2.35838 2.04418 0
M  V30 9727 N 911.988 -0.768124 1.37614 0
M  V30 9728 C 913.404 -1.06919 1.18493 0
M  V30 9729 C 913.604 -2.01486 0.0235753 0
M  V30 9730 O 912.66 -2.4438 -0.635209 0
M  V30 9731 C 913.973 -1.66321 2.50515 0
M  V30 9732 C 915.521 -1.78562 2.57069 0
M  V30 9733 C 915.996 -2.41377 3.89231 0
M  V30 9734 N 917.487 -2.48824 3.90693 0
M  V30 9735 C 918.222 -2.98288 4.89706 0
M  V30 9736 N 917.718 -3.47897 5.99115 0
M  V30 9737 N 919.511 -2.97196 4.77107 0
M  V30 9738 H 911.662 -0.140286 2.11936 0
M  V30 9739 H 913.925 -0.124863 0.939741 0
M  V30 9740 H 913.631 -1.04303 3.35878 0
M  V30 9741 H 913.505 -2.65571 2.67866 0
M  V30 9742 H 915.892 -2.39712 1.72111 0
M  V30 9743 H 915.973 -0.780574 2.43599 0
M  V30 9744 H 915.617 -1.80866 4.74605 0
M  V30 9745 H 915.547 -3.42495 4.00006 0
M  V30 9746 H 918.038 -2.1372 3.1166 0
M  V30 9747 H 918.351 -3.84053 6.70614 0
M  V30 9748 H 916.696 -3.45993 6.02755 0
M  V30 9749 H 919.887 -2.57741 3.90752 0
M  V30 9750 H 920.06 -3.35434 5.54426 0
M  V30 9751 N 913.466 -1.22244 -0.994698 0
M  V30 9752 C 914.376 -1.00722 -2.11878 0
M  V30 9753 C 915.392 0.043919 -1.73945 0
M  V30 9754 O 916.568 -0.148411 -2.00852 0
M  V30 9755 C 913.633 -0.585723 -3.41717 0
M  V30 9756 C 912.694 -1.71027 -3.93762 0
M  V30 9757 C 911.927 -1.30879 -5.17403 0
M  V30 9758 O 912.15 -0.18681 -5.70094 0
M  V30 9759 O 911.084 -2.1246 -5.63156 0
M  V30 9760 H 914.91 -1.94894 -2.32916 0
M  V30 9761 H 912.495 -1.00822 -1.10251 0
M  V30 9762 H 914.377 -0.360935 -4.19851 0
M  V30 9763 H 913.052 0.327166 -3.22042 0
M  V30 9764 H 911.959 -1.98956 -3.16808 0
M  V30 9765 H 913.292 -2.60096 -4.17865 0
M  V30 9766 N 914.944 1.19125 -1.03184 0
M  V30 9767 C 916.174 1.92558 -0.748663 0
M  V30 9768 C 916.582 1.759 0.696837 0
M  V30 9769 O 915.925 1.08019 1.48585 0
M  V30 9770 C 915.987 3.4461 -1.02391 0
M  V30 9771 C 915.651 3.85041 -2.46155 0
M  V30 9772 C 916.648 3.89554 -3.44302 0
M  V30 9773 C 914.333 4.16594 -2.80633 0
M  V30 9774 C 916.327 4.25055 -4.74981 0
M  V30 9775 C 914.014 4.51767 -4.11521 0
M  V30 9776 C 915.012 4.55972 -5.08506 0
M  V30 9777 O 914.7 4.9033 -6.37049 0
M  V30 9778 H 914.432 0.618397 -0.273059 0
M  V30 9779 H 916.986 1.52122 -1.38015 0
M  V30 9780 H 915.216 3.85244 -0.335284 0
M  V30 9781 H 916.905 3.99283 -0.729927 0
M  V30 9782 H 917.671 3.65324 -3.19003 0
M  V30 9783 H 913.55 4.12503 -2.05821 0
M  V30 9784 H 917.094 4.28252 -5.50678 0
M  V30 9785 H 912.991 4.75455 -4.36592 0
M  V30 9786 H 913.759 5.08266 -6.41566 0
M  V30 9787 N 916.422 0.810101 1.35185 0
M  V30 9788 C 917.699 0.315235 1.93043 0
M  V30 9789 C 918.079 -1.19567 1.73974 0
M  V30 9790 O 917.427 -1.99682 1.11083 0
M  V30 9791 C 917.637 0.730492 3.41269 0
M  V30 9792 C 918.985 0.721985 4.18417 0
M  V30 9793 O 920.009 0.672258 3.49799 0
M  V30 9794 O 918.868 0.783535 5.40854 0
M  V30 9795 H 915.962 0.0832774 0.822796 0
M  V30 9796 H 918.508 0.894034 1.4424 0
M  V30 9797 H 917.28 1.77169 3.48894 0
M  V30 9798 H 916.903 0.12669 3.97398 0
M  V30 9799 N 917.9 -1.47166 0.563914 0
M  V30 9800 C 918.847 -2.30097 -0.180013 0
M  V30 9801 C 919.817 -1.39473 -0.902019 0
M  V30 9802 O 921.002 -1.68432 -0.896396 0
M  V30 9803 C 918.142 -3.23573 -1.19978 0
M  V30 9804 C 917.255 -4.2929 -0.483149 0
M  V30 9805 C 916.39 -5.0991 -1.48879 0
M  V30 9806 C 915.429 -6.07395 -0.757513 0
M  V30 9807 N 914.566 -6.8095 -1.71031 0
M  V30 9808 H 919.406 -2.93189 0.53329 0
M  V30 9809 H 916.943 -1.4451 0.274814 0
M  V30 9810 H 918.901 -3.76196 -1.80368 0
M  V30 9811 H 917.531 -2.6233 -1.88103 0
M  V30 9812 H 916.583 -3.79671 0.235414 0
M  V30 9813 H 917.895 -4.9872 0.0894075 0
M  V30 9814 H 917.049 -5.66717 -2.16603 0
M  V30 9815 H 915.788 -4.40397 -2.09527 0
M  V30 9816 H 914.793 -5.4976 -0.0663841 0
M  V30 9817 H 916.018 -6.78919 -0.156685 0
M  V30 9818 H 913.964 -6.14162 -2.30524 0
M  V30 9819 H 913.881 -7.46574 -1.19007 0
M  V30 9820 H 915.149 -7.42326 -2.37849 0
M  V30 9821 N 919.378 -0.300708 -1.54705 0
M  V30 9822 C 920.655 0.361757 -1.92226 0
M  V30 9823 C 921.035 1.71714 -1.2279 0
M  V30 9824 O 920.383 2.2559 -0.363542 0
M  V30 9825 C 920.593 0.476699 -3.45729 0
M  V30 9826 C 921.941 0.7477 -4.17965 0
M  V30 9827 O 922.965 0.560521 -3.51762 0
M  V30 9828 O 921.824 1.10724 -5.35166 0
M  V30 9829 H 918.918 0.202213 -0.801897 0
M  V30 9830 H 921.464 -0.348746 -1.66078 0
M  V30 9831 H 920.236 -0.476132 -3.88392 0
M  V30 9832 H 919.859 1.23568 -3.77911 0
M  V30 9833 N 920.856 1.57574 -0.0284266 0
M  V30 9834 C 922.104 1.91393 0.649079 0
M  V30 9835 C 922.425 0.905368 1.72708 0
M  V30 9836 O 921.695 -0.0532107 1.95828 0
M  V30 9837 H 920.275 0.70646 0.24274 0
M  V30 9838 H 922.937 1.94752 -0.076066 0
M  V30 9839 H 922.033 2.91988 1.10226 0
M  V30 9840 N 922.334 -0.244713 1.55689 0
M  V30 9841 C 923.282 -1.32276 1.91326 0
M  V30 9842 C 924.276 -1.49714 0.792589 0
M  V30 9843 O 925.482 -1.51163 0.977227 0
M  V30 9844 H 921.857 -0.442979 0.607679 0
M  V30 9845 H 923.828 -0.99486 2.81327 0
M  V30 9846 C 922.577 -2.67077 2.22633 0
M  V30 9847 H 921.9 -2.54458 3.08368 0
M  V30 9848 H 923.34 -3.41378 2.5147 0
M  V30 9849 C 921.799 -3.20335 1.04342 0
M  V30 9850 O 922.329 -4.00633 0.292543 0
M  V30 9851 N 920.535 -2.78392 0.833457 0
M  V30 9852 H 920.082 -2.13202 1.44577 0
M  V30 9853 H 920.04 -3.1437 0.0436713 0
M  V30 9854 N 923.813 -1.49104 -0.510467 0
M  V30 9855 C 924.743 -1.67981 -1.62187 0
M  V30 9856 C 925.724 -0.528529 -1.6168 0
M  V30 9857 O 926.909 -0.763305 -1.7857 0
M  V30 9858 C 924.039 -1.73755 -3.0071 0
M  V30 9859 C 922.993 -2.88579 -3.1608 0
M  V30 9860 C 922.319 -2.79457 -4.5586 0
M  V30 9861 C 923.619 -4.29638 -2.97 0
M  V30 9862 H 925.313 -2.61029 -1.46643 0
M  V30 9863 H 922.859 -1.25615 -0.704042 0
M  V30 9864 H 924.812 -1.85548 -3.78352 0
M  V30 9865 H 923.536 -0.772996 -3.17321 0
M  V30 9866 H 922.195 -2.76372 -2.40861 0
M  V30 9867 H 921.843 -1.80929 -4.69333 0
M  V30 9868 H 921.543 -3.56518 -4.67086 0
M  V30 9869 H 923.067 -2.93245 -5.35574 0
M  V30 9870 H 924.481 -4.42575 -3.64418 0
M  V30 9871 H 922.878 -5.07847 -3.19704 0
M  V30 9872 H 923.948 -4.44741 -1.93219 0
M  V30 9873 N 925.291 0.760815 -1.38019 0
M  V30 9874 C 926.707 1.06289 -1.19058 0
M  V30 9875 C 926.907 2.01471 -0.0342603 0
M  V30 9876 O 925.963 2.44713 0.62224 0
M  V30 9877 C 927.276 1.6499 -2.51394 0
M  V30 9878 C 928.824 1.77196 -2.58013 0
M  V30 9879 C 929.299 2.3931 -3.90506 0
M  V30 9880 N 930.79 2.46749 -3.92007 0
M  V30 9881 C 931.525 2.95687 -4.91281 0
M  V30 9882 N 931.021 3.44715 -6.00952 0
M  V30 9883 N 932.814 2.94661 -4.78677 0
M  V30 9884 H 924.965 0.129045 -2.12008 0
M  V30 9885 H 927.228 0.119878 -0.94039 0
M  V30 9886 H 926.934 1.0252 -3.36426 0
M  V30 9887 H 926.808 2.64146 -2.6927 0
M  V30 9888 H 929.195 2.38796 -1.7338 0
M  V30 9889 H 929.276 0.767645 -2.4401 0
M  V30 9890 H 928.92 1.78346 -4.75558 0
M  V30 9891 H 928.85 3.40369 -4.01817 0
M  V30 9892 H 931.341 2.12064 -3.12789 0
M  V30 9893 H 931.654 3.80492 -6.72641 0
M  V30 9894 H 929.999 3.42791 -6.04582 0
M  V30 9895 H 933.19 2.55665 -3.92113 0
M  V30 9896 H 933.363 3.32489 -5.56197 0
M  V30 9897 N 926.769 1.22769 0.988202 0
M  V30 9898 C 928.18 1.0512 1.54294 0
M  V30 9899 C 928.531 -0.383904 1.92407 0
M  V30 9900 O 927.656 -1.26955 1.75246 0
M  V30 9901 C 928.251 1.90198 2.80375 0
M  V30 9902 C 926.81 1.76831 3.32276 0
M  V30 9903 C 925.957 1.86377 2.05326 0
M  V30 9904 H 928.908 1.36546 0.808758 0
M  V30 9905 H 928.929 1.42216 3.52923 0
M  V30 9906 H 928.441 2.9464 2.52605 0
M  V30 9907 H 926.542 0.751412 3.64945 0
M  V30 9908 H 926.655 2.59771 4.02562 0
M  V30 9909 H 925.019 1.2987 2.19103 0
M  V30 9910 H 925.802 2.9236 1.79946 0
M  V30 9911 N 928.247 -1.18576 1.03814 0
M  V30 9912 C 929.493 -1.89032 0.750892 0
M  V30 9913 C 929.848 -1.78683 -0.713444 0
M  V30 9914 O 929.141 -1.1746 -1.51373 0
M  V30 9915 C 929.335 -3.38448 1.14837 0
M  V30 9916 C 929.164 -3.63339 2.64981 0
M  V30 9917 C 927.934 -3.80847 3.3209 0
M  V30 9918 C 930.132 -3.64131 3.63198 0
M  V30 9919 N 928.114 -3.93453 4.71241 0
M  V30 9920 C 929.485 -3.82421 4.88011 0
M  V30 9921 C 931.54 -3.47206 3.56865 0
M  V30 9922 C 930.243 -3.85538 6.0725 0
M  V30 9923 C 932.269 -3.51605 4.75529 0
M  V30 9924 C 931.631 -3.70388 5.99159 0
M  V30 9925 H 927.73 -0.710447 0.326786 0
M  V30 9926 H 930.314 -1.42444 1.32732 0
M  V30 9927 H 928.485 -3.83737 0.600058 0
M  V30 9928 H 930.217 -3.96462 0.812406 0
M  V30 9929 H 926.972 -3.80122 2.82496 0
M  V30 9930 H 927.396 -4.03584 5.43552 0
M  V30 9931 H 932.038 -3.31632 2.6226 0
M  V30 9932 H 929.756 -3.99901 7.02214 0
M  V30 9933 H 933.342 -3.39787 4.72267 0
M  V30 9934 H 932.222 -3.73679 6.89445 0
M  V30 9935 N 929.725 -0.817259 -1.34754 0
M  V30 9936 C 930.971 -0.412407 -1.99175 0
M  V30 9937 C 931.326 1.01192 -1.6364 0
M  V30 9938 O 930.619 1.69417 -0.894897 0
M  V30 9939 C 930.813 -0.5453 -3.53216 0
M  V30 9940 C 930.642 -1.981 -4.03716 0
M  V30 9941 C 929.412 -2.61167 -4.32574 0
M  V30 9942 C 931.61 -2.94698 -4.21494 0
M  V30 9943 N 929.592 -3.96035 -4.69073 0
M  V30 9944 C 930.963 -4.14462 -4.61109 0
M  V30 9945 C 933.018 -2.9139 -4.03728 0
M  V30 9946 C 931.721 -5.31363 -4.84815 0
M  V30 9947 C 933.747 -4.07502 -4.28598 0
M  V30 9948 C 933.109 -5.26016 -4.68494 0
M  V30 9949 H 929.208 -0.198899 -0.756282 0
M  V30 9950 H 931.792 -1.06076 -1.63266 0
M  V30 9951 H 929.963 0.073122 -3.88331 0
M  V30 9952 H 931.695 -0.113999 -4.04539 0
M  V30 9953 H 928.45 -2.12446 -4.23277 0
M  V30 9954 H 928.874 -4.65502 -4.91566 0
M  V30 9955 H 933.516 -2.00908 -3.72016 0
M  V30 9956 H 931.234 -6.22408 -5.15397 0
M  V30 9957 H 934.82 -4.06335 -4.16393 0
M  V30 9958 H 933.7 -6.14369 -4.87361 0
M  V30 9959 N 931.203 1.46865 -0.571711 0
M  V30 9960 C 932.15 2.30189 0.167808 0
M  V30 9961 C 933.12 1.3995 0.89461 0
M  V30 9962 O 934.305 1.68905 0.887451 0
M  V30 9963 C 931.445 3.24205 1.1826 0
M  V30 9964 C 930.558 4.2954 0.460376 0
M  V30 9965 C 929.693 5.10693 1.46173 0
M  V30 9966 C 928.732 6.07788 0.725291 0
M  V30 9967 N 927.869 6.81847 1.67417 0
M  V30 9968 H 932.709 2.92902 -0.548831 0
M  V30 9969 H 930.246 1.44362 -0.282474 0
M  V30 9970 H 932.204 3.77147 1.7837 0
M  V30 9971 H 930.834 2.63324 1.86709 0
M  V30 9972 H 929.886 3.79541 -0.255546 0
M  V30 9973 H 931.198 4.98665 -0.115855 0
M  V30 9974 H 930.352 5.67857 2.13595 0
M  V30 9975 H 929.091 4.41502 2.07188 0
M  V30 9976 H 928.096 5.49787 0.037228 0
M  V30 9977 H 929.321 6.78993 0.120678 0
M  V30 9978 H 927.267 6.15376 2.27263 0
M  V30 9979 H 927.184 7.47195 1.15046 0
M  V30 9980 H 928.452 7.43577 2.33908 0
M  V30 9981 N 932.681 0.308908 1.54543 0
M  V30 9982 C 933.629 -0.579326 2.2527 0
M  V30 9983 C 934.623 -1.13058 1.26152 0
M  V30 9984 O 935.829 -1.08031 1.43977 0
M  V30 9985 H 932.204 -0.205444 0.723392 0
M  V30 9986 H 934.175 0.0396415 2.98374 0
M  V30 9987 C 932.924 -1.73584 3.01271 0
M  V30 9988 H 932.247 -1.32089 3.77349 0
M  V30 9989 H 933.687 -2.33324 3.54028 0
M  V30 9990 C 932.146 -2.6447 2.08703 0
M  V30 9991 O 932.676 -3.65785 1.66025 0
M  V30 9992 N 930.882 -2.32379 1.74495 0
M  V30 9993 H 930.429 -1.50034 2.09398 0
M  V30 9994 H 930.387 -2.93454 1.12836 0
M  V30 9995 N 934.159 -1.57557 0.0367827 0
M  V30 9996 C 935.384 -1.96828 -0.653707 0
M  V30 9997 C 935.809 -0.913559 -1.64425 0
M  V30 9998 O 935.167 0.124749 -1.8087 0
M  V30 9999 C 935.215 -3.35189 -1.32969 0
M  V30 10000 O 934.319 -3.32095 -2.44513 0
M  V30 10001 H 933.66 -0.64157 -0.171124 0
M  V30 10002 H 936.19 -2.04351 0.100912 0
M  V30 10003 H 936.2 -3.71593 -1.68472 0
M  V30 10004 H 934.875 -4.11496 -0.603654 0
M  V30 10005 H 933.452 -3.07418 -2.11065 0
M  V30 10006 N 935.637 0.236453 -1.55816 0
M  V30 10007 C 936.862 0.98449 -1.82545 0
M  V30 10008 C 937.287 1.77755 -0.615206 0
M  V30 10009 O 936.645 1.75982 0.435895 0
M  V30 10010 C 936.693 1.88973 -3.07118 0
M  V30 10011 O 935.797 2.98298 -2.84766 0
M  V30 10012 H 935.138 0.279577 -0.602273 0
M  V30 10013 H 937.668 0.254277 -2.03014 0
M  V30 10014 H 937.678 2.3024 -3.36829 0
M  V30 10015 H 936.353 1.30671 -3.94839 0
M  V30 10016 H 934.93 2.61085 -2.6625 0
M  V30 10017 N 937.115 1.49373 0.502552 0
M  V30 10018 C 938.361 1.59016 1.25864 0
M  V30 10019 C 938.694 0.27532 1.92238 0
M  V30 10020 O 937.969 -0.720988 1.80643 0
M  V30 10021 C 938.252 2.74828 2.32683 0
M  V30 10022 C 938.105 4.16102 1.7082 0
M  V30 10023 C 939.424 2.86288 3.34256 0
M  V30 10024 H 936.543 0.578798 0.456248 0
M  V30 10025 H 939.185 1.81651 0.557032 0
M  V30 10026 H 937.335 2.5566 2.92524 0
M  V30 10027 H 939.007 4.46782 1.14818 0
M  V30 10028 H 937.25 4.21822 1.01238 0
M  V30 10029 H 937.921 4.93006 2.48292 0
M  V30 10030 H 940.397 3.03733 2.84404 0
M  V30 10031 H 939.273 3.69001 4.06362 0
M  V30 10032 H 939.534 1.95576 3.96488 0
M  V30 10033 N 938.594 -0.753485 1.38421 0
M  V30 10034 C 939.504 -1.89797 1.37892 0
M  V30 10035 C 940.52 -1.71797 0.276023 0
M  V30 10036 O 941.696 -1.94718 0.514464 0
M  V30 10037 C 938.761 -3.25166 1.20284 0
M  V30 10038 C 937.822 -3.55691 2.4038 0
M  V30 10039 C 937.055 -4.84601 2.23602 0
M  V30 10040 O 937.278 -5.56985 1.22979 0
M  V30 10041 O 936.212 -5.14605 3.12194 0
M  V30 10042 H 940.038 -1.93197 2.34326 0
M  V30 10043 H 937.623 -0.898775 1.19342 0
M  V30 10044 H 939.505 -4.06099 1.12525 0
M  V30 10045 H 938.18 -3.22577 0.269352 0
M  V30 10046 H 937.087 -2.74919 2.53714 0
M  V30 10047 H 938.42 -3.6304 3.32359 0
M  V30 10048 N 940.072 -1.23292 -0.981677 0
M  V30 10049 C 941.035 -1.01417 -2.05542 0
M  V30 10050 C 942.035 0.0235354 -1.60783 0
M  V30 10051 O 943.225 -0.216082 -1.72855 0
M  V30 10052 C 940.357 -0.534239 -3.36688 0
M  V30 10053 H 941.55 -1.96702 -2.26381 0
M  V30 10054 H 939.103 -1.05318 -1.1549 0
M  V30 10055 H 939.838 0.422452 -3.21537 0
M  V30 10056 H 939.623 -1.28304 -3.70514 0
M  V30 10057 H 941.113 -0.40179 -4.15663 0
M  V30 10058 N 941.55 1.18024 -1.04442 0
M  V30 10059 C 942.797 1.88098 -0.750022 0
M  V30 10060 C 943.125 1.80583 0.722489 0
M  V30 10061 O 942.38 1.20329 1.54335 0
M  V30 10062 C 942.679 3.37834 -1.16631 0
M  V30 10063 C 942.345 3.65553 -2.63974 0
M  V30 10064 C 941.007 3.72827 -3.04226 0
M  V30 10065 C 943.359 3.77634 -3.59224 0
M  V30 10066 C 940.687 3.89666 -4.38608 0
M  V30 10067 C 943.039 3.9599 -4.9333 0
M  V30 10068 C 941.703 4.01501 -5.33248 0
M  V30 10069 H 940.973 0.6883 -0.274452 0
M  V30 10070 H 943.62 1.39671 -1.31012 0
M  V30 10071 H 941.925 3.88266 -0.525071 0
M  V30 10072 H 943.622 3.90402 -0.915827 0
M  V30 10073 H 940.212 3.6051 -2.31798 0
M  V30 10074 H 944.396 3.71342 -3.2927 0
M  V30 10075 H 939.652 3.92178 -4.69048 0
M  V30 10076 H 943.826 4.0428 -5.67037 0
M  V30 10077 H 941.453 4.14301 -6.37384 0
M  V30 10078 N 943.028 0.824394 1.34319 0
M  V30 10079 C 943.975 0.245282 2.29493 0
M  V30 10080 C 944.945 -0.630762 1.53657 0
M  V30 10081 O 946.13 -0.572094 1.82021 0
M  V30 10082 C 943.27 -0.585631 3.40095 0
M  V30 10083 C 942.383 0.312821 4.30866 0
M  V30 10084 C 941.518 -0.527801 5.28571 0
M  V30 10085 C 940.557 0.369946 6.10981 0
M  V30 10086 N 939.694 -0.43169 7.00772 0
M  V30 10087 H 944.534 1.06225 2.78425 0
M  V30 10088 H 942.071 0.53533 1.37013 0
M  V30 10089 H 944.029 -1.08271 4.02906 0
M  V30 10090 H 942.659 -1.3677 2.92393 0
M  V30 10091 H 941.711 0.928129 3.68904 0
M  V30 10092 H 943.023 1.00306 4.8861 0
M  V30 10093 H 942.177 -1.0893 5.96841 0
M  V30 10094 H 940.916 -1.25154 4.71368 0
M  V30 10095 H 939.921 0.943577 5.41643 0
M  V30 10096 H 941.146 1.09182 6.70266 0
M  V30 10097 H 939.092 -1.13908 6.46035 0
M  V30 10098 H 939.009 0.200133 7.55735 0
M  V30 10099 H 940.277 -0.975894 7.73367 0
M  V30 10100 N 944.506 -1.46559 0.579492 0
M  V30 10101 C 945.922 -1.57771 0.240921 0
M  V30 10102 C 946.122 -1.57505 -1.25676 0
M  V30 10103 O 945.178 -1.4903 -2.03829 0
M  V30 10104 C 946.491 -2.87311 0.887285 0
M  V30 10105 C 948.039 -3.00937 0.860576 0
M  V30 10106 C 948.514 -4.33208 1.48642 0
M  V30 10107 N 950.005 -4.39899 1.45062 0
M  V30 10108 C 950.74 -5.40856 1.90428 0
M  V30 10109 N 950.236 -6.48503 2.43752 0
M  V30 10110 N 952.029 -5.32037 1.81364 0
M  V30 10111 H 944.18 -1.44976 1.55228 0
M  V30 10112 H 946.443 -0.691354 0.648639 0
M  V30 10113 H 946.149 -2.93307 1.94071 0
M  V30 10114 H 946.023 -3.75141 0.393577 0
M  V30 10115 H 948.41 -2.94524 -0.184223 0
M  V30 10116 H 948.491 -2.14591 1.39227 0
M  V30 10117 H 948.135 -4.40378 2.5304 0
M  V30 10118 H 948.065 -5.18323 0.92998 0
M  V30 10119 H 950.556 -3.62706 1.0608 0
M  V30 10120 H 950.869 -7.21744 2.76234 0
M  V30 10121 H 949.214 -6.49332 2.47776 0
M  V30 10122 H 952.405 -4.46841 1.39465 0
M  V30 10123 H 952.578 -6.10573 2.17035 0
M  V30 10124 N 945.984 -0.3171 -1.54377 0
M  V30 10125 C 946.916 0.58571 -2.2159 0
M  V30 10126 C 947.929 1.08495 -1.21378 0
M  V30 10127 O 949.118 0.999638 -1.47883 0
M  V30 10128 C 946.218 1.8157 -2.86156 0
M  V30 10129 C 945.391 1.45625 -4.12447 0
M  V30 10130 C 944.45 2.54308 -4.60667 0
M  V30 10131 O 943.476 2.18724 -5.25498 0
M  V30 10132 N 944.678 3.85129 -4.34345 0
M  V30 10133 H 947.443 0.0102247 -2.99698 0
M  V30 10134 H 945.004 -0.140011 -1.61293 0
M  V30 10135 H 946.996 2.53657 -3.15341 0
M  V30 10136 H 945.566 2.29919 -2.11793 0
M  V30 10137 H 944.786 0.567294 -3.90097 0
M  V30 10138 H 946.074 1.19169 -4.94648 0
M  V30 10139 H 945.472 4.16841 -3.8244 0
M  V30 10140 H 944.029 4.53466 -4.68201 0
M  V30 10141 N 947.462 1.57535 -0.0451378 0
M  V30 10142 C 948.69 1.96761 0.639742 0
M  V30 10143 C 949.105 0.922405 1.64734 0
M  V30 10144 O 948.462 -0.0940535 1.82257 0
M  V30 10145 C 948.513 3.36066 1.33199 0
M  V30 10146 O 948.234 4.36579 0.364757 0
M  V30 10147 C 949.735 3.90015 2.1072 0
M  V30 10148 H 946.955 0.64769 0.175324 0
M  V30 10149 H 949.499 2.04206 -0.109651 0
M  V30 10150 H 947.654 3.2979 2.03266 0
M  V30 10151 H 948.068 5.17432 0.858168 0
M  V30 10152 H 949.542 4.89785 2.54586 0
M  V30 10153 H 950.019 3.25117 2.95288 0
M  V30 10154 H 950.625 3.99609 1.45577 0
M  V30 10155 N 948.94 -0.228186 1.55939 0
M  V30 10156 C 949.85 -1.30386 1.9503 0
M  V30 10157 C 950.866 -1.51645 0.853218 0
M  V30 10158 O 952.042 -1.64904 1.15623 0
M  V30 10159 C 949.107 -2.63489 2.25332 0
M  V30 10160 C 948.168 -2.5059 3.48573 0
M  V30 10161 C 947.401 -3.77345 3.7742 0
M  V30 10162 O 947.624 -4.80067 3.08045 0
M  V30 10163 O 946.558 -3.74855 4.70922 0
M  V30 10164 H 950.384 -1.0022 2.86687 0
M  V30 10165 H 947.969 -0.430503 1.43063 0
M  V30 10166 H 949.851 -3.4211 2.46046 0
M  V30 10167 H 948.526 -2.93349 1.3685 0
M  V30 10168 H 947.433 -1.70191 3.33145 0
M  V30 10169 H 948.766 -2.2567 4.37417 0
M  V30 10170 N 950.418 -1.49637 -0.494624 0
M  V30 10171 C 951.658 -1.61067 -1.25844 0
M  V30 10172 C 952.022 -0.293666 -1.89741 0
M  V30 10173 O 953.223 -0.283202 -2.67304 0
M  V30 10174 C 951.494 -2.74218 -2.29215 0
M  V30 10175 S 953.053 -3.05639 -3.1485 0
M  V30 10176 H 949.871 -0.568056 -0.42759 0
M  V30 10177 H 952.473 -1.87323 -0.559491 0
M  V30 10178 H 951.177 -3.68422 -1.80813 0
M  V30 10179 H 950.708 -2.49975 -3.0377 0
M  V30 10180 H 952.723 -2.47651 -4.29981 0
M  V30 10181 N 951.896 0.746133 -1.38819 0
M  V30 10182 C 952.829 1.86833 -1.31029 0
M  V30 10183 C 953.807 1.61533 -0.185948 0
M  V30 10184 O 954.991 1.84942 -0.364529 0
M  V30 10185 C 952.118 3.22596 -1.03198 0
M  V30 10186 C 951.164 3.66772 -2.17671 0
M  V30 10187 S 951.997 3.77438 -3.7987 0
M  V30 10188 C 953.153 5.16008 -3.54241 0
M  V30 10189 H 953.386 1.93155 -2.26005 0
M  V30 10190 H 950.919 0.909872 -1.24742 0
M  V30 10191 H 952.877 4.00995 -0.878237 0
M  V30 10192 H 951.538 3.13943 -0.0992704 0
M  V30 10193 H 950.731 4.65266 -1.93762 0
M  V30 10194 H 950.333 2.95547 -2.2919 0
M  V30 10195 H 952.625 6.01996 -3.10816 0
M  V30 10196 H 953.568 5.44941 -4.52156 0
M  V30 10197 H 953.976 4.85158 -2.88587 0
M  V30 10198 N 953.375 1.23811 0.975125 0
M  V30 10199 C 954.621 1.07495 1.71967 0
M  V30 10200 C 954.954 -0.386451 1.90316 0
M  V30 10201 O 954.229 -1.28591 1.45927 0
M  V30 10202 C 954.512 1.80694 3.11483 0
M  V30 10203 C 954.365 3.3454 3.00671 0
M  V30 10204 C 955.684 1.57367 4.11003 0
M  V30 10205 H 952.803 0.3919 0.624166 0
M  V30 10206 H 955.445 1.52383 1.13487 0
M  V30 10207 H 953.595 1.42538 3.61407 0
M  V30 10208 H 955.267 3.8225 2.5823 0
M  V30 10209 H 953.51 3.63301 2.37054 0
M  V30 10210 H 954.181 3.80951 3.99475 0
M  V30 10211 H 956.657 1.90545 3.69908 0
M  V30 10212 H 955.533 2.11052 5.06703 0
M  V30 10213 H 955.794 0.510221 4.39146 0
M  V30 10214 N 954.853 -1.17469 1.05066 0
M  V30 10215 C 955.763 -2.25089 0.661222 0
M  V30 10216 C 956.779 -1.71086 -0.31712 0
M  V30 10217 O 957.955 -2.00685 -0.169534 0
M  V30 10218 C 955.02 -3.46676 0.0406415 0
M  V30 10219 C 954.081 -4.15771 1.06927 0
M  V30 10220 C 953.314 -5.31553 0.478208 0
M  V30 10221 O 953.537 -5.6593 -0.712714 0
M  V30 10222 O 952.471 -5.89574 1.21185 0
M  V30 10223 H 956.297 -2.60685 1.5581 0
M  V30 10224 H 953.882 -1.24744 0.822147 0
M  V30 10225 H 955.764 -4.203 -0.304312 0
M  V30 10226 H 954.439 -3.1288 -0.829909 0
M  V30 10227 H 953.346 -3.44171 1.46619 0
M  V30 10228 H 954.679 -4.53591 1.91092 0
M  V30 10229 N 956.331 -0.831506 -1.3388 0
M  V30 10230 C 957.263 -0.216908 -2.28171 0
M  V30 10231 C 958.276 0.598141 -1.51414 0
M  V30 10232 O 959.465 0.426416 -1.73332 0
M  V30 10233 C 956.565 0.713831 -3.31297 0
M  V30 10234 C 955.738 -0.0602673 -4.37358 0
M  V30 10235 C 954.797 0.792696 -5.20195 0
M  V30 10236 O 953.823 0.234564 -5.68716 0
M  V30 10237 N 955.025 2.11119 -5.40748 0
M  V30 10238 H 957.79 -1.02704 -2.81553 0
M  V30 10239 H 955.351 -0.689272 -1.46495 0
M  V30 10240 H 957.343 1.28925 -3.83615 0
M  V30 10241 H 955.913 1.42469 -2.78247 0
M  V30 10242 H 955.133 -0.817041 -3.8564 0
M  V30 10243 H 956.421 -0.592822 -5.05335 0
M  V30 10244 H 955.819 2.58828 -5.03016 0
M  V30 10245 H 954.376 2.63527 -5.96151 0
M  V30 10246 N 957.809 1.4625 -0.587256 0
M  V30 10247 C 959.039 2.06444 -0.0802135 0
M  V30 10248 C 959.447 1.43585 1.23207 0
M  V30 10249 O 958.79 0.536956 1.75677 0
M  V30 10250 C 958.852 3.59165 0.155129 0
M  V30 10251 C 958.516 4.44243 -1.07225 0
M  V30 10252 C 959.513 4.80497 -1.98542 0
M  V30 10253 C 957.198 4.8531 -1.29537 0
M  V30 10254 C 959.192 5.56649 -3.10516 0
M  V30 10255 C 956.879 5.61221 -2.41815 0
M  V30 10256 C 957.877 5.96805 -3.32134 0
M  V30 10257 O 957.565 6.71181 -4.42461 0
M  V30 10258 H 957.297 0.673626 -0.0566063 0
M  V30 10259 H 959.851 1.88797 -0.809004 0
M  V30 10260 H 958.081 3.75137 0.938583 0
M  V30 10261 H 959.77 4.01271 0.611243 0
M  V30 10262 H 960.536 4.49345 -1.82522 0
M  V30 10263 H 956.415 4.5706 -0.601431 0
M  V30 10264 H 959.959 5.84343 -3.81037 0
M  V30 10265 H 955.856 5.91786 -2.57797 0
M  V30 10266 H 956.624 6.8961 -4.40886 0
M  V30 10267 N 959.287 0.325282 1.54207 0
M  V30 10268 C 960.512 -0.281418 2.05482 0
M  V30 10269 C 960.937 -1.44869 1.19977 0
M  V30 10270 O 960.295 -1.80088 0.209275 0
M  V30 10271 C 960.343 -0.692029 3.53897 0
M  V30 10272 O 959.447 -1.7942 3.71325 0
M  V30 10273 H 958.788 -0.0504872 0.662078 0
M  V30 10274 H 961.318 0.474191 1.99029 0
M  V30 10275 H 961.328 -0.974219 3.96198 0
M  V30 10276 H 960.003 0.161709 4.15586 0
M  V30 10277 H 958.58 -1.51069 3.40929 0
M  V30 10278 N 960.765 -1.57509 0.0534917 0
M  V30 10279 C 961.713 -2.12851 -0.937931 0
M  V30 10280 C 962.707 -1.06088 -1.32067 0
M  V30 10281 O 963.913 -1.24494 -1.30005 0
M  V30 10282 H 960.288 -0.680357 -0.320342 0
M  V30 10283 H 962.259 -2.95047 -0.446077 0
M  V30 10284 C 961.008 -2.69034 -2.20264 0
M  V30 10285 H 960.331 -3.50848 -1.91693 0
M  V30 10286 H 961.771 -3.11375 -2.87788 0
M  V30 10287 C 960.23 -1.62919 -2.94888 0
M  V30 10288 O 960.76 -1.04334 -3.87914 0
M  V30 10289 N 958.966 -1.34385 -2.57661 0
M  V30 10290 H 958.513 -1.82214 -1.82088 0
M  V30 10291 H 958.471 -0.636149 -3.07897 0
M  V30 10292 N 962.243 0.219913 -1.56058 0
M  V30 10293 C 963.473 0.959521 -1.82967 0
M  V30 10294 C 963.881 1.78382 -0.630602 0
M  V30 10295 O 963.224 1.79062 0.410203 0
M  V30 10296 C 963.286 1.92481 -3.0363 0
M  V30 10297 C 962.95 1.28487 -4.38566 0
M  V30 10298 C 963.947 0.673946 -5.15513 0
M  V30 10299 C 961.632 1.29615 -4.85289 0
M  V30 10300 C 963.626 0.0828324 -6.37346 0
M  V30 10301 C 961.313 0.701191 -6.07064 0
M  V30 10302 C 962.311 0.0955877 -6.82933 0
M  V30 10303 O 961.999 -0.490109 -8.02405 0
M  V30 10304 H 961.731 0.286709 -0.612188 0
M  V30 10305 H 964.285 0.239761 -2.03996 0
M  V30 10306 H 962.515 2.6836 -2.78424 0
M  V30 10307 H 964.204 2.5301 -3.17397 0
M  V30 10308 H 964.97 0.657548 -4.80522 0
M  V30 10309 H 960.849 1.75691 -4.26208 0
M  V30 10310 H 964.393 -0.390482 -6.96506 0
M  V30 10311 H 960.29 0.715007 -6.41528 0
M  V30 10312 H 961.058 -0.384588 -8.17596 0
M  V30 10313 N 963.721 1.49897 0.486681 0
M  V30 10314 C 964.946 1.64106 1.26823 0
M  V30 10315 C 965.371 0.317967 1.85393 0
M  V30 10316 O 964.729 -0.71626 1.66551 0
M  V30 10317 C 964.777 2.72301 2.36399 0
M  V30 10318 O 963.881 2.32469 3.40634 0
M  V30 10319 H 963.222 0.548794 0.373793 0
M  V30 10320 H 965.752 1.96177 0.581017 0
M  V30 10321 H 965.762 2.94906 2.81948 0
M  V30 10322 H 964.437 3.68335 1.93137 0
M  V30 10323 H 963.014 2.20251 3.00905 0
M  V30 10324 N 965.199 -0.738761 1.39212 0
M  V30 10325 C 966.445 -1.50046 1.36433 0
M  V30 10326 C 966.778 -1.94157 -0.0409474 0
M  V30 10327 O 966.053 -1.66515 -1.00514 0
M  V30 10328 C 966.336 -2.74277 2.33333 0
M  V30 10329 C 966.189 -2.36209 3.82786 0
M  V30 10330 C 967.508 -3.76361 2.28123 0
M  V30 10331 H 964.627 -0.544294 0.496903 0
M  V30 10332 H 967.269 -0.845005 1.70175 0
M  V30 10333 H 965.419 -3.30204 2.04689 0
M  V30 10334 H 967.091 -1.85942 4.22165 0
M  V30 10335 H 965.334 -1.68483 3.99745 0
M  V30 10336 H 966.005 -3.25156 4.46069 0
M  V30 10337 H 968.481 -3.30009 2.53443 0
M  V30 10338 H 967.357 -4.60957 2.9801 0
M  V30 10339 H 967.618 -4.23013 1.28499 0
M  V30 10340 N 966.677 -1.24326 -0.968545 0
M  V30 10341 C 967.625 -1.03256 -2.08425 0
M  V30 10342 C 968.619 0.0322356 -1.69369 0
M  V30 10343 O 969.825 -0.122251 -1.79584 0
M  V30 10344 H 966.2 -0.31688 -0.681976 0
M  V30 10345 H 968.171 -1.97873 -2.23358 0
M  V30 10346 C 966.92 -0.653144 -3.4151 0
M  V30 10347 H 966.243 -1.46424 -3.72021 0
M  V30 10348 H 967.683 -0.545316 -4.20479 0
M  V30 10349 C 966.142 0.639674 -3.30771 0
M  V30 10350 O 966.672 1.68563 -3.64622 0
M  V30 10351 N 964.878 0.620074 -2.83907 0
M  V30 10352 H 964.425 -0.231449 -2.56558 0
M  V30 10353 H 964.383 1.48528 -2.77104 0
M  V30 10354 N 968.156 1.1691 -1.05688 0
M  V30 10355 C 969.404 1.86922 -0.768409 0
M  V30 10356 C 969.725 1.81735 0.706921 0
M  V30 10357 O 968.995 1.24671 1.51109 0
M  V30 10358 H 967.575 0.69203 -0.281253 0
M  V30 10359 H 970.237 1.41803 -1.33708 0
M  V30 10360 H 969.333 2.92528 -1.08783 0
M  V30 10361 N 969.634 0.838594 1.33437 0
M  V30 10362 C 970.544 0.274048 2.32994 0
M  V30 10363 C 971.56 -0.599776 1.63336 0
M  V30 10364 O 972.736 -0.503963 1.94993 0
M  V30 10365 C 969.801 -0.541804 3.4244 0
M  V30 10366 C 968.862 0.356262 4.27819 0
M  V30 10367 C 968.095 -0.420747 5.32039 0
M  V30 10368 O 968.318 -1.65247 5.45939 0
M  V30 10369 O 967.252 0.205101 6.0155 0
M  V30 10370 H 971.078 1.09846 2.83139 0
M  V30 10371 H 968.663 0.601111 1.36774 0
M  V30 10372 H 970.545 -1.00544 4.0923 0
M  V30 10373 H 969.22 -1.34328 2.94513 0
M  V30 10374 H 968.127 0.867726 3.63897 0
M  V30 10375 H 969.46 1.1225 4.79229 0
M  V30 10376 N 971.112 -1.45937 0.595003 0
M  V30 10377 C 972.523 -1.85908 0.171779 0
M  V30 10378 C 972.874 -1.497 -1.26824 0
M  V30 10379 O 971.999 -0.917688 -1.95978 0
M  V30 10380 C 972.594 -3.37425 0.304976 0
M  V30 10381 C 971.153 -3.76346 -0.0634635 0
M  V30 10382 C 970.3 -2.69926 0.635255 0
M  V30 10383 H 973.251 -1.36916 0.802471 0
M  V30 10384 H 973.272 -3.77632 -0.466313 0
M  V30 10385 H 972.784 -3.63747 1.35314 0
M  V30 10386 H 970.885 -3.55642 -1.11129 0
M  V30 10387 H 970.998 -4.78021 0.321419 0
M  V30 10388 H 969.362 -2.54592 0.0742054 0
M  V30 10389 H 970.145 -2.99086 1.68531 0
M  V30 10390 N 972.59 -0.333456 -1.54032 0
M  V30 10391 C 973.836 0.266527 -2.01041 0
M  V30 10392 C 974.169 1.51006 -1.2211 0
M  V30 10393 O 973.444 1.92078 -0.306016 0
M  V30 10394 C 973.727 0.59078 -3.55221 0
M  V30 10395 C 973.58 -0.664143 -4.4487 0
M  V30 10396 C 974.899 1.40447 -4.17088 0
M  V30 10397 H 972.018 0.0953979 -0.7308 0
M  V30 10398 H 974.66 -0.451995 -1.84545 0
M  V30 10399 H 972.81 1.20292 -3.69408 0
M  V30 10400 H 974.482 -1.30227 -4.42537 0
M  V30 10401 H 972.725 -1.29106 -4.14143 0
M  V30 10402 H 973.396 -0.392664 -5.50602 0
M  V30 10403 H 975.872 0.886946 -4.06537 0
M  V30 10404 H 974.748 1.6001 -5.2506 0
M  V30 10405 H 975.009 2.40357 -3.71054 0
M  V30 10406 N 974.068 1.57479 -0.061844 0
M  V30 10407 C 975.016 2.13346 0.926629 0
M  V30 10408 C 976.01 1.06787 1.31502 0
M  V30 10409 O 977.216 1.25181 1.29343 0
M  V30 10410 H 973.591 0.682046 0.316729 0
M  V30 10411 H 975.562 2.95279 0.430424 0
M  V30 10412 C 974.311 2.70198 2.18834 0
M  V30 10413 H 973.634 3.51859 1.89829 0
M  V30 10414 H 975.074 3.12897 2.86132 0
M  V30 10415 C 973.533 1.64481 2.9402 0
M  V30 10416 O 974.063 1.0639 3.87355 0
M  V30 10417 N 972.269 1.35749 2.56944 0
M  V30 10418 H 971.816 1.83177 1.81119 0
M  V30 10419 H 971.774 0.652469 3.07555 0
M  V30 10420 N 975.546 -0.211634 1.56173 0
M  V30 10421 C 976.794 -0.932704 1.7929 0
M  V30 10422 C 977.115 -1.84472 0.632076 0
M  V30 10423 O 976.385 -1.92739 -0.350519 0
M  V30 10424 H 974.965 -0.347393 0.661307 0
M  V30 10425 H 977.627 -0.22111 1.93642 0
M  V30 10426 H 976.723 -1.53365 2.71819 0
M  V30 10427 N 977.024 -1.50153 -0.478725 0
M  V30 10428 C 978.44 -1.3741 -0.811833 0
M  V30 10429 C 978.64 -0.424303 -1.96982 0
M  V30 10430 O 977.696 0.13588 -2.52134 0
M  V30 10431 C 979.009 -2.78616 -1.13108 0
M  V30 10432 C 980.557 -2.87477 -1.23798 0
M  V30 10433 C 981.032 -4.295 -1.5904 0
M  V30 10434 N 982.523 -4.32415 -1.66047 0
M  V30 10435 C 983.258 -5.39295 -1.94805 0
M  V30 10436 N 982.754 -6.56392 -2.21635 0
M  V30 10437 N 984.547 -5.26731 -1.96243 0
M  V30 10438 H 976.698 -2.10486 0.284531 0
M  V30 10439 H 978.961 -0.945786 0.0647585 0
M  V30 10440 H 978.667 -3.49921 -0.35334 0
M  V30 10441 H 978.541 -3.15382 -2.06915 0
M  V30 10442 H 980.928 -2.16396 -2.00641 0
M  V30 10443 H 981.009 -2.54264 -0.279888 0
M  V30 10444 H 980.653 -5.01115 -0.827404 0
M  V30 10445 H 980.583 -4.60194 -2.55987 0
M  V30 10446 H 983.074 -3.47975 -1.47383 0
M  V30 10447 H 983.387 -7.33658 -2.4283 0
M  V30 10448 H 981.732 -6.59579 -2.19043 0
M  V30 10449 H 984.923 -4.34249 -1.74773 0
M  V30 10450 H 985.096 -6.10115 -2.1832 0
M  V30 10451 N 978.502 0.731368 -1.39602 0
M  V30 10452 C 979.452 1.83662 -1.35101 0
M  V30 10453 C 980.436 1.5923 -0.231241 0
M  V30 10454 O 981.628 1.70671 -0.469072 0
M  V30 10455 C 978.757 3.21629 -1.20041 0
M  V30 10456 C 977.843 3.51878 -2.36733 0
M  V30 10457 N 978.234 3.53041 -3.6221 0
M  V30 10458 C 976.532 3.82259 -2.2977 0
M  V30 10459 C 977.233 3.81188 -4.39398 0
M  V30 10460 N 976.209 3.99145 -3.69031 0
M  V30 10461 H 980.011 1.82871 -2.30077 0
M  V30 10462 H 977.525 0.929777 -1.3315 0
M  V30 10463 H 979.522 4.00754 -1.14899 0
M  V30 10464 H 978.182 3.23656 -0.260184 0
M  V30 10465 H 979.193 3.34266 -3.95584 0
M  V30 10466 H 975.87 3.9187 -1.44029 0
M  V30 10467 H 977.26 3.88525 -5.48177 0
M  V30 10468 N 979.98 1.24838 0.961938 0
M  V30 10469 C 981.208 1.11871 1.74047 0
M  V30 10470 C 981.623 -0.328209 1.85925 0
M  V30 10471 O 980.98 -1.22616 1.35173 0
M  V30 10472 C 981.031 1.75931 3.15801 0
M  V30 10473 O 980.752 3.14967 3.04512 0
M  V30 10474 C 982.253 1.68649 4.09966 0
M  V30 10475 H 979.473 0.390569 0.545616 0
M  V30 10476 H 982.017 1.65058 1.20732 0
M  V30 10477 H 980.172 1.26733 3.66084 0
M  V30 10478 H 980.586 3.46349 3.93882 0
M  V30 10479 H 982.06 2.18144 5.07067 0
M  V30 10480 H 982.537 0.648831 4.34381 0
M  V30 10481 H 983.143 2.17301 3.65596 0
M  V30 10482 N 981.458 -1.16348 1.06306 0
M  V30 10483 C 982.388 -2.2291 0.695234 0
M  V30 10484 C 983.369 -1.67208 -0.312343 0
M  V30 10485 O 984.554 -1.93293 -0.187442 0
M  V30 10486 C 981.684 -3.47205 0.0810149 0
M  V30 10487 C 980.638 -4.15801 1.01458 0
M  V30 10488 C 979.964 -5.3405 0.263656 0
M  V30 10489 C 981.264 -4.66766 2.34365 0
M  V30 10490 H 982.958 -2.53934 1.58613 0
M  V30 10491 H 980.504 -1.22056 0.76409 0
M  V30 10492 H 982.457 -4.2098 -0.18818 0
M  V30 10493 H 981.181 -3.15482 -0.844897 0
M  V30 10494 H 979.84 -3.43954 1.26852 0
M  V30 10495 H 979.488 -4.9858 -0.665378 0
M  V30 10496 H 979.188 -5.80885 0.88582 0
M  V30 10497 H 980.712 -6.106 0.00200994 0
M  V30 10498 H 982.126 -5.3212 2.13356 0
M  V30 10499 H 980.523 -5.24223 2.9208 0
M  V30 10500 H 981.593 -3.82969 2.97426 0
M  V30 10501 N 982.937 -0.845659 -1.3299 0
M  V30 10502 C 984.185 -0.443774 -1.97168 0
M  V30 10503 C 984.506 1.00192 -1.67292 0
M  V30 10504 O 983.776 1.69891 -0.975397 0
M  V30 10505 H 982.356 -0.161111 -0.729419 0
M  V30 10506 H 985.018 -1.08011 -1.62233 0
M  V30 10507 H 984.114 -0.581414 -3.06637 0
M  V30 10508 N 984.415 1.45619 -0.602734 0
M  V30 10509 C 985.325 2.34288 0.120902 0
M  V30 10510 C 986.341 1.50952 0.865414 0
M  V30 10511 O 987.517 1.83768 0.824094 0
M  V30 10512 C 984.582 3.28489 1.10888 0
M  V30 10513 C 983.643 4.2773 0.366853 0
M  V30 10514 C 982.876 5.17429 1.30776 0
M  V30 10515 O 983.099 5.10459 2.54535 0
M  V30 10516 O 982.033 5.96459 0.807464 0
M  V30 10517 H 985.859 2.97559 -0.60765 0
M  V30 10518 H 983.444 1.44922 -0.363019 0
M  V30 10519 H 985.326 3.86549 1.67803 0
M  V30 10520 H 984.001 2.67789 1.81854 0
M  V30 10521 H 982.908 3.73299 -0.244643 0
M  V30 10522 H 984.241 4.91271 -0.302226 0
M  V30 10523 N 985.893 0.34162 1.53853 0
M  V30 10524 C 986.841 -0.531412 2.26448 0
M  V30 10525 C 987.835 -1.10357 1.28521 0
M  V30 10526 O 989.041 -1.04953 1.46236 0
M  V30 10527 H 985.416 -0.190054 0.727588 0
M  V30 10528 H 987.387 0.102922 2.98222 0
M  V30 10529 C 986.136 -1.67154 3.04885 0
M  V30 10530 H 985.459 -1.24055 3.80066 0
M  V30 10531 H 986.899 -2.25762 3.58898 0
M  V30 10532 C 985.358 -2.59984 2.14266 0
M  V30 10533 O 985.888 -3.62181 1.73746 0
M  V30 10534 N 984.094 -2.28625 1.79385 0
M  V30 10535 H 983.641 -1.45559 2.12533 0
M  V30 10536 H 983.599 -2.90995 1.19035 0
M  V30 10537 N 987.371 -1.57444 0.0701946 0
M  V30 10538 C 988.62 -1.92605 -0.598849 0
M  V30 10539 C 988.933 -0.952058 -1.70866 0
M  V30 10540 O 990.139 -1.19643 -2.43716 0
M  V30 10541 C 988.595 -3.42142 -1.11655 0
M  V30 10542 C 988.203 -4.47984 -0.0378355 0
M  V30 10543 C 989.947 -3.86307 -1.75975 0
M  V30 10544 C 987.854 -5.88652 -0.569495 0
M  V30 10545 H 986.784 -0.718873 -0.22746 0
M  V30 10546 H 989.435 -1.82948 0.14217 0
M  V30 10547 H 987.817 -3.46866 -1.91049 0
M  V30 10548 H 988.991 -4.54874 0.736661 0
M  V30 10549 H 987.306 -4.13277 0.50904 0
M  V30 10550 H 989.903 -4.88784 -2.16782 0
M  V30 10551 H 990.246 -3.23587 -2.61911 0
M  V30 10552 H 990.779 -3.84179 -1.03206 0
M  V30 10553 H 987.518 -6.55013 0.252662 0
M  V30 10554 H 987.038 -5.85285 -1.31155 0
M  V30 10555 H 988.717 -6.38482 -1.04641 0
M  V30 10556 N 988.849 0.203349 -1.56283 0
M  V30 10557 C 989.812 1.23566 -1.93039 0
M  V30 10558 C 990.812 1.38869 -0.810687 0
M  V30 10559 O 992.002 1.36822 -1.07821 0
M  V30 10560 C 989.134 2.60645 -2.1972 0
M  V30 10561 H 990.327 0.921692 -2.85385 0
M  V30 10562 H 987.88 0.44453 -1.49845 0
M  V30 10563 H 988.615 2.9711 -1.29985 0
M  V30 10564 H 988.4 2.50911 -3.01307 0
M  V30 10565 H 989.89 3.35103 -2.4919 0
M  V30 10566 N 990.327 1.50405 0.470755 0
M  V30 10567 C 991.604 1.51929 1.23195 0
M  V30 10568 C 991.984 0.264159 2.09441 0
M  V30 10569 O 991.332 -0.752395 2.15757 0
M  V30 10570 C 991.542 2.81521 2.06269 0
M  V30 10571 C 992.89 3.32195 2.64446 0
M  V30 10572 O 993.914 2.82845 2.16511 0
M  V30 10573 O 992.773 4.18221 3.51786 0
M  V30 10574 H 989.867 0.609411 0.559059 0
M  V30 10575 H 992.413 1.62695 0.482549 0
M  V30 10576 H 991.185 3.64346 1.42715 0
M  V30 10577 H 990.808 2.7376 2.88342 0
M  V30 10578 N 991.805 -0.723954 1.39988 0
M  V30 10579 C 992.753 -1.85938 1.39749 0
M  V30 10580 C 993.747 -1.67085 0.279112 0
M  V30 10581 O 994.953 -1.74291 0.44972 0
M  V30 10582 H 991.328 -0.612246 0.436644 0
M  V30 10583 H 993.299 -1.83255 2.355 0
M  V30 10584 C 992.048 -3.23726 1.26874 0
M  V30 10585 H 991.371 -3.38835 2.12206 0
M  V30 10586 H 992.811 -4.03332 1.30765 0
M  V30 10587 C 991.27 -3.36893 -0.0218317 0
M  V30 10588 O 991.8 -3.89363 -0.987905 0
M  V30 10589 N 990.006 -2.90465 -0.0885618 0
M  V30 10590 H 989.553 -2.47954 0.698314 0
M  V30 10591 H 989.511 -2.99654 -0.951557 0
M  V30 10592 N 993.283 -1.25346 -0.955304 0
M  V30 10593 C 994.531 -1.09837 -1.69647 0
M  V30 10594 C 994.852 0.361425 -1.91621 0
M  V30 10595 O 994.122 1.25666 -1.50283 0
M  V30 10596 H 992.702 -0.403467 -0.628668 0
M  V30 10597 H 995.364 -1.57459 -1.14859 0
M  V30 10598 H 994.46 -1.60616 -2.67598 0
M  V30 10599 N 994.761 1.15782 -1.06922 0
M  V30 10600 C 996.009 1.86097 -0.788192 0
M  V30 10601 C 996.33 1.82475 0.687606 0
M  V30 10602 O 995.6 1.26266 1.49778 0
M  V30 10603 H 994.18 0.689008 -0.288577 0
M  V30 10604 H 996.842 1.40377 -1.35205 0
M  V30 10605 H 995.938 2.91358 -1.1188 0
M  V30 10606 N 996.239 0.8527 1.3254 0
M  V30 10607 C 997.169 0.311234 2.31416 0
M  V30 10608 C 998.15 -0.588557 1.59593 0
M  V30 10609 O 999.335 -0.509211 1.87405 0
M  V30 10610 C 996.465 -0.502892 3.4364 0
M  V30 10611 C 995.419 0.302296 4.26931 0
M  V30 10612 C 994.745 -0.636445 5.30899 0
M  V30 10613 C 996.045 1.52697 4.99481 0
M  V30 10614 H 997.739 1.13742 2.76953 0
M  V30 10615 H 995.285 0.548389 1.33149 0
M  V30 10616 H 997.238 -0.892092 4.11849 0
M  V30 10617 H 995.962 -1.36242 2.96826 0
M  V30 10618 H 994.621 0.673226 3.60365 0
M  V30 10619 H 994.269 -1.49277 4.80339 0
M  V30 10620 H 993.969 -0.101716 5.87512 0
M  V30 10621 H 995.493 -1.02286 6.01972 0
M  V30 10622 H 996.907 1.21017 5.60382 0
M  V30 10623 H 995.304 1.9995 5.65809 0
M  V30 10624 H 996.374 2.28929 4.27457 0
M  V30 10625 N 997.718 -1.45297 0.610449 0
M  V30 10626 C 998.665 -2.30553 -0.106718 0
M  V30 10627 C 999.635 -1.42272 -0.85719 0
M  V30 10628 O 1000.82 -1.71199 -0.842357 0
M  V30 10629 C 997.96 -3.27226 -1.09623 0
M  V30 10630 C 997.073 -4.3061 -0.346329 0
M  V30 10631 C 996.208 -5.14389 -1.32581 0
M  V30 10632 C 995.247 -6.09497 -0.563892 0
M  V30 10633 N 994.384 -6.86047 -1.4928 0
M  V30 10634 H 999.224 -2.91344 0.626296 0
M  V30 10635 H 996.761 -1.43563 0.32065 0
M  V30 10636 H 998.719 -3.81744 -1.68308 0
M  V30 10637 H 997.349 -2.68182 -1.79662 0
M  V30 10638 H 996.401 -3.7873 0.356084 0
M  V30 10639 H 997.713 -4.98183 0.248026 0
M  V30 10640 H 996.867 -5.73321 -1.98464 0
M  V30 10641 H 995.606 -4.4684 -1.9541 0
M  V30 10642 H 994.611 -5.49693 0.108551 0
M  V30 10643 H 995.836 -6.79074 0.0593872 0
M  V30 10644 H 993.782 -6.21185 -2.10868 0
M  V30 10645 H 993.699 -7.49983 -0.951953 0
M  V30 10646 H 994.967 -7.49518 -2.14112 0
M  V30 10647 N 999.196 -0.349774 -1.5367 0
M  V30 10648 C 1000.16 0.491676 -2.23864 0
M  V30 10649 C 1001.16 1.02256 -1.24098 0
M  V30 10650 O 1002.35 0.910816 -1.48492 0
M  V30 10651 C 999.481 1.68557 -2.96313 0
M  V30 10652 H 1000.67 -0.12233 -2.9965 0
M  V30 10653 H 998.227 -0.101214 -1.55972 0
M  V30 10654 H 998.962 2.3381 -2.2473 0
M  V30 10655 H 998.747 1.31203 -3.69497 0
M  V30 10656 H 1000.24 2.28225 -3.49718 0
M  V30 10657 N 1000.67 1.57404 -0.0785433 0
M  V30 10658 C 1001.64 2.11977 0.871693 0
M  V30 10659 C 1002.64 1.04529 1.2219 0
M  V30 10660 O 1003.83 1.30488 1.15406 0
M  V30 10661 C 1000.96 2.6267 2.17296 0
M  V30 10662 H 1002.15 2.97246 0.398115 0
M  V30 10663 H 999.705 1.5537 0.170251 0
M  V30 10664 H 1000.44 1.80873 2.69175 0
M  V30 10665 H 1000.22 3.41214 1.93171 0
M  V30 10666 H 1001.71 3.04943 2.85306 0
M  V30 10667 N 1002.15 -0.195058 1.56388 0
M  V30 10668 C 1003.38 -0.930291 1.8447 0
M  V30 10669 C 1003.79 -1.77356 0.658901 0
M  V30 10670 O 1003.13 -1.79691 -0.381664 0
M  V30 10671 C 1003.19 -1.87626 3.06654 0
M  V30 10672 C 1002.86 -1.21494 4.40555 0
M  V30 10673 C 1003.86 -0.591847 5.1652 0
M  V30 10674 C 1001.54 -1.21878 4.8729 0
M  V30 10675 C 1003.53 0.0185743 6.37397 0
M  V30 10676 C 1001.22 -0.604524 6.08103 0
M  V30 10677 C 1002.22 0.0130731 6.82999 0
M  V30 10678 O 1001.91 0.617703 8.01523 0
M  V30 10679 H 1001.64 -0.276933 0.616672 0
M  V30 10680 H 1004.19 -0.207277 2.04351 0
M  V30 10681 H 1002.42 -2.63897 2.82658 0
M  V30 10682 H 1004.11 -2.47929 3.21382 0
M  V30 10683 H 1004.88 -0.581018 4.81507 0
M  V30 10684 H 1000.76 -1.68888 4.2895 0
M  V30 10685 H 1004.3 0.50124 6.95797 0
M  V30 10686 H 1000.2 -0.612855 6.42584 0
M  V30 10687 H 1000.97 0.514612 8.16881 0
M  V30 10688 N 1003.63 -1.50653 -0.462772 0
M  V30 10689 C 1005.05 -1.38263 -0.797213 0
M  V30 10690 C 1005.25 -0.445172 -1.96521 0
M  V30 10691 O 1004.3 0.10913 -2.52264 0
M  V30 10692 C 1005.61 -2.798 -1.10146 0
M  V30 10693 C 1007.16 -2.88774 -1.20742 0
M  V30 10694 C 1007.64 -4.31163 -1.54476 0
M  V30 10695 N 1009.13 -4.34152 -1.61451 0
M  V30 10696 C 1009.86 -5.4133 -1.89074 0
M  V30 10697 N 1009.36 -6.58705 -2.1466 0
M  V30 10698 N 1011.15 -5.28783 -1.90645 0
M  V30 10699 H 1003.3 -2.10172 0.30684 0
M  V30 10700 H 1005.57 -0.945046 0.0747862 0
M  V30 10701 H 1005.27 -3.50276 -0.316207 0
M  V30 10702 H 1005.15 -3.17559 -2.03559 0
M  V30 10703 H 1007.53 -2.18512 -1.98334 0
M  V30 10704 H 1007.61 -2.54547 -0.252904 0
M  V30 10705 H 1007.26 -5.01965 -0.774207 0
M  V30 10706 H 1007.19 -4.62883 -2.51092 0
M  V30 10707 H 1009.68 -3.49519 -1.43684 0
M  V30 10708 H 1009.99 -7.36192 -2.35035 0
M  V30 10709 H 1008.34 -6.61866 -2.12035 0
M  V30 10710 H 1011.53 -4.36078 -1.70158 0
M  V30 10711 H 1011.7 -6.12396 -2.11836 0
M  V30 10712 N 1005.11 0.71652 -1.4037 0
M  V30 10713 C 1006.07 1.81231 -1.40313 0
M  V30 10714 C 1007.07 1.58032 -0.297087 0
M  V30 10715 O 1008.26 1.65091 -0.555944 0
M  V30 10716 C 1005.39 3.19308 -1.19395 0
M  V30 10717 H 1006.59 1.8268 -2.3784 0
M  V30 10718 H 1004.14 0.922062 -1.26205 0
M  V30 10719 H 1004.87 3.2351 -0.226252 0
M  V30 10720 H 1004.66 3.37546 -1.99512 0
M  V30 10721 H 1006.15 3.99339 -1.22141 0
M  V30 10722 N 1006.59 1.25851 0.948643 0
M  V30 10723 C 1007.82 1.13546 1.726 0
M  V30 10724 C 1008.22 -0.312857 1.86595 0
M  V30 10725 O 1007.57 -1.22657 1.36751 0
M  V30 10726 C 1007.63 1.72315 3.15512 0
M  V30 10727 C 1007.29 3.2136 3.24926 0
M  V30 10728 C 1008.29 4.18274 3.08777 0
M  V30 10729 C 1005.98 3.61683 3.48555 0
M  V30 10730 C 1007.97 5.53491 3.16112 0
M  V30 10731 C 1005.66 4.97035 3.55526 0
M  V30 10732 C 1006.65 5.92749 3.3932 0
M  V30 10733 O 1006.34 7.25637 3.45985 0
M  V30 10734 H 1006.07 0.396555 0.547467 0
M  V30 10735 H 1008.63 1.66822 1.19832 0
M  V30 10736 H 1006.86 1.13494 3.6967 0
M  V30 10737 H 1008.55 1.55024 3.7513 0
M  V30 10738 H 1009.31 3.88461 2.90385 0
M  V30 10739 H 1005.19 2.87674 3.60229 0
M  V30 10740 H 1008.74 6.28177 3.0338 0
M  V30 10741 H 1004.63 5.26512 3.73437 0
M  V30 10742 H 1005.4 7.33812 3.62577 0
M  V30 10743 N 1008.06 -1.15214 1.07534 0
M  V30 10744 C 1009 -2.19634 0.655261 0
M  V30 10745 C 1010.01 -1.60139 -0.293165 0
M  V30 10746 O 1011.2 -1.78311 -0.0821957 0
M  V30 10747 C 1008.3 -3.38851 -0.0578281 0
M  V30 10748 C 1007.47 -4.27888 0.90725 0
M  V30 10749 C 1006.53 -5.25692 0.231115 0
M  V30 10750 O 1005.56 -5.62469 0.872746 0
M  V30 10751 N 1006.76 -5.71424 -1.0225 0
M  V30 10752 H 1009.52 -2.56292 1.55353 0
M  V30 10753 H 1007.08 -1.30347 0.960271 0
M  V30 10754 H 1009.08 -4.01334 -0.520874 0
M  V30 10755 H 1007.65 -3.00593 -0.858071 0
M  V30 10756 H 1006.87 -3.62475 1.54937 0
M  V30 10757 H 1008.15 -4.84246 1.56151 0
M  V30 10758 H 1007.55 -5.43659 -1.56369 0
M  V30 10759 H 1006.11 -6.35938 -1.42919 0
M  V30 10760 N 1009.54 -0.859717 -1.32086 0
M  V30 10761 C 1010.49 -0.296897 -2.30697 0
M  V30 10762 C 1011.48 0.582473 -1.59071 0
M  V30 10763 O 1012.69 0.469713 -1.73763 0
M  V30 10764 H 1009.07 -0.0773132 -0.748015 0
M  V30 10765 H 1011.04 -1.14273 -2.75652 0
M  V30 10766 C 1009.79 0.495546 -3.44151 0
M  V30 10767 H 1009.11 -0.171829 -3.99431 0
M  V30 10768 H 1010.55 0.854854 -4.15293 0
M  V30 10769 C 1009.01 1.68278 -2.91863 0
M  V30 10770 O 1009.54 2.78194 -2.89777 0
M  V30 10771 N 1007.74 1.51151 -2.48197 0
M  V30 10772 H 1007.29 0.617345 -2.50093 0
M  V30 10773 H 1007.25 2.3073 -2.13567 0
M  V30 10774 N 1011.02 1.44971 -0.618145 0
M  V30 10775 C 1012.27 2.03009 -0.126125 0
M  V30 10776 C 1012.62 1.47656 1.23351 0
M  V30 10777 O 1011.91 0.645901 1.80385 0
M  V30 10778 C 1012.11 3.57378 -0.0394861 0
M  V30 10779 C 1011.94 4.27706 -1.38918 0
M  V30 10780 C 1010.71 4.65206 -1.97261 0
M  V30 10781 C 1012.91 4.58987 -2.32024 0
M  V30 10782 N 1010.89 5.2044 -3.256 0
M  V30 10783 C 1012.26 5.15167 -3.44969 0
M  V30 10784 C 1014.31 4.40932 -2.31265 0
M  V30 10785 C 1013.02 5.55193 -4.57333 0
M  V30 10786 C 1015.04 4.81997 -3.42684 0
M  V30 10787 C 1014.4 5.38279 -4.54352 0
M  V30 10788 H 1010.5 0.77683 -0.0897695 0
M  V30 10789 H 1013.09 1.76646 -0.818805 0
M  V30 10790 H 1011.26 3.8338 0.622441 0
M  V30 10791 H 1012.99 4.02075 0.460165 0
M  V30 10792 H 1009.75 4.49102 -1.50348 0
M  V30 10793 H 1010.17 5.52546 -3.9118 0
M  V30 10794 H 1014.81 3.96723 -1.46187 0
M  V30 10795 H 1012.53 5.98362 -5.43128 0
M  V30 10796 H 1016.12 4.69751 -3.43257 0
M  V30 10797 H 1015 5.6947 -5.39142 0
M  V30 10798 N 1012.5 0.357919 1.53482 0
M  V30 10799 C 1013.74 -0.23451 2.0144 0
M  V30 10800 C 1014.08 -1.49044 1.24497 0
M  V30 10801 O 1013.35 -1.91566 0.336535 0
M  V30 10802 C 1013.64 -0.534193 3.56116 0
M  V30 10803 C 1013.49 0.734834 4.43757 0
M  V30 10804 C 1014.81 -1.33793 4.1927 0
M  V30 10805 H 1011.93 -0.0837595 0.732225 0
M  V30 10806 H 1014.57 0.481297 1.83803 0
M  V30 10807 H 1012.72 -1.144 3.71275 0
M  V30 10808 H 1014.39 1.37251 4.40409 0
M  V30 10809 H 1012.63 1.35678 4.12036 0
M  V30 10810 H 1013.3 0.48021 5.49907 0
M  V30 10811 H 1015.78 -0.822158 4.07897 0
M  V30 10812 H 1014.66 -1.51636 5.27539 0
M  V30 10813 H 1014.92 -2.34423 3.74831 0
M  V30 10814 N 1013.98 -1.5736 0.0868897 0
M  V30 10815 C 1014.92 -2.13571 -0.874996 0
M  V30 10816 C 1015.89 -1.0521 -1.2853 0
M  V30 10817 O 1017.08 -1.32954 -1.3685 0
M  V30 10818 C 1014.22 -2.71386 -2.13175 0
M  V30 10819 C 1013.33 -3.93953 -1.77272 0
M  V30 10820 C 1012.47 -4.3996 -2.97671 0
M  V30 10821 C 1011.51 -5.55137 -2.57856 0
M  V30 10822 N 1010.64 -5.96034 -3.71064 0
M  V30 10823 H 1015.48 -2.95453 -0.388789 0
M  V30 10824 H 1013.02 -1.45992 -0.180242 0
M  V30 10825 H 1014.98 -3.03022 -2.86764 0
M  V30 10826 H 1013.61 -1.92245 -2.5931 0
M  V30 10827 H 1012.66 -3.68683 -0.936845 0
M  V30 10828 H 1013.97 -4.77565 -1.43989 0
M  V30 10829 H 1013.13 -4.73337 -3.79522 0
M  V30 10830 H 1011.86 -3.55232 -3.34158 0
M  V30 10831 H 1010.87 -5.21397 -1.7443 0
M  V30 10832 H 1012.09 -6.41608 -2.22522 0
M  V30 10833 H 1010.04 -5.14253 -4.07284 0
M  V30 10834 H 1009.96 -6.74423 -3.41599 0
M  V30 10835 H 1011.23 -6.34038 -4.53449 0
M  V30 10836 N 1015.45 0.186762 -1.56489 0
M  V30 10837 C 1016.4 1.23141 -1.95205 0
M  V30 10838 C 1017.37 1.44799 -0.81378 0
M  V30 10839 O 1018.56 1.57795 -1.07263 0
M  V30 10840 C 1015.7 2.56926 -2.30397 0
M  V30 10841 C 1014.81 2.42777 -3.57328 0
M  V30 10842 C 1013.94 3.69323 -3.81804 0
M  V30 10843 C 1012.98 3.50041 -5.02133 0
M  V30 10844 N 1012.12 4.68619 -5.2282 0
M  V30 10845 H 1016.96 0.894256 -2.84266 0
M  V30 10846 H 1014.5 0.430187 -1.40669 0
M  V30 10847 H 1016.46 3.3488 -2.4882 0
M  V30 10848 H 1015.09 2.88668 -1.44466 0
M  V30 10849 H 1014.14 1.56078 -3.46906 0
M  V30 10850 H 1015.45 2.24468 -4.45439 0
M  V30 10851 H 1014.6 4.55715 -4.00511 0
M  V30 10852 H 1013.34 3.90595 -2.92039 0
M  V30 10853 H 1012.35 2.62034 -4.8334 0
M  V30 10854 H 1013.57 3.30206 -5.93414 0
M  V30 10855 H 1011.52 4.90139 -4.36005 0
M  V30 10856 H 1011.44 4.53165 -6.05126 0
M  V30 10857 H 1012.7 5.56338 -5.45993 0
M  V30 10858 N 1016.93 1.50896 0.454776 0
M  V30 10859 C 1017.88 1.71497 1.57136 0
M  V30 10860 C 1018.87 0.58098 1.59126 0
M  V30 10861 O 1020.08 0.761916 1.63079 0
M  V30 10862 H 1016.46 0.54158 0.521724 0
M  V30 10863 H 1018.43 2.65129 1.36928 0
M  V30 10864 C 1017.18 1.84125 2.94947 0
M  V30 10865 H 1016.5 2.7078 2.9414 0
M  V30 10866 H 1017.94 2.02558 3.72487 0
M  V30 10867 C 1016.4 0.596752 3.31573 0
M  V30 10868 O 1016.93 -0.256632 4.00879 0
M  V30 10869 N 1015.13 0.445958 2.87158 0
M  V30 10870 H 1014.68 1.14146 2.30929 0
M  V30 10871 H 1014.64 -0.385519 3.12027 0
M  V30 10872 N 1018.41 -0.709066 1.40748 0
M  V30 10873 C 1019.66 -1.46611 1.39103 0
M  V30 10874 C 1019.98 -1.95 -0.00365366 0
M  V30 10875 O 1019.25 -1.70791 -0.959541 0
M  V30 10876 H 1017.83 -0.543954 0.511979 0
M  V30 10877 H 1020.49 -0.840141 1.75863 0
M  V30 10878 H 1019.59 -2.33581 2.06994 0
M  V30 10879 N 1019.89 -1.26353 -0.941956 0
M  V30 10880 C 1020.85 -1.07904 -2.02211 0
M  V30 10881 C 1021.85 -0.0276283 -1.60776 0
M  V30 10882 O 1023.04 -0.270965 -1.7208 0
M  V30 10883 C 1020.17 -0.641084 -3.34818 0
M  V30 10884 H 1021.37 -2.03804 -2.20009 0
M  V30 10885 H 1018.92 -1.08939 -1.12081 0
M  V30 10886 H 1019.66 0.319943 -3.22718 0
M  V30 10887 H 1019.44 -1.40027 -3.66244 0
M  V30 10888 H 1020.93 -0.533826 -4.14174 0
M  V30 10889 N 1021.37 1.14642 -1.08144 0
M  V30 10890 C 1022.28 2.23257 -0.720668 0
M  V30 10891 C 1023.29 1.71866 0.271648 0
M  V30 10892 O 1024.47 2.01064 0.116266 0
M  V30 10893 C 1021.53 3.46447 -0.132542 0
M  V30 10894 C 1020.6 4.12789 -1.17913 0
M  V30 10895 C 1019.83 5.30099 -0.618971 0
M  V30 10896 O 1020.05 5.6762 0.562418 0
M  V30 10897 O 1018.99 5.86154 -1.36774 0
M  V30 10898 H 1022.81 2.56463 -1.62667 0
M  V30 10899 H 1020.4 1.22521 -0.854932 0
M  V30 10900 H 1022.28 4.20959 0.19277 0
M  V30 10901 H 1020.95 3.14971 0.746662 0
M  V30 10902 H 1019.86 3.40163 -1.55693 0
M  V30 10903 H 1021.19 4.48365 -2.03051 0
M  V30 10904 N 1022.85 0.866709 1.31628 0
M  V30 10905 C 1023.8 0.291712 2.26126 0
M  V30 10906 C 1024.78 -0.569375 1.50489 0
M  V30 10907 O 1025.97 -0.416786 1.72023 0
M  V30 10908 C 1023.1 -0.508624 3.39511 0
M  V30 10909 C 1022.19 0.365524 4.22522 0
M  V30 10910 N 1022.58 1.45747 4.84346 0
M  V30 10911 C 1020.88 0.157384 4.45722 0
M  V30 10912 C 1021.58 1.99625 5.46374 0
M  V30 10913 N 1020.55 1.29371 5.27981 0
M  V30 10914 H 1024.35 1.12633 2.71461 0
M  V30 10915 H 1021.87 0.714118 1.45857 0
M  V30 10916 H 1023.87 -0.937057 4.06233 0
M  V30 10917 H 1022.53 -1.34089 2.9572 0
M  V30 10918 H 1023.54 1.84039 4.84097 0
M  V30 10919 H 1020.21 -0.639193 4.12578 0
M  V30 10920 H 1021.6 2.91222 6.05508 0
M  V30 10921 N 1024.32 -1.44642 0.625825 0
M  V30 10922 C 1025.55 -2.06971 0.133373 0
M  V30 10923 C 1025.97 -1.46421 -1.18078 0
M  V30 10924 O 1025.33 -0.563676 -1.72315 0
M  V30 10925 C 1025.38 -3.6059 0.0265097 0
M  V30 10926 O 1024.48 -3.99615 -1.01889 0
M  V30 10927 H 1023.82 -0.658873 0.0823568 0
M  V30 10928 H 1026.35 -1.85601 0.861002 0
M  V30 10929 H 1026.36 -4.07663 -0.1658 0
M  V30 10930 H 1025.04 -4.04043 0.985986 0
M  V30 10931 H 1023.62 -3.64183 -0.801577 0
M  V30 10932 N 1025.8 -0.366053 -1.5329 0
M  V30 10933 C 1026.73 0.47211 -2.28677 0
M  V30 10934 C 1027.71 1.08353 -1.31125 0
M  V30 10935 O 1028.9 1.10069 -1.59995 0
M  V30 10936 C 1026.03 1.61174 -3.07637 0
M  V30 10937 C 1024.98 1.12755 -4.12881 0
M  V30 10938 C 1024.31 2.35745 -4.79925 0
M  V30 10939 C 1025.61 0.211954 -5.2187 0
M  V30 10940 H 1027.3 -0.156838 -2.98989 0
M  V30 10941 H 1024.85 -0.0768709 -1.43795 0
M  V30 10942 H 1026.8 2.20473 -3.59123 0
M  V30 10943 H 1025.52 2.26793 -2.35016 0
M  V30 10944 H 1024.18 0.557234 -3.6234 0
M  V30 10945 H 1023.83 2.99821 -4.03877 0
M  V30 10946 H 1023.53 2.04019 -5.51044 0
M  V30 10947 H 1025.06 2.95729 -5.34207 0
M  V30 10948 H 1026.47 0.71244 -5.68856 0
M  V30 10949 H 1024.87 -0.0144501 -6.00098 0
M  V30 10950 H 1025.94 -0.745753 -4.79131 0
M  V30 10951 N 1027.28 1.57312 -0.0952337 0
M  V30 10952 C 1028.69 1.81589 0.433875 0
M  V30 10953 C 1029.04 1.01086 1.68155 0
M  V30 10954 O 1028.17 0.240272 2.15062 0
M  V30 10955 C 1028.76 3.29366 0.793931 0
M  V30 10956 C 1027.32 3.54407 1.26778 0
M  V30 10957 C 1026.47 2.76035 0.264518 0
M  V30 10958 H 1029.42 1.55426 -0.320675 0
M  V30 10959 H 1029.44 3.42697 1.65345 0
M  V30 10960 H 1028.95 3.87932 -0.114334 0
M  V30 10961 H 1027.05 3.01173 2.19376 0
M  V30 10962 H 1027.17 4.63055 1.22952 0
M  V30 10963 H 1025.53 2.43509 0.746691 0
M  V30 10964 H 1026.31 3.37349 -0.636429 0
M  V30 10965 N 1028.76 -0.17846 1.56586 0
M  V30 10966 C 1029.99 -0.911996 1.85715 0
M  V30 10967 C 1030.4 -1.76138 0.679766 0
M  V30 10968 O 1029.76 -1.79088 -0.351266 0
M  V30 10969 C 1029.81 -1.79459 3.1381 0
M  V30 10970 O 1029.53 -0.979476 4.2701 0
M  V30 10971 C 1031.03 -2.6384 3.56235 0
M  V30 10972 H 1028.25 -0.265299 0.616326 0
M  V30 10973 H 1030.79 -0.180704 2.037 0
M  V30 10974 H 1028.95 -2.4793 2.97673 0
M  V30 10975 H 1029.36 -1.58244 5.00059 0
M  V30 10976 H 1030.84 -3.21396 4.48786 0
M  V30 10977 H 1031.31 -3.38363 2.80013 0
M  V30 10978 H 1031.92 -2.00712 3.7496 0
M  V30 10979 N 1030.24 -1.51135 -0.446768 0
M  V30 10980 C 1031.17 -1.74709 -1.54916 0
M  V30 10981 C 1032.15 -0.596628 -1.59293 0
M  V30 10982 O 1033.33 -0.838356 -1.75172 0
M  V30 10983 C 1030.46 -1.86353 -2.9307 0
M  V30 10984 C 1029.42 -3.01725 -3.03556 0
M  V30 10985 C 1028.74 -2.9854 -4.43597 0
M  V30 10986 C 1030.04 -4.41848 -2.7851 0
M  V30 10987 H 1031.74 -2.67014 -1.3544 0
M  V30 10988 H 1029.28 -1.28489 -0.650131 0
M  V30 10989 H 1031.23 -2.01428 -3.70141 0
M  V30 10990 H 1029.96 -0.906887 -3.13756 0
M  V30 10991 H 1028.62 -2.86339 -2.28922 0
M  V30 10992 H 1028.27 -2.00673 -4.61237 0
M  V30 10993 H 1027.97 -3.76008 -4.51544 0
M  V30 10994 H 1029.49 -3.15696 -5.22655 0
M  V30 10995 H 1030.9 -4.57633 -3.45319 0
M  V30 10996 H 1029.3 -5.2095 -2.97877 0
M  V30 10997 H 1030.37 -4.52536 -1.74182 0
M  V30 10998 N 1031.71 0.701592 -1.41122 0
M  V30 10999 C 1032.96 1.45871 -1.39879 0
M  V30 11000 C 1033.28 1.94999 -0.00668769 0
M  V30 11001 O 1032.55 1.71298 0.95047 0
M  V30 11002 H 1031.13 0.541231 -0.514857 0
M  V30 11003 H 1033.79 0.830803 -1.76306 0
M  V30 11004 H 1032.89 2.32479 -2.0823 0
M  V30 11005 N 1033.19 1.2685 0.935242 0
M  V30 11006 C 1034.12 1.1143 2.05196 0
M  V30 11007 C 1035.1 0.0178362 1.70091 0
M  V30 11008 O 1036.29 0.190951 1.93259 0
M  V30 11009 C 1033.42 0.752779 3.39044 0
M  V30 11010 C 1032.37 1.80164 3.88233 0
M  V30 11011 C 1031.7 1.29428 5.18799 0
M  V30 11012 C 1033 3.20431 4.12457 0
M  V30 11013 H 1034.69 2.04845 2.18355 0
M  V30 11014 H 1032.24 0.986276 1.04922 0
M  V30 11015 H 1034.19 0.631757 4.16637 0
M  V30 11016 H 1032.91 -0.217075 3.25878 0
M  V30 11017 H 1031.57 1.91144 3.12825 0
M  V30 11018 H 1031.22 0.3141 5.02018 0
M  V30 11019 H 1030.92 1.99546 5.5268 0
M  V30 11020 H 1032.45 1.18605 5.9897 0
M  V30 11021 H 1033.86 3.12495 4.80645 0
M  V30 11022 H 1032.26 3.88193 4.57631 0
M  V30 11023 H 1033.33 3.66046 3.18023 0
M  V30 11024 N 1034.67 -1.14067 1.0875 0
M  V30 11025 C 1035.9 -1.89041 0.840902 0
M  V30 11026 C 1036.31 -1.78768 -0.60725 0
M  V30 11027 O 1035.67 -1.14945 -1.41753 0
M  V30 11028 C 1035.72 -3.38891 1.25838 0
M  V30 11029 O 1035.44 -3.48886 2.64972 0
M  V30 11030 C 1036.94 -4.30852 1.04315 0
M  V30 11031 H 1034.16 -0.598685 0.303014 0
M  V30 11032 H 1036.71 -1.44438 1.44769 0
M  V30 11033 H 1034.86 -3.81103 0.695627 0
M  V30 11034 H 1035.28 -4.41989 2.82393 0
M  V30 11035 H 1036.75 -5.34353 1.38461 0
M  V30 11036 H 1037.23 -4.39196 -0.0195784 0
M  V30 11037 H 1037.83 -3.944 1.59151 0
M  V30 11038 N 1036.15 -0.873678 -1.31166 0
M  V30 11039 C 1037.1 -0.321349 -2.3037 0
M  V30 11040 C 1038.09 0.565568 -1.5968 0
M  V30 11041 O 1039.3 0.451257 -1.74252 0
M  V30 11042 H 1035.67 -0.0852425 -0.747153 0
M  V30 11043 H 1037.64 -1.17191 -2.74425 0
M  V30 11044 C 1036.39 0.459016 -3.44657 0
M  V30 11045 H 1035.71 -0.214185 -3.99226 0
M  V30 11046 H 1037.15 0.810758 -4.16176 0
M  V30 11047 C 1035.61 1.65173 -2.93632 0
M  V30 11048 O 1036.14 2.75105 -2.92711 0
M  V30 11049 N 1034.35 1.4851 -2.49786 0
M  V30 11050 H 1033.9 0.590785 -2.50734 0
M  V30 11051 H 1033.85 2.28452 -2.16002 0
M  V30 11052 N 1037.63 1.44308 -0.633487 0
M  V30 11053 C 1038.57 2.32455 0.0821956 0
M  V30 11054 C 1039.57 1.47482 0.833388 0
M  V30 11055 O 1040.77 1.63812 0.746021 0
M  V30 11056 H 1037.15 0.750631 0.045352 0
M  V30 11057 H 1039.12 2.90566 -0.679282 0
M  V30 11058 C 1037.87 3.31512 1.04858 0
M  V30 11059 H 1037.19 3.96908 0.479979 0
M  V30 11060 H 1038.63 3.95865 1.51879 0
M  V30 11061 C 1037.09 2.60615 2.13498 0
M  V30 11062 O 1037.62 2.40682 3.21613 0
M  V30 11063 N 1035.83 2.20315 1.89499 0
M  V30 11064 H 1035.37 2.36726 1.01581 0
M  V30 11065 H 1035.33 1.73205 2.62388 0
M  V30 11066 N 1039.1 0.374177 1.53094 0
M  V30 11067 C 1040.04 -0.503065 2.23611 0
M  V30 11068 C 1041.05 -1.03915 1.25321 0
M  V30 11069 O 1042.24 -0.944064 1.51492 0
M  V30 11070 C 1039.34 -1.70825 2.92698 0
M  V30 11071 C 1038.51 -1.30217 4.17567 0
M  V30 11072 C 1037.57 -2.37036 4.69788 0
M  V30 11073 O 1036.6 -1.99069 5.33254 0
M  V30 11074 N 1037.8 -3.68743 4.4834 0
M  V30 11075 H 1040.56 0.101013 2.9953 0
M  V30 11076 H 1038.12 0.199778 1.60663 0
M  V30 11077 H 1040.12 -2.41779 3.24538 0
M  V30 11078 H 1038.69 -2.219 2.2018 0
M  V30 11079 H 1037.91 -0.422121 3.91933 0
M  V30 11080 H 1039.19 -1.00728 4.9873 0
M  V30 11081 H 1038.59 -4.0236 3.97647 0
M  V30 11082 H 1037.15 -4.35776 4.84709 0
M  V30 11083 N 1040.58 -1.57259 0.103575 0
M  V30 11084 C 1041.51 -2.17509 -0.84923 0
M  V30 11085 C 1042.49 -1.11079 -1.28824 0
M  V30 11086 O 1043.68 -1.39252 -1.35361 0
M  V30 11087 C 1040.81 -2.76221 -2.10522 0
M  V30 11088 C 1039.76 -3.88098 -1.80454 0
M  V30 11089 C 1039.09 -4.33549 -3.12952 0
M  V30 11090 C 1040.39 -5.10909 -1.08486 0
M  V30 11091 H 1042.08 -2.9738 -0.347217 0
M  V30 11092 H 1039.63 -1.43045 -0.165568 0
M  V30 11093 H 1041.58 -3.17024 -2.77621 0
M  V30 11094 H 1040.31 -1.93617 -2.63021 0
M  V30 11095 H 1038.96 -3.47847 -1.15749 0
M  V30 11096 H 1038.61 -3.47825 -3.63355 0
M  V30 11097 H 1038.31 -5.08984 -2.93614 0
M  V30 11098 H 1039.84 -4.76992 -3.81196 0
M  V30 11099 H 1041.25 -5.48828 -1.65711 0
M  V30 11100 H 1039.65 -5.91828 -0.992973 0
M  V30 11101 H 1040.72 -4.84851 -0.0690108 0
M  V30 11102 N 1042.06 0.170153 -1.56679 0
M  V30 11103 C 1043.31 0.886592 -1.8206 0
M  V30 11104 C 1043.64 1.82194 -0.680839 0
M  V30 11105 O 1042.89 1.92866 0.331822 0
M  V30 11106 C 1043.19 1.71402 -3.13618 0
M  V30 11107 C 1042.86 0.927489 -4.41258 0
M  V30 11108 C 1041.52 0.710417 -4.75927 0
M  V30 11109 C 1043.87 0.375855 -5.19843 0
M  V30 11110 C 1041.2 -0.0693691 -5.86659 0
M  V30 11111 C 1043.55 -0.390849 -6.31391 0
M  V30 11112 C 1042.21 -0.61871 -6.64626 0
M  V30 11113 H 1041.48 0.324427 -0.666204 0
M  V30 11114 H 1044.13 0.151464 -1.909 0
M  V30 11115 H 1042.44 2.51858 -3.00125 0
M  V30 11116 H 1044.13 2.27141 -3.30466 0
M  V30 11117 H 1040.72 1.10672 -4.14065 0
M  V30 11118 H 1044.91 0.530897 -4.93452 0
M  V30 11119 H 1040.16 -0.255637 -6.10865 0
M  V30 11120 H 1044.34 -0.825544 -6.9149 0
M  V30 11121 H 1041.96 -1.22482 -7.50268 0
M  V30 11122 N 1043.54 1.5137 0.438746 0
M  V30 11123 C 1044.79 1.63969 1.1883 0
M  V30 11124 C 1045.11 0.355245 1.91228 0
M  V30 11125 O 1044.37 -0.660605 1.84213 0
M  V30 11126 C 1044.67 2.79221 2.23093 0
M  V30 11127 C 1044.33 4.18547 1.67717 0
M  V30 11128 C 1043 4.5645 1.52337 0
M  V30 11129 C 1045.35 5.05494 1.26986 0
M  V30 11130 C 1042.68 5.79007 0.946996 0
M  V30 11131 C 1045.03 6.28628 0.707785 0
M  V30 11132 C 1043.69 6.65305 0.540881 0
M  V30 11133 H 1042.96 0.600003 0.43483 0
M  V30 11134 H 1045.61 1.85398 0.479565 0
M  V30 11135 H 1043.91 2.52008 2.99999 0
M  V30 11136 H 1045.61 2.86168 2.80907 0
M  V30 11137 H 1042.2 3.88663 1.80663 0
M  V30 11138 H 1046.38 4.76818 1.37689 0
M  V30 11139 H 1041.64 6.06072 0.805432 0
M  V30 11140 H 1045.81 6.95342 0.38366 0
M  V30 11141 H 1043.44 7.60144 0.0921324 0
M  V30 11142 N 1045.02 -0.694098 1.41492 0
M  V30 11143 C 1045.95 -1.82042 1.46229 0
M  V30 11144 C 1046.93 -1.67047 0.320803 0
M  V30 11145 O 1048.11 -1.86758 0.53245 0
M  V30 11146 C 1045.24 -3.2019 1.34519 0
M  V30 11147 C 1044.2 -3.49892 2.46495 0
M  V30 11148 C 1043.52 -4.87411 2.1985 0
M  V30 11149 C 1044.82 -3.4872 3.88834 0
M  V30 11150 H 1046.52 -1.78335 2.40493 0
M  V30 11151 H 1044.06 -0.856566 1.15754 0
M  V30 11152 H 1046.02 -3.98699 1.36445 0
M  V30 11153 H 1044.74 -3.24527 0.367406 0
M  V30 11154 H 1043.4 -2.73734 2.43854 0
M  V30 11155 H 1043.05 -4.88375 1.20411 0
M  V30 11156 H 1042.75 -5.08248 2.94885 0
M  V30 11157 H 1044.27 -5.68228 2.23494 0
M  V30 11158 H 1045.68 -4.1723 3.93182 0
M  V30 11159 H 1044.08 -3.81089 4.63564 0
M  V30 11160 H 1045.15 -2.47665 4.16881 0
M  V30 11161 N 1046.49 -1.27344 -0.928501 0
M  V30 11162 C 1047.74 -1.13411 -1.67279 0
M  V30 11163 C 1048.06 0.320698 -1.92345 0
M  V30 11164 O 1047.33 1.2245 -1.52915 0
M  V30 11165 H 1045.91 -0.416712 -0.619968 0
M  V30 11166 H 1048.58 -1.5986 -1.11493 0
M  V30 11167 H 1047.67 -1.66256 -2.64131 0
M  V30 11168 N 1047.97 1.13488 -1.09353 0
M  V30 11169 C 1049.22 1.84748 -0.829126 0
M  V30 11170 C 1049.55 1.83485 0.645247 0
M  V30 11171 O 1048.8 1.26767 1.49093 0
M  V30 11172 C 1049.1 3.32584 -1.30854 0
M  V30 11173 C 1048.77 3.54028 -2.7924 0
M  V30 11174 C 1047.43 3.59588 -3.19765 0
M  V30 11175 C 1049.78 3.62058 -3.74918 0
M  V30 11176 C 1047.11 3.70712 -4.54741 0
M  V30 11177 C 1049.46 3.7471 -5.09682 0
M  V30 11178 C 1048.13 3.78523 -5.49797 0
M  V30 11179 H 1047.4 0.67604 -0.303399 0
M  V30 11180 H 1050.04 1.33989 -1.36818 0
M  V30 11181 H 1048.35 3.85689 -0.689275 0
M  V30 11182 H 1050.04 3.86166 -1.08059 0
M  V30 11183 H 1046.63 3.50354 -2.4688 0
M  V30 11184 H 1050.82 3.57043 -3.44723 0
M  V30 11185 H 1046.07 3.71931 -4.8526 0
M  V30 11186 H 1050.25 3.79866 -5.83674 0
M  V30 11187 H 1047.88 3.86895 -6.54382 0
M  V30 11188 N 1049.45 0.880621 1.30701 0
M  V30 11189 C 1050.41 0.349087 2.26526 0
M  V30 11190 C 1051.41 -0.505973 1.52632 0
M  V30 11191 O 1052.6 -0.313751 1.71351 0
M  V30 11192 C 1049.74 -0.503023 3.37168 0
M  V30 11193 H 1050.93 1.19516 2.75056 0
M  V30 11194 H 1048.48 0.657107 1.41816 0
M  V30 11195 H 1049.22 -1.36986 2.93948 0
M  V30 11196 H 1049 0.109389 3.91947 0
M  V30 11197 H 1050.49 -0.866845 4.08504 0
M  V30 11198 N 1050.93 -1.4397 0.641131 0
M  V30 11199 C 1051.86 -2.28997 -0.0963315 0
M  V30 11200 C 1052.87 -1.4184 -0.799071 0
M  V30 11201 O 1054.06 -1.65896 -0.658846 0
M  V30 11202 C 1051.16 -3.18465 -1.15903 0
M  V30 11203 C 1050.34 -4.34093 -0.536828 0
M  V30 11204 C 1049.4 -5.04522 -1.4948 0
M  V30 11205 O 1048.42 -5.60202 -1.00807 0
M  V30 11206 N 1049.62 -5.06899 -2.82901 0
M  V30 11207 H 1052.39 -2.9293 0.633422 0
M  V30 11208 H 1049.95 -1.54527 0.48302 0
M  V30 11209 H 1051.94 -3.62445 -1.80044 0
M  V30 11210 H 1050.51 -2.56214 -1.79089 0
M  V30 11211 H 1049.73 -3.9318 0.283414 0
M  V30 11212 H 1051.02 -5.08698 -0.101966 0
M  V30 11213 H 1050.42 -4.63012 -3.25017 0
M  V30 11214 H 1048.97 -5.54637 -3.42376 0
M  V30 11215 N 1052.41 -0.382291 -1.52893 0
M  V30 11216 C 1053.65 0.202433 -2.01787 0
M  V30 11217 C 1053.99 1.47044 -1.26853 0
M  V30 11218 O 1053.26 1.91007 -0.366969 0
M  V30 11219 C 1053.54 0.477471 -3.5692 0
M  V30 11220 C 1053.4 -0.805339 -4.42532 0
M  V30 11221 C 1054.72 1.27106 -4.21346 0
M  V30 11222 H 1051.84 0.0720998 -0.733465 0
M  V30 11223 H 1054.48 -0.510478 -1.83014 0
M  V30 11224 H 1052.63 1.08478 -3.73048 0
M  V30 11225 H 1054.3 -1.4424 -4.3817 0
M  V30 11226 H 1052.54 -1.42216 -4.09826 0
M  V30 11227 H 1053.21 -0.567635 -5.49074 0
M  V30 11228 H 1055.69 0.757161 -4.09153 0
M  V30 11229 H 1054.57 1.43225 -5.29885 0
M  V30 11230 H 1054.83 2.28431 -3.78513 0
M  V30 11231 N 1053.89 1.57202 -0.111913 0
M  V30 11232 C 1055.13 1.96035 0.542393 0
M  V30 11233 C 1055.49 0.993925 1.64739 0
M  V30 11234 O 1054.78 0.0227369 1.91587 0
M  V30 11235 C 1054.97 3.39152 1.12741 0
M  V30 11236 C 1054.8 4.49628 0.0806232 0
M  V30 11237 C 1053.57 5.04095 -0.348737 0
M  V30 11238 C 1055.77 5.09546 -0.697655 0
M  V30 11239 N 1053.75 5.98141 -1.38204 0
M  V30 11240 C 1055.12 5.99468 -1.58234 0
M  V30 11241 C 1057.18 4.92229 -0.749324 0
M  V30 11242 C 1055.88 6.7393 -2.51418 0
M  V30 11243 C 1057.91 5.67366 -1.66884 0
M  V30 11244 C 1057.27 6.56968 -2.54112 0
M  V30 11245 H 1053.37 0.763672 0.168311 0
M  V30 11246 H 1055.95 1.93687 -0.198387 0
M  V30 11247 H 1054.12 3.42161 1.83794 0
M  V30 11248 H 1055.86 3.65125 1.74546 0
M  V30 11249 H 1052.61 4.73581 0.042288 0
M  V30 11250 H 1053.03 6.49868 -1.8974 0
M  V30 11251 H 1057.68 4.22706 -0.0890808 0
M  V30 11252 H 1055.39 7.42704 -3.18459 0
M  V30 11253 H 1058.98 5.55974 -1.71417 0
M  V30 11254 H 1057.86 7.1409 -3.24107 0
M  V30 11255 N 1055.36 -0.161842 1.56767 0
M  V30 11256 C 1056.6 -0.88331 1.84329 0
M  V30 11257 C 1056.97 -1.79012 0.694165 0
M  V30 11258 O 1058.17 -2.54991 0.850461 0
M  V30 11259 C 1056.44 -1.65 3.17033 0
M  V30 11260 S 1058 -2.41893 3.66106 0
M  V30 11261 H 1054.82 -0.295667 0.646608 0
M  V30 11262 H 1057.42 -0.14429 1.94967 0
M  V30 11263 H 1056.12 -0.975025 3.9865 0
M  V30 11264 H 1055.65 -2.43021 3.09361 0
M  V30 11265 H 1057.67 -3.66788 3.34187 0
M  V30 11266 N 1056.84 -1.516 -0.430713 0
M  V30 11267 C 1058.07 -1.687 -1.20644 0
M  V30 11268 C 1058.49 -0.386555 -1.84085 0
M  V30 11269 O 1057.85 0.653952 -1.69095 0
M  V30 11270 C 1057.9 -2.80887 -2.2613 0
M  V30 11271 O 1057 -2.44952 -3.31772 0
M  V30 11272 H 1056.34 -0.562289 -0.353167 0
M  V30 11273 H 1058.87 -1.98198 -0.507807 0
M  V30 11274 H 1058.88 -3.05167 -2.70809 0
M  V30 11275 H 1057.56 -3.75249 -1.79334 0
M  V30 11276 H 1056.13 -2.31267 -2.92523 0
M  V30 11277 N 1058.32 0.686584 -1.41858 0
M  V30 11278 C 1059.57 1.44879 -1.41908 0
M  V30 11279 C 1059.9 1.94175 -0.0311408 0
M  V30 11280 O 1059.17 1.70131 0.942646 0
M  V30 11281 C 1059.46 2.65428 -2.43352 0
M  V30 11282 C 1059.31 2.2184 -3.91289 0
M  V30 11283 C 1060.63 3.67635 -2.41934 0
M  V30 11284 H 1057.75 0.525477 -0.516762 0
M  V30 11285 H 1060.39 0.781263 -1.73194 0
M  V30 11286 H 1058.54 3.2238 -2.16803 0
M  V30 11287 H 1060.21 1.70146 -4.28775 0
M  V30 11288 H 1058.45 1.53531 -4.05722 0
M  V30 11289 H 1059.13 3.08376 -4.5783 0
M  V30 11290 H 1061.6 3.20376 -2.65516 0
M  V30 11291 H 1060.48 4.49579 -3.14913 0
M  V30 11292 H 1060.74 4.17953 -1.44111 0
M  V30 11293 N 1059.8 1.27835 0.921735 0
M  V30 11294 C 1061.21 1.05369 1.19873 0
M  V30 11295 C 1061.41 -0.208997 2.00413 0
M  V30 11296 O 1060.47 -0.912861 2.35421 0
M  V30 11297 C 1061.78 2.29658 1.94108 0
M  V30 11298 C 1063.33 2.34756 2.07023 0
M  V30 11299 C 1063.81 3.5879 2.84664 0
M  V30 11300 N 1065.3 3.59383 2.9223 0
M  V30 11301 C 1066.03 4.52029 3.52785 0
M  V30 11302 N 1065.53 5.54986 4.14683 0
M  V30 11303 N 1067.32 4.39641 3.50246 0
M  V30 11304 H 1059.47 2.08903 0.383819 0
M  V30 11305 H 1061.73 0.919065 0.232429 0
M  V30 11306 H 1061.44 3.21604 1.4235 0
M  V30 11307 H 1061.31 2.35444 2.94696 0
M  V30 11308 H 1063.7 1.43312 2.57965 0
M  V30 11309 H 1063.78 2.32969 1.05636 0
M  V30 11310 H 1063.43 4.50574 2.34404 0
M  V30 11311 H 1063.36 3.57829 3.86349 0
M  V30 11312 H 1065.85 2.84927 2.48244 0
M  V30 11313 H 1066.16 6.21837 4.58845 0
M  V30 11314 H 1064.51 5.58822 4.13211 0
M  V30 11315 H 1067.7 3.58413 3.01094 0
M  V30 11316 H 1067.87 5.12033 3.97148 0
M  V30 11317 N 1061.28 -1.12907 1.09954 0
M  V30 11318 C 1062.5 -1.88138 0.860905 0
M  V30 11319 C 1062.92 -1.79402 -0.588256 0
M  V30 11320 O 1062.28 -1.16442 -1.40526 0
M  V30 11321 C 1062.33 -3.37537 1.29425 0
M  V30 11322 O 1062.05 -3.46056 2.68658 0
M  V30 11323 C 1063.55 -4.29721 1.08879 0
M  V30 11324 H 1060.77 -0.595437 0.309347 0
M  V30 11325 H 1063.31 -1.42894 1.46292 0
M  V30 11326 H 1061.47 -3.80344 0.736009 0
M  V30 11327 H 1061.88 -4.38969 2.87065 0
M  V30 11328 H 1063.36 -5.32854 1.4412 0
M  V30 11329 H 1063.83 -4.39192 0.0270053 0
M  V30 11330 H 1064.44 -3.9269 1.63325 0
M  V30 11331 N 1062.75 -0.88754 -1.30232 0
M  V30 11332 C 1064.16 -0.55745 -1.78184 0
M  V30 11333 C 1064.52 0.926474 -1.72948 0
M  V30 11334 O 1063.64 1.72403 -1.3079 0
M  V30 11335 C 1064.24 -1.00512 -3.23547 0
M  V30 11336 C 1062.79 -0.726402 -3.69324 0
M  V30 11337 C 1061.94 -1.18666 -2.50627 0
M  V30 11338 H 1064.89 -1.07151 -1.17066 0
M  V30 11339 H 1064.91 -0.335185 -3.79021 0
M  V30 11340 H 1064.43 -2.08517 -3.27326 0
M  V30 11341 H 1062.53 0.341548 -3.71031 0
M  V30 11342 H 1062.64 -1.31575 -4.60679 0
M  V30 11343 H 1061 -0.605936 -2.47387 0
M  V30 11344 H 1061.79 -2.2745 -2.57141 0
M  V30 11345 N 1064.23 1.43628 -0.648757 0
M  V30 11346 C 1065.14 2.34554 0.0463037 0
M  V30 11347 C 1066.16 1.53629 0.816952 0
M  V30 11348 O 1067.33 1.86297 0.765212 0
M  V30 11349 C 1064.4 3.3185 1.00381 0
M  V30 11350 C 1063.46 4.2868 0.230589 0
M  V30 11351 C 1062.69 5.21328 1.14249 0
M  V30 11352 O 1062.92 5.18298 2.38166 0
M  V30 11353 O 1061.85 5.98726 0.617296 0
M  V30 11354 H 1065.68 2.95475 -0.702008 0
M  V30 11355 H 1063.26 1.43694 -0.408942 0
M  V30 11356 H 1065.14 3.91692 1.5542 0
M  V30 11357 H 1063.82 2.73439 1.73243 0
M  V30 11358 H 1062.73 3.72332 -0.363282 0
M  V30 11359 H 1064.06 4.90061 -0.458368 0
M  V30 11360 N 1065.71 0.390394 1.52688 0
M  V30 11361 C 1066.94 -0.194013 2.06491 0
M  V30 11362 C 1067.36 -1.3965 1.26014 0
M  V30 11363 O 1066.72 -1.79038 0.285468 0
M  V30 11364 C 1066.77 -0.541306 3.56514 0
M  V30 11365 O 1065.87 -1.63509 3.78601 0
M  V30 11366 H 1065.21 -0.0223608 0.663623 0
M  V30 11367 H 1067.74 0.558179 1.96839 0
M  V30 11368 H 1067.75 -0.805301 3.99974 0
M  V30 11369 H 1066.43 0.337828 4.14526 0
M  V30 11370 H 1065 -1.36473 3.4703 0
M  V30 11371 N 1067.19 -1.57141 0.120249 0
M  V30 11372 C 1068.41 -2.00017 -0.548454 0
M  V30 11373 C 1068.84 -0.999433 -1.59352 0
M  V30 11374 O 1068.2 0.0286978 -1.81277 0
M  V30 11375 C 1068.24 -3.41766 -1.15015 0
M  V30 11376 O 1067.35 -3.44589 -2.26566 0
M  V30 11377 H 1066.69 -0.649739 -0.136875 0
M  V30 11378 H 1069.22 -2.03529 0.209092 0
M  V30 11379 H 1069.23 -3.80001 -1.48537 0
M  V30 11380 H 1067.9 -4.14117 -0.384681 0
M  V30 11381 H 1066.48 -3.18174 -1.94473 0
M  V30 11382 N 1068.67 0.153526 -1.5685 0
M  V30 11383 C 1069.62 1.19478 -1.94188 0
M  V30 11384 C 1070.6 1.38889 -0.812329 0
M  V30 11385 O 1071.79 1.4056 -1.07572 0
M  V30 11386 C 1068.92 2.53 -2.32047 0
M  V30 11387 C 1068.01 2.37209 -3.51557 0
M  V30 11388 N 1068.4 1.91162 -4.68285 0
M  V30 11389 C 1066.7 2.67981 -3.56514 0
M  V30 11390 C 1067.4 1.88259 -5.50394 0
M  V30 11391 N 1066.37 2.31329 -4.91923 0
M  V30 11392 H 1070.18 0.830748 -2.81915 0
M  V30 11393 H 1067.69 0.361643 -1.58322 0
M  V30 11394 H 1069.69 3.28264 -2.56998 0
M  V30 11395 H 1068.35 2.90191 -1.45669 0
M  V30 11396 H 1069.36 1.61227 -4.92165 0
M  V30 11397 H 1066.03 3.0909 -2.80659 0
M  V30 11398 H 1067.42 1.54205 -6.53965 0
M  V30 11399 N 1070.14 1.51827 0.422667 0
M  V30 11400 C 1071.05 1.77066 1.53899 0
M  V30 11401 C 1072.07 0.655541 1.61179 0
M  V30 11402 O 1073.25 0.939448 1.78147 0
M  V30 11403 C 1070.31 1.90372 2.89758 0
M  V30 11404 C 1069.37 3.14256 2.92475 0
M  V30 11405 C 1068.61 3.26918 4.21853 0
M  V30 11406 O 1068.83 2.45164 5.15025 0
M  V30 11407 O 1067.76 4.19989 4.31153 0
M  V30 11408 H 1071.59 2.71791 1.35511 0
M  V30 11409 H 1069.17 1.36506 0.607165 0
M  V30 11410 H 1071.06 2.01024 3.70361 0
M  V30 11411 H 1069.73 0.988347 3.08242 0
M  V30 11412 H 1068.64 3.09072 2.10773 0
M  V30 11413 H 1069.97 4.0553 2.78937 0
M  V30 11414 N 1071.62 -0.679052 1.4222 0
M  V30 11415 C 1072.87 -1.43627 1.42182 0
M  V30 11416 C 1073.19 -1.94964 0.0377095 0
M  V30 11417 O 1072.46 -1.72788 -0.923098 0
M  V30 11418 H 1071.04 -0.532972 0.523402 0
M  V30 11419 H 1073.7 -0.802649 1.77605 0
M  V30 11420 H 1072.8 -2.29137 2.11902 0
M  V30 11421 N 1073.1 -1.28322 -0.914942 0
M  V30 11422 C 1074.03 -1.14681 -2.03398 0
M  V30 11423 C 1075.01 -0.0448939 -1.70041 0
M  V30 11424 O 1076.2 -0.221672 -1.92931 0
M  V30 11425 C 1073.33 -0.806623 -3.37803 0
M  V30 11426 C 1072.28 -1.86318 -3.85318 0
M  V30 11427 C 1071.61 -1.37665 -5.16674 0
M  V30 11428 C 1072.91 -3.26953 -4.07307 0
M  V30 11429 H 1074.6 -2.08293 -2.15068 0
M  V30 11430 H 1072.15 -1.00284 -1.03339 0
M  V30 11431 H 1074.1 -0.69796 -4.1558 0
M  V30 11432 H 1072.82 0.165203 -3.26182 0
M  V30 11433 H 1071.48 -1.96096 -3.09745 0
M  V30 11434 H 1071.13 -0.393927 -5.01455 0
M  V30 11435 H 1070.83 -2.08313 -5.49435 0
M  V30 11436 H 1072.35 -1.28119 -5.97007 0
M  V30 11437 H 1073.77 -3.20102 -4.75613 0
M  V30 11438 H 1072.17 -3.95424 -4.51398 0
M  V30 11439 H 1073.24 -3.71059 -3.12159 0
M  V30 11440 N 1074.58 1.12322 -1.10551 0
M  V30 11441 C 1075.83 1.83216 -0.84349 0
M  V30 11442 C 1076.14 1.85075 0.632992 0
M  V30 11443 O 1077.35 2.51976 1.01095 0
M  V30 11444 C 1075.8 3.28994 -1.45915 0
M  V30 11445 C 1075.41 3.3549 -2.96901 0
M  V30 11446 C 1077.15 4.0485 -1.27657 0
M  V30 11447 C 1075.06 4.7561 -3.51496 0
M  V30 11448 H 1073.99 0.686471 -0.311887 0
M  V30 11449 H 1076.64 1.26463 -1.32964 0
M  V30 11450 H 1075.02 3.85621 -0.900678 0
M  V30 11451 H 1076.2 2.88795 -3.59074 0
M  V30 11452 H 1074.51 2.73107 -3.14327 0
M  V30 11453 H 1077.11 5.08316 -1.65889 0
M  V30 11454 H 1077.45 4.15727 -0.218258 0
M  V30 11455 H 1077.99 3.54584 -1.80318 0
M  V30 11456 H 1074.73 4.69927 -4.56999 0
M  V30 11457 H 1074.25 5.22753 -2.94091 0
M  V30 11458 H 1075.92 5.44552 -3.49388 0
M  V30 11459 N 1076.06 0.894434 1.2976 0
M  V30 11460 C 1077.28 0.532916 1.99919 0
M  V30 11461 C 1077.7 -0.881022 1.66983 0
M  V30 11462 O 1077.06 -1.58076 0.912035 0
M  V30 11463 C 1077.11 0.70936 3.54472 0
M  V30 11464 O 1076.83 2.06764 3.86239 0
M  V30 11465 C 1078.33 0.352089 4.419 0
M  V30 11466 H 1075.55 0.205019 0.638912 0
M  V30 11467 H 1078.09 1.20233 1.65421 0
M  V30 11468 H 1076.25 0.0871901 3.87302 0
M  V30 11469 H 1076.66 2.09315 4.80924 0
M  V30 11470 H 1078.14 0.526405 5.49484 0
M  V30 11471 H 1078.61 -0.710527 4.33415 0
M  V30 11472 H 1079.22 0.950979 4.14532 0
M  V30 11473 N 1077.53 -1.43282 0.656365 0
M  V30 11474 C 1078.81 -1.9534 0.100816 0
M  V30 11475 C 1079.19 -1.59755 -1.37992 0
M  V30 11476 O 1078.54 -0.884264 -2.10697 0
M  V30 11477 C 1078.75 -3.47237 0.35038 0
M  V30 11478 C 1080.1 -4.23822 0.257001 0
M  V30 11479 O 1081.12 -3.55073 0.283111 0
M  V30 11480 O 1079.98 -5.46192 0.183397 0
M  V30 11481 H 1077.07 -0.826963 -0.00780287 0
M  V30 11482 H 1079.62 -1.53205 0.72982 0
M  V30 11483 H 1078.39 -3.66276 1.37685 0
M  V30 11484 H 1078.02 -3.96378 -0.311539 0
M  V30 11485 N 1079.01 -0.398486 -1.52479 0
M  V30 11486 C 1080.42 0.0735015 -1.86555 0
M  V30 11487 C 1080.78 1.45361 -1.31775 0
M  V30 11488 O 1079.9 2.0632 -0.652759 0
M  V30 11489 C 1080.5 0.140152 -3.3851 0
M  V30 11490 C 1079.05 0.556451 -3.72264 0
M  V30 11491 C 1078.2 -0.275792 -2.75925 0
M  V30 11492 H 1081.15 -0.615991 -1.46257 0
M  V30 11493 H 1081.17 0.957507 -3.68255 0
M  V30 11494 H 1080.69 -0.864442 -3.7835 0
M  V30 11495 H 1078.79 1.56808 -3.37997 0
M  V30 11496 H 1078.9 0.308227 -4.78107 0
M  V30 11497 H 1077.26 0.260304 -2.53366 0
M  V30 11498 H 1078.05 -1.27854 -3.18604 0
M  V30 11499 N 1080.49 1.57075 -0.12858 0
M  V30 11500 C 1081.44 2.12379 0.829418 0
M  V30 11501 C 1082.43 1.04694 1.2218 0
M  V30 11502 O 1083.62 1.30909 1.1913 0
M  V30 11503 C 1080.75 2.73436 2.07575 0
M  V30 11504 C 1079.83 3.88217 1.7073 0
M  V30 11505 N 1080.22 4.94864 1.04609 0
M  V30 11506 C 1078.52 3.9858 2.00125 0
M  V30 11507 C 1079.22 5.7514 0.871137 0
M  V30 11508 N 1078.2 5.25284 1.39918 0
M  V30 11509 H 1082 2.92209 0.314816 0
M  V30 11510 H 1079.51 1.62233 0.0735788 0
M  V30 11511 H 1081.51 3.11406 2.77185 0
M  V30 11512 H 1080.17 1.95073 2.5957 0
M  V30 11513 H 1081.18 5.13025 0.708961 0
M  V30 11514 H 1077.86 3.3127 2.541 0
M  V30 11515 H 1079.25 6.7098 0.351395 0
M  V30 11516 N 1081.97 -0.145205 1.5693 0
M  V30 11517 C 1083.19 -0.876386 1.87974 0
M  V30 11518 C 1083.62 -1.73866 0.717795 0
M  V30 11519 O 1082.98 -1.78224 -0.332551 0
M  V30 11520 C 1083.03 -1.70746 3.17613 0
M  V30 11521 O 1082.13 -2.81188 3.01674 0
M  V30 11522 H 1081.47 -0.243987 0.617549 0
M  V30 11523 H 1084 -0.135482 2.04151 0
M  V30 11524 H 1084.01 -2.1021 3.49679 0
M  V30 11525 H 1082.69 -1.07429 4.01786 0
M  V30 11526 H 1081.26 -2.45117 2.81019 0
M  V30 11527 N 1083.45 -1.52049 -0.414609 0
M  V30 11528 C 1084.86 -1.58062 -0.993638 0
M  V30 11529 C 1085.21 -0.417795 -1.917 0
M  V30 11530 O 1084.33 0.462558 -2.11399 0
M  V30 11531 C 1084.93 -2.86471 -1.80886 0
M  V30 11532 C 1083.49 -2.94981 -2.33801 0
M  V30 11533 C 1082.64 -2.52949 -1.13631 0
M  V30 11534 H 1085.59 -1.57497 -0.19504 0
M  V30 11535 H 1085.61 -2.71515 -2.66571 0
M  V30 11536 H 1085.12 -3.71085 -1.13657 0
M  V30 11537 H 1083.22 -2.14849 -3.04419 0
M  V30 11538 H 1083.33 -3.99111 -2.65042 0
M  V30 11539 H 1081.7 -2.0667 -1.48861 0
M  V30 11540 H 1082.48 -3.39931 -0.479765 0
M  V30 11541 N 1084.93 0.6715 -1.42579 0
M  V30 11542 C 1086.15 1.46471 -1.46836 0
M  V30 11543 C 1086.58 1.87921 -0.0820658 0
M  V30 11544 O 1085.93 1.5621 0.920217 0
M  V30 11545 C 1085.98 2.68796 -2.40377 0
M  V30 11546 O 1085.09 3.67188 -1.87741 0
M  V30 11547 H 1084.43 0.439901 -0.497376 0
M  V30 11548 H 1086.96 0.823342 -1.87303 0
M  V30 11549 H 1086.97 3.16828 -2.57068 0
M  V30 11550 H 1085.64 2.37967 -3.41093 0
M  V30 11551 H 1084.22 3.26237 -1.80621 0
M  V30 11552 N 1086.4 1.28806 0.908124 0
M  V30 11553 C 1087.82 1.06634 1.18749 0
M  V30 11554 C 1088.02 -0.187729 2.00624 0
M  V30 11555 O 1087.08 -0.88784 2.36376 0
M  V30 11556 C 1088.39 2.31703 1.91661 0
M  V30 11557 C 1089.94 2.36939 2.04521 0
M  V30 11558 C 1090.41 3.61789 2.80843 0
M  V30 11559 N 1091.9 3.62462 2.88402 0
M  V30 11560 C 1092.64 4.55746 3.47971 0
M  V30 11561 N 1092.13 5.59353 4.08774 0
M  V30 11562 N 1093.93 4.43331 3.45564 0
M  V30 11563 H 1086.08 2.09299 0.36164 0
M  V30 11564 H 1088.34 0.921479 0.222668 0
M  V30 11565 H 1088.05 3.23096 1.38931 0
M  V30 11566 H 1087.92 2.38556 2.92183 0
M  V30 11567 H 1090.31 1.4604 2.5643 0
M  V30 11568 H 1090.39 2.34077 1.03159 0
M  V30 11569 H 1090.03 4.53035 2.29612 0
M  V30 11570 H 1089.96 3.61907 3.82532 0
M  V30 11571 H 1092.45 2.87544 2.45208 0
M  V30 11572 H 1092.77 6.26668 4.52224 0
M  V30 11573 H 1091.11 5.63173 4.07261 0
M  V30 11574 H 1094.3 3.61587 2.97276 0
M  V30 11575 H 1094.48 5.16216 3.91695 0
M  V30 11576 N 1087.88 -1.11734 1.11145 0
M  V30 11577 C 1089.13 -1.83405 0.858413 0
M  V30 11578 C 1089.46 -1.84488 -0.615975 0
M  V30 11579 O 1088.71 -1.29123 -1.47057 0
M  V30 11580 C 1089.01 -3.3046 1.36129 0
M  V30 11581 C 1088.68 -3.4954 2.84837 0
M  V30 11582 C 1087.34 -3.54456 3.25445 0
M  V30 11583 C 1089.69 -3.56048 3.8063 0
M  V30 11584 C 1087.02 -3.63431 4.60581 0
M  V30 11585 C 1089.37 -3.66554 5.15579 0
M  V30 11586 C 1088.03 -3.69728 5.55749 0
M  V30 11587 H 1087.3 -0.671128 0.314115 0
M  V30 11588 H 1089.95 -1.31795 1.38933 0
M  V30 11589 H 1088.26 -3.84544 0.750547 0
M  V30 11590 H 1089.95 -3.84398 1.14188 0
M  V30 11591 H 1086.54 -3.46382 2.52423 0
M  V30 11592 H 1090.73 -3.51513 3.5036 0
M  V30 11593 H 1085.98 -3.64164 4.91116 0
M  V30 11594 H 1090.16 -3.70532 5.89643 0
M  V30 11595 H 1087.78 -3.76435 6.60455 0
M  V30 11596 N 1089.36 -0.901303 -1.29284 0
M  V30 11597 C 1090.78 -0.597634 -1.47988 0
M  V30 11598 C 1090.98 0.860434 -1.82205 0
M  V30 11599 O 1090.03 1.64049 -1.91948 0
M  V30 11600 C 1091.34 -1.52484 -2.5917 0
M  V30 11601 C 1092.89 -1.53021 -2.73045 0
M  V30 11602 C 1093.37 -2.44373 -3.87357 0
M  V30 11603 N 1094.86 -2.42429 -3.94693 0
M  V30 11604 C 1095.59 -3.09817 -4.82495 0
M  V30 11605 N 1095.09 -3.86489 -5.74976 0
M  V30 11606 N 1096.88 -2.98966 -4.76 0
M  V30 11607 H 1089.03 -1.84432 -1.0535 0
M  V30 11608 H 1091.3 -0.790367 -0.523473 0
M  V30 11609 H 1091 -2.56378 -2.40756 0
M  V30 11610 H 1090.88 -1.24657 -3.56006 0
M  V30 11611 H 1093.26 -0.498709 -2.90855 0
M  V30 11612 H 1093.34 -1.84886 -1.76779 0
M  V30 11613 H 1092.99 -3.47618 -3.70302 0
M  V30 11614 H 1092.92 -2.09817 -4.82995 0
M  V30 11615 H 1095.41 -1.86724 -3.28546 0
M  V30 11616 H 1095.72 -4.34959 -6.38773 0
M  V30 11617 H 1094.07 -3.90596 -5.74857 0
M  V30 11618 H 1097.26 -2.38581 -4.02737 0
M  V30 11619 H 1097.43 -3.51758 -5.44215 0
M  V30 11620 N 1090.84 1.42931 -0.663954 0
M  V30 11621 C 1092.08 2.01982 -0.182007 0
M  V30 11622 C 1092.42 1.52323 1.20463 0
M  V30 11623 O 1091.69 0.720834 1.80649 0
M  V30 11624 C 1091.97 3.59518 -0.204671 0
M  V30 11625 C 1091.83 4.19382 -1.62599 0
M  V30 11626 C 1093.15 4.37762 0.45308 0
M  V30 11627 H 1090.27 0.733892 -0.0676115 0
M  V30 11628 H 1092.91 1.70092 -0.84668 0
M  V30 11629 H 1091.06 3.86816 0.361295 0
M  V30 11630 H 1092.73 4.03076 -2.24337 0
M  V30 11631 H 1090.97 3.75623 -2.17001 0
M  V30 11632 H 1091.64 5.28496 -1.59362 0
M  V30 11633 H 1094.12 4.1609 -0.0285774 0
M  V30 11634 H 1093 5.47392 0.406538 0
M  V30 11635 H 1093.26 4.1482 1.52895 0
M  V30 11636 N 1092.32 0.406567 1.52266 0
M  V30 11637 C 1093.56 -0.171391 2.00971 0
M  V30 11638 C 1093.88 -1.46443 1.29668 0
M  V30 11639 O 1095.08 -2.12348 1.69176 0
M  V30 11640 C 1093.54 -0.35599 3.58135 0
M  V30 11641 C 1093.15 0.924803 4.38351 0
M  V30 11642 C 1094.89 -0.889378 4.15079 0
M  V30 11643 C 1092.8 0.707534 5.87152 0
M  V30 11644 H 1091.73 -0.0678253 0.750943 0
M  V30 11645 H 1094.38 0.531619 1.7563 0
M  V30 11646 H 1092.76 -1.12127 3.79794 0
M  V30 11647 H 1093.94 1.69603 4.28452 0
M  V30 11648 H 1092.25 1.38442 3.92712 0
M  V30 11649 H 1094.85 -1.06792 5.23927 0
M  V30 11650 H 1095.19 -1.86334 3.7227 0
M  V30 11651 H 1095.72 -0.183224 3.97378 0
M  V30 11652 H 1092.46 1.65299 6.34316 0
M  V30 11653 H 1091.98 -0.024446 5.99795 0
M  V30 11654 H 1093.66 0.348721 6.4606 0
M  V30 11655 N 1093.79 -1.57004 0.136909 0
M  V30 11656 C 1095.04 -1.9541 -0.51569 0
M  V30 11657 C 1095.36 -1.02219 -1.66061 0
M  V30 11658 O 1094.63 -0.0818172 -1.95729 0
M  V30 11659 H 1093.21 -0.721504 -0.193497 0
M  V30 11660 H 1095.88 -1.93765 0.210046 0
M  V30 11661 H 1094.97 -2.98887 -0.898494 0
M  V30 11662 N 1095.27 0.136881 -1.57004 0
M  V30 11663 C 1096.5 0.866405 -1.88436 0
M  V30 11664 C 1096.92 1.73483 -0.727006 0
M  V30 11665 O 1096.28 1.78398 0.323094 0
M  V30 11666 C 1096.33 1.69059 -3.18514 0
M  V30 11667 O 1095.43 2.79584 -3.03161 0
M  V30 11668 H 1094.77 0.240709 -0.618834 0
M  V30 11669 H 1097.3 0.124653 -2.0422 0
M  V30 11670 H 1097.31 2.08353 -3.50789 0
M  V30 11671 H 1095.99 1.05296 -4.0235 0
M  V30 11672 H 1094.57 2.43623 -2.82315 0
M  V30 11673 N 1096.75 1.52266 0.40654 0
M  V30 11674 C 1097.68 1.78755 1.50229 0
M  V30 11675 C 1098.66 0.638652 1.57655 0
M  V30 11676 O 1099.85 0.884505 1.72888 0
M  V30 11677 C 1096.98 1.94057 2.88026 0
M  V30 11678 C 1095.93 3.09667 2.95449 0
M  V30 11679 C 1095.26 3.10196 4.35526 0
M  V30 11680 C 1096.56 4.49077 2.66697 0
M  V30 11681 H 1098.25 2.70511 1.28313 0
M  V30 11682 H 1095.8 1.30167 0.615836 0
M  V30 11683 H 1097.75 2.11171 3.64671 0
M  V30 11684 H 1096.47 0.989755 3.11242 0
M  V30 11685 H 1095.13 2.92308 2.2125 0
M  V30 11686 H 1094.78 2.12831 4.55754 0
M  V30 11687 H 1094.48 3.87847 4.41416 0
M  V30 11688 H 1096 3.29443 5.14101 0
M  V30 11689 H 1097.42 4.66628 3.33064 0
M  V30 11690 H 1095.82 5.28665 2.8396 0
M  V30 11691 H 1096.89 4.56995 1.62122 0
M  V30 11692 N 1098.23 -0.663929 1.42933 0
M  V30 11693 C 1099.45 -1.45691 1.47611 0
M  V30 11694 C 1099.88 -1.87875 0.0920305 0
M  V30 11695 O 1099.24 -1.56696 -0.91192 0
M  V30 11696 C 1099.28 -2.67517 2.41799 0
M  V30 11697 O 1098.39 -3.66187 1.89686 0
M  V30 11698 H 1097.73 -0.437257 0.499702 0
M  V30 11699 H 1100.26 -0.813397 1.87737 0
M  V30 11700 H 1100.27 -3.1546 2.58745 0
M  V30 11701 H 1098.94 -2.36155 3.4235 0
M  V30 11702 H 1097.52 -3.25274 1.82349 0
M  V30 11703 N 1099.71 -1.29285 -0.901281 0
M  V30 11704 C 1100.65 -1.14159 -2.02659 0
M  V30 11705 C 1101.65 -0.0575887 -1.69302 0
M  V30 11706 O 1102.85 -0.217273 -1.78684 0
M  V30 11707 H 1099.23 -0.352584 -0.66422 0
M  V30 11708 H 1101.2 -2.09434 -2.12555 0
M  V30 11709 C 1099.95 -0.833253 -3.37568 0
M  V30 11710 H 1099.27 -1.65939 -3.63737 0
M  V30 11711 H 1100.71 -0.767436 -4.16997 0
M  V30 11712 C 1099.17 0.46344 -3.33697 0
M  V30 11713 O 1099.7 1.48998 -3.73045 0
M  V30 11714 N 1097.91 0.468709 -2.86795 0
M  V30 11715 H 1097.45 -0.36712 -2.54971 0
M  V30 11716 H 1097.41 1.3363 -2.84588 0
M  V30 11717 N 1101.18 1.11143 -1.11736 0
M  V30 11718 C 1102.41 1.87285 -0.891007 0
M  V30 11719 C 1102.83 1.79758 0.553971 0
M  V30 11720 O 1102.19 1.16221 1.39149 0
M  V30 11721 C 1102.24 3.33924 -1.36114 0
M  V30 11722 O 1101.34 4.08917 -0.534851 0
M  V30 11723 H 1100.69 0.581418 -0.320701 0
M  V30 11724 H 1103.22 1.40469 -1.4876 0
M  V30 11725 H 1103.23 3.84772 -1.35701 0
M  V30 11726 H 1101.9 3.38719 -2.41334 0
M  V30 11727 H 1100.48 3.67954 -0.605355 0
M  V30 11728 N 1102.66 0.908147 1.28804 0
M  V30 11729 C 1103.61 0.390734 2.27468 0
M  V30 11730 C 1104.58 -0.531765 1.57358 0
M  V30 11731 O 1105.76 -0.455177 1.85291 0
M  V30 11732 C 1102.9 -0.368159 3.43131 0
M  V30 11733 C 1102.02 0.586202 4.28004 0
M  V30 11734 C 1101.15 -0.190581 5.30858 0
M  V30 11735 C 1100.19 0.757758 6.07391 0
M  V30 11736 N 1099.33 0.0148488 7.02098 0
M  V30 11737 H 1104.17 1.23717 2.71105 0
M  V30 11738 H 1101.71 0.621382 1.33331 0
M  V30 11739 H 1103.66 -0.824289 4.08976 0
M  V30 11740 H 1102.29 -1.17898 3.00499 0
M  V30 11741 H 1101.35 1.16086 3.62254 0
M  V30 11742 H 1102.66 1.31177 4.81242 0
M  V30 11743 H 1101.81 -0.707528 6.0256 0
M  V30 11744 H 1100.55 -0.949234 4.78373 0
M  V30 11745 H 1099.56 1.28613 5.34545 0
M  V30 11746 H 1100.78 1.51588 6.61965 0
M  V30 11747 H 1098.73 -0.725916 6.51971 0
M  V30 11748 H 1098.64 0.680347 7.52932 0
M  V30 11749 H 1099.91 -0.482086 7.78008 0
M  V30 11750 N 1104.14 -1.42577 0.671525 0
M  V30 11751 C 1105.05 -2.34598 -0.00898225 0
M  V30 11752 C 1106.07 -1.54909 -0.792407 0
M  V30 11753 O 1107.24 -1.87491 -0.735477 0
M  V30 11754 C 1104.31 -3.33405 -0.950888 0
M  V30 11755 C 1103.37 -4.28993 -0.16236 0
M  V30 11756 C 1102.6 -5.2308 -1.0594 0
M  V30 11757 O 1102.82 -5.22022 -2.2989 0
M  V30 11758 O 1101.76 -5.99632 -0.521966 0
M  V30 11759 H 1105.58 -2.94321 0.748927 0
M  V30 11760 H 1103.17 -1.43025 0.43175 0
M  V30 11761 H 1105.05 -3.94115 -1.49169 0
M  V30 11762 H 1103.73 -2.7616 -1.68871 0
M  V30 11763 H 1102.63 -3.71707 0.42247 0
M  V30 11764 H 1103.97 -4.8927 0.536274 0
M  V30 11765 N 1105.62 -0.414636 -1.52048 0
M  V30 11766 C 1106.87 0.159349 -2.01872 0
M  V30 11767 C 1107.19 1.44674 -1.29999 0
M  V30 11768 O 1106.45 1.91641 -0.396511 0
M  V30 11769 C 1106.75 0.448327 -3.54577 0
M  V30 11770 C 1106.41 -0.75052 -4.4461 0
M  V30 11771 C 1105.08 -1.07935 -4.68939 0
M  V30 11772 C 1107.43 -1.55134 -4.97577 0
M  V30 11773 C 1104.76 -2.21008 -5.43482 0
M  V30 11774 C 1107.11 -2.67288 -5.73358 0
M  V30 11775 C 1105.77 -3.00651 -5.95958 0
M  V30 11776 H 1105.04 0.05831 -0.738702 0
M  V30 11777 H 1107.69 -0.557184 -1.83215 0
M  V30 11778 H 1105.99 1.24649 -3.71443 0
M  V30 11779 H 1107.69 0.90549 -3.90643 0
M  V30 11780 H 1104.28 -0.484257 -4.25856 0
M  V30 11781 H 1108.46 -1.31052 -4.78685 0
M  V30 11782 H 1103.72 -2.47197 -5.59199 0
M  V30 11783 H 1107.89 -3.29725 -6.13396 0
M  V30 11784 H 1105.52 -3.88384 -6.535 0
M  V30 11785 N 1107.1 1.56929 -0.145233 0
M  V30 11786 C 1108.32 2.00864 0.516564 0
M  V30 11787 C 1108.75 1.02466 1.57741 0
M  V30 11788 O 1108.1 0.000145439 1.813 0
M  V30 11789 C 1108.15 3.43552 1.09563 0
M  V30 11790 O 1107.26 3.4815 2.21055 0
M  V30 11791 H 1106.6 0.651835 0.126521 0
M  V30 11792 H 1109.13 2.0317 -0.241445 0
M  V30 11793 H 1109.14 3.82316 1.42473 0
M  V30 11794 H 1107.81 4.14677 0.318749 0
M  V30 11795 H 1106.39 3.21228 1.89387 0
M  V30 11796 N 1108.58 -0.128553 1.57075 0
M  V30 11797 C 1109.49 -1.17718 2.02927 0
M  V30 11798 C 1110.5 -1.45912 0.947932 0
M  V30 11799 O 1111.68 -1.57217 1.25876 0
M  V30 11800 C 1108.74 -2.48625 2.41633 0
M  V30 11801 C 1107.8 -2.27914 3.63804 0
M  V30 11802 C 1107.04 -3.52579 4.00654 0
M  V30 11803 O 1107.26 -4.59505 3.37952 0
M  V30 11804 O 1106.19 -3.44147 4.93808 0
M  V30 11805 H 1110.02 -0.817846 2.92481 0
M  V30 11806 H 1107.6 -0.338649 1.45511 0
M  V30 11807 H 1109.49 -3.2577 2.67305 0
M  V30 11808 H 1108.16 -2.84052 1.55229 0
M  V30 11809 H 1107.07 -1.4866 3.43294 0
M  V30 11810 H 1108.4 -1.97395 4.50883 0
M  V30 11811 N 1110.05 -1.5248 -0.398459 0
M  V30 11812 C 1111 -1.72965 -1.4855 0
M  V30 11813 C 1111.99 -0.583628 -1.49942 0
M  V30 11814 O 1113.18 -0.841106 -1.55738 0
M  V30 11815 C 1110.31 -1.89339 -2.86366 0
M  V30 11816 C 1109.39 -3.09845 -2.8958 0
M  V30 11817 N 1109.79 -4.32365 -2.62477 0
M  V30 11818 C 1108.08 -3.09897 -3.20749 0
M  V30 11819 C 1108.78 -5.13908 -2.72532 0
M  V30 11820 N 1107.76 -4.49387 -3.05864 0
M  V30 11821 H 1111.56 -2.65327 -1.26406 0
M  V30 11822 H 1109.08 -1.50658 -0.606299 0
M  V30 11823 H 1111.07 -2.02134 -3.64619 0
M  V30 11824 H 1109.73 -0.981841 -3.095 0
M  V30 11825 H 1110.74 -4.60659 -2.36673 0
M  V30 11826 H 1107.42 -2.28518 -3.49408 0
M  V30 11827 H 1108.81 -6.21548 -2.55202 0
M  V30 11828 N 1111.53 0.65634 -1.43283 0
M  V30 11829 C 1112.78 1.41627 -1.44734 0
M  V30 11830 C 1113.11 1.94372 -0.0704893 0
M  V30 11831 O 1112.36 1.72511 0.924037 0
M  V30 11832 C 1112.66 2.61688 -2.43421 0
M  V30 11833 C 1112.33 2.2738 -3.8937 0
M  V30 11834 C 1110.99 2.17735 -4.29121 0
M  V30 11835 C 1113.34 1.99863 -4.81357 0
M  V30 11836 C 1110.67 1.78725 -5.58815 0
M  V30 11837 C 1113.02 1.62352 -6.11412 0
M  V30 11838 C 1111.68 1.51231 -6.50143 0
M  V30 11839 H 1110.95 0.51825 -0.529621 0
M  V30 11840 H 1113.6 0.746701 -1.76342 0
M  V30 11841 H 1111.91 3.33763 -2.05206 0
M  V30 11842 H 1113.6 3.19896 -2.41801 0
M  V30 11843 H 1110.19 2.35795 -3.57908 0
M  V30 11844 H 1114.38 2.06237 -4.5142 0
M  V30 11845 H 1109.63 1.68698 -5.87666 0
M  V30 11846 H 1113.81 1.40091 -6.82164 0
M  V30 11847 H 1111.43 1.20774 -7.50545 0
M  V30 11848 N 1113.01 1.29761 0.894412 0
M  V30 11849 C 1114.43 1.07888 1.17611 0
M  V30 11850 C 1114.63 -0.16644 2.00811 0
M  V30 11851 O 1113.68 -0.86272 2.37304 0
M  V30 11852 C 1114.99 2.33723 1.89193 0
M  V30 11853 C 1116.54 2.39095 2.01997 0
M  V30 11854 C 1117.02 3.64747 2.7699 0
M  V30 11855 N 1118.51 3.65501 2.84541 0
M  V30 11856 C 1119.24 4.59411 3.43117 0
M  V30 11857 N 1118.74 5.63657 4.02818 0
M  V30 11858 N 1120.53 4.46971 3.40842 0
M  V30 11859 H 1112.68 2.0967 0.339421 0
M  V30 11860 H 1114.95 0.923788 0.212882 0
M  V30 11861 H 1114.65 3.24551 1.35496 0
M  V30 11862 H 1114.53 2.41642 2.89636 0
M  V30 11863 H 1116.91 1.48751 2.54867 0
M  V30 11864 H 1116.99 2.35158 1.0067 0
M  V30 11865 H 1116.64 4.55445 2.24794 0
M  V30 11866 H 1116.57 3.65944 3.78672 0
M  V30 11867 H 1119.06 2.90129 2.42144 0
M  V30 11868 H 1119.37 6.31429 4.45552 0
M  V30 11869 H 1117.72 5.67461 4.01265 0
M  V30 11870 H 1120.91 3.64719 2.93424 0
M  V30 11871 H 1121.08 5.20341 3.86198 0
M  V30 11872 N 1114.49 -1.10549 1.12324 0
M  V30 11873 C 1115.73 -1.84108 0.887895 0
M  V30 11874 C 1116.09 -1.83159 -0.5759 0
M  V30 11875 O 1117.29 -2.52259 -0.928367 0
M  V30 11876 C 1115.56 -3.26866 1.44545 0
M  V30 11877 S 1117.12 -4.17567 1.34846 0
M  V30 11878 H 1113.94 -0.634752 0.320329 0
M  V30 11879 H 1116.54 -1.33036 1.43254 0
M  V30 11880 H 1115.25 -3.25126 2.50442 0
M  V30 11881 H 1114.78 -3.83008 0.89825 0
M  V30 11882 H 1116.79 -4.95173 0.319143 0
M  V30 11883 N 1115.97 -0.914965 -1.28321 0
M  V30 11884 C 1117.38 -0.59512 -1.76961 0
M  V30 11885 C 1117.73 0.88958 -1.74874 0
M  V30 11886 O 1116.85 1.6959 -1.34418 0
M  V30 11887 C 1117.45 -1.07353 -3.21342 0
M  V30 11888 C 1116.01 -0.804577 -3.677 0
M  V30 11889 C 1115.15 -1.23955 -2.48053 0
M  V30 11890 H 1118.1 -1.0961 -1.14767 0
M  V30 11891 H 1118.13 -0.415506 -3.78225 0
M  V30 11892 H 1117.64 -2.15413 -3.22829 0
M  V30 11893 H 1115.74 0.26277 -3.71672 0
M  V30 11894 H 1115.85 -1.41317 -4.57784 0
M  V30 11895 H 1114.22 -0.658274 -2.46046 0
M  V30 11896 H 1115 -2.32853 -2.52258 0
M  V30 11897 N 1117.44 1.42219 -0.679077 0
M  V30 11898 C 1118.85 1.8459 -0.279877 0
M  V30 11899 C 1119.21 1.56839 1.17881 0
M  V30 11900 O 1118.33 1.03039 1.90294 0
M  V30 11901 C 1118.93 3.35072 -0.501185 0
M  V30 11902 C 1117.48 3.76076 -0.156065 0
M  V30 11903 C 1116.63 2.65763 -0.791549 0
M  V30 11904 H 1119.58 1.32005 -0.880932 0
M  V30 11905 H 1119.6 3.79708 0.245349 0
M  V30 11906 H 1119.12 3.55239 -1.56291 0
M  V30 11907 H 1117.22 3.61516 0.90205 0
M  V30 11908 H 1117.33 4.75334 -0.599572 0
M  V30 11909 H 1115.69 2.53726 -0.222514 0
M  V30 11910 H 1116.48 2.88751 -1.85682 0
M  V30 11911 N 1118.92 0.422693 1.51826 0
M  V30 11912 C 1120.17 -0.148348 2.01555 0
M  V30 11913 C 1120.49 -1.44483 1.30956 0
M  V30 11914 O 1119.76 -1.90904 0.439599 0
M  V30 11915 H 1118.34 -0.0578116 0.74476 0
M  V30 11916 H 1121 0.562046 1.8662 0
M  V30 11917 H 1120.1 -0.334766 3.10299 0
M  V30 11918 N 1120.4 -1.5685 0.153553 0
M  V30 11919 C 1121.62 -2.01135 -0.505904 0
M  V30 11920 C 1122.05 -1.03301 -1.57196 0
M  V30 11921 O 1121.41 -0.00976022 -1.81297 0
M  V30 11922 C 1121.46 -3.44129 -1.0774 0
M  V30 11923 O 1120.56 -3.49318 -2.19205 0
M  V30 11924 H 1119.9 -0.652496 -0.123062 0
M  V30 11925 H 1122.43 -2.03039 0.252216 0
M  V30 11926 H 1122.44 -3.83066 -1.40444 0
M  V30 11927 H 1121.12 -4.1484 -0.296754 0
M  V30 11928 H 1119.69 -3.22227 -1.8768 0
M  V30 11929 N 1121.88 0.120221 -1.57141 0
M  V30 11930 C 1123.29 0.677497 -1.73974 0
M  V30 11931 C 1123.64 1.80371 -0.772055 0
M  V30 11932 O 1122.76 2.16329 0.0553062 0
M  V30 11933 C 1123.36 1.23575 -3.1546 0
M  V30 11934 C 1121.92 1.73933 -3.33803 0
M  V30 11935 C 1121.07 0.638542 -2.69848 0
M  V30 11936 H 1124.02 -0.105685 -1.58348 0
M  V30 11937 H 1124.04 2.10542 -3.16942 0
M  V30 11938 H 1123.55 0.415851 -3.85866 0
M  V30 11939 H 1121.65 2.58404 -2.68437 0
M  V30 11940 H 1121.76 1.84961 -4.41957 0
M  V30 11941 H 1120.13 1.07185 -2.31049 0
M  V30 11942 H 1120.91 -0.170356 -3.42877 0
M  V30 11943 N 1123.36 1.52689 0.390367 0
M  V30 11944 C 1124.29 1.72118 1.49836 0
M  V30 11945 C 1125.27 0.568986 1.5232 0
M  V30 11946 O 1126.45 0.798623 1.70746 0
M  V30 11947 C 1123.58 1.77754 2.88307 0
M  V30 11948 C 1122.62 2.99492 3.03655 0
M  V30 11949 S 1123.46 4.59496 2.74998 0
M  V30 11950 C 1124.61 4.67946 4.15665 0
M  V30 11951 H 1124.85 2.65826 1.3313 0
M  V30 11952 H 1122.38 1.42964 0.583153 0
M  V30 11953 H 1124.34 1.81687 3.68103 0
M  V30 11954 H 1123 0.851406 3.02341 0
M  V30 11955 H 1122.19 2.99973 4.05009 0
M  V30 11956 H 1121.79 2.93544 2.3175 0
M  V30 11957 H 1124.09 4.46476 5.09573 0
M  V30 11958 H 1125.03 5.69945 4.202 0
M  V30 11959 H 1125.44 3.96799 4.01511 0
M  V30 11960 N 1124.83 -0.648732 1.43629 0
M  V30 11961 C 1125.78 -1.78269 1.49409 0
M  V30 11962 C 1126.78 -1.6537 0.367288 0
M  V30 11963 O 1127.98 -1.71663 0.541476 0
M  V30 11964 H 1124.36 -0.58824 0.468484 0
M  V30 11965 H 1126.33 -1.70514 2.44883 0
M  V30 11966 C 1125.08 -3.16545 1.43856 0
M  V30 11967 H 1124.4 -3.2711 2.29868 0
M  V30 11968 H 1125.84 -3.95833 1.51961 0
M  V30 11969 C 1124.3 -3.36535 0.156779 0
M  V30 11970 O 1124.83 -3.94052 -0.780124 0
M  V30 11971 N 1123.04 -2.90526 0.0655319 0
M  V30 11972 H 1122.58 -2.43904 0.828768 0
M  V30 11973 H 1122.54 -3.04277 -0.791379 0
M  V30 11974 N 1126.31 -1.30234 -0.887518 0
M  V30 11975 C 1127.72 -1.17048 -1.45453 0
M  V30 11976 C 1128.07 0.229793 -1.9485 0
M  V30 11977 O 1127.2 1.12628 -1.84781 0
M  V30 11978 C 1127.79 -2.11876 -2.64375 0
M  V30 11979 C 1126.35 -2.02676 -3.17174 0
M  V30 11980 C 1125.5 -2.02104 -1.89866 0
M  V30 11981 H 1128.45 -1.42541 -0.697694 0
M  V30 11982 H 1128.47 -1.69811 -3.40506 0
M  V30 11983 H 1127.98 -3.13781 -2.28392 0
M  V30 11984 H 1126.09 -1.03904 -3.57819 0
M  V30 11985 H 1126.2 -2.90939 -3.80646 0
M  V30 11986 H 1124.56 -1.4687 -2.0809 0
M  V30 11987 H 1125.35 -3.05735 -1.56145 0
M  V30 11988 N 1127.79 1.09952 -1.12909 0
M  V30 11989 C 1129.2 1.63516 -0.901087 0
M  V30 11990 C 1129.55 1.87932 0.563547 0
M  V30 11991 O 1128.68 1.625 1.42908 0
M  V30 11992 C 1129.27 2.97054 -1.62924 0
M  V30 11993 C 1127.83 3.47464 -1.44725 0
M  V30 11994 C 1126.98 2.21979 -1.66194 0
M  V30 11995 H 1129.93 0.933858 -1.28315 0
M  V30 11996 H 1129.95 3.64757 -1.08318 0
M  V30 11997 H 1129.46 2.79251 -2.69519 0
M  V30 11998 H 1127.56 3.70402 -0.40409 0
M  V30 11999 H 1127.68 4.25254 -2.20671 0
M  V30 12000 H 1126.04 2.30368 -1.0864 0
M  V30 12001 H 1126.82 2.06702 -2.74097 0
M  V30 12002 N 1129.27 0.921757 1.27833 0
M  V30 12003 C 1130.22 0.387357 2.24685 0
M  V30 12004 C 1131.2 -0.505036 1.52768 0
M  V30 12005 O 1132.39 -0.34345 1.73636 0
M  V30 12006 C 1129.52 -0.364168 3.41363 0
M  V30 12007 C 1128.61 0.544401 4.20591 0
M  V30 12008 N 1129 1.66158 4.77729 0
M  V30 12009 C 1127.3 0.346289 4.44654 0
M  V30 12010 C 1128 2.22619 5.37416 0
M  V30 12011 N 1126.98 1.51648 5.22019 0
M  V30 12012 H 1130.78 1.24045 2.6644 0
M  V30 12013 H 1128.29 0.775338 1.42696 0
M  V30 12014 H 1130.29 -0.763917 4.09841 0
M  V30 12015 H 1128.95 -1.21426 3.01141 0
M  V30 12016 H 1129.96 2.04406 4.75856 0
M  V30 12017 H 1126.64 -0.46363 4.14918 0
M  V30 12018 H 1128.03 3.16641 5.92611 0
M  V30 12019 N 1130.75 -1.41857 0.686609 0
M  V30 12020 C 1131.69 -2.30795 0.015643 0
M  V30 12021 C 1132.66 -1.46616 -0.780569 0
M  V30 12022 O 1133.85 -1.75423 -0.750424 0
M  V30 12023 C 1130.99 -3.32577 -0.921229 0
M  V30 12024 C 1130.1 -4.3184 -0.117585 0
M  V30 12025 C 1129.24 -5.20693 -1.05128 0
M  V30 12026 C 1128.28 -6.11629 -0.240018 0
M  V30 12027 N 1127.41 -6.92995 -1.12704 0
M  V30 12028 H 1132.25 -2.87615 0.77985 0
M  V30 12029 H 1129.79 -1.41661 0.396298 0
M  V30 12030 H 1131.75 -3.90129 -1.47836 0
M  V30 12031 H 1130.38 -2.77328 -1.65193 0
M  V30 12032 H 1129.43 -3.7631 0.55634 0
M  V30 12033 H 1130.74 -4.96168 0.511753 0
M  V30 12034 H 1129.9 -5.83035 -1.67795 0
M  V30 12035 H 1128.63 -4.5657 -1.71449 0
M  V30 12036 H 1127.64 -5.48345 0.399779 0
M  V30 12037 H 1128.86 -6.77805 0.419266 0
M  V30 12038 H 1126.81 -6.31489 -1.77644 0
M  V30 12039 H 1126.73 -7.53974 -0.553065 0
M  V30 12040 H 1128 -7.59813 -1.7408 0
M  V30 12041 N 1132.22 -0.430739 -1.51599 0
M  V30 12042 C 1133.46 0.137184 -2.03939 0
M  V30 12043 C 1133.83 1.40533 -1.30823 0
M  V30 12044 O 1135.03 2.05307 -1.73501 0
M  V30 12045 C 1133.3 0.357395 -3.55609 0
M  V30 12046 S 1134.86 0.889669 -4.29686 0
M  V30 12047 H 1131.68 0.0349429 -0.710141 0
M  V30 12048 H 1134.28 -0.588628 -1.86428 0
M  V30 12049 H 1132.98 -0.572011 -4.06394 0
M  V30 12050 H 1132.51 1.11047 -3.77402 0
M  V30 12051 H 1134.53 2.16797 -4.46333 0
M  V30 12052 N 1133.7 1.56767 -0.161869 0
M  V30 12053 C 1134.61 2.21083 0.784814 0
M  V30 12054 C 1135.63 1.19959 1.26039 0
M  V30 12055 O 1136.8 1.52588 1.31449 0
M  V30 12056 C 1133.87 2.83153 2.00063 0
M  V30 12057 C 1132.93 3.9945 1.57285 0
M  V30 12058 C 1132.16 4.5855 2.7307 0
M  V30 12059 O 1132.39 4.16534 3.89686 0
M  V30 12060 O 1131.32 5.48575 2.47688 0
M  V30 12061 H 1135.15 3.02522 0.267243 0
M  V30 12062 H 1132.73 1.49255 0.0658783 0
M  V30 12063 H 1134.61 3.22546 2.71186 0
M  V30 12064 H 1133.29 2.04718 2.50744 0
M  V30 12065 H 1132.2 3.64745 0.831393 0
M  V30 12066 H 1133.53 4.7945 1.11304 0
M  V30 12067 N 1135.18 -0.111886 1.57202 0
M  V30 12068 C 1136.43 -0.819623 1.85499 0
M  V30 12069 C 1136.76 -1.7919 0.748629 0
M  V30 12070 O 1136.03 -1.92952 -0.244918 0
M  V30 12071 C 1136.32 -1.56324 3.24399 0
M  V30 12072 C 1136.17 -0.610081 4.45643 0
M  V30 12073 C 1137.49 -2.51777 3.60966 0
M  V30 12074 H 1134.61 -0.296512 0.674722 0
M  V30 12075 H 1137.25 -0.0836741 1.89816 0
M  V30 12076 H 1135.4 -2.1906 3.2085 0
M  V30 12077 H 1137.07 0.00898038 4.61299 0
M  V30 12078 H 1135.32 0.0778488 4.3373 0
M  V30 12079 H 1135.99 -1.16718 5.39519 0
M  V30 12080 H 1138.46 -1.99143 3.65351 0
M  V30 12081 H 1137.34 -3.00835 4.59118 0
M  V30 12082 H 1137.6 -3.34769 2.8876 0
M  V30 12083 N 1136.66 -1.52894 -0.382264 0
M  V30 12084 C 1137.9 -1.69465 -1.12486 0
M  V30 12085 C 1138.26 -0.432631 -1.87473 0
M  V30 12086 O 1137.55 0.573901 -1.82803 0
M  V30 12087 C 1137.75 -2.87309 -2.12576 0
M  V30 12088 C 1137.58 -4.24849 -1.47421 0
M  V30 12089 C 1136.35 -4.89965 -1.23542 0
M  V30 12090 C 1138.54 -5.05991 -0.920733 0
M  V30 12091 N 1136.53 -6.1147 -0.545631 0
M  V30 12092 C 1137.9 -6.18958 -0.359379 0
M  V30 12093 C 1139.95 -4.91138 -0.817797 0
M  V30 12094 C 1138.65 -7.18695 0.294853 0
M  V30 12095 C 1140.68 -5.91134 -0.177375 0
M  V30 12096 C 1140.04 -7.03411 0.373179 0
M  V30 12097 H 1136.14 -0.673527 -0.397347 0
M  V30 12098 H 1138.73 -1.90259 -0.413479 0
M  V30 12099 H 1136.9 -2.68083 -2.81044 0
M  V30 12100 H 1138.63 -2.92784 -2.79392 0
M  V30 12101 H 1135.38 -4.48808 -1.51223 0
M  V30 12102 H 1135.81 -6.76653 -0.216582 0
M  V30 12103 H 1140.45 -4.04536 -1.22924 0
M  V30 12104 H 1138.17 -8.04901 0.718285 0
M  V30 12105 H 1141.75 -5.81716 -0.0988833 0
M  V30 12106 H 1140.63 -7.7946 0.860905 0
M  V30 12107 O 1138.18 0.528217 -1.52618 0
M  V30 12108 H 1138.87 1.18332 -1.53353 0
M  V30 END ATOM
M  V30 BEGIN BOND
M  V30 END BOND
M  V30 END CTAB
M  END
$$$$
