drugbank_target|P0A7Z3 Ribose-5-phosphate isomerase A (DB04127)
 OpenBabel12092119573D

  0  0  0     0  0            999 V3000
M  V30 BEGIN CTAB
M  V30 COUNTS 3251 3272 0 0 0
M  V30 BEGIN ATOM
M  V30 1 H -0.908 1.98254 -0.117106 0
M  V30 2 N 0 1.576 0 0
M  V30 3 C 0.933 2.03868 1.02534 0
M  V30 4 C 1.911 0.928543 1.3348 0
M  V30 5 O 3.095 1.19667 1.45644 0
M  V30 6 C 0.222 2.43627 2.35294 0
M  V30 7 C -0.732 3.65373 2.2001 0
M  V30 8 S 0.101 5.13292 1.52614 0
M  V30 9 C 1.257 5.56322 2.86805 0
M  V30 10 H 1.49 2.90518 0.631377 0
M  V30 11 H -0.977 1.52953 0.210867 0
M  V30 12 H 0.981 2.67203 3.11629 0
M  V30 13 H -0.358 1.57376 2.7183 0
M  V30 14 H -1.165 3.90944 3.18086 0
M  V30 15 H -1.563 3.418 1.51819 0
M  V30 16 H 0.729 5.58782 3.83104 0
M  V30 17 H 1.672 6.56266 2.65933 0
M  V30 18 H 2.08 4.83886 2.90714 0
M  V30 19 N 1.4781 -0.272755 1.55222 0
M  V30 20 C 2.7061 -1.02255 1.79865 0
M  V30 21 C 3.1211 -1.79924 0.572088 0
M  V30 22 O 2.4781 -1.76638 -0.458842 0
M  V30 23 C 2.5291 -1.98094 3.02392 0
M  V30 24 O 2.2501 -1.23572 4.20311 0
M  V30 25 C 3.7511 -2.84884 3.39641 0
M  V30 26 H 0.9711 -0.302057 0.599168 0
M  V30 27 H 3.5151 -0.303465 2.02236 0
M  V30 28 H 1.6701 -2.65465 2.82147 0
M  V30 29 H 2.0841 -1.88172 4.89583 0
M  V30 30 H 3.5581 -3.47927 4.28545 0
M  V30 31 H 4.0351 -3.54665 2.59055 0
M  V30 32 H 4.6411 -2.23003 3.62146 0
M  V30 33 N 2.9562 -1.48159 -0.537278 0
M  V30 34 C 3.8882 -1.58218 -1.65831 0
M  V30 35 C 4.9012 -0.466948 -1.5596 0
M  V30 36 O 6.0902 -0.73747 -1.62553 0
M  V30 37 C 3.1902 -1.48906 -3.04434 0
M  V30 38 C 2.3632 -2.75343 -3.3986 0
M  V30 39 C 1.4222 -2.59588 -4.57712 0
M  V30 40 O 0.4482 -3.33457 -4.61297 0
M  V30 41 N 1.6502 -1.68724 -5.55439 0
M  V30 42 H 4.4152 -2.54891 -1.57641 0
M  V30 43 H 1.9762 -1.4479 -0.724386 0
M  V30 44 H 3.9682 -1.36072 -3.81139 0
M  V30 45 H 2.5382 -0.602368 -3.06741 0
M  V30 46 H 1.7582 -3.02795 -2.52406 0
M  V30 47 H 3.0462 -3.5924 -3.60311 0
M  V30 48 H 2.4442 -1.07898 -5.55315 0
M  V30 49 H 1.0012 -1.61832 -6.3139 0
M  V30 50 N 4.4343 0.785586 -1.36625 0
M  V30 51 C 5.7113 1.53198 -1.21613 0
M  V30 52 C 6.0913 2.10187 0.196113 0
M  V30 53 O 5.4393 1.94318 1.20219 0
M  V30 54 C 5.6493 2.62388 -2.30116 0
M  V30 55 C 6.9973 3.30167 -2.66974 0
M  V30 56 O 8.0213 2.72674 -2.29188 0
M  V30 57 O 6.8803 4.34077 -3.32023 0
M  V30 58 H 3.9743 0.677865 -0.473738 0
M  V30 59 H 6.5203 0.823739 -1.48367 0
M  V30 60 H 5.2923 2.18299 -3.24748 0
M  V30 61 H 4.9153 3.40827 -2.0475 0
M  V30 62 N 5.9124 1.20967 1.01018 0
M  V30 63 C 6.8224 0.980157 2.13143 0
M  V30 64 C 7.8384 -0.0660665 1.73875 0
M  V30 65 O 9.0144 0.122821 2.01025 0
M  V30 66 C 6.0794 0.54216 3.42435 0
M  V30 67 C 5.1404 1.65999 3.95908 0
M  V30 68 C 4.3734 1.2428 5.19028 0
M  V30 69 O 4.5964 0.114196 5.70286 0
M  V30 70 O 3.5304 2.05271 5.65816 0
M  V30 71 H 7.3564 1.91913 2.35379 0
M  V30 72 H 4.9414 0.994099 1.11526 0
M  V30 73 H 6.8234 0.30744 4.20277 0
M  V30 74 H 5.4984 -0.36815 3.216 0
M  V30 75 H 4.4054 1.94906 3.19316 0
M  V30 76 H 5.7384 2.54753 4.21143 0
M  V30 77 N 7.3905 -1.2043 1.01659 0
M  V30 78 C 8.3205 -2.25466 0.607226 0
M  V30 79 C 9.3015 -1.65853 -0.377716 0
M  V30 80 O 10.4865 -1.92409 -0.263149 0
M  V30 81 C 7.6165 -3.47256 -0.0552949 0
M  V30 82 C 6.5705 -4.19462 0.850632 0
M  V30 83 C 5.8965 -5.34673 0.0538859 0
M  V30 84 C 7.1965 -4.75603 2.15868 0
M  V30 85 H 8.8905 -2.59962 1.48526 0
M  V30 86 H 6.4365 -1.2496 0.715605 0
M  V30 87 H 8.3895 -4.19917 -0.353233 0
M  V30 88 H 7.1135 -3.11924 -0.968045 0
M  V30 89 H 5.7725 -3.48667 1.13257 0
M  V30 90 H 5.4205 -4.95585 -0.860514 0
M  V30 91 H 5.1205 -5.83913 0.657192 0
M  V30 92 H 6.6445 -6.10138 -0.237598 0
M  V30 93 H 8.0585 -5.40083 1.92311 0
M  V30 94 H 6.4555 -5.3528 2.71284 0
M  V30 95 H 7.5255 -3.94346 2.82169 0
M  V30 96 N 8.8686 -0.792821 -1.36206 0
M  V30 97 C 9.8156 -0.191653 -2.30003 0
M  V30 98 C 10.7856 0.666453 -1.52143 0
M  V30 99 O 11.9706 0.61442 -1.80636 0
M  V30 100 C 9.1106 0.664848 -3.38635 0
M  V30 101 C 8.2236 -0.212175 -4.31479 0
M  V30 102 C 7.3586 0.651022 -5.27196 0
M  V30 103 C 6.3976 -0.227247 -6.11678 0
M  V30 104 N 5.5346 0.595127 -6.99573 0
M  V30 105 H 10.3746 -0.996978 -2.80828 0
M  V30 106 H 7.9116 -0.503206 -1.38225 0
M  V30 107 H 9.8696 1.17645 -4.00269 0
M  V30 108 H 8.4996 1.43557 -2.89122 0
M  V30 109 H 7.5516 -0.841777 -3.70969 0
M  V30 110 H 8.8636 -0.888751 -4.90818 0
M  V30 111 H 8.0176 1.2283 -5.94136 0
M  V30 112 H 6.7566 1.36121 -4.68319 0
M  V30 113 H 5.7616 -0.816904 -5.43697 0
M  V30 114 H 6.9866 -0.93509 -6.72631 0
M  V30 115 H 4.9326 1.28955 -6.432 0
M  V30 116 H 4.8496 -0.0236952 -7.55996 0
M  V30 117 H 6.1176 1.15613 -7.70879 0
M  V30 118 N 10.3467 1.47872 -0.545128 0
M  V30 119 C 11.2937 2.29849 0.2093 0
M  V30 120 C 12.2637 1.38313 0.919707 0
M  V30 121 O 13.4487 1.67277 0.917772 0
M  V30 122 C 10.5887 3.22019 1.24088 0
M  V30 123 C 9.7017 4.2864 0.537778 0
M  V30 124 C 8.8367 5.07973 1.5536 0
M  V30 125 C 7.8757 6.06381 0.8348 0
M  V30 126 N 7.0127 6.78717 1.79688 0
M  V30 127 H 11.8527 2.93845 -0.49591 0
M  V30 128 H 9.3897 1.44848 -0.256389 0
M  V30 129 H 11.3477 3.73868 1.85144 0
M  V30 130 H 9.9777 2.59914 1.91428 0
M  V30 131 H 9.0297 3.7994 -0.187046 0
M  V30 132 H 10.3417 4.98793 -0.0258907 0
M  V30 133 H 9.4957 5.63912 2.23803 0
M  V30 134 H 8.2347 4.37693 2.15118 0
M  V30 135 H 7.2397 5.49631 0.136388 0
M  V30 136 H 8.4647 6.78665 0.24313 0
M  V30 137 H 6.4107 6.11177 2.38326 0
M  V30 138 H 6.3277 7.44998 1.28505 0
M  V30 139 H 7.5957 7.39237 2.47282 0
M  V30 140 N 11.8248 0.280983 1.55075 0
M  V30 141 C 12.7878 -0.590896 2.21452 0
M  V30 142 C 13.7878 -1.07682 1.19421 0
M  V30 143 O 14.9778 -0.97605 1.44288 0
M  V30 144 C 12.1098 -1.81587 2.88511 0
M  V30 145 H 13.3028 -0.0112554 2.99898 0
M  V30 146 H 10.8558 0.0316438 1.56268 0
M  V30 147 H 11.5908 -2.43587 2.14093 0
M  V30 148 H 11.3758 -1.4753 3.63287 0
M  V30 149 H 12.8658 -2.43575 3.39206 0
M  V30 150 N 13.3029 -1.57598 0.00835791 0
M  V30 151 C 14.5489 -1.91211 -0.675732 0
M  V30 152 C 14.8819 -0.883139 -1.72958 0
M  V30 153 O 14.1569 0.097016 -1.94258 0
M  V30 154 C 14.4399 -3.35379 -1.31123 0
M  V30 155 C 14.2929 -4.48999 -0.268356 0
M  V30 156 C 15.6119 -3.7912 -2.23508 0
M  V30 157 H 12.7309 -0.695374 -0.244179 0
M  V30 158 H 15.3729 -1.89901 0.0613655 0
M  V30 159 H 13.5229 -3.36626 -1.93946 0
M  V30 160 H 15.1949 -4.59887 0.360844 0
M  V30 161 H 13.4379 -4.31873 0.408482 0
M  V30 162 H 14.1089 -5.46851 -0.752218 0
M  V30 163 H 16.5849 -3.79477 -1.70693 0
M  V30 164 H 15.4609 -4.80729 -2.64936 0
M  V30 165 H 15.7219 -3.13455 -3.11766 0
M  V30 166 N 14.781 0.264519 -1.55364 0
M  V30 167 C 16.029 0.993021 -1.76021 0
M  V30 168 C 16.35 1.86511 -0.569099 0
M  V30 169 O 15.62 1.91438 0.415735 0
M  V30 170 H 14.2 0.369639 -0.649135 0
M  V30 171 H 16.862 0.286707 -1.9278 0
M  V30 172 H 15.958 1.62502 -2.66457 0
M  V30 173 N 16.2591 1.48442 0.529413 0
M  V30 174 C 17.5051 1.57699 1.28463 0
M  V30 175 C 17.8601 0.247913 1.90796 0
M  V30 176 O 17.1531 -0.749279 1.76342 0
M  V30 177 C 17.3471 2.6523 2.39558 0
M  V30 178 C 17.1761 4.08464 1.88114 0
M  V30 179 C 15.9461 4.75596 1.70693 0
M  V30 180 C 18.1441 4.94613 1.40935 0
M  V30 181 N 16.1261 6.03245 1.13881 0
M  V30 182 C 17.4971 6.12511 0.960734 0
M  V30 183 C 19.5521 4.80833 1.29243 0
M  V30 184 C 18.2551 7.18149 0.406792 0
M  V30 185 C 20.2811 5.86593 0.752487 0
M  V30 186 C 19.6431 7.037 0.313946 0
M  V30 187 H 15.7421 0.631608 0.46108 0
M  V30 188 H 18.3261 1.85325 0.596886 0
M  V30 189 H 16.4971 2.39425 3.05827 0
M  V30 190 H 18.2291 2.64169 3.06589 0
M  V30 191 H 14.9841 4.31938 1.94232 0
M  V30 192 H 15.4081 6.71324 0.874831 0
M  V30 193 H 20.0501 3.90635 1.61754 0
M  V30 194 H 17.7681 8.0807 0.0693671 0
M  V30 195 H 21.3541 5.77985 0.665192 0
M  V30 196 H 20.2341 7.8414 -0.0973632 0
M  V30 197 N 17.7372 -0.778329 1.37039 0
M  V30 198 C 18.7002 -1.87301 1.32102 0
M  V30 199 C 19.7002 -1.59198 0.226405 0
M  V30 200 O 20.8902 -1.67403 0.481861 0
M  V30 201 C 18.0222 -3.24309 1.05055 0
M  V30 202 H 19.2152 -1.93093 2.29467 0
M  V30 203 H 16.7682 -0.977358 1.21973 0
M  V30 204 H 17.5032 -3.24196 0.0819373 0
M  V30 205 H 17.2882 -3.46098 1.84279 0
M  V30 206 H 18.7782 -4.04382 1.04234 0
M  V30 207 N 19.2153 -1.21501 -1.00376 0
M  V30 208 C 20.1783 -0.976927 -2.07337 0
M  V30 209 C 21.1783 0.0525322 -1.60714 0
M  V30 210 O 22.3683 -0.184869 -1.73216 0
M  V30 211 C 19.5003 -0.473423 -3.37597 0
M  V30 212 H 20.6933 -1.92587 -2.29892 0
M  V30 213 H 18.2463 -1.03217 -1.17371 0
M  V30 214 H 18.9813 0.480379 -3.20722 0
M  V30 215 H 18.7663 -1.216 -3.72768 0
M  V30 216 H 20.2563 -0.32675 -4.1632 0
M  V30 217 N 20.6934 1.19889 -1.02296 0
M  V30 218 C 21.6234 2.25141 -0.619174 0
M  V30 219 C 22.6044 1.66051 0.368915 0
M  V30 220 O 23.7894 1.92546 0.252941 0
M  V30 221 C 20.9194 3.4728 0.0368783 0
M  V30 222 C 19.8734 4.19005 -0.872865 0
M  V30 223 C 19.1994 5.34637 -0.0822402 0
M  V30 224 C 20.4994 4.74452 -2.18387 0
M  V30 225 H 22.1934 2.59171 -1.49903 0
M  V30 226 H 19.7394 1.24579 -0.722222 0
M  V30 227 H 21.6924 4.20098 0.330958 0
M  V30 228 H 20.4164 3.12433 0.95149 0
M  V30 229 H 19.0754 3.48061 -1.15105 0
M  V30 230 H 18.7234 4.96034 0.83422 0
M  V30 231 H 18.4234 5.83557 -0.688149 0
M  V30 232 H 19.9474 6.10255 0.205238 0
M  V30 233 H 21.3614 5.39055 -1.95172 0
M  V30 234 H 19.7584 5.33834 -2.74119 0
M  V30 235 H 20.8284 3.92844 -2.84257 0
M  V30 236 N 22.1715 0.800033 1.35784 0
M  V30 237 C 23.1035 0.163596 2.28615 0
M  V30 238 C 24.1165 -0.633317 1.49976 0
M  V30 239 O 25.3055 -0.466754 1.72289 0
M  V30 240 C 22.4055 -0.790958 3.29541 0
M  V30 241 C 21.5785 -0.0418255 4.3738 0
M  V30 242 C 20.6375 -0.91389 5.18203 0
M  V30 243 O 19.6635 -0.367234 5.68014 0
M  V30 244 N 20.8655 -2.23682 5.35674 0
M  V30 245 H 23.6305 0.96105 2.83873 0
M  V30 246 H 21.1915 0.654894 1.48063 0
M  V30 247 H 23.1835 -1.37844 3.80501 0
M  V30 248 H 21.7535 -1.48925 2.74846 0
M  V30 249 H 20.9735 0.726813 3.87442 0
M  V30 250 H 22.2615 0.474719 5.06581 0
M  V30 251 H 21.6595 -2.70497 4.96838 0
M  V30 252 H 20.2165 -2.77369 5.89839 0
M  V30 253 N 23.6496 -1.47581 0.552962 0
M  V30 254 C 24.8796 -2.06575 0.0320091 0
M  V30 255 C 25.2876 -1.4067 -1.26525 0
M  V30 256 O 24.6306 -0.495808 -1.76883 0
M  V30 257 C 24.6926 -3.58705 -0.238913 0
M  V30 258 C 24.3566 -4.46625 0.968272 0
M  V30 259 C 25.3536 -4.85 1.87274 0
M  V30 260 C 23.0386 -4.88201 1.18175 0
M  V30 261 C 25.0326 -5.63745 2.9744 0
M  V30 262 C 22.7196 -5.66712 2.28651 0
M  V30 263 C 23.7176 -6.04394 3.18114 0
M  V30 264 O 23.4056 -6.81324 4.26676 0
M  V30 265 H 23.1376 -0.674763 0.0408689 0
M  V30 266 H 25.6916 -1.90634 0.764719 0
M  V30 267 H 23.9216 -3.72844 -1.02588 0
M  V30 268 H 25.6106 -3.99735 -0.704731 0
M  V30 269 H 26.3766 -4.53482 1.71984 0
M  V30 270 H 22.2556 -4.58339 0.494593 0
M  V30 271 H 25.7996 -5.93077 3.67296 0
M  V30 272 H 21.6966 -5.97642 2.43915 0
M  V30 273 H 22.4646 -6.99712 4.24671 0
M  V30 274 N 25.1277 -0.289203 -1.54924 0
M  V30 275 C 26.3737 0.323998 -2.00195 0
M  V30 276 C 26.7067 1.54441 -1.17735 0
M  V30 277 O 25.9817 1.92875 -0.250878 0
M  V30 278 C 26.2647 0.692276 -3.53383 0
M  V30 279 C 26.1177 -0.536457 -4.46589 0
M  V30 280 C 27.4367 1.52335 -4.12895 0
M  V30 281 H 24.5557 0.116289 -0.727768 0
M  V30 282 H 27.1977 -0.398954 -1.85764 0
M  V30 283 H 25.3477 1.30822 -3.65811 0
M  V30 284 H 27.0197 -1.17499 -4.46085 0
M  V30 285 H 25.2627 -1.17192 -4.1767 0
M  V30 286 H 25.9337 -0.234806 -5.515 0
M  V30 287 H 28.4097 1.00302 -4.0383 0
M  V30 288 H 27.2857 1.74982 -5.20262 0
M  V30 289 H 27.5467 2.50886 -3.64018 0
M  V30 290 N 26.6058 1.57591 -0.0167156 0
M  V30 291 C 27.5378 2.06343 0.997753 0
M  V30 292 C 28.5508 0.984469 1.29661 0
M  V30 293 O 29.7398 1.26093 1.26344 0
M  V30 294 C 26.8398 2.46255 2.32834 0
M  V30 295 C 26.0128 3.77083 2.21646 0
M  V30 296 C 25.0718 4.0368 3.37534 0
M  V30 297 O 24.0978 4.7411 3.14973 0
M  V30 298 N 25.2998 3.52881 4.60929 0
M  V30 299 H 28.0648 2.93997 0.581875 0
M  V30 300 H 25.6258 1.61002 0.170316 0
M  V30 301 H 27.6178 2.61149 3.09166 0
M  V30 302 H 26.1878 1.64032 2.66106 0
M  V30 303 H 25.4078 3.72106 1.30119 0
M  V30 304 H 26.6958 4.62822 2.11361 0
M  V30 305 H 26.0938 2.95878 4.82154 0
M  V30 306 H 24.6508 3.73076 5.34469 0
M  V30 307 N 28.0839 -0.256276 1.55502 0
M  V30 308 C 29.4949 -0.826068 1.67431 0
M  V30 309 C 29.8459 -1.86396 0.612446 0
M  V30 310 O 28.9709 -2.15031 -0.243025 0
M  V30 311 C 29.5659 -1.50512 3.03532 0
M  V30 312 C 28.1249 -2.02273 3.17431 0
M  V30 313 C 27.2719 -0.870548 2.63281 0
M  V30 314 H 30.2229 -0.0322728 1.58667 0
M  V30 315 H 30.2439 -2.37279 2.97454 0
M  V30 316 H 29.7559 -0.749484 3.80794 0
M  V30 317 H 27.8569 -2.80746 2.44974 0
M  V30 318 H 27.9699 -2.22655 4.24219 0
M  V30 319 H 26.3339 -1.26851 2.20864 0
M  V30 320 H 27.1169 -0.128149 3.43061 0
M  V30 321 N 29.562 -1.4872 -0.521534 0
M  V30 322 C 30.81 -1.56857 -1.27437 0
M  V30 323 C 31.131 -0.247982 -1.93417 0
M  V30 324 O 30.401 0.731151 -1.81744 0
M  V30 325 H 28.981 -0.577885 -0.473347 0
M  V30 326 H 31.643 -1.85233 -0.606205 0
M  V30 327 H 30.739 -2.35402 -2.0492 0
M  V30 328 N 31.0401 0.771051 -1.3745 0
M  V30 329 C 32.2681 1.56015 -1.35893 0
M  V30 330 C 32.6831 1.88718 0.0555523 0
M  V30 331 O 32.0401 1.51502 1.01752 0
M  V30 332 C 32.0911 2.87001 -2.19801 0
M  V30 333 O 31.8121 2.557 -3.55738 0
M  V30 334 C 33.3131 3.81228 -2.26231 0
M  V30 335 H 30.5331 0.483317 -0.465453 0
M  V30 336 H 33.0771 0.955611 -1.80799 0
M  V30 337 H 31.2321 3.43877 -1.78402 0
M  V30 338 H 31.6461 3.39584 -3.99729 0
M  V30 339 H 33.1201 4.70139 -2.89263 0
M  V30 340 H 33.5971 4.20409 -1.27093 0
M  V30 341 H 34.2031 3.30281 -2.67945 0
M  V30 342 N 32.5182 1.22032 0.997298 0
M  V30 343 C 33.7672 1.03637 1.73038 0
M  V30 344 C 34.0802 -0.429475 1.90827 0
M  V30 345 O 35.2862 -0.732995 2.61418 0
M  V30 346 C 33.7422 1.80582 3.11317 0
M  V30 347 C 33.3502 3.31387 3.01474 0
M  V30 348 C 35.0942 1.70621 3.88701 0
M  V30 349 C 33.0012 4.00791 4.3488 0
M  V30 350 H 31.9312 0.384179 0.648785 0
M  V30 351 H 34.5822 1.4584 1.11368 0
M  V30 352 H 32.9642 1.31175 3.73643 0
M  V30 353 H 34.1382 3.88155 2.4834 0
M  V30 354 H 32.4532 3.41976 2.37575 0
M  V30 355 H 35.0502 2.19799 4.87434 0
M  V30 356 H 35.3932 0.665823 4.10941 0
M  V30 357 H 35.9262 2.17547 3.33044 0
M  V30 358 H 32.6652 5.05064 4.1784 0
M  V30 359 H 32.1852 3.48811 4.87945 0
M  V30 360 H 33.8642 4.06139 5.03647 0
M  V30 361 N 33.9963 -1.19345 1.0293 0
M  V30 362 C 35.2423 -1.89318 0.727083 0
M  V30 363 C 35.5753 -1.79446 -0.742483 0
M  V30 364 O 34.8503 -1.1871 -1.54072 0
M  V30 365 C 35.1333 -3.40238 1.17942 0
M  V30 366 C 34.9863 -3.58979 2.71024 0
M  V30 367 C 36.3053 -4.33479 0.760548 0
M  V30 368 H 33.4243 -0.687475 0.265606 0
M  V30 369 H 36.0663 -1.40477 1.2793 0
M  V30 370 H 34.2163 -3.81964 0.709608 0
M  V30 371 H 35.8883 -3.26421 3.25955 0
M  V30 372 H 34.1313 -3.02018 3.11396 0
M  V30 373 H 34.8023 -4.64823 2.9773 0
M  V30 374 H 37.2783 -3.99469 1.16464 0
M  V30 375 H 36.1543 -5.37664 1.10493 0
M  V30 376 H 36.4153 -4.40813 -0.337063 0
M  V30 377 N 35.4744 -0.807222 -1.35358 0
M  V30 378 C 36.7224 -0.387122 -1.98358 0
M  V30 379 C 37.0434 1.04942 -1.64354 0
M  V30 380 O 36.3134 1.72615 -0.926339 0
M  V30 381 H 34.8934 -0.140154 -0.733734 0
M  V30 382 H 37.5554 -1.0332 -1.6526 0
M  V30 383 H 36.6514 -0.493352 -3.08176 0
M  V30 384 N 36.9525 1.47285 -0.560781 0
M  V30 385 C 38.1985 2.02764 -0.0381184 0
M  V30 386 C 38.5315 1.43384 1.30976 0
M  V30 387 O 37.8065 0.590733 1.85312 0
M  V30 388 C 38.0895 3.60064 0.0511427 0
M  V30 389 C 37.9425 4.2987 -1.32408 0
M  V30 390 C 39.2615 4.33439 0.762795 0
M  V30 391 H 36.3805 0.736841 -0.0153264 0
M  V30 392 H 39.0225 1.75675 -0.723759 0
M  V30 393 H 37.1725 3.83274 0.635065 0
M  V30 394 H 38.8445 4.17989 -1.95148 0
M  V30 395 H 37.0875 3.90085 -1.8978 0
M  V30 396 H 37.7585 5.38478 -1.21431 0
M  V30 397 H 40.2345 4.15243 0.266965 0
M  V30 398 H 39.1105 5.43124 0.794221 0
M  V30 399 H 39.3715 4.02915 1.81966 0
M  V30 400 N 38.4306 0.297415 1.54768 0
M  V30 401 C 39.6786 -0.312295 1.99673 0
M  V30 402 C 39.9996 -1.54686 1.18732 0
M  V30 403 O 39.2696 -1.93854 0.282382 0
M  V30 404 H 37.8496 -0.118381 0.73756 0
M  V30 405 H 40.5116 0.407915 1.90583 0
M  V30 406 H 39.6076 -0.586813 3.06534 0
M  V30 407 N 39.9087 -1.5758 0.0250728 0
M  V30 408 C 41.1367 -1.9593 -0.664747 0
M  V30 409 C 41.5517 -0.901352 -1.65895 0
M  V30 410 O 40.9087 0.117255 -1.82123 0
M  V30 411 C 40.9597 -3.34342 -1.37468 0
M  V30 412 O 40.6807 -4.36079 -0.420324 0
M  V30 413 C 42.1817 -3.873 -2.1567 0
M  V30 414 H 39.4017 -0.645405 -0.183557 0
M  V30 415 H 41.9457 -2.04329 0.0836372 0
M  V30 416 H 40.1007 -3.27175 -2.0745 0
M  V30 417 H 40.5147 -5.16297 -0.923991 0
M  V30 418 H 41.9887 -4.86504 -2.60803 0
M  V30 419 H 42.4657 -3.21331 -2.99405 0
M  V30 420 H 43.0717 -3.97723 -1.50654 0
M  V30 421 N 41.3868 0.248026 -1.55636 0
M  V30 422 C 42.6348 0.974295 -1.77065 0
M  V30 423 C 42.9558 1.85897 -0.588849 0
M  V30 424 O 42.2258 1.91868 0.395407 0
M  V30 425 H 40.8058 0.362733 -0.653019 0
M  V30 426 H 43.4678 0.266244 -1.93073 0
M  V30 427 H 42.5638 1.59667 -2.68166 0
M  V30 428 N 42.8649 1.48995 0.513639 0
M  V30 429 C 44.0899 1.61792 1.29762 0
M  V30 430 C 44.5149 0.284475 1.85936 0
M  V30 431 O 43.8729 -0.746185 1.65232 0
M  V30 432 C 43.9209 2.67993 2.41272 0
M  V30 433 O 43.0249 2.26287 3.44772 0
M  V30 434 H 42.3659 0.541963 0.38363 0
M  V30 435 H 44.8959 1.95097 0.616307 0
M  V30 436 H 44.9059 2.89772 2.87221 0
M  V30 437 H 43.5809 3.64791 1.9975 0
M  V30 438 H 42.1579 2.14788 3.04829 0
M  V30 439 N 44.343 -0.763751 1.37857 0
M  V30 440 C 45.571 -1.55293 1.36718 0
M  V30 441 C 45.986 -1.88745 -0.0455434 0
M  V30 442 O 45.343 -1.52039 -1.00947 0
M  V30 443 C 45.394 -2.85831 2.2132 0
M  V30 444 O 45.115 -2.5381 3.57089 0
M  V30 445 C 46.616 -3.80023 2.28249 0
M  V30 446 H 43.836 -0.480841 0.468009 0
M  V30 447 H 46.38 -0.946009 1.81303 0
M  V30 448 H 44.535 -3.42926 1.80223 0
M  V30 449 H 44.949 -3.37459 4.01524 0
M  V30 450 H 46.423 -4.68599 2.91752 0
M  V30 451 H 46.9 -4.1973 1.2932 0
M  V30 452 H 47.506 -3.28855 2.69693 0
M  V30 453 N 45.8211 -1.22559 -0.990812 0
M  V30 454 C 46.7841 -0.998863 -2.0629 0
M  V30 455 C 47.7841 0.0354834 -1.60761 0
M  V30 456 O 48.9741 -0.203231 -1.7301 0
M  V30 457 C 46.1061 -0.509203 -3.37076 0
M  V30 458 H 47.2991 -1.95014 -2.27837 0
M  V30 459 H 44.8521 -1.04456 -1.16269 0
M  V30 460 H 45.5871 0.446335 -3.21214 0
M  V30 461 H 45.3721 -1.25547 -3.71457 0
M  V30 462 H 46.8621 -0.370888 -4.1595 0
M  V30 463 N 47.2992 1.18797 -1.03562 0
M  V30 464 C 48.2622 2.20464 -0.626769 0
M  V30 465 C 49.2622 1.57721 0.313173 0
M  V30 466 O 50.4522 1.73917 0.0992615 0
M  V30 467 C 47.5842 3.40802 0.0818498 0
M  V30 468 H 48.7772 2.58149 -1.5264 0
M  V30 469 H 46.3302 1.32593 -0.827578 0
M  V30 470 H 47.0652 3.08642 0.995518 0
M  V30 471 H 46.8502 3.8758 -0.593652 0
M  V30 472 H 48.3402 4.16092 0.354584 0
M  V30 473 N 48.7773 0.814389 1.34928 0
M  V30 474 C 49.7273 0.202752 2.27097 0
M  V30 475 C 50.7113 -0.62799 1.48139 0
M  V30 476 O 51.9033 -0.483969 1.70255 0
M  V30 477 C 49.0323 -0.64146 3.37254 0
M  V30 478 C 48.1183 0.19944 4.23631 0
M  V30 479 N 48.5093 1.26628 4.89693 0
M  V30 480 C 46.8073 -0.0176433 4.45997 0
M  V30 481 C 47.5083 1.78031 5.53787 0
M  V30 482 N 46.4843 1.08553 5.32651 0
M  V30 483 H 50.2863 1.01893 2.75672 0
M  V30 484 H 47.8003 0.656332 1.48546 0
M  V30 485 H 49.7973 -1.09575 4.02243 0
M  V30 486 H 48.4573 -1.4559 2.9023 0
M  V30 487 H 49.4683 1.64901 4.90946 0
M  V30 488 H 46.1453 -0.800601 4.09752 0
M  V30 489 H 47.5353 2.67236 6.16469 0
M  V30 490 N 50.2554 -1.46986 0.568584 0
M  V30 491 C 51.5024 -2.02441 0.0487986 0
M  V30 492 C 51.8304 -1.44169 -1.30559 0
M  V30 493 O 51.0854 -0.591213 -1.86556 0
M  V30 494 C 51.3844 -3.57306 -0.081836 0
M  V30 495 C 51.0504 -4.34552 1.20313 0
M  V30 496 C 49.7124 -4.55376 1.5552 0
M  V30 497 C 52.0644 -4.79016 2.05411 0
M  V30 498 C 49.3924 -5.17913 2.7565 0
M  V30 499 C 51.7444 -5.42879 3.24754 0
M  V30 500 C 50.4084 -5.61933 3.60261 0
M  V30 501 H 49.6784 -0.740785 0.0178567 0
M  V30 502 H 52.3254 -1.76525 0.742384 0
M  V30 503 H 50.6304 -3.8228 -0.858463 0
M  V30 504 H 52.3274 -3.97876 -0.499546 0
M  V30 505 H 48.9174 -4.18631 0.919014 0
M  V30 506 H 53.1014 -4.62696 1.79516 0
M  V30 507 H 48.3574 -5.30858 3.03315 0
M  V30 508 H 52.5314 -5.76293 3.90973 0
M  V30 509 H 50.1584 -6.10161 4.53439 0
M  V30 510 N 51.7335 -0.305618 -1.54608 0
M  V30 511 C 52.9825 0.303098 -1.9941 0
M  V30 512 C 53.2955 1.54648 -1.19764 0
M  V30 513 O 54.5015 2.23007 -1.54855 0
M  V30 514 C 52.9575 0.590588 -3.55021 0
M  V30 515 C 52.5655 -0.634719 -4.43481 0
M  V30 516 C 54.3095 1.16025 -4.08336 0
M  V30 517 C 52.2165 -0.320126 -5.90533 0
M  V30 518 H 51.1465 0.117031 -0.744862 0
M  V30 519 H 53.7975 -0.415045 -1.78745 0
M  V30 520 H 52.1795 1.36845 -3.71604 0
M  V30 521 H 53.3535 -1.41079 -4.38672 0
M  V30 522 H 51.6685 -1.12333 -4.00962 0
M  V30 523 H 54.2655 1.40994 -5.15776 0
M  V30 524 H 54.6085 2.10397 -3.5922 0
M  V30 525 H 55.1415 0.443985 -3.95315 0
M  V30 526 H 51.8805 -1.23254 -6.43808 0
M  V30 527 H 51.4005 0.418579 -5.98338 0
M  V30 528 H 53.0795 0.0766241 -6.46955 0
M  V30 529 N 53.2116 1.57565 -0.0334293 0
M  V30 530 C 54.4886 1.83282 0.683163 0
M  V30 531 C 54.8686 0.91823 1.90084 0
M  V30 532 O 54.2166 -0.025113 2.28486 0
M  V30 533 C 54.4266 3.32599 1.0573 0
M  V30 534 C 55.7746 3.99179 1.44711 0
M  V30 535 O 56.7986 3.3712 1.15015 0
M  V30 536 O 55.6576 5.08565 2.0006 0
M  V30 537 H 52.7516 0.755869 0.335546 0
M  V30 538 H 55.2976 1.69589 -0.0614402 0
M  V30 539 H 54.0696 3.90834 0.190828 0
M  V30 540 H 53.6926 3.51415 1.85993 0
M  V30 541 N 54.6897 -0.239769 1.55765 0
M  V30 542 C 55.6527 -1.28038 1.90103 0
M  V30 543 C 56.6527 -1.40723 0.778055 0
M  V30 544 O 57.8427 -1.39301 1.04599 0
M  V30 545 C 54.9747 -2.65702 2.13577 0
M  V30 546 H 56.1677 -0.988048 2.83157 0
M  V30 547 H 53.7207 -0.479382 1.48767 0
M  V30 548 H 54.4557 -3.00063 1.23015 0
M  V30 549 H 54.2407 -2.57875 2.95369 0
M  V30 550 H 55.7307 -3.40828 2.41301 0
M  V30 551 N 56.1678 -1.49265 -0.50573 0
M  V30 552 C 57.0978 -1.68495 -1.61653 0
M  V30 553 C 58.0788 -0.53366 -1.61512 0
M  V30 554 O 59.2638 -0.76897 -1.78327 0
M  V30 555 C 56.3938 -1.74709 -3.00157 0
M  V30 556 C 55.3478 -2.89581 -3.15162 0
M  V30 557 C 54.6738 -2.80903 -4.5497 0
M  V30 558 C 55.9738 -4.30578 -2.95634 0
M  V30 559 H 57.6678 -2.61493 -1.45814 0
M  V30 560 H 55.2138 -1.25838 -0.70005 0
M  V30 561 H 57.1668 -1.86748 -3.77761 0
M  V30 562 H 55.8908 -0.783067 -3.17074 0
M  V30 563 H 54.5498 -2.77136 -2.39982 0
M  V30 564 H 54.1978 -1.82419 -4.68756 0
M  V30 565 H 53.8978 -3.57999 -4.65951 0
M  V30 566 H 55.4218 -2.94944 -5.34641 0
M  V30 567 H 56.8358 -4.4373 -3.63011 0
M  V30 568 H 55.2328 -5.0886 -3.18091 0
M  V30 569 H 56.3028 -4.45352 -1.91806 0
M  V30 570 N 57.6459 0.756429 -1.3826 0
M  V30 571 C 58.8939 1.51248 -1.34047 0
M  V30 572 C 59.2149 1.94875 0.0698372 0
M  V30 573 O 58.4849 1.67436 1.01696 0
M  V30 574 H 57.0649 0.561018 -0.493222 0
M  V30 575 H 59.7269 0.899347 -1.7291 0
M  V30 576 H 58.8229 2.40472 -1.98947 0
M  V30 577 N 59.124 1.23083 0.984299 0
M  V30 578 C 60.352 1.08714 1.76037 0
M  V30 579 C 60.767 -0.361691 1.85303 0
M  V30 580 O 60.124 -1.25034 1.32939 0
M  V30 581 C 60.175 1.70206 3.18923 0
M  V30 582 O 59.896 3.09423 3.10144 0
M  V30 583 C 61.397 1.61227 4.12941 0
M  V30 584 H 58.617 0.380664 0.552572 0
M  V30 585 H 61.161 1.62853 1.23689 0
M  V30 586 H 59.316 1.20109 3.6831 0
M  V30 587 H 59.73 3.39188 4.00065 0
M  V30 588 H 61.204 2.08962 5.10919 0
M  V30 589 H 61.681 0.570375 4.35481 0
M  V30 590 H 62.287 2.10671 3.69456 0
M  V30 591 N 60.6021 -1.18246 1.0419 0
M  V30 592 C 61.5351 -2.20746 0.578474 0
M  V30 593 C 62.5131 -1.57912 -0.387624 0
M  V30 594 O 63.6971 -1.86071 -0.301634 0
M  V30 595 C 60.8241 -3.38346 -0.154762 0
M  V30 596 C 59.8701 -4.19587 0.764782 0
M  V30 597 S 60.7031 -4.86014 2.24835 0
M  V30 598 C 61.8591 -6.07012 1.526 0
M  V30 599 H 62.0921 -2.59715 1.44691 0
M  V30 600 H 59.6251 -1.287 0.85297 0
M  V30 601 H 61.5831 -4.065 -0.571641 0
M  V30 602 H 60.2441 -2.97786 -0.999105 0
M  V30 603 H 59.4371 -5.03611 0.197976 0
M  V30 604 H 59.0391 -3.56818 1.12057 0
M  V30 605 H 61.3311 -6.72523 0.819733 0
M  V30 606 H 62.2741 -6.68202 2.34333 0
M  V30 607 H 62.6821 -5.55249 1.01779 0
M  V30 608 N 62.0802 -0.821533 -1.34494 0
M  V30 609 C 63.0272 -0.240397 -2.29545 0
M  V30 610 C 63.9972 0.634031 -1.53523 0
M  V30 611 O 65.1822 0.575966 -1.81899 0
M  V30 612 C 62.3222 0.592869 -3.39969 0
M  V30 613 C 61.4352 -0.30365 -4.30932 0
M  V30 614 C 60.5702 0.539049 -5.28458 0
M  V30 615 C 59.6092 -0.356942 -6.11058 0
M  V30 616 N 58.7462 0.446603 -7.00678 0
M  V30 617 H 63.5862 -1.05632 -2.7865 0
M  V30 618 H 61.1232 -0.532413 -1.37127 0
M  V30 619 H 63.0812 1.09129 -4.02675 0
M  V30 620 H 61.7112 1.37392 -2.92102 0
M  V30 621 H 60.7632 -0.920276 -3.691 0
M  V30 622 H 62.0752 -0.992661 -4.88823 0
M  V30 623 H 61.2292 1.102 -5.96608 0
M  V30 624 H 59.9682 1.26157 -4.71101 0
M  V30 625 H 58.9732 -0.932047 -5.41842 0
M  V30 626 H 60.1982 -1.07755 -6.70497 0
M  V30 627 H 58.1442 1.15282 -6.45791 0
M  V30 628 H 58.0612 -0.184048 -7.55776 0
M  V30 629 H 59.3292 0.992352 -7.73158 0
M  V30 630 N 63.5583 1.46682 -0.576371 0
M  V30 631 C 64.8063 2.02013 -0.0594163 0
M  V30 632 C 65.1273 1.45101 1.30271 0
M  V30 633 O 64.3973 0.633317 1.8538 0
M  V30 634 H 62.9773 0.746759 -0.0189745 0
M  V30 635 H 65.6393 1.79862 -0.750717 0
M  V30 636 H 64.7353 3.12097 0.014345 0
M  V30 637 N 65.0364 0.313813 1.54444 0
M  V30 638 C 65.9684 -0.590425 2.21465 0
M  V30 639 C 66.9814 -1.08753 1.21147 0
M  V30 640 O 68.1704 -1.00278 1.4767 0
M  V30 641 C 65.2704 -1.82179 2.85769 0
M  V30 642 C 64.4434 -1.46502 4.12136 0
M  V30 643 C 63.5024 -2.55288 4.60124 0
M  V30 644 O 62.5284 -2.19842 5.25032 0
M  V30 645 N 63.7304 -3.86053 4.33525 0
M  V30 646 H 66.4954 -0.0166033 2.99695 0
M  V30 647 H 64.0564 0.136578 1.61323 0
M  V30 648 H 66.0484 -2.54328 3.14801 0
M  V30 649 H 64.6184 -2.30369 2.11303 0
M  V30 650 H 63.8384 -0.575595 3.89975 0
M  V30 651 H 65.1264 -1.20221 4.94393 0
M  V30 652 H 64.5244 -4.17654 3.81552 0
M  V30 653 H 63.0814 -4.54461 4.67235 0
M  V30 654 N 66.5145 -1.57545 0.0417849 0
M  V30 655 C 67.7635 -1.91494 -0.633492 0
M  V30 656 C 68.0765 -0.921084 -1.72556 0
M  V30 657 O 69.2825 -1.15228 -2.45835 0
M  V30 658 C 67.7385 -3.40072 -1.17808 0
M  V30 659 C 67.3465 -4.47843 -0.118633 0
M  V30 660 C 69.0905 -3.8307 -1.82915 0
M  V30 661 C 66.9975 -5.87529 -0.675578 0
M  V30 662 H 65.9275 -0.714653 -0.24039 0
M  V30 663 H 68.5785 -1.83175 0.109148 0
M  V30 664 H 66.9605 -3.43364 -1.97274 0
M  V30 665 H 68.1345 -4.56128 0.654494 0
M  V30 666 H 66.4495 -4.14128 0.434414 0
M  V30 667 H 69.0465 -4.84794 -2.25563 0
M  V30 668 H 69.3895 -3.1881 -2.67705 0
M  V30 669 H 69.9225 -3.82255 -1.10119 0
M  V30 670 H 66.6615 -6.55362 0.134475 0
M  V30 671 H 66.1815 -5.82824 -1.4169 0
M  V30 672 H 67.8605 -6.36491 -1.1614 0
M  V30 673 N 67.9926 0.231505 -1.5589 0
M  V30 674 C 68.9026 1.308 -1.94752 0
M  V30 675 C 69.9186 1.51826 -0.849989 0
M  V30 676 O 71.0946 1.6515 -1.15271 0
M  V30 677 C 68.1596 2.63968 -2.24771 0
M  V30 678 C 67.2206 2.51331 -3.48039 0
M  V30 679 C 66.4536 3.78148 -3.76616 0
M  V30 680 O 66.6766 4.80722 -3.07022 0
M  V30 681 O 65.6106 3.75857 -4.70123 0
M  V30 682 H 69.4366 1.0083 -2.86474 0
M  V30 683 H 67.0216 0.433547 -1.42971 0
M  V30 684 H 68.9036 3.42633 -2.45318 0
M  V30 685 H 67.5786 2.9364 -1.36225 0
M  V30 686 H 66.4856 1.709 -3.32782 0
M  V30 687 H 67.8186 2.26601 -4.36936 0
M  V30 688 N 69.4707 1.49531 0.497807 0
M  V30 689 C 70.7187 1.58865 1.24926 0
M  V30 690 C 71.0397 0.278721 1.92998 0
M  V30 691 O 70.3097 -0.702144 1.82885 0
M  V30 692 H 68.8897 0.585343 0.464094 0
M  V30 693 H 71.5517 1.86174 0.57666 0
M  V30 694 H 70.6477 2.38633 2.01149 0
M  V30 695 N 70.9488 -0.749086 1.3866 0
M  V30 696 C 71.9118 -1.84457 1.36045 0
M  V30 697 C 72.9118 -1.58682 0.260122 0
M  V30 698 O 74.1018 -1.66343 0.517261 0
M  V30 699 C 71.2338 -3.22008 1.11911 0
M  V30 700 H 72.4268 -1.88182 2.33512 0
M  V30 701 H 69.9798 -0.951266 1.24019 0
M  V30 702 H 70.7148 -3.2395 0.150686 0
M  V30 703 H 70.4998 -3.42111 1.91579 0
M  V30 704 H 71.9898 -4.0208 1.12788 0
M  V30 705 N 72.4269 -1.23603 -0.977757 0
M  V30 706 C 73.6729 -1.07129 -1.72195 0
M  V30 707 C 74.0059 0.390501 -1.90233 0
M  V30 708 O 73.2809 1.28902 -1.45653 0
M  V30 709 C 73.5639 -1.80031 -3.11867 0
M  V30 710 C 73.4169 -3.33899 -3.01383 0
M  V30 711 C 74.7359 -1.56492 -4.11337 0
M  V30 712 H 71.8549 -0.390571 -0.624999 0
M  V30 713 H 74.4969 -1.52142 -1.13811 0
M  V30 714 H 72.6469 -1.41768 -3.6171 0
M  V30 715 H 74.3189 -3.81699 -2.59043 0
M  V30 716 H 72.5619 -3.62796 -2.37827 0
M  V30 717 H 73.2329 -3.801 -4.00285 0
M  V30 718 H 75.7089 -1.89757 -3.70313 0
M  V30 719 H 74.5849 -2.09973 -5.07151 0
M  V30 720 H 74.8459 -0.500874 -4.39254 0
M  V30 721 N 73.905 1.17692 -1.04816 0
M  V30 722 C 75.13 1.92327 -0.776207 0
M  V30 723 C 75.555 1.76082 0.661581 0
M  V30 724 O 74.913 1.076 1.45917 0
M  V30 725 C 74.961 3.41539 -1.15687 0
M  V30 726 O 74.065 4.11402 -0.286775 0
M  V30 727 H 73.406 0.599735 -0.284981 0
M  V30 728 H 75.936 1.49201 -1.4 0
M  V30 729 H 75.946 3.92269 -1.12202 0
M  V30 730 H 74.621 3.52684 -2.20425 0
M  V30 731 H 73.198 3.70939 -0.381903 0
M  V30 732 N 75.3831 0.828654 1.34056 0
M  V30 733 C 76.6081 0.431637 2.02859 0
M  V30 734 C 77.0331 -0.956339 1.61975 0
M  V30 735 O 76.3911 -1.62338 0.807228 0
M  V30 736 C 76.4391 0.548323 3.56407 0
M  V30 737 O 75.5431 -0.429556 4.10157 0
M  V30 738 H 74.8841 0.176886 0.640006 0
M  V30 739 H 77.4141 1.12066 1.71179 0
M  V30 740 H 77.4241 0.426196 4.05768 0
M  V30 741 H 76.0991 1.5606 3.8551 0
M  V30 742 H 74.6761 -0.265836 3.71951 0
M  V30 743 N 76.8612 -1.46375 0.584142 0
M  V30 744 C 78.0862 -2.07268 0.0740405 0
M  V30 745 C 78.5112 -1.42979 -1.22223 0
M  V30 746 O 77.8692 -0.514092 -1.73859 0
M  V30 747 C 77.9172 -3.60518 -0.0767769 0
M  V30 748 O 77.0212 -3.96533 -1.13292 0
M  V30 749 H 76.3622 -0.660961 0.0634524 0
M  V30 750 H 78.8922 -1.87991 0.807492 0
M  V30 751 H 78.9022 -4.07021 -0.282489 0
M  V30 752 H 77.5772 -4.06702 0.86986 0
M  V30 753 H 76.1542 -3.61738 -0.905553 0
M  V30 754 N 78.3393 -0.321999 -1.54275 0
M  V30 755 C 79.6163 0.335232 -1.92706 0
M  V30 756 C 79.9963 1.70006 -1.25145 0
M  V30 757 O 79.3443 2.25067 -0.394596 0
M  V30 758 C 79.5543 0.429008 -3.46353 0
M  V30 759 C 80.9023 0.690029 -4.18956 0
M  V30 760 O 81.9263 0.511992 -3.52501 0
M  V30 761 O 80.7853 1.03338 -5.36641 0
M  V30 762 H 77.8793 0.191143 -0.804608 0
M  V30 763 H 80.4253 -0.3716 -1.65581 0
M  V30 764 H 79.1973 -0.529611 -3.87699 0
M  V30 765 H 78.8203 1.18348 -3.79578 0
M  V30 766 N 79.8174 1.5752 -0.0501392 0
M  V30 767 C 80.7804 2.1037 0.909786 0
M  V30 768 C 81.7804 1.02308 1.24056 0
M  V30 769 O 82.9704 1.28385 1.17741 0
M  V30 770 C 80.1024 2.58708 2.21998 0
M  V30 771 H 81.2954 2.96479 0.451665 0
M  V30 772 H 78.8484 1.55038 0.198248 0
M  V30 773 H 79.5834 1.75989 2.72394 0
M  V30 774 H 79.3684 3.37675 1.99295 0
M  V30 775 H 80.8584 2.99747 2.9076 0
M  V30 776 N 81.2955 -0.223234 1.56011 0
M  V30 777 C 82.5205 -0.968978 1.83373 0
M  V30 778 C 82.9455 -1.77227 0.630254 0
M  V30 779 O 82.3035 -1.76345 -0.420959 0
M  V30 780 C 82.3515 -1.86363 3.08709 0
M  V30 781 O 81.4555 -2.95873 2.87285 0
M  V30 782 H 80.7965 -0.274461 0.604622 0
M  V30 783 H 83.3265 -0.237056 2.03222 0
M  V30 784 H 83.3365 -2.27376 3.38768 0
M  V30 785 H 82.0115 -1.27319 3.95933 0
M  V30 786 H 80.5885 -2.58818 2.68454 0
M  V30 787 N 82.7736 -1.49793 -0.48987 0
M  V30 788 C 84.0016 -1.63568 -1.26701 0
M  V30 789 C 84.4166 -0.311465 -1.86213 0
M  V30 790 O 83.7736 0.704416 -1.68357 0
M  V30 791 C 83.8246 -2.71284 -2.38929 0
M  V30 792 O 83.5456 -3.9857 -1.81861 0
M  V30 793 C 85.0466 -2.95864 -3.3012 0
M  V30 794 H 82.2666 -0.550342 -0.383881 0
M  V30 795 H 84.8106 -1.95898 -0.586864 0
M  V30 796 H 82.9656 -2.417 -3.02753 0
M  V30 797 H 83.3796 -4.57993 -2.55622 0
M  V30 798 H 84.8536 -3.74941 -4.05121 0
M  V30 799 H 85.3306 -2.06206 -3.87783 0
M  V30 800 H 85.9366 -3.26907 -2.72051 0
M  V30 801 N 84.2517 0.741722 -1.39055 0
M  V30 802 C 85.1617 1.88621 -1.39496 0
M  V30 803 C 86.1777 1.71557 -0.290578 0
M  V30 804 O 87.3537 1.94275 -0.530954 0
M  V30 805 C 84.4187 3.24134 -1.23037 0
M  V30 806 C 83.4797 3.5364 -2.43387 0
M  V30 807 C 82.7127 4.82687 -2.27703 0
M  V30 808 O 82.9357 5.55922 -1.27696 0
M  V30 809 O 81.8697 5.1194 -3.16545 0
M  V30 810 H 85.6957 1.91203 -2.35956 0
M  V30 811 H 83.2807 0.888625 -1.20099 0
M  V30 812 H 85.1627 4.0513 -1.15964 0
M  V30 813 H 83.8377 3.22337 -0.296691 0
M  V30 814 H 82.7447 2.72758 -2.56035 0
M  V30 815 H 84.0777 3.60209 -3.35425 0
M  V30 816 N 85.7298 1.2412 0.971189 0
M  V30 817 C 86.6768 1.0305 2.06517 0
M  V30 818 C 87.6468 -0.0550666 1.66009 0
M  V30 819 O 88.8318 0.0988688 1.90544 0
M  V30 820 C 85.9718 0.637653 3.39158 0
M  V30 821 C 85.0848 1.79633 3.92882 0
M  V30 822 C 84.2198 1.34939 5.13775 0
M  V30 823 C 83.2588 2.47823 5.59687 0
M  V30 824 N 82.3958 2.04022 6.71803 0
M  V30 825 H 87.2358 1.96685 2.23873 0
M  V30 826 H 84.7728 0.979694 1.09729 0
M  V30 827 H 86.7308 0.390931 4.15364 0
M  V30 828 H 85.3608 -0.261693 3.21737 0
M  V30 829 H 84.4128 2.15681 3.13346 0
M  V30 830 H 85.7248 2.64466 4.22918 0
M  V30 831 H 84.8788 1.06134 5.97345 0
M  V30 832 H 83.6178 0.471557 4.85415 0
M  V30 833 H 82.6228 2.77392 4.74693 0
M  V30 834 H 83.8478 3.36158 5.90063 0
M  V30 835 H 81.7938 1.18632 6.45184 0
M  V30 836 H 81.7108 2.82409 7.01271 0
M  V30 837 H 82.9788 1.78347 7.58823 0
M  V30 838 N 87.2079 -1.17134 1.05439 0
M  V30 839 C 88.1379 -2.2342 0.678649 0
M  V30 840 C 89.1189 -1.66971 -0.32476 0
M  V30 841 O 90.3039 -1.93149 -0.201802 0
M  V30 842 C 87.4339 -3.47256 0.0552099 0
M  V30 843 C 86.3879 -4.16543 0.98365 0
M  V30 844 C 85.7139 -5.34231 0.223961 0
M  V30 845 C 87.0139 -4.68495 2.3089 0
M  V30 846 H 88.7079 -2.55105 1.56722 0
M  V30 847 H 86.2539 -1.2262 0.754998 0
M  V30 848 H 88.2069 -4.20828 -0.21946 0
M  V30 849 H 86.9309 -3.14846 -0.868319 0
M  V30 850 H 85.5899 -3.44887 1.24293 0
M  V30 851 H 85.2379 -4.98071 -0.702412 0
M  V30 852 H 84.9379 -5.81527 0.842627 0
M  V30 853 H 86.4619 -6.10585 -0.0433671 0
M  V30 854 H 87.8759 -5.33691 2.09396 0
M  V30 855 H 86.2729 -5.26379 2.88176 0
M  V30 856 H 87.3429 -3.85169 2.94572 0
M  V30 857 N 88.686 -0.835752 -1.33615 0
M  V30 858 C 89.633 -0.26473 -2.29277 0
M  V30 859 C 90.603 0.617712 -1.54187 0
M  V30 860 O 91.788 0.556641 -1.825 0
M  V30 861 C 88.928 0.556777 -3.40579 0
M  V30 862 C 88.041 -0.349339 -4.30585 0
M  V30 863 C 87.176 0.482969 -5.29 0
M  V30 864 C 86.215 -0.421732 -6.10645 0
M  V30 865 N 85.352 0.372262 -7.01112 0
M  V30 866 H 90.192 -1.08582 -2.77514 0
M  V30 867 H 87.729 -0.546927 -1.36554 0
M  V30 868 H 89.687 1.04852 -4.03809 0
M  V30 869 H 88.317 1.34286 -2.93542 0
M  V30 870 H 87.369 -0.959372 -3.68104 0
M  V30 871 H 88.681 -1.04445 -4.87742 0
M  V30 872 H 87.835 1.03866 -5.97743 0
M  V30 873 H 86.574 1.21153 -4.72412 0
M  V30 874 H 85.579 -0.989464 -5.40823 0
M  V30 875 H 86.804 -1.14861 -6.69316 0
M  V30 876 H 84.75 1.08426 -6.46977 0
M  V30 877 H 84.667 -0.264198 -7.55538 0
M  V30 878 H 85.935 0.910293 -7.74167 0
M  V30 879 N 90.1641 1.46063 -0.591896 0
M  V30 880 C 91.3891 2.07226 -0.0850314 0
M  V30 881 C 91.8141 1.43625 1.21463 0
M  V30 882 O 91.1721 0.523305 1.73583 0
M  V30 883 C 91.2201 3.60554 0.0576567 0
M  V30 884 O 90.3241 3.97128 1.11188 0
M  V30 885 H 89.6651 0.660615 -0.0669568 0
M  V30 886 H 92.1951 1.8756 -0.81745 0
M  V30 887 H 92.2051 4.07165 0.2609 0
M  V30 888 H 90.8801 4.06235 -0.891416 0
M  V30 889 H 89.4571 3.62213 0.886356 0
M  V30 890 N 91.6422 0.330177 1.54103 0
M  V30 891 C 92.5722 -0.525353 2.27513 0
M  V30 892 C 93.5532 -1.11383 1.2856 0
M  V30 893 O 94.7382 -1.13773 1.57383 0
M  V30 894 C 91.8682 -1.6831 3.03791 0
M  V30 895 C 90.8222 -1.2236 4.10137 0
M  V30 896 C 90.1482 -2.46882 4.74293 0
M  V30 897 C 91.4482 -0.333697 5.21233 0
M  V30 898 H 93.1422 0.087013 2.99274 0
M  V30 899 H 90.6882 0.0432893 1.43935 0
M  V30 900 H 92.6412 -2.28795 3.5388 0
M  V30 901 H 91.3652 -2.32216 2.29659 0
M  V30 902 H 90.0242 -0.64165 3.60941 0
M  V30 903 H 89.6722 -3.09165 3.96769 0
M  V30 904 H 89.3722 -2.16825 5.46133 0
M  V30 905 H 90.8962 -3.08117 5.27159 0
M  V30 906 H 92.3102 -0.845013 5.67038 0
M  V30 907 H 90.7072 -0.125612 5.99969 0
M  V30 908 H 91.7772 0.633724 4.80741 0
M  V30 909 N 93.1203 -1.57491 0.0584922 0
M  V30 910 C 94.3683 -1.92597 -0.612436 0
M  V30 911 C 94.6893 -0.938162 -1.70949 0
M  V30 912 O 93.9593 0.0158301 -1.95894 0
M  V30 913 H 92.5393 -0.710964 -0.229214 0
M  V30 914 H 95.2013 -1.94571 0.113218 0
M  V30 915 H 94.2973 -2.94038 -1.04633 0
M  V30 916 N 94.5984 0.214957 -1.56127 0
M  V30 917 C 95.8474 0.936451 -1.78643 0
M  V30 918 C 96.1604 1.85237 -0.628229 0
M  V30 919 O 97.3664 2.613 -0.737186 0
M  V30 920 C 95.8224 1.7154 -3.16389 0
M  V30 921 C 95.4304 0.845299 -4.39953 0
M  V30 922 C 97.1744 2.42772 -3.48227 0
M  V30 923 C 95.0814 1.62198 -5.68723 0
M  V30 924 H 94.0114 0.353401 -0.666051 0
M  V30 925 H 96.6624 0.190169 -1.82512 0
M  V30 926 H 95.0444 2.50484 -3.06715 0
M  V30 927 H 96.2184 0.0959353 -4.607 0
M  V30 928 H 94.5334 0.244789 -4.1568 0
M  V30 929 H 97.1304 3.01394 -4.41663 0
M  V30 930 H 97.4734 3.15984 -2.71035 0
M  V30 931 H 98.0064 1.70813 -3.5926 0
M  V30 932 H 94.7454 0.933011 -6.48826 0
M  V30 933 H 94.2654 2.34579 -5.52026 0
M  V30 934 H 95.9444 2.18095 -6.09133 0
M  V30 935 N 96.0765 1.50051 0.48192 0
M  V30 936 C 97.0265 1.64512 1.5786 0
M  V30 937 C 98.0105 0.500073 1.52932 0
M  V30 938 O 99.2025 0.753964 1.60139 0
M  V30 939 C 96.3315 1.73263 2.9637 0
M  V30 940 C 95.4175 2.93409 3.06222 0
M  V30 941 N 95.8085 4.17236 2.85915 0
M  V30 942 C 94.1065 2.91742 3.37346 0
M  V30 943 C 94.8075 4.981 3.00451 0
M  V30 944 N 93.7835 4.3184 3.30174 0
M  V30 945 H 97.5855 2.57955 1.40842 0
M  V30 946 H 95.0995 1.47086 0.688439 0
M  V30 947 H 97.0965 1.81724 3.75209 0
M  V30 948 H 95.7565 0.809711 3.14442 0
M  V30 949 H 96.7675 4.46909 2.6171 0
M  V30 950 H 93.4445 2.08907 3.61475 0
M  V30 951 H 94.8345 6.06532 2.89082 0
M  V30 952 N 97.5546 -0.734337 1.39446 0
M  V30 953 C 98.8006 -1.49613 1.36908 0
M  V30 954 C 99.1336 -1.94169 -0.0347829 0
M  V30 955 O 98.4086 -1.66833 -0.999847 0
M  V30 956 C 98.6916 -2.73534 2.34203 0
M  V30 957 C 98.5446 -2.34993 3.83534 0
M  V30 958 C 99.8636 -3.75635 2.29317 0
M  V30 959 H 96.9826 -0.542714 0.498629 0
M  V30 960 H 99.6246 -0.839597 1.70443 0
M  V30 961 H 97.7746 -3.29553 2.05736 0
M  V30 962 H 99.4466 -1.84601 4.22753 0
M  V30 963 H 97.6896 -1.67213 4.00278 0
M  V30 964 H 98.3606 -3.23738 4.47099 0
M  V30 965 H 100.837 -3.29203 2.54489 0
M  V30 966 H 99.7126 -4.60008 2.99472 0
M  V30 967 H 99.9736 -4.22603 1.29842 0
M  V30 968 N 99.0327 -1.24633 -0.964593 0
M  V30 969 C 100.28 -1.08788 -1.70796 0
M  V30 970 C 100.608 0.372783 -1.90894 0
M  V30 971 O 99.8627 1.29167 -1.47018 0
M  V30 972 C 100.162 -1.7763 -3.10133 0
M  V30 973 C 99.8277 -3.27557 -3.09866 0
M  V30 974 C 98.4897 -3.6846 -3.09501 0
M  V30 975 C 100.842 -4.23389 -3.03959 0
M  V30 976 C 98.1697 -5.03624 -3.00965 0
M  V30 977 C 100.522 -5.58565 -2.96965 0
M  V30 978 C 99.1857 -5.98809 -2.9493 0
M  V30 979 H 98.4557 -0.398084 -0.624988 0
M  V30 980 H 101.103 -1.54777 -1.12767 0
M  V30 981 H 99.4077 -1.24044 -3.71645 0
M  V30 982 H 101.105 -1.62832 -3.66451 0
M  V30 983 H 97.6947 -2.95006 -3.10917 0
M  V30 984 H 101.879 -3.92787 -3.03368 0
M  V30 985 H 97.1347 -5.33998 -2.97752 0
M  V30 986 H 101.309 -6.32523 -2.91354 0
M  V30 987 H 98.9357 -7.03505 -2.88071 0
M  V30 988 N 100.511 1.16574 -1.06058 0
M  V30 989 C 101.788 1.83048 -0.689416 0
M  V30 990 C 102.168 1.94122 0.829443 0
M  V30 991 O 101.516 1.48249 1.7388 0
M  V30 992 C 101.726 3.20186 -1.38859 0
M  V30 993 C 103.074 3.95989 -1.53226 0
M  V30 994 O 104.098 3.29696 -1.3483 0
M  V30 995 O 102.957 5.14813 -1.83384 0
M  V30 996 H 100.051 0.790258 -0.243764 0
M  V30 997 H 102.597 1.23797 -1.16071 0
M  V30 998 H 101.369 3.07146 -2.4244 0
M  V30 999 H 100.992 3.87112 -0.907216 0
M  V30 1000 N 101.989 0.842826 1.3317 0
M  V30 1001 C 102.919 0.294028 2.31641 0
M  V30 1002 C 103.9 -0.600401 1.59151 0
M  V30 1003 O 105.085 -0.523124 1.87022 0
M  V30 1004 C 102.215 -0.528416 3.43257 0
M  V30 1005 C 101.169 0.27056 4.27144 0
M  V30 1006 C 100.495 -0.675881 5.30411 0
M  V30 1007 C 101.795 1.48981 5.00602 0
M  V30 1008 H 103.489 1.11681 2.77791 0
M  V30 1009 H 101.035 0.538478 1.33553 0
M  V30 1010 H 102.988 -0.922674 4.11175 0
M  V30 1011 H 101.712 -1.38445 2.95805 0
M  V30 1012 H 100.371 0.646427 3.60856 0
M  V30 1013 H 100.019 -1.52842 4.79216 0
M  V30 1014 H 99.7189 -0.145374 5.8742 0
M  V30 1015 H 101.243 -1.06757 6.01195 0
M  V30 1016 H 102.657 1.16849 5.61266 0
M  V30 1017 H 101.054 1.95739 5.6728 0
M  V30 1018 H 102.124 2.25746 4.29147 0
M  V30 1019 N 103.467 -1.45747 0.599634 0
M  V30 1020 C 104.415 -2.322 -0.136426 0
M  V30 1021 C 105.409 -1.45497 -0.867583 0
M  V30 1022 O 106.615 -1.62027 -0.78405 0
M  V30 1023 H 102.99 -0.749368 -0.0628588 0
M  V30 1024 H 104.961 -2.92072 0.611281 0
M  V30 1025 C 103.71 -3.28974 -1.12567 0
M  V30 1026 H 103.033 -3.9568 -0.572484 0
M  V30 1027 H 104.473 -3.92212 -1.61077 0
M  V30 1028 C 102.932 -2.55561 -2.19523 0
M  V30 1029 O 103.462 -2.33111 -3.27143 0
M  V30 1030 N 101.668 -2.15832 -1.94589 0
M  V30 1031 H 101.215 -2.3429 -1.07078 0
M  V30 1032 H 101.173 -1.67034 -2.66359 0
M  V30 1033 N 104.945 -0.338344 -1.53925 0
M  V30 1034 C 105.855 0.529421 -2.28548 0
M  V30 1035 C 106.871 1.11645 -1.3346 0
M  V30 1036 O 108.047 1.13325 -1.66492 0
M  V30 1037 C 105.112 1.66713 -3.03987 0
M  V30 1038 C 104.173 1.11041 -4.14691 0
M  V30 1039 C 103.406 2.19389 -4.86522 0
M  V30 1040 O 103.629 3.40013 -4.57982 0
M  V30 1041 O 102.563 1.83976 -5.73094 0
M  V30 1042 H 106.389 -0.0770399 -3.03602 0
M  V30 1043 H 103.974 -0.103555 -1.49041 0
M  V30 1044 H 105.856 2.32918 -3.5118 0
M  V30 1045 H 104.531 2.25949 -2.31794 0
M  V30 1046 H 103.438 0.413024 -3.71813 0
M  V30 1047 H 104.771 0.562975 -4.8897 0
M  V30 1048 N 106.423 1.57458 -0.0668435 0
M  V30 1049 C 107.669 1.93587 0.6043 0
M  V30 1050 C 108.002 0.946722 1.69561 0
M  V30 1051 O 107.277 -0.0248516 1.94484 0
M  V30 1052 C 107.56 3.40014 1.18585 0
M  V30 1053 C 107.413 4.49685 0.101529 0
M  V30 1054 C 108.732 3.87154 2.09284 0
M  V30 1055 H 105.851 0.703958 0.218202 0
M  V30 1056 H 108.493 1.89542 -0.131804 0
M  V30 1057 H 106.643 3.43592 1.81319 0
M  V30 1058 H 108.315 4.5823 -0.531279 0
M  V30 1059 H 106.558 4.30059 -0.568487 0
M  V30 1060 H 107.229 5.49266 0.54874 0
M  V30 1061 H 109.705 3.85551 1.56491 0
M  V30 1062 H 108.581 4.90231 2.46911 0
M  V30 1063 H 108.842 3.2481 2.99918 0
M  V30 1064 N 107.901 -0.206675 1.56239 0
M  V30 1065 C 109.178 -0.954051 1.70755 0
M  V30 1066 C 109.558 -2.01841 0.618353 0
M  V30 1067 O 108.906 -2.25444 -0.372434 0
M  V30 1068 C 109.116 -1.551 3.12642 0
M  V30 1069 C 110.464 -2.03757 3.72516 0
M  V30 1070 O 111.488 -1.64965 3.15698 0
M  V30 1071 O 110.347 -2.75103 4.72208 0
M  V30 1072 H 107.441 -0.446636 0.696021 0
M  V30 1073 H 109.987 -0.197283 1.68549 0
M  V30 1074 H 108.759 -0.783212 3.83382 0
M  V30 1075 H 108.382 -2.37291 3.19028 0
M  V30 1076 N 109.379 -1.50304 -0.473955 0
M  V30 1077 C 110.604 -1.65175 -1.25427 0
M  V30 1078 C 111.029 -0.333673 -1.85117 0
M  V30 1079 O 110.387 0.702114 -1.67153 0
M  V30 1080 C 110.435 -2.74295 -2.34082 0
M  V30 1081 O 109.539 -2.35349 -3.38651 0
M  V30 1082 H 108.88 -0.551944 -0.369126 0
M  V30 1083 H 111.41 -1.96662 -0.564364 0
M  V30 1084 H 111.42 -2.97285 -2.79438 0
M  V30 1085 H 110.095 -3.69959 -1.90008 0
M  V30 1086 H 108.672 -2.22794 -2.99027 0
M  V30 1087 N 110.857 0.726932 -1.39834 0
M  V30 1088 C 111.787 1.85405 -1.41941 0
M  V30 1089 C 112.768 1.67751 -0.281728 0
M  V30 1090 O 113.953 1.8795 -0.488717 0
M  V30 1091 C 111.083 3.23243 -1.2701 0
M  V30 1092 C 110.037 3.55549 -2.38262 0
M  V30 1093 C 109.363 4.9241 -2.08415 0
M  V30 1094 C 110.663 3.577 -3.80589 0
M  V30 1095 H 112.357 1.83899 -2.36266 0
M  V30 1096 H 109.903 0.883349 -1.13723 0
M  V30 1097 H 111.856 4.01775 -1.27103 0
M  V30 1098 H 110.58 3.25296 -0.291564 0
M  V30 1099 H 109.239 2.79351 -2.37399 0
M  V30 1100 H 108.887 4.91052 -1.0898 0
M  V30 1101 H 108.587 5.14992 -2.82943 0
M  V30 1102 H 110.111 5.73289 -2.10171 0
M  V30 1103 H 111.525 4.26293 -3.83337 0
M  V30 1104 H 109.922 3.91804 -4.54543 0
M  V30 1105 H 110.992 2.57328 -4.10987 0
M  V30 1106 N 112.336 1.25143 0.95797 0
M  V30 1107 C 113.584 1.09476 1.69881 0
M  V30 1108 C 113.905 -0.365502 1.91544 0
M  V30 1109 O 113.175 -1.25985 1.50015 0
M  V30 1110 H 111.755 0.402128 0.629525 0
M  V30 1111 H 114.417 1.57214 1.15194 0
M  V30 1112 H 113.513 1.60046 2.6794 0
M  V30 1113 N 113.814 -1.1601 1.06675 0
M  V30 1114 C 115.063 -1.85973 0.780818 0
M  V30 1115 C 115.376 -1.82819 -0.695444 0
M  V30 1116 O 116.582 -2.484 -1.09589 0
M  V30 1117 C 115.038 -3.33757 1.34665 0
M  V30 1118 C 114.646 -3.45374 2.85343 0
M  V30 1119 C 116.39 -4.0895 1.13843 0
M  V30 1120 C 114.297 -4.87266 3.35151 0
M  V30 1121 H 113.227 -0.696661 0.288407 0
M  V30 1122 H 115.878 -1.30903 1.28595 0
M  V30 1123 H 114.26 -3.88456 0.769274 0
M  V30 1124 H 115.434 -3.00816 3.49065 0
M  V30 1125 H 113.749 -2.83619 3.04876 0
M  V30 1126 H 116.346 -5.13654 1.4854 0
M  V30 1127 H 116.689 -4.16229 0.0770282 0
M  V30 1128 H 117.222 -3.605 1.68179 0
M  V30 1129 H 113.961 -4.85168 4.40786 0
M  V30 1130 H 113.481 -5.32433 2.76179 0
M  V30 1131 H 115.16 -5.56097 3.30704 0
M  V30 1132 N 115.292 -0.849877 -1.32721 0
M  V30 1133 C 116.522 -0.46408 -2.0132 0
M  V30 1134 C 116.93 0.94246 -1.64056 0
M  V30 1135 O 116.273 1.6257 -0.855379 0
M  V30 1136 C 116.335 -0.517887 -3.5575 0
M  V30 1137 C 115.999 -1.88248 -4.16427 0
M  V30 1138 C 116.996 -2.84726 -4.35002 0
M  V30 1139 C 114.681 -2.17832 -4.52609 0
M  V30 1140 C 116.675 -4.08945 -4.8892 0
M  V30 1141 C 114.362 -3.42304 -5.06232 0
M  V30 1142 C 115.36 -4.37677 -5.24335 0
M  V30 1143 O 115.048 -5.59946 -5.76815 0
M  V30 1144 H 114.78 -0.181327 -0.651227 0
M  V30 1145 H 117.334 -1.14713 -1.70382 0
M  V30 1146 H 115.564 0.221997 -3.86062 0
M  V30 1147 H 117.253 -0.148366 -4.05629 0
M  V30 1148 H 118.019 -2.63174 -4.07388 0
M  V30 1149 H 113.898 -1.44385 -4.37806 0
M  V30 1150 H 117.442 -4.83396 -5.02966 0
M  V30 1151 H 113.339 -3.63709 -5.33278 0
M  V30 1152 H 114.107 -5.61838 -5.95214 0
M  V30 1153 N 116.77 1.45427 -0.607355 0
M  V30 1154 C 118.016 2.0254 -0.102607 0
M  V30 1155 C 118.349 1.47478 1.26348 0
M  V30 1156 O 117.624 0.64939 1.83339 0
M  V30 1157 C 117.907 3.60044 -0.0634347 0
M  V30 1158 C 117.76 4.2544 -1.46017 0
M  V30 1159 C 119.079 4.35646 0.624514 0
M  V30 1160 H 116.198 0.73598 -0.0387607 0
M  V30 1161 H 118.84 1.73284 -0.779282 0
M  V30 1162 H 116.99 3.85101 0.512808 0
M  V30 1163 H 118.662 4.11569 -2.08347 0
M  V30 1164 H 116.905 3.83849 -2.02094 0
M  V30 1165 H 117.576 5.34342 -1.385 0
M  V30 1166 H 120.052 4.15882 0.134723 0
M  V30 1167 H 118.928 5.45376 0.621028 0
M  V30 1168 H 119.189 4.08501 1.69055 0
M  V30 1169 N 118.248 0.346503 1.53744 0
M  V30 1170 C 119.525 -0.304532 1.93215 0
M  V30 1171 C 119.905 -1.67993 1.27834 0
M  V30 1172 O 119.253 -2.24411 0.430352 0
M  V30 1173 C 119.463 -0.373852 3.46992 0
M  V30 1174 C 120.811 -0.62329 4.2 0
M  V30 1175 O 121.835 -0.455847 3.53271 0
M  V30 1176 O 120.694 -0.947879 5.38217 0
M  V30 1177 H 117.788 -0.178318 0.807547 0
M  V30 1178 H 120.334 0.397895 1.64969 0
M  V30 1179 H 119.106 0.591224 3.86808 0
M  V30 1180 H 118.729 -1.12294 3.81413 0
M  V30 1181 N 119.726 -1.57421 0.075193 0
M  V30 1182 C 120.974 -1.93236 -0.591974 0
M  V30 1183 C 121.295 -0.956241 -1.69944 0
M  V30 1184 O 120.565 -0.00494792 -1.95899 0
M  V30 1185 H 119.145 -0.713355 -0.22166 0
M  V30 1186 H 121.807 -1.9444 0.133848 0
M  V30 1187 H 120.903 -2.95131 -1.01509 0
M  V30 1188 N 121.204 0.198386 -1.56346 0
M  V30 1189 C 122.167 1.22952 -1.93431 0
M  V30 1190 C 123.167 1.38611 -0.815092 0
M  V30 1191 O 124.357 1.36479 -1.08255 0
M  V30 1192 C 121.489 2.59946 -2.20546 0
M  V30 1193 H 122.682 0.912626 -2.85677 0
M  V30 1194 H 120.235 0.43977 -1.49986 0
M  V30 1195 H 120.97 2.96696 -1.30927 0
M  V30 1196 H 120.755 2.49953 -3.02102 0
M  V30 1197 H 122.245 3.3431 -2.50253 0
M  V30 1198 N 122.682 1.50554 0.465978 0
M  V30 1199 C 123.959 1.5232 1.22712 0
M  V30 1200 C 124.339 0.270807 2.09356 0
M  V30 1201 O 123.687 -0.745541 2.15995 0
M  V30 1202 C 123.897 2.82175 2.05374 0
M  V30 1203 C 125.245 3.33033 2.6339 0
M  V30 1204 O 126.269 2.83531 2.15612 0
M  V30 1205 O 125.128 4.19336 3.50456 0
M  V30 1206 H 122.222 0.611183 0.557122 0
M  V30 1207 H 124.768 1.62847 0.477381 0
M  V30 1208 H 123.54 3.64797 1.41558 0
M  V30 1209 H 123.163 2.74675 2.87471 0
M  V30 1210 N 124.16 -0.719506 1.40217 0
M  V30 1211 C 125.07 -1.86378 1.42479 0
M  V30 1212 C 126.086 -1.71073 0.317834 0
M  V30 1213 O 127.262 -1.93406 0.561794 0
M  V30 1214 C 124.327 -3.22136 1.28178 0
M  V30 1215 C 123.388 -3.49723 2.48982 0
M  V30 1216 C 122.621 -4.79004 2.35353 0
M  V30 1217 O 122.844 -5.53821 1.36524 0
M  V30 1218 O 121.778 -5.06839 3.2465 0
M  V30 1219 H 125.604 -1.87425 2.38968 0
M  V30 1220 H 123.189 -0.869405 1.21498 0
M  V30 1221 H 125.071 -4.03234 1.22395 0
M  V30 1222 H 123.746 -3.21825 0.347934 0
M  V30 1223 H 122.653 -2.6865 2.60342 0
M  V30 1224 H 123.986 -3.54828 3.41113 0
M  V30 1225 N 125.638 -1.25649 -0.95132 0
M  V30 1226 C 126.887 -1.09988 -1.69073 0
M  V30 1227 C 127.2 0.358355 -1.92289 0
M  V30 1228 O 128.406 0.635466 -2.63958 0
M  V30 1229 C 126.862 -1.92012 -3.044 0
M  V30 1230 C 126.47 -3.42347 -2.88968 0
M  V30 1231 C 128.214 -1.8493 -3.82101 0
M  V30 1232 C 126.121 -4.16655 -4.19705 0
M  V30 1233 H 125.051 -0.407993 -0.63408 0
M  V30 1234 H 127.702 -1.49873 -1.05879 0
M  V30 1235 H 126.084 -1.44952 -3.68517 0
M  V30 1236 H 127.258 -3.97104 -2.33762 0
M  V30 1237 H 125.573 -3.50557 -2.24719 0
M  V30 1238 H 128.17 -2.37739 -4.78941 0
M  V30 1239 H 128.513 -0.817883 -4.08187 0
M  V30 1240 H 129.046 -2.29758 -3.2474 0
M  V30 1241 H 125.785 -5.20224 -3.98807 0
M  V30 1242 H 125.305 -3.66681 -4.74663 0
M  V30 1243 H 126.984 -4.24551 -4.88227 0
M  V30 1244 N 127.117 1.15442 -1.07289 0
M  V30 1245 C 128.065 2.22225 -0.686952 0
M  V30 1246 C 129.059 1.66688 0.30193 0
M  V30 1247 O 130.265 1.79236 0.165712 0
M  V30 1248 H 126.64 0.723783 -0.204064 0
M  V30 1249 H 128.611 2.52056 -1.5972 0
M  V30 1250 C 127.36 3.47556 -0.100149 0
M  V30 1251 H 126.683 3.90612 -0.852211 0
M  V30 1252 H 128.123 4.23794 0.132235 0
M  V30 1253 C 126.582 3.16337 1.159 0
M  V30 1254 O 127.112 3.33074 2.24555 0
M  V30 1255 N 125.318 2.70385 1.06491 0
M  V30 1256 H 124.865 2.56966 0.180668 0
M  V30 1257 H 124.823 2.49871 1.90819 0
M  V30 1258 N 128.595 0.856903 1.32268 0
M  V30 1259 C 129.843 0.460474 1.96784 0
M  V30 1260 C 130.164 -0.987701 1.68135 0
M  V30 1261 O 129.434 -1.69058 0.989765 0
M  V30 1262 H 128.014 0.167289 0.728027 0
M  V30 1263 H 130.676 1.09383 1.61312 0
M  V30 1264 H 129.772 0.60739 3.06133 0
M  V30 1265 N 130.073 -1.45103 0.615059 0
M  V30 1266 C 131.023 -2.27679 -0.120966 0
M  V30 1267 C 132.007 -1.3775 -0.831491 0
M  V30 1268 O 133.199 -1.61683 -0.720249 0
M  V30 1269 C 130.328 -3.24767 -1.1127 0
M  V30 1270 C 129.414 -4.22184 -0.402627 0
M  V30 1271 N 129.805 -5.02692 0.559884 0
M  V30 1272 C 128.103 -4.4125 -0.649202 0
M  V30 1273 C 128.804 -5.73421 0.977942 0
M  V30 1274 N 127.78 -5.42657 0.320104 0
M  V30 1275 H 131.582 -2.87325 0.618181 0
M  V30 1276 H 129.096 -1.56345 0.439304 0
M  V30 1277 H 131.093 -3.82666 -1.65446 0
M  V30 1278 H 129.753 -2.66682 -1.85232 0
M  V30 1279 H 130.764 -5.09354 0.936976 0
M  V30 1280 H 127.441 -3.9428 -1.37293 0
M  V30 1281 H 128.831 -6.48107 1.77222 0
M  V30 1282 N 131.551 -0.354651 -1.53558 0
M  V30 1283 C 132.484 0.540273 -2.21712 0
M  V30 1284 C 133.462 1.09161 -1.2051 0
M  V30 1285 O 134.646 1.14979 -1.49372 0
M  V30 1286 C 131.773 1.74435 -2.90328 0
M  V30 1287 C 130.819 1.32146 -4.05512 0
M  V30 1288 S 131.652 0.331924 -5.3447 0
M  V30 1289 C 132.808 1.54258 -6.06593 0
M  V30 1290 H 133.041 -0.0385776 -2.97275 0
M  V30 1291 H 130.574 -0.138736 -1.53775 0
M  V30 1292 H 132.532 2.43507 -3.30476 0
M  V30 1293 H 131.193 2.29444 -2.1451 0
M  V30 1294 H 130.386 2.21952 -4.52497 0
M  V30 1295 H 129.988 0.710091 -3.67197 0
M  V30 1296 H 132.28 2.47534 -6.30661 0
M  V30 1297 H 133.223 1.11431 -6.99277 0
M  V30 1298 H 133.631 1.74367 -5.36895 0
M  V30 1299 N 133.029 1.57378 -0.0835403 0
M  V30 1300 C 133.961 2.10389 0.909338 0
M  V30 1301 C 134.974 1.03858 1.25369 0
M  V30 1302 O 136.163 1.31338 1.20882 0
M  V30 1303 C 133.263 2.55908 2.2218 0
M  V30 1304 C 132.436 3.86145 2.05453 0
M  V30 1305 C 131.495 4.17633 3.20108 0
M  V30 1306 O 130.521 4.87043 2.94581 0
M  V30 1307 N 131.723 3.72113 4.45547 0
M  V30 1308 H 134.488 2.962 0.456657 0
M  V30 1309 H 132.049 1.61579 0.101877 0
M  V30 1310 H 134.041 2.74027 2.97811 0
M  V30 1311 H 132.611 1.75171 2.58909 0
M  V30 1312 H 131.831 3.7729 1.1422 0
M  V30 1313 H 133.119 4.7137 1.91541 0
M  V30 1314 H 132.517 3.16062 4.69171 0
M  V30 1315 H 131.074 3.95409 5.18165 0
M  V30 1316 N 134.507 -0.190092 1.56449 0
M  V30 1317 C 135.44 -1.26375 1.90012 0
M  V30 1318 C 136.418 -1.43705 0.760765 0
M  V30 1319 O 137.602 -1.59014 1.01226 0
M  V30 1320 C 134.729 -2.62962 2.13468 0
M  V30 1321 C 133.775 -2.62474 3.36169 0
M  V30 1322 S 134.608 -2.13412 4.91137 0
M  V30 1323 C 135.764 -3.51812 5.17667 0
M  V30 1324 H 135.997 -0.977181 2.80782 0
M  V30 1325 H 133.53 -0.393814 1.49293 0
M  V30 1326 H 135.488 -3.41583 2.27664 0
M  V30 1327 H 134.149 -2.88828 1.23439 0
M  V30 1328 H 133.342 -3.62918 3.49723 0
M  V30 1329 H 132.944 -1.91937 3.20992 0
M  V30 1330 H 135.236 -4.47706 5.08494 0
M  V30 1331 H 136.179 -3.43148 6.19399 0
M  V30 1332 H 136.587 -3.46956 4.45288 0
M  V30 1333 N 135.985 -1.50799 -0.457987 0
M  V30 1334 C 137.234 -1.6168 -1.20593 0
M  V30 1335 C 137.547 -0.32888 -1.92815 0
M  V30 1336 O 138.753 -0.316773 -2.69646 0
M  V30 1337 C 137.209 -2.8545 -2.19195 0
M  V30 1338 C 136.817 -4.21168 -1.52715 0
M  V30 1339 C 138.561 -3.05681 -2.94549 0
M  V30 1340 C 136.468 -5.3611 -2.4968 0
M  V30 1341 H 135.398 -0.602134 -0.453818 0
M  V30 1342 H 138.049 -1.77245 -0.475031 0
M  V30 1343 H 136.431 -2.63472 -2.95632 0
M  V30 1344 H 137.605 -4.53449 -0.819775 0
M  V30 1345 H 135.92 -4.06648 -0.895922 0
M  V30 1346 H 138.517 -3.88727 -3.67145 0
M  V30 1347 H 138.86 -2.17929 -3.54701 0
M  V30 1348 H 139.393 -3.27901 -2.25223 0
M  V30 1349 H 136.132 -6.26057 -1.94249 0
M  V30 1350 H 135.652 -5.0823 -3.18532 0
M  V30 1351 H 137.331 -5.6722 -3.11241 0
M  V30 1352 N 137.463 0.71206 -1.40597 0
M  V30 1353 C 138.41 1.82613 -1.41142 0
M  V30 1354 C 139.38 1.63925 -0.267903 0
M  V30 1355 O 140.565 1.85009 -0.466495 0
M  V30 1356 C 137.705 3.20354 -1.28324 0
M  V30 1357 C 136.818 3.50589 -2.52411 0
M  V30 1358 C 135.953 4.77855 -2.32009 0
M  V30 1359 C 134.992 5.01005 -3.51654 0
M  V30 1360 N 134.129 6.19487 -3.30425 0
M  V30 1361 H 138.969 1.81482 -2.36365 0
M  V30 1362 H 136.506 0.886475 -1.17388 0
M  V30 1363 H 138.464 3.99899 -1.18899 0
M  V30 1364 H 137.094 3.20705 -0.367189 0
M  V30 1365 H 136.146 2.65573 -2.72351 0
M  V30 1366 H 137.458 3.63604 -3.41458 0
M  V30 1367 H 136.612 5.65424 -2.19956 0
M  V30 1368 H 135.351 4.67056 -1.40392 0
M  V30 1369 H 134.356 4.1189 -3.64179 0
M  V30 1370 H 135.581 5.13674 -4.44202 0
M  V30 1371 H 133.527 6.09932 -2.41494 0
M  V30 1372 H 133.444 6.33194 -4.13039 0
M  V30 1373 H 134.712 7.09834 -3.22113 0
M  V30 1374 N 138.941 1.26152 0.944643 0
M  V30 1375 C 140.189 1.11271 1.6871 0
M  V30 1376 C 140.51 -0.345166 1.91921 0
M  V30 1377 O 139.78 -1.24387 1.51343 0
M  V30 1378 H 138.36 0.408783 0.625224 0
M  V30 1379 H 141.022 1.58427 1.1352 0
M  V30 1380 H 140.118 1.62879 2.66227 0
M  V30 1381 N 140.419 -1.14872 1.07899 0
M  V30 1382 C 141.667 -1.85422 0.803941 0
M  V30 1383 C 141.988 -1.83051 -0.67211 0
M  V30 1384 O 141.258 -1.27532 -1.48703 0
M  V30 1385 H 139.838 -0.686537 0.294408 0
M  V30 1386 H 142.5 -1.39226 1.3639 0
M  V30 1387 H 141.596 -2.90399 1.14346 0
M  V30 1388 N 141.898 -0.863906 -1.31812 0
M  V30 1389 C 143.146 -0.470904 -1.96537 0
M  V30 1390 C 143.467 0.978771 -1.68657 0
M  V30 1391 O 142.737 1.6853 -0.998717 0
M  V30 1392 H 141.317 -0.171148 -0.72713 0
M  V30 1393 H 143.979 -1.10236 -1.60729 0
M  V30 1394 H 143.075 -0.623616 -3.05806 0
M  V30 1395 N 143.376 1.44774 -0.622745 0
M  V30 1396 C 144.339 2.29069 0.0774015 0
M  V30 1397 C 145.339 1.4059 0.780461 0
M  V30 1398 O 146.529 1.62551 0.626322 0
M  V30 1399 C 143.661 3.21974 1.12006 0
M  V30 1400 H 144.854 2.92459 -0.663901 0
M  V30 1401 H 142.407 1.51548 -0.382486 0
M  V30 1402 H 143.142 2.63417 1.89162 0
M  V30 1403 H 142.927 3.87168 0.619951 0
M  V30 1404 H 144.417 3.85318 1.60995 0
M  V30 1405 N 144.854 0.36279 1.53368 0
M  V30 1406 C 145.817 -0.472679 2.24273 0
M  V30 1407 C 146.817 -1.012 1.24961 0
M  V30 1408 O 148.007 -0.898194 1.49259 0
M  V30 1409 C 145.139 -1.66039 2.97731 0
M  V30 1410 H 146.332 0.14773 2.99536 0
M  V30 1411 H 143.885 0.114434 1.55881 0
M  V30 1412 H 144.62 -2.31896 2.26704 0
M  V30 1413 H 144.405 -1.28066 3.70596 0
M  V30 1414 H 145.895 -2.25252 3.51641 0
M  V30 1415 N 146.332 -1.57332 0.0918853 0
M  V30 1416 C 147.262 -2.16872 -0.865371 0
M  V30 1417 C 148.243 -1.10118 -1.29646 0
M  V30 1418 O 149.428 -1.38242 -1.36392 0
M  V30 1419 C 146.558 -2.74649 -2.12569 0
M  V30 1420 C 145.512 -3.86747 -1.83333 0
M  V30 1421 C 144.838 -4.31212 -3.16166 0
M  V30 1422 C 146.138 -5.10089 -1.1228 0
M  V30 1423 H 147.832 -2.97114 -0.369307 0
M  V30 1424 H 145.378 -1.42918 -0.176194 0
M  V30 1425 H 147.331 -3.14952 -2.7997 0
M  V30 1426 H 146.055 -1.91657 -2.64452 0
M  V30 1427 H 144.714 -3.46978 -1.18331 0
M  V30 1428 H 144.362 -3.45115 -3.6593 0
M  V30 1429 H 144.062 -5.06788 -2.97388 0
M  V30 1430 H 145.586 -4.74146 -3.84731 0
M  V30 1431 H 147 -5.47582 -1.69785 0
M  V30 1432 H 145.397 -5.91073 -1.03693 0
M  V30 1433 H 146.467 -4.84786 -0.105041 0
M  V30 1434 N 147.81 0.181792 -1.56548 0
M  V30 1435 C 149.038 0.915947 -1.85521 0
M  V30 1436 C 149.453 1.76282 -0.676016 0
M  V30 1437 O 148.81 1.79012 0.355077 0
M  V30 1438 C 148.861 1.80126 -3.13427 0
M  V30 1439 O 148.582 0.988562 -4.26801 0
M  V30 1440 C 150.083 2.64597 -3.55673 0
M  V30 1441 H 147.303 0.26661 -0.61576 0
M  V30 1442 H 149.847 0.185039 -2.03661 0
M  V30 1443 H 148.002 2.48563 -2.97145 0
M  V30 1444 H 148.416 1.59308 -4.99721 0
M  V30 1445 H 149.89 3.2235 -4.48101 0
M  V30 1446 H 150.367 3.38958 -2.79292 0
M  V30 1447 H 150.973 2.0151 -3.74532 0
M  V30 1448 N 149.288 1.51039 0.449983 0
M  V30 1449 C 150.704 1.38934 0.785462 0
M  V30 1450 C 150.904 0.461817 1.96136 0
M  V30 1451 O 149.96 -0.0877389 2.52348 0
M  V30 1452 C 151.273 2.80724 1.0777 0
M  V30 1453 C 152.821 2.89787 1.1829 0
M  V30 1454 C 153.296 4.32457 1.50815 0
M  V30 1455 N 154.787 4.35505 1.57764 0
M  V30 1456 C 155.522 5.42914 1.84477 0
M  V30 1457 N 155.018 6.60502 2.09068 0
M  V30 1458 N 156.811 5.3038 1.86155 0
M  V30 1459 H 148.962 2.09904 -0.324647 0
M  V30 1460 H 151.225 0.944378 -0.0827957 0
M  V30 1461 H 150.931 3.50531 0.286498 0
M  V30 1462 H 150.805 3.19273 2.00859 0
M  V30 1463 H 153.192 2.20186 1.96474 0
M  V30 1464 H 153.273 2.54752 0.231314 0
M  V30 1465 H 152.917 5.02603 0.731622 0
M  V30 1466 H 152.847 4.64995 2.47158 0
M  V30 1467 H 155.338 3.50724 1.40715 0
M  V30 1468 H 155.651 7.38158 2.28785 0
M  V30 1469 H 153.996 6.63639 2.06416 0
M  V30 1470 H 157.187 4.37505 1.66454 0
M  V30 1471 H 157.36 6.1417 2.06637 0
M  V30 1472 N 150.766 -0.704594 1.40972 0
M  V30 1473 C 151.676 -1.84856 1.44448 0
M  V30 1474 C 152.692 -1.70726 0.335961 0
M  V30 1475 O 153.868 -1.92799 0.582276 0
M  V30 1476 C 150.933 -3.20758 1.31587 0
M  V30 1477 C 149.994 -3.47063 2.52677 0
M  V30 1478 C 149.227 -4.76481 2.4042 0
M  V30 1479 O 149.45 -5.52341 1.42391 0
M  V30 1480 O 148.384 -5.03367 3.30007 0
M  V30 1481 H 152.21 -1.8488 2.40942 0
M  V30 1482 H 149.795 -0.85647 1.22413 0
M  V30 1483 H 151.677 -4.01913 1.26665 0
M  V30 1484 H 150.352 -3.21438 0.382049 0
M  V30 1485 H 149.259 -2.65873 2.63177 0
M  V30 1486 H 150.592 -3.5119 3.44858 0
M  V30 1487 N 152.244 -1.26651 -0.937939 0
M  V30 1488 C 153.191 -1.0849 -2.03712 0
M  V30 1489 C 154.161 0.011033 -1.66096 0
M  V30 1490 O 155.346 -0.149353 -1.90215 0
M  V30 1491 C 152.486 -0.72735 -3.37348 0
M  V30 1492 C 151.599 -1.89986 -3.87981 0
M  V30 1493 C 150.734 -1.48513 -5.10017 0
M  V30 1494 C 149.773 -2.62575 -5.5292 0
M  V30 1495 N 148.91 -2.21762 -6.66158 0
M  V30 1496 H 153.75 -2.02551 -2.18579 0
M  V30 1497 H 151.287 -1.00844 -1.07093 0
M  V30 1498 H 153.245 -0.50092 -4.14182 0
M  V30 1499 H 151.875 0.176298 -3.22318 0
M  V30 1500 H 150.927 -2.23913 -3.07518 0
M  V30 1501 H 152.239 -2.75586 -4.15757 0
M  V30 1502 H 151.393 -1.21934 -5.94321 0
M  V30 1503 H 150.132 -0.60009 -4.83994 0
M  V30 1504 H 149.137 -2.8988 -4.67172 0
M  V30 1505 H 150.362 -3.51685 -5.80943 0
M  V30 1506 H 148.308 -1.35696 -6.41812 0
M  V30 1507 H 148.225 -3.00903 -6.93537 0
M  V30 1508 H 149.493 -1.98403 -7.53828 0
M  V30 1509 N 153.722 1.14298 -1.08507 0
M  V30 1510 C 154.971 1.84708 -0.810305 0
M  V30 1511 C 155.284 1.83903 0.666271 0
M  V30 1512 O 156.49 2.50112 1.05624 0
M  V30 1513 C 154.946 3.31572 -1.39957 0
M  V30 1514 C 154.554 3.40791 -2.90801 0
M  V30 1515 C 156.298 4.07087 -1.20334 0
M  V30 1516 C 154.205 4.81872 -3.4286 0
M  V30 1517 H 153.135 0.691985 -0.299454 0
M  V30 1518 H 155.786 1.28841 -1.30661 0
M  V30 1519 H 154.168 3.87183 -0.830976 0
M  V30 1520 H 155.342 2.95225 -3.53806 0
M  V30 1521 H 153.657 2.78732 -3.0935 0
M  V30 1522 H 156.254 5.11225 -1.56693 0
M  V30 1523 H 156.597 4.16054 -0.143237 0
M  V30 1524 H 157.13 3.57779 -1.73893 0
M  V30 1525 H 153.869 4.78094 -4.48449 0
M  V30 1526 H 153.389 5.27972 -2.84615 0
M  V30 1527 H 155.068 5.50765 -3.39509 0
M  V30 1528 N 155.201 0.870884 1.31352 0
M  V30 1529 C 156.45 0.478408 1.95944 0
M  V30 1530 C 156.763 -0.974493 1.69597 0
M  V30 1531 O 157.969 -1.47316 2.28058 0
M  V30 1532 C 156.425 0.804609 3.50791 0
M  V30 1533 C 156.033 2.27433 3.85977 0
M  V30 1534 C 157.777 0.480648 4.2177 0
M  V30 1535 C 155.684 2.5429 5.33939 0
M  V30 1536 H 154.614 0.175175 0.733369 0
M  V30 1537 H 157.265 1.06391 1.4951 0
M  V30 1538 H 155.647 0.148347 3.95722 0
M  V30 1539 H 156.821 2.97373 3.52002 0
M  V30 1540 H 155.136 2.56442 3.28065 0
M  V30 1541 H 157.733 0.658519 5.30629 0
M  V30 1542 H 158.076 -0.578979 4.12254 0
M  V30 1543 H 158.609 1.09349 3.82476 0
M  V30 1544 H 155.348 3.58939 5.48491 0
M  V30 1545 H 154.868 1.88945 5.69263 0
M  V30 1546 H 156.547 2.39066 6.01212 0
M  V30 1547 N 156.679 -1.44442 0.630414 0
M  V30 1548 C 157.642 -2.29107 -0.0652523 0
M  V30 1549 C 158.642 -1.41002 -0.772995 0
M  V30 1550 O 159.832 -1.62881 -0.617692 0
M  V30 1551 C 156.964 -3.22564 -1.10296 0
M  V30 1552 H 158.157 -2.92103 0.679401 0
M  V30 1553 H 155.71 -1.51343 0.390517 0
M  V30 1554 H 156.445 -2.64416 -1.87762 0
M  V30 1555 H 156.23 -3.87491 -0.59941 0
M  V30 1556 H 157.72 -3.86167 -1.5895 0
M  V30 1557 N 158.157 -0.370918 -1.53173 0
M  V30 1558 C 159.382 0.220293 -2.06227 0
M  V30 1559 C 159.807 1.41243 -1.24225 0
M  V30 1560 O 159.165 1.79387 -0.262645 0
M  V30 1561 C 159.213 0.586663 -3.55796 0
M  V30 1562 O 158.317 1.68317 -3.76488 0
M  V30 1563 H 157.658 0.0308099 -0.663285 0
M  V30 1564 H 160.188 -0.533068 -1.97534 0
M  V30 1565 H 160.198 0.85617 -3.98916 0
M  V30 1566 H 158.873 -0.285013 -4.14922 0
M  V30 1567 H 157.45 1.40881 -3.45264 0
M  V30 1568 N 159.635 1.57281 -0.100228 0
M  V30 1569 C 160.881 1.94826 0.563101 0
M  V30 1570 C 161.214 0.982475 1.67514 0
M  V30 1571 O 160.489 0.0164069 1.94493 0
M  V30 1572 C 160.772 3.42453 1.11346 0
M  V30 1573 C 160.625 4.498 0.00612081 0
M  V30 1574 C 161.944 3.91506 2.01024 0
M  V30 1575 H 159.063 0.708428 0.203221 0
M  V30 1576 H 161.705 1.8922 -0.171979 0
M  V30 1577 H 159.855 3.47361 1.7399 0
M  V30 1578 H 161.527 4.57 -0.628357 0
M  V30 1579 H 159.77 4.28756 -0.659581 0
M  V30 1580 H 160.441 5.50306 0.432109 0
M  V30 1581 H 162.917 3.88784 1.48278 0
M  V30 1582 H 161.793 4.95358 2.36457 0
M  V30 1583 H 162.054 3.31099 2.92961 0
M  V30 1584 N 161.113 -0.173488 1.56642 0
M  V30 1585 C 162.076 -1.19859 1.95362 0
M  V30 1586 C 163.076 -1.37296 0.83704 0
M  V30 1587 O 164.266 -1.34739 1.10413 0
M  V30 1588 C 161.398 -2.56405 2.24654 0
M  V30 1589 H 162.591 -0.867062 2.87092 0
M  V30 1590 H 160.144 -0.415853 1.50666 0
M  V30 1591 H 160.879 -2.94576 1.35631 0
M  V30 1592 H 160.664 -2.45115 3.06041 0
M  V30 1593 H 162.154 -3.30287 2.5554 0
M  V30 1594 N 162.591 -1.51276 -0.441967 0
M  V30 1595 C 163.501 -1.75092 -1.56141 0
M  V30 1596 C 164.517 -0.634963 -1.62001 0
M  V30 1597 O 165.693 -0.916686 -1.79329 0
M  V30 1598 C 162.758 -1.86666 -2.92158 0
M  V30 1599 C 161.819 -3.10506 -2.96453 0
M  V30 1600 C 161.052 -3.21519 -4.25982 0
M  V30 1601 O 161.275 -2.38586 -5.18105 0
M  V30 1602 O 160.209 -4.14465 -4.36466 0
M  V30 1603 H 164.035 -2.70044 -1.38961 0
M  V30 1604 H 161.62 -1.35722 -0.624499 0
M  V30 1605 H 163.502 -1.96292 -3.72891 0
M  V30 1606 H 162.177 -0.949014 -3.09476 0
M  V30 1607 H 161.084 -3.06363 -2.14692 0
M  V30 1608 H 162.417 -4.01945 -2.84079 0
M  V30 1609 N 164.069 0.697108 -1.41344 0
M  V30 1610 C 165.016 1.81106 -1.43071 0
M  V30 1611 C 165.986 1.63632 -0.285275 0
M  V30 1612 O 167.171 1.84504 -0.486091 0
M  V30 1613 C 164.311 3.18975 -1.31715 0
M  V30 1614 C 163.424 3.47892 -2.56115 0
M  V30 1615 C 162.559 4.75367 -2.37064 0
M  V30 1616 C 161.598 4.97247 -3.56948 0
M  V30 1617 N 160.735 6.15947 -3.36977 0
M  V30 1618 H 165.575 1.78965 -2.38276 0
M  V30 1619 H 163.112 0.873975 -1.18322 0
M  V30 1620 H 165.07 3.98615 -1.23133 0
M  V30 1621 H 163.7 3.20297 -0.401183 0
M  V30 1622 H 162.752 2.62669 -2.75153 0
M  V30 1623 H 164.064 3.59962 -3.45295 0
M  V30 1624 H 163.218 5.63059 -2.25941 0
M  V30 1625 H 161.957 4.65541 -1.45338 0
M  V30 1626 H 160.962 4.08004 -3.68527 0
M  V30 1627 H 162.187 5.08934 -4.49626 0
M  V30 1628 H 160.133 6.07336 -2.47949 0
M  V30 1629 H 160.05 6.28777 -4.19732 0
M  V30 1630 H 161.318 7.06377 -3.29623 0
M  V30 1631 N 165.547 1.27147 0.931209 0
M  V30 1632 C 166.794 1.13278 1.67852 0
M  V30 1633 C 167.122 -0.32204 1.91815 0
M  V30 1634 O 166.377 -1.25224 1.50391 0
M  V30 1635 C 166.676 1.8579 3.05314 0
M  V30 1636 C 166.342 3.35657 3.01073 0
M  V30 1637 C 165.004 3.76536 2.99623 0
M  V30 1638 C 167.356 4.31299 2.92627 0
M  V30 1639 C 164.684 5.11426 2.87506 0
M  V30 1640 C 167.036 5.66242 2.82051 0
M  V30 1641 C 165.7 6.06418 2.7895 0
M  V30 1642 H 164.97 0.414515 0.614214 0
M  V30 1643 H 167.617 1.57712 1.08624 0
M  V30 1644 H 165.922 1.33854 3.68226 0
M  V30 1645 H 167.619 1.72491 3.62005 0
M  V30 1646 H 164.209 3.03146 3.02986 0
M  V30 1647 H 168.393 4.00692 2.92848 0
M  V30 1648 H 163.649 5.41705 2.83489 0
M  V30 1649 H 167.823 6.40026 2.74481 0
M  V30 1650 H 165.45 7.10895 2.69318 0
M  V30 1651 N 167.025 -1.13721 1.09112 0
M  V30 1652 C 168.274 -1.84275 0.82009 0
M  V30 1653 C 168.587 -1.84253 -0.656509 0
M  V30 1654 O 169.793 -2.50668 -1.04296 0
M  V30 1655 C 168.249 -3.30825 1.41714 0
M  V30 1656 C 167.857 -3.39244 2.92605 0
M  V30 1657 C 169.601 -4.06443 1.22492 0
M  V30 1658 C 167.508 -4.80047 3.45411 0
M  V30 1659 H 166.438 -0.690387 0.30312 0
M  V30 1660 H 169.089 -1.28146 1.31343 0
M  V30 1661 H 167.471 -3.86737 0.851498 0
M  V30 1662 H 168.645 -2.93344 3.55367 0
M  V30 1663 H 166.96 -2.77088 3.10823 0
M  V30 1664 H 169.557 -5.10387 1.59402 0
M  V30 1665 H 169.9 -4.15972 0.165299 0
M  V30 1666 H 170.433 -3.56852 1.75788 0
M  V30 1667 H 167.172 -4.75709 4.50978 0
M  V30 1668 H 166.692 -5.26455 2.87411 0
M  V30 1669 H 168.371 -5.48957 3.42425 0
M  V30 1670 N 168.503 -0.877838 -1.30888 0
M  V30 1671 C 169.743 -0.499301 -1.98208 0
M  V30 1672 C 170.107 0.932649 -1.67826 0
M  V30 1673 O 171.308 1.41694 -2.28421 0
M  V30 1674 C 169.579 -0.758221 -3.49265 0
M  V30 1675 S 171.138 -0.480719 -4.36159 0
M  V30 1676 H 167.956 -0.186062 -0.686223 0
M  V30 1677 H 170.558 -1.13556 -1.59139 0
M  V30 1678 H 169.262 -1.79903 -3.68867 0
M  V30 1679 H 168.793 -0.109247 -3.93248 0
M  V30 1680 H 170.808 0.683698 -4.91467 0
M  V30 1681 N 169.982 1.44106 -0.638065 0
M  V30 1682 C 171.231 2.01194 -0.142744 0
M  V30 1683 C 171.544 1.50835 1.24532 0
M  V30 1684 O 172.75 2.00096 1.83504 0
M  V30 1685 C 171.206 3.59319 -0.20442 0
M  V30 1686 C 170.814 4.18674 -1.59423 0
M  V30 1687 C 172.558 4.23854 0.234079 0
M  V30 1688 C 170.465 5.69045 -1.61065 0
M  V30 1689 H 169.395 0.752367 -0.0495998 0
M  V30 1690 H 172.046 1.65246 -0.797881 0
M  V30 1691 H 170.428 3.92598 0.517946 0
M  V30 1692 H 171.602 3.96921 -2.34074 0
M  V30 1693 H 169.917 3.66453 -1.97741 0
M  V30 1694 H 172.514 5.34155 0.241443 0
M  V30 1695 H 172.857 3.96688 1.2627 0
M  V30 1696 H 173.39 3.95403 -0.436025 0
M  V30 1697 H 170.129 6.00956 -2.61787 0
M  V30 1698 H 169.649 5.929 -0.90718 0
M  V30 1699 H 171.328 6.32809 -1.34766 0
M  V30 1700 N 171.46 0.379036 1.52974 0
M  V30 1701 C 172.423 -0.448865 2.24762 0
M  V30 1702 C 173.423 -0.998689 1.26027 0
M  V30 1703 O 174.613 -0.882313 1.50203 0
M  V30 1704 C 171.745 -1.62872 2.99476 0
M  V30 1705 H 172.938 0.179491 2.99362 0
M  V30 1706 H 170.491 0.13096 1.5575 0
M  V30 1707 H 171.226 -2.29479 2.29151 0
M  V30 1708 H 171.011 -1.24128 3.71934 0
M  V30 1709 H 172.501 -2.2151 3.5401 0
M  V30 1710 N 172.938 -1.57226 0.108567 0
M  V30 1711 C 174.215 -1.86333 -0.594939 0
M  V30 1712 C 174.595 -1.00788 -1.85486 0
M  V30 1713 O 173.943 -0.0839293 -2.28346 0
M  V30 1714 C 174.153 -3.37265 -0.897405 0
M  V30 1715 C 175.501 -4.05629 -1.25501 0
M  V30 1716 O 176.525 -3.42224 -0.987998 0
M  V30 1717 O 175.384 -5.17531 -1.75567 0
M  V30 1718 H 172.478 -0.771018 -0.2991 0
M  V30 1719 H 175.024 -1.69102 0.142283 0
M  V30 1720 H 173.796 -3.913 -0.00413806 0
M  V30 1721 H 173.419 -3.59889 -1.69014 0
M  V30 1722 N 174.416 0.165178 -1.56732 0
M  V30 1723 C 175.379 1.18822 -1.95995 0
M  V30 1724 C 176.379 1.3685 -0.84431 0
M  V30 1725 O 177.569 1.34152 -1.11126 0
M  V30 1726 C 174.701 2.5521 -2.26011 0
M  V30 1727 H 175.894 0.851825 -2.87548 0
M  V30 1728 H 173.447 0.407857 -1.50885 0
M  V30 1729 H 174.182 2.93852 -1.37191 0
M  V30 1730 H 173.967 2.43489 -3.07336 0
M  V30 1731 H 175.457 3.28927 -2.57288 0
M  V30 1732 N 175.894 1.51508 0.433938 0
M  V30 1733 C 177.119 1.68443 1.21003 0
M  V30 1734 C 177.544 0.382636 1.84167 0
M  V30 1735 O 176.902 -0.65755 1.68956 0
M  V30 1736 C 176.95 2.80405 2.26727 0
M  V30 1737 O 176.054 2.44245 3.32292 0
M  V30 1738 H 175.395 0.561536 0.354363 0
M  V30 1739 H 177.925 1.9809 0.512024 0
M  V30 1740 H 177.935 3.0459 2.71457 0
M  V30 1741 H 176.61 3.74867 1.80132 0
M  V30 1742 H 175.187 2.30644 2.93015 0
M  V30 1743 N 177.372 -0.689602 1.41712 0
M  V30 1744 C 178.319 -1.80345 1.44029 0
M  V30 1745 C 179.289 -1.63478 0.293948 0
M  V30 1746 O 180.474 -1.84244 0.495869 0
M  V30 1747 C 177.614 -3.18272 1.33405 0
M  V30 1748 C 176.727 -3.46529 2.57956 0
M  V30 1749 C 175.862 -4.74103 2.39582 0
M  V30 1750 C 174.901 -4.95347 3.5958 0
M  V30 1751 N 174.038 -6.14151 3.40239 0
M  V30 1752 H 178.878 -1.77698 2.39222 0
M  V30 1753 H 176.415 -0.867688 1.18784 0
M  V30 1754 H 178.373 -3.97956 1.25246 0
M  V30 1755 H 177.003 -3.2008 0.418164 0
M  V30 1756 H 176.055 -2.61207 2.76542 0
M  V30 1757 H 177.367 -3.58126 3.47199 0
M  V30 1758 H 176.521 -5.61853 2.28924 0
M  V30 1759 H 175.26 -4.64763 1.47805 0
M  V30 1760 H 174.265 -4.06044 3.70686 0
M  V30 1761 H 175.49 -5.06542 4.52318 0
M  V30 1762 H 173.436 -6.06013 2.51167 0
M  V30 1763 H 173.353 -6.26543 4.23061 0
M  V30 1764 H 174.621 -7.04619 3.33365 0
M  V30 1765 N 178.85 -1.27639 -0.924453 0
M  V30 1766 C 179.782 -1.06442 -2.02985 0
M  V30 1767 C 180.795 -0.0194771 -1.62788 0
M  V30 1768 O 181.984 -0.261388 -1.76576 0
M  V30 1769 C 179.084 -0.59327 -3.33667 0
M  V30 1770 C 178.257 -1.71123 -4.02537 0
M  V30 1771 C 177.316 -1.23527 -5.11495 0
M  V30 1772 O 176.342 -1.93553 -5.35281 0
M  V30 1773 N 177.544 -0.0926678 -5.80426 0
M  V30 1774 H 180.309 -2.01633 -2.2173 0
M  V30 1775 H 177.87 -1.19248 -1.09505 0
M  V30 1776 H 179.862 -0.258686 -4.03872 0
M  V30 1777 H 178.432 0.265502 -3.1147 0
M  V30 1778 H 177.652 -2.21593 -3.26022 0
M  V30 1779 H 178.94 -2.46145 -4.45298 0
M  V30 1780 H 178.338 0.491741 -5.63559 0
M  V30 1781 H 176.895 0.182714 -6.51544 0
M  V30 1782 N 180.328 1.1314 -1.09713 0
M  V30 1783 C 181.574 1.84757 -0.836224 0
M  V30 1784 C 181.907 1.8347 0.636598 0
M  V30 1785 O 181.182 1.27491 1.46889 0
M  V30 1786 C 181.465 3.32782 -1.37578 0
M  V30 1787 C 181.318 3.42567 -2.91493 0
M  V30 1788 C 182.637 4.28307 -1.01198 0
M  V30 1789 H 179.756 0.67082 -0.305236 0
M  V30 1790 H 182.398 1.3278 -1.35903 0
M  V30 1791 H 180.548 3.77177 -0.931097 0
M  V30 1792 H 182.22 3.06862 -3.44432 0
M  V30 1793 H 180.463 2.83349 -3.28475 0
M  V30 1794 H 181.134 4.46674 -3.24324 0
M  V30 1795 H 183.61 3.91999 -1.39556 0
M  V30 1796 H 182.486 5.30307 -1.41653 0
M  V30 1797 H 182.747 4.42029 0.0794833 0
M  V30 1798 N 181.806 0.884767 1.30421 0
M  V30 1799 C 183.083 0.423185 1.90967 0
M  V30 1800 C 183.463 -1.09605 1.80416 0
M  V30 1801 O 182.811 -1.93126 1.22125 0
M  V30 1802 C 183.021 0.921056 3.36627 0
M  V30 1803 C 184.369 0.955903 4.137 0
M  V30 1804 O 185.393 0.867706 3.4547 0
M  V30 1805 O 184.252 1.08614 5.35598 0
M  V30 1806 H 181.346 0.129369 0.816819 0
M  V30 1807 H 183.892 0.973653 1.3899 0
M  V30 1808 H 182.664 1.96489 3.3839 0
M  V30 1809 H 182.287 0.349741 3.96059 0
M  V30 1810 N 183.284 -1.43765 0.645699 0
M  V30 1811 C 184.533 -2.01116 0.153412 0
M  V30 1812 C 184.846 -1.51493 -1.23731 0
M  V30 1813 O 186.052 -2.01067 -1.8244 0
M  V30 1814 C 184.508 -3.59206 0.223473 0
M  V30 1815 C 184.116 -4.17823 1.61642 0
M  V30 1816 C 185.86 -4.23972 -0.211597 0
M  V30 1817 C 183.767 -5.68183 1.64081 0
M  V30 1818 H 182.697 -0.752093 0.0535891 0
M  V30 1819 H 185.348 -1.6482 0.806633 0
M  V30 1820 H 183.73 -3.92867 -0.497118 0
M  V30 1821 H 184.904 -3.95674 2.36176 0
M  V30 1822 H 183.219 -3.65399 1.99681 0
M  V30 1823 H 185.816 -5.34275 -0.213112 0
M  V30 1824 H 186.159 -3.97352 -1.24165 0
M  V30 1825 H 186.692 -3.95166 0.456988 0
M  V30 1826 H 183.431 -5.99559 2.64971 0
M  V30 1827 H 182.951 -5.9241 0.938611 0
M  V30 1828 H 184.63 -6.32085 1.3812 0
M  V30 1829 N 184.763 -0.387143 -1.52771 0
M  V30 1830 C 185.693 0.440551 -2.29306 0
M  V30 1831 C 186.674 1.06535 -1.32606 0
M  V30 1832 O 187.859 1.07853 -1.61497 0
M  V30 1833 C 184.989 1.56919 -3.09829 0
M  V30 1834 C 183.943 1.07054 -4.14395 0
M  V30 1835 C 183.269 2.29109 -4.83129 0
M  V30 1836 C 184.569 0.140015 -5.22112 0
M  V30 1837 H 186.263 -0.198026 -2.98744 0
M  V30 1838 H 183.809 -0.09668 -1.43675 0
M  V30 1839 H 185.762 2.15503 -3.62128 0
M  V30 1840 H 184.486 2.23532 -2.3812 0
M  V30 1841 H 183.145 0.507247 -3.63074 0
M  V30 1842 H 182.793 2.94227 -4.0797 0
M  V30 1843 H 182.493 1.96406 -5.53804 0
M  V30 1844 H 184.017 2.88339 -5.38231 0
M  V30 1845 H 185.431 0.633978 -5.69784 0
M  V30 1846 H 183.828 -0.0971485 -6.00021 0
M  V30 1847 H 184.898 -0.811711 -4.78058 0
M  V30 1848 N 186.241 1.57166 -0.116904 0
M  V30 1849 C 187.489 1.94737 0.540533 0
M  V30 1850 C 187.81 1.00096 1.67349 0
M  V30 1851 O 187.08 0.0568854 1.95817 0
M  V30 1852 H 185.66 0.718981 0.202669 0
M  V30 1853 H 188.322 1.94017 -0.185353 0
M  V30 1854 H 187.418 2.97719 0.936483 0
M  V30 1855 N 187.719 -0.156864 1.56817 0
M  V30 1856 C 188.666 -1.19394 1.97519 0
M  V30 1857 C 189.636 -1.4322 0.841265 0
M  V30 1858 O 190.821 -1.55719 1.10255 0
M  V30 1859 C 187.961 -2.52483 2.35258 0
M  V30 1860 C 187.074 -2.35914 3.61896 0
M  V30 1861 C 186.209 -3.61969 3.88782 0
M  V30 1862 C 185.248 -3.40395 5.08722 0
M  V30 1863 N 184.385 -4.58556 5.31668 0
M  V30 1864 H 189.225 -0.839845 2.85921 0
M  V30 1865 H 186.762 -0.403264 1.41464 0
M  V30 1866 H 188.72 -3.30071 2.55165 0
M  V30 1867 H 187.35 -2.85859 1.49949 0
M  V30 1868 H 186.402 -1.49429 3.49821 0
M  V30 1869 H 187.714 -2.15926 4.49641 0
M  V30 1870 H 186.868 -4.47989 4.09135 0
M  V30 1871 H 185.607 -3.84951 2.9944 0
M  V30 1872 H 184.612 -2.52763 4.88253 0
M  V30 1873 H 185.837 -3.18822 5.99608 0
M  V30 1874 H 183.783 -4.81729 4.45279 0
M  V30 1875 H 183.7 -4.41535 6.13664 0
M  V30 1876 H 184.968 -5.45817 5.5651 0
M  V30 1877 N 189.197 -1.51736 -0.425897 0
M  V30 1878 C 190.444 -1.6497 -1.17436 0
M  V30 1879 C 190.772 -0.371445 -1.9092 0
M  V30 1880 O 190.027 0.644963 -1.84767 0
M  V30 1881 C 190.326 -2.81103 -2.20717 0
M  V30 1882 C 189.992 -4.19954 -1.64162 0
M  V30 1883 C 188.654 -4.57725 -1.48462 0
M  V30 1884 C 191.006 -5.06552 -1.22696 0
M  V30 1885 C 188.334 -5.79789 -0.897873 0
M  V30 1886 C 190.686 -6.29205 -0.654464 0
M  V30 1887 C 189.35 -6.6574 -0.484456 0
M  V30 1888 H 188.62 -0.603668 -0.429727 0
M  V30 1889 H 191.267 -1.85798 -0.463829 0
M  V30 1890 H 189.572 -2.54542 -2.97852 0
M  V30 1891 H 191.269 -2.8854 -2.78471 0
M  V30 1892 H 187.859 -3.90181 -1.77361 0
M  V30 1893 H 192.043 -4.77968 -1.33642 0
M  V30 1894 H 187.299 -6.06733 -0.75402 0
M  V30 1895 H 191.473 -6.95643 -0.324694 0
M  V30 1896 H 189.1 -7.60195 -0.0276833 0
M  V30 1897 N 190.675 0.682077 -1.42076 0
M  V30 1898 C 192.086 1.26246 -1.37546 0
M  V30 1899 C 192.437 1.96092 -0.0651481 0
M  V30 1900 O 191.562 1.99587 0.836297 0
M  V30 1901 C 192.157 2.29594 -2.49143 0
M  V30 1902 C 190.716 2.83175 -2.47969 0
M  V30 1903 C 189.863 1.57395 -2.28303 0
M  V30 1904 H 192.814 0.475937 -1.51395 0
M  V30 1905 H 192.835 3.11175 -2.18976 0
M  V30 1906 H 192.347 1.78729 -3.44496 0
M  V30 1907 H 190.448 3.3818 -1.56413 0
M  V30 1908 H 190.561 3.32687 -3.44755 0
M  V30 1909 H 188.925 1.83699 -1.76428 0
M  V30 1910 H 189.708 1.08507 -3.25701 0
M  V30 1911 N 192.153 1.28127 0.917671 0
M  V30 1912 C 193.083 1.14248 2.03641 0
M  V30 1913 C 194.064 0.0412748 1.7005 0
M  V30 1914 O 195.249 0.217566 1.92977 0
M  V30 1915 C 192.379 0.799431 3.37974 0
M  V30 1916 C 191.333 1.85497 3.85713 0
M  V30 1917 C 190.659 1.36565 5.16966 0
M  V30 1918 C 191.959 3.26085 4.08002 0
M  V30 1919 H 193.653 2.07835 2.15511 0
M  V30 1920 H 191.199 1.00064 1.03553 0
M  V30 1921 H 193.152 0.689114 4.15727 0
M  V30 1922 H 191.876 -0.172145 3.26146 0
M  V30 1923 H 190.535 1.95437 3.10161 0
M  V30 1924 H 190.183 0.383253 5.01538 0
M  V30 1925 H 189.883 2.07143 5.49878 0
M  V30 1926 H 191.407 1.26848 5.97279 0
M  V30 1927 H 192.821 3.19089 4.76293 0
M  V30 1928 H 191.218 3.94462 4.52238 0
M  V30 1929 H 192.288 3.70394 3.12948 0
M  V30 1930 N 193.631 -1.12557 1.10312 0
M  V30 1931 C 195.042 -1.65574 0.862678 0
M  V30 1932 C 195.393 -1.86566 -0.607256 0
M  V30 1933 O 194.518 -1.59121 -1.46662 0
M  V30 1934 C 195.113 -3.00776 1.55947 0
M  V30 1935 C 193.672 -3.50748 1.36576 0
M  V30 1936 C 192.819 -2.25797 1.60968 0
M  V30 1937 H 195.77 -0.963552 1.26101 0
M  V30 1938 H 195.791 -3.67185 0.997753 0
M  V30 1939 H 195.303 -2.85465 2.62928 0
M  V30 1940 H 193.404 -3.71245 0.317531 0
M  V30 1941 H 193.517 -4.30289 2.10686 0
M  V30 1942 H 191.881 -2.32841 1.03234 0
M  V30 1943 H 192.664 -2.13043 2.69198 0
M  V30 1944 N 195.109 -0.891671 -1.2995 0
M  V30 1945 C 196.355 -0.514261 -1.96171 0
M  V30 1946 C 196.688 0.935506 -1.70182 0
M  V30 1947 O 195.963 1.66204 -1.01028 0
M  V30 1948 C 196.246 -0.797719 -3.51153 0
M  V30 1949 C 196.099 -2.2986 -3.86632 0
M  V30 1950 C 197.418 -0.278749 -4.39216 0
M  V30 1951 H 194.537 -0.188314 -0.712535 0
M  V30 1952 H 197.179 -1.11689 -1.53706 0
M  V30 1953 H 195.329 -0.284826 -3.87455 0
M  V30 1954 H 197.001 -2.88042 -3.60319 0
M  V30 1955 H 195.244 -2.76257 -3.34462 0
M  V30 1956 H 195.915 -2.44753 -4.94773 0
M  V30 1957 H 198.391 -0.717825 -4.09862 0
M  V30 1958 H 197.267 -0.506353 -5.46559 0
M  V30 1959 H 197.528 0.820266 -4.34424 0
M  V30 1960 N 196.587 1.43421 -0.653314 0
M  V30 1961 C 197.497 2.34568 0.0388565 0
M  V30 1962 C 198.513 1.53888 0.81207 0
M  V30 1963 O 199.689 1.86539 0.759294 0
M  V30 1964 C 196.754 3.32167 0.993269 0
M  V30 1965 C 195.815 4.28751 0.216977 0
M  V30 1966 C 195.048 5.21688 1.12593 0
M  V30 1967 O 195.271 5.19052 2.36519 0
M  V30 1968 O 194.205 5.98919 0.598284 0
M  V30 1969 H 198.031 2.95251 -0.711386 0
M  V30 1970 H 195.616 1.43564 -0.413502 0
M  V30 1971 H 197.498 3.92183 1.54176 0
M  V30 1972 H 196.173 2.73987 1.72374 0
M  V30 1973 H 195.08 3.72215 -0.375101 0
M  V30 1974 H 196.413 4.89913 -0.473924 0
M  V30 1975 N 198.065 0.39524 1.52563 0
M  V30 1976 C 199.311 -0.185318 2.01952 0
M  V30 1977 C 199.644 -1.45964 1.28095 0
M  V30 1978 O 198.919 -1.90689 0.38315 0
M  V30 1979 C 199.202 -0.447193 3.57312 0
M  V30 1980 C 199.055 0.842828 4.41833 0
M  V30 1981 C 200.374 -1.23529 4.22408 0
M  V30 1982 H 197.493 -0.0658788 0.73405 0
M  V30 1983 H 200.135 0.525975 1.82575 0
M  V30 1984 H 198.285 -1.05312 3.73954 0
M  V30 1985 H 199.957 1.4795 4.36931 0
M  V30 1986 H 198.2 1.45686 4.08605 0
M  V30 1987 H 198.871 0.614165 5.48573 0
M  V30 1988 H 201.347 -0.722445 4.0978 0
M  V30 1989 H 200.223 -1.38727 5.3108 0
M  V30 1990 H 200.484 -2.25213 3.80436 0
M  V30 1991 N 199.544 -1.57102 0.125237 0
M  V30 1992 C 200.793 -1.94582 -0.531095 0
M  V30 1993 C 201.106 -1.01126 -1.6743 0
M  V30 1994 O 202.312 -1.28097 -2.39381 0
M  V30 1995 C 200.768 -3.45839 -0.996164 0
M  V30 1996 C 200.376 -4.47842 0.118926 0
M  V30 1997 C 202.12 -3.92227 -1.62352 0
M  V30 1998 C 200.027 -5.90284 -0.363192 0
M  V30 1999 H 198.957 -0.726391 -0.20217 0
M  V30 2000 H 201.608 -1.82339 0.206092 0
M  V30 2001 H 199.99 -3.53338 -1.78796 0
M  V30 2002 H 201.164 -4.52018 0.895358 0
M  V30 2003 H 199.479 -4.11243 0.653324 0
M  V30 2004 H 202.076 -4.96069 -1.99548 0
M  V30 2005 H 202.419 -3.32552 -2.50429 0
M  V30 2006 H 202.952 -3.87554 -0.897019 0
M  V30 2007 H 199.691 -6.53728 0.481679 0
M  V30 2008 H 199.211 -5.89515 -1.10597 0
M  V30 2009 H 200.89 -6.41752 -0.822377 0
M  V30 2010 N 201.022 0.148545 -1.56898 0
M  V30 2011 C 202.433 0.708766 -1.72723 0
M  V30 2012 C 202.784 1.81734 -0.739395 0
M  V30 2013 O 201.909 2.16194 0.0943169 0
M  V30 2014 C 202.504 1.29245 -3.13179 0
M  V30 2015 C 201.063 1.79925 -3.30611 0
M  V30 2016 C 200.21 0.687111 -2.68652 0
M  V30 2017 H 203.161 -0.0771063 -1.58513 0
M  V30 2018 H 203.182 2.16224 -3.13093 0
M  V30 2019 H 202.694 0.485382 -3.85053 0
M  V30 2020 H 200.795 2.63203 -2.63732 0
M  V30 2021 H 200.908 1.92903 -4.38549 0
M  V30 2022 H 199.272 1.11335 -2.29078 0
M  V30 2023 H 200.055 -0.108483 -3.43129 0
M  V30 2024 N 202.5 1.5196 0.417844 0
M  V30 2025 C 203.433 1.69387 1.52916 0
M  V30 2026 C 204.411 0.541419 1.53321 0
M  V30 2027 O 205.595 0.767695 1.72159 0
M  V30 2028 C 202.722 1.72525 2.91467 0
M  V30 2029 C 201.768 2.93967 3.09008 0
M  V30 2030 S 202.601 4.54461 2.83242 0
M  V30 2031 C 203.757 4.60372 4.24038 0
M  V30 2032 H 203.99 2.63382 1.37903 0
M  V30 2033 H 201.523 1.41889 0.608845 0
M  V30 2034 H 203.481 1.75018 3.7132 0
M  V30 2035 H 202.142 0.796733 3.03827 0
M  V30 2036 H 201.335 2.92619 4.10353 0
M  V30 2037 H 200.937 2.89316 2.37007 0
M  V30 2038 H 203.229 4.37213 5.17544 0
M  V30 2039 H 204.172 5.62273 4.30412 0
M  V30 2040 H 204.58 3.89492 4.08602 0
M  V30 2041 N 203.978 -0.674533 1.42435 0
M  V30 2042 C 204.941 -1.76986 1.45632 0
M  V30 2043 C 205.941 -1.5708 0.343871 0
M  V30 2044 O 207.131 -1.63367 0.604709 0
M  V30 2045 C 204.263 -3.15623 1.28822 0
M  V30 2046 H 205.456 -1.75539 2.43158 0
M  V30 2047 H 203.009 -0.884189 1.28887 0
M  V30 2048 H 203.744 -3.22696 0.322193 0
M  V30 2049 H 203.529 -3.31475 2.09444 0
M  V30 2050 H 205.019 -3.95537 1.33942 0
M  V30 2051 N 205.456 -1.28612 -0.910864 0
M  V30 2052 C 206.872 -1.06381 -1.18976 0
M  V30 2053 C 207.072 0.191998 -2.00583 0
M  V30 2054 O 206.128 0.892869 -2.36187 0
M  V30 2055 C 207.441 -2.31295 -1.92154 0
M  V30 2056 C 208.989 -2.36503 -2.05025 0
M  V30 2057 C 209.464 -3.61191 -2.81612 0
M  V30 2058 N 210.955 -3.61847 -2.89172 0
M  V30 2059 C 211.69 -4.55004 -3.4894 0
M  V30 2060 N 211.186 -5.58482 -4.09963 0
M  V30 2061 N 212.979 -4.42594 -3.46506 0
M  V30 2062 H 205.13 -2.09221 -0.366094 0
M  V30 2063 H 207.393 -0.921003 -0.224629 0
M  V30 2064 H 207.099 -3.228 -1.39618 0
M  V30 2065 H 206.973 -2.37934 -2.9269 0
M  V30 2066 H 209.36 -1.45494 -2.5674 0
M  V30 2067 H 209.441 -2.33857 -1.03657 0
M  V30 2068 H 209.085 -4.52545 -2.30576 0
M  V30 2069 H 209.015 -3.61092 -3.83302 0
M  V30 2070 H 211.506 -2.87022 -2.45819 0
M  V30 2071 H 211.819 -6.25704 -4.53557 0
M  V30 2072 H 210.164 -5.62305 -4.08459 0
M  V30 2073 H 213.355 -3.60953 -2.98045 0
M  V30 2074 H 213.528 -5.15381 -3.92793 0
M  V30 2075 N 206.934 1.1197 -1.10907 0
M  V30 2076 C 208.159 1.87942 -0.877064 0
M  V30 2077 C 208.584 1.79341 0.567314 0
M  V30 2078 O 207.942 1.15184 1.40009 0
M  V30 2079 C 207.99 3.34926 -1.33629 0
M  V30 2080 O 207.094 4.09303 -0.504447 0
M  V30 2081 H 206.435 0.583785 -0.316371 0
M  V30 2082 H 208.965 1.4157 -1.47712 0
M  V30 2083 H 208.975 3.8577 -1.32837 0
M  V30 2084 H 207.65 3.40504 -2.3881 0
M  V30 2085 H 206.227 3.68393 -0.577993 0
M  V30 2086 N 208.412 0.89855 1.29475 0
M  V30 2087 C 209.375 0.380272 2.26023 0
M  V30 2088 C 210.375 -0.484891 1.53315 0
M  V30 2089 O 211.565 -0.290108 1.71767 0
M  V30 2090 C 208.697 -0.45651 3.3783 0
M  V30 2091 H 209.89 1.23295 2.73383 0
M  V30 2092 H 207.443 0.676589 1.40897 0
M  V30 2093 H 208.178 -1.32922 2.95808 0
M  V30 2094 H 207.963 0.163393 3.91759 0
M  V30 2095 H 209.453 -0.810466 4.0966 0
M  V30 2096 N 209.89 -1.43072 0.660911 0
M  V30 2097 C 211.136 -2.0202 0.177708 0
M  V30 2098 C 211.469 -1.52066 -1.20787 0
M  V30 2099 O 210.744 -0.716987 -1.80802 0
M  V30 2100 C 211.027 -3.59561 0.197019 0
M  V30 2101 C 210.88 -4.19727 1.61706 0
M  V30 2102 C 212.199 -4.37664 -0.462396 0
M  V30 2103 H 209.318 -0.734034 0.0660494 0
M  V30 2104 H 211.96 -1.70272 0.843058 0
M  V30 2105 H 210.11 -3.86739 -0.369527 0
M  V30 2106 H 211.782 -4.03553 2.23479 0
M  V30 2107 H 210.025 -3.76084 2.16201 0
M  V30 2108 H 210.696 -5.28834 1.58237 0
M  V30 2109 H 213.172 -4.16095 0.0197215 0
M  V30 2110 H 212.048 -5.47305 -0.418188 0
M  V30 2111 H 212.309 -4.14493 -1.53778 0
M  V30 2112 N 211.368 -0.403325 -1.52352 0
M  V30 2113 C 212.331 0.413051 -2.25447 0
M  V30 2114 C 213.331 0.978513 -1.276 0
M  V30 2115 O 214.521 0.858305 -1.51587 0
M  V30 2116 C 211.653 1.58087 -3.02029 0
M  V30 2117 H 212.846 -0.227094 -2.99039 0
M  V30 2118 H 210.399 -0.155722 -1.55522 0
M  V30 2119 H 211.134 2.25804 -2.32772 0
M  V30 2120 H 210.919 1.18195 -3.73861 0
M  V30 2121 H 212.409 2.1585 -3.57489 0
M  V30 2122 N 212.846 1.57033 -0.133567 0
M  V30 2123 C 214.262 1.58035 0.222944 0
M  V30 2124 C 214.462 1.14713 1.6566 0
M  V30 2125 O 213.518 0.841218 2.38075 0
M  V30 2126 C 214.831 3.00691 -0.0236116 0
M  V30 2127 C 216.379 3.12973 0.0411512 0
M  V30 2128 C 216.854 4.57654 -0.177899 0
M  V30 2129 N 218.345 4.63033 -0.124365 0
M  V30 2130 C 219.08 5.72771 -0.268553 0
M  V30 2131 N 218.576 6.91206 -0.46972 0
M  V30 2132 N 220.369 5.61718 -0.2071 0
M  V30 2133 H 212.52 1.8349 -1.06981 0
M  V30 2134 H 214.783 0.848677 -0.422436 0
M  V30 2135 H 214.489 3.36726 -1.0153 0
M  V30 2136 H 214.363 3.70614 0.701808 0
M  V30 2137 H 216.75 2.76787 1.02338 0
M  V30 2138 H 216.831 2.45564 -0.716383 0
M  V30 2139 H 216.475 4.94542 -1.15717 0
M  V30 2140 H 216.405 5.23173 0.599797 0
M  V30 2141 H 218.896 3.7789 0.027011 0
M  V30 2142 H 219.209 7.70693 -0.570212 0
M  V30 2143 H 217.554 6.93156 -0.505876 0
M  V30 2144 H 220.745 4.68072 -0.0507986 0
M  V30 2145 H 220.918 6.47195 -0.322909 0
M  V30 2146 N 214.325 -0.140222 1.56975 0
M  V30 2147 C 215.257 -1.19818 1.95388 0
M  V30 2148 C 216.27 -1.38816 0.850525 0
M  V30 2149 O 217.459 -1.38267 1.12891 0
M  V30 2150 C 214.559 -2.56189 2.21857 0
M  V30 2151 C 213.732 -2.58077 3.5315 0
M  V30 2152 C 212.791 -3.76037 3.6808 0
M  V30 2153 O 211.817 -3.60598 4.40406 0
M  V30 2154 N 213.019 -4.93763 3.05251 0
M  V30 2155 H 215.784 -0.871609 2.86746 0
M  V30 2156 H 213.345 -0.32972 1.58507 0
M  V30 2157 H 215.337 -3.33623 2.2908 0
M  V30 2158 H 213.907 -2.81111 1.36731 0
M  V30 2159 H 213.127 -1.6651 3.57307 0
M  V30 2160 H 214.415 -2.56377 4.39486 0
M  V30 2161 H 213.813 -5.09209 2.46419 0
M  V30 2162 H 212.37 -5.68949 3.18026 0
M  V30 2163 N 215.803 -1.52179 -0.40978 0
M  V30 2164 C 216.733 -1.78435 -1.5061 0
M  V30 2165 C 217.714 -0.635295 -1.57791 0
M  V30 2166 O 218.899 -0.880823 -1.73076 0
M  V30 2167 C 216.029 -1.93444 -2.88439 0
M  V30 2168 C 214.983 -3.09038 -2.96108 0
M  V30 2169 C 214.309 -3.09268 -4.36185 0
M  V30 2170 C 215.609 -4.48508 -2.67652 0
M  V30 2171 H 217.303 -2.70237 -1.28889 0
M  V30 2172 H 214.849 -1.30036 -0.618605 0
M  V30 2173 H 216.802 -2.10394 -3.65119 0
M  V30 2174 H 215.526 -0.983129 -3.11452 0
M  V30 2175 H 214.185 -2.91837 -2.21872 0
M  V30 2176 H 213.833 -2.11861 -4.56206 0
M  V30 2177 H 213.533 -3.86907 -4.42241 0
M  V30 2178 H 215.057 -3.28348 -5.14801 0
M  V30 2179 H 216.471 -4.65918 -3.34056 0
M  V30 2180 H 214.868 -5.28059 -2.85085 0
M  V30 2181 H 215.938 -4.56649 -1.63095 0
M  V30 2182 N 217.281 0.66697 -1.42791 0
M  V30 2183 C 218.527 1.4291 -1.43891 0
M  V30 2184 C 218.86 1.94114 -0.0578972 0
M  V30 2185 O 218.135 1.71414 0.91911 0
M  V30 2186 C 218.418 2.62049 -2.46987 0
M  V30 2187 C 218.271 2.16426 -3.94309 0
M  V30 2188 C 219.59 3.64266 -2.46978 0
M  V30 2189 H 216.709 0.518306 -0.523954 0
M  V30 2190 H 219.351 0.757321 -1.74255 0
M  V30 2191 H 217.501 3.19361 -2.21225 0
M  V30 2192 H 219.173 1.64221 -4.31079 0
M  V30 2193 H 217.416 1.47925 -4.078 0
M  V30 2194 H 218.087 3.02038 -4.62036 0
M  V30 2195 H 220.563 3.16686 -2.69906 0
M  V30 2196 H 219.439 4.45196 -3.21079 0
M  V30 2197 H 219.7 4.15927 -1.49857 0
M  V30 2198 N 218.759 1.29093 0.90403 0
M  V30 2199 C 219.706 1.13853 2.00764 0
M  V30 2200 C 220.676 0.0330084 1.66067 0
M  V30 2201 O 221.861 0.199733 1.89752 0
M  V30 2202 C 219.001 0.816537 3.35301 0
M  V30 2203 C 218.114 2.00206 3.82807 0
M  V30 2204 C 217.249 1.61983 5.059 0
M  V30 2205 C 216.288 2.77143 5.45764 0
M  V30 2206 N 215.425 2.39346 6.60044 0
M  V30 2207 H 220.265 2.08276 2.13132 0
M  V30 2208 H 217.802 1.03648 1.04381 0
M  V30 2209 H 219.76 0.610557 4.12708 0
M  V30 2210 H 218.39 -0.090779 3.22672 0
M  V30 2211 H 217.442 2.31988 3.01473 0
M  V30 2212 H 218.754 2.86512 4.08304 0
M  V30 2213 H 217.908 1.37649 5.90879 0
M  V30 2214 H 216.647 0.728202 4.82233 0
M  V30 2215 H 215.652 3.02165 4.59322 0
M  V30 2216 H 216.877 3.66964 5.71414 0
M  V30 2217 H 214.823 1.52665 6.37989 0
M  V30 2218 H 214.74 3.19185 6.85315 0
M  V30 2219 H 216.008 2.1832 7.48303 0
M  V30 2220 N 220.237 -1.11381 1.11499 0
M  V30 2221 C 221.167 -2.19509 0.796125 0
M  V30 2222 C 222.148 -1.68458 -0.235796 0
M  V30 2223 O 223.333 -1.93947 -0.0991344 0
M  V30 2224 C 220.463 -3.46475 0.239205 0
M  V30 2225 C 219.417 -4.10744 1.20307 0
M  V30 2226 C 218.743 -5.32293 0.50683 0
M  V30 2227 C 220.043 -4.55597 2.55399 0
M  V30 2228 H 221.737 -2.46439 1.70024 0
M  V30 2229 H 219.283 -1.18446 0.818935 0
M  V30 2230 H 221.236 -4.214 0.00392006 0
M  V30 2231 H 219.96 -3.19006 -0.700206 0
M  V30 2232 H 218.619 -3.37813 1.42399 0
M  V30 2233 H 218.267 -5.01095 -0.437408 0
M  V30 2234 H 217.967 -5.76243 1.1497 0
M  V30 2235 H 219.491 -6.09956 0.280351 0
M  V30 2236 H 220.905 -5.21841 2.37391 0
M  V30 2237 H 219.302 -5.10363 3.15673 0
M  V30 2238 H 220.372 -3.69013 3.14575 0
M  V30 2239 N 221.715 -0.905404 -1.28997 0
M  V30 2240 C 222.963 -0.533192 -1.9494 0
M  V30 2241 C 223.284 0.924618 -1.71685 0
M  V30 2242 O 222.554 1.65268 -1.05183 0
M  V30 2243 H 221.134 -0.194194 -0.721317 0
M  V30 2244 H 223.796 -1.15294 -1.57141 0
M  V30 2245 H 222.892 -0.72059 -3.03667 0
M  V30 2246 N 223.193 1.4272 -0.668489 0
M  V30 2247 C 224.441 2.01226 -0.187769 0
M  V30 2248 C 224.762 1.53092 1.2078 0
M  V30 2249 O 224.032 0.74993 1.80977 0
M  V30 2250 H 222.612 0.744041 -0.0664272 0
M  V30 2251 H 225.274 1.74723 -0.863583 0
M  V30 2252 H 224.37 3.11556 -0.184166 0
M  V30 2253 N 224.671 0.411399 1.52136 0
M  V30 2254 C 226.087 0.0623865 1.59478 0
M  V30 2255 C 226.287 -1.42554 1.4241 0
M  V30 2256 O 225.343 -2.19263 1.2522 0
M  V30 2257 C 226.656 0.559331 2.95452 0
M  V30 2258 C 228.204 0.517503 3.08692 0
M  V30 2259 C 228.679 0.990994 4.4715 0
M  V30 2260 N 230.17 0.947908 4.53397 0
M  V30 2261 C 230.905 1.28544 5.58806 0
M  V30 2262 N 230.401 1.69454 6.71757 0
M  V30 2263 N 232.194 1.20526 5.49026 0
M  V30 2264 H 224.345 1.37982 1.61477 0
M  V30 2265 H 226.608 0.566977 0.759764 0
M  V30 2266 H 226.314 1.59938 3.1323 0
M  V30 2267 H 226.188 -0.0298014 3.77188 0
M  V30 2268 H 228.575 -0.513505 2.90598 0
M  V30 2269 H 228.656 1.14272 2.28857 0
M  V30 2270 H 228.3 2.02034 4.65988 0
M  V30 2271 H 228.23 0.34257 5.25485 0
M  V30 2272 H 230.721 0.647157 3.72317 0
M  V30 2273 H 231.034 1.93513 7.48179 0
M  V30 2274 H 229.379 1.73359 6.73032 0
M  V30 2275 H 232.57 0.884505 4.59667 0
M  V30 2276 H 232.743 1.47161 6.31069 0
M  V30 2277 N 226.149 -1.5696 0.141893 0
M  V30 2278 C 227.56 -1.82797 -0.379776 0
M  V30 2279 C 227.911 -1.06033 -1.6508 0
M  V30 2280 O 227.036 -0.304011 -2.14254 0
M  V30 2281 C 227.631 -3.31578 -0.695802 0
M  V30 2282 C 226.19 -3.58014 -1.16201 0
M  V30 2283 C 225.337 -2.76699 -0.182455 0
M  V30 2284 H 228.288 -1.54406 0.366675 0
M  V30 2285 H 228.309 -3.47454 -1.55099 0
M  V30 2286 H 227.821 -3.87421 0.229449 0
M  V30 2287 H 225.922 -3.07553 -2.10338 0
M  V30 2288 H 226.035 -4.66501 -1.09151 0
M  V30 2289 H 224.399 -2.45618 -0.674072 0
M  V30 2290 H 225.182 -3.35311 0.736297 0
M  V30 2291 N 227.627 0.131896 -1.57047 0
M  V30 2292 C 228.537 1.1815 -2.02676 0
M  V30 2293 C 229.553 1.46113 -0.944824 0
M  V30 2294 O 230.729 1.57485 -1.25541 0
M  V30 2295 C 227.794 2.49139 -2.41103 0
M  V30 2296 C 226.855 2.28688 -3.63318 0
M  V30 2297 C 226.088 3.53431 -3.99903 0
M  V30 2298 O 226.311 4.60223 -3.36973 0
M  V30 2299 O 225.245 3.45198 -4.93074 0
M  V30 2300 H 229.071 0.824069 -2.92306 0
M  V30 2301 H 226.656 0.341745 -1.45439 0
M  V30 2302 H 228.538 3.26338 -2.66611 0
M  V30 2303 H 227.213 2.84382 -1.54624 0
M  V30 2304 H 226.12 1.4939 -3.42977 0
M  V30 2305 H 227.453 1.98355 -4.50462 0
M  V30 2306 N 229.106 1.52395 0.401703 0
M  V30 2307 C 230.336 1.70429 1.1678 0
M  V30 2308 C 230.744 0.416702 1.84554 0
M  V30 2309 O 230.087 -0.617697 1.73003 0
M  V30 2310 C 230.149 2.78919 2.26814 0
M  V30 2311 C 229.813 4.20437 1.79113 0
M  V30 2312 C 230.81 5.04028 1.27482 0
M  V30 2313 C 228.495 4.66704 1.85722 0
M  V30 2314 C 230.489 6.31961 0.830913 0
M  V30 2315 C 228.176 5.94625 1.40942 0
M  V30 2316 C 229.174 6.77082 0.897128 0
M  V30 2317 O 228.862 8.02607 0.455822 0
M  V30 2318 H 228.594 0.574272 0.356634 0
M  V30 2319 H 231.148 1.99767 0.477724 0
M  V30 2320 H 229.378 2.44973 2.99207 0
M  V30 2321 H 231.067 2.8548 2.88541 0
M  V30 2322 H 231.833 4.69471 1.21744 0
M  V30 2323 H 227.712 4.0262 2.24539 0
M  V30 2324 H 231.256 6.96271 0.430368 0
M  V30 2325 H 227.153 6.28688 1.46362 0
M  V30 2326 H 227.921 8.16453 0.578457 0
M  V30 2327 N 230.584 -0.659388 1.43143 0
M  V30 2328 C 232 -0.974337 1.26407 0
M  V30 2329 C 232.2 -2.007 0.179341 0
M  V30 2330 O 231.256 -2.4856 -0.444295 0
M  V30 2331 C 232.569 -1.46447 2.62628 0
M  V30 2332 C 234.117 -1.58144 2.7011 0
M  V30 2333 C 234.592 -2.1055 4.06734 0
M  V30 2334 N 236.083 -2.17861 4.08767 0
M  V30 2335 C 236.818 -2.59519 5.1131 0
M  V30 2336 N 236.314 -3.00518 6.24228 0
M  V30 2337 N 238.107 -2.59404 4.98664 0
M  V30 2338 H 230.258 0.0240528 2.12386 0
M  V30 2339 H 232.521 -0.0518065 0.946583 0
M  V30 2340 H 232.227 -0.780123 3.42939 0
M  V30 2341 H 232.101 -2.44058 2.87603 0
M  V30 2342 H 234.488 -2.25682 1.90136 0
M  V30 2343 H 234.569 -0.589828 2.48907 0
M  V30 2344 H 234.213 -1.43616 4.87172 0
M  V30 2345 H 234.143 -3.10531 4.25298 0
M  V30 2346 H 236.634 -1.88975 3.27257 0
M  V30 2347 H 236.947 -3.31036 6.98309 0
M  V30 2348 H 235.292 -2.98337 6.2771 0
M  V30 2349 H 238.483 -2.26747 4.09516 0
M  V30 2350 H 238.656 -2.91548 5.78709 0
M  V30 2351 N 232.062 -1.29571 -0.897171 0
M  V30 2352 C 232.994 -1.10724 -2.00681 0
M  V30 2353 C 234.007 -0.0540026 -1.6271 0
M  V30 2354 O 235.196 -0.298783 -1.75982 0
M  V30 2355 C 232.296 -0.663912 -3.32333 0
M  V30 2356 C 231.469 -1.79622 -3.98816 0
M  V30 2357 C 230.528 -1.34349 -5.0876 0
M  V30 2358 O 229.554 -2.04864 -5.31055 0
M  V30 2359 N 230.756 -0.215764 -5.80099 0
M  V30 2360 H 233.521 -2.06291 -2.17403 0
M  V30 2361 H 231.082 -1.21544 -1.06951 0
M  V30 2362 H 233.074 -0.344295 -4.03233 0
M  V30 2363 H 231.644 0.199375 -3.11964 0
M  V30 2364 H 230.864 -2.28459 -3.21248 0
M  V30 2365 H 232.152 -2.55535 -4.39976 0
M  V30 2366 H 231.55 0.372091 -5.64475 0
M  V30 2367 H 230.107 0.0444707 -6.51785 0
M  V30 2368 N 233.54 1.10788 -1.12088 0
M  V30 2369 C 234.788 1.8231 -0.872205 0
M  V30 2370 C 235.109 1.85419 0.603709 0
M  V30 2371 O 234.379 1.32963 1.43867 0
M  V30 2372 H 232.959 0.675137 -0.319686 0
M  V30 2373 H 235.621 1.34068 -1.41463 0
M  V30 2374 H 234.717 2.85955 -1.25045 0
M  V30 2375 N 235.018 0.912232 1.28515 0
M  V30 2376 C 236.264 0.545405 1.95328 0
M  V30 2377 C 236.597 -0.908313 1.71649 0
M  V30 2378 O 235.872 -1.64575 1.03659 0
M  V30 2379 C 236.155 0.853483 3.4984 0
M  V30 2380 C 236.008 2.35982 3.82926 0
M  V30 2381 C 237.327 0.348589 4.38717 0
M  V30 2382 H 234.446 0.199626 0.709449 0
M  V30 2383 H 237.088 1.1412 1.5191 0
M  V30 2384 H 235.238 0.34643 3.86952 0
M  V30 2385 H 236.91 2.93738 3.55691 0
M  V30 2386 H 235.153 2.81543 3.30024 0
M  V30 2387 H 235.824 2.52593 4.90816 0
M  V30 2388 H 238.3 0.78294 4.08668 0
M  V30 2389 H 237.176 0.593242 5.45685 0
M  V30 2390 H 237.437 -0.751049 4.35674 0
M  V30 2391 N 236.496 -1.42363 0.676048 0
M  V30 2392 C 237.742 -2.0182 0.199125 0
M  V30 2393 C 238.075 -1.53339 -1.19168 0
M  V30 2394 O 237.35 -0.736124 -1.80032 0
M  V30 2395 C 237.633 -3.59331 0.235144 0
M  V30 2396 C 237.486 -4.17989 1.66149 0
M  V30 2397 C 238.805 -4.3813 -0.41595 0
M  V30 2398 H 235.924 -0.733293 0.0738311 0
M  V30 2399 H 238.566 -1.69368 0.86107 0
M  V30 2400 H 236.716 -3.87109 -0.328487 0
M  V30 2401 H 238.388 -4.0116 2.27747 0
M  V30 2402 H 236.631 -3.7377 2.20178 0
M  V30 2403 H 237.302 -5.27126 1.63837 0
M  V30 2404 H 239.778 -4.16051 0.0638529 0
M  V30 2405 H 238.654 -5.47717 -0.360115 0
M  V30 2406 H 238.915 -4.16101 -1.49373 0
M  V30 2407 N 237.974 -0.419461 -1.51915 0
M  V30 2408 C 239.202 0.152136 -2.0634 0
M  V30 2409 C 239.617 1.37988 -1.28859 0
M  V30 2410 O 238.974 1.79243 -0.343232 0
M  V30 2411 C 239.025 0.492266 -3.58133 0
M  V30 2412 O 238.746 -0.686736 -4.32684 0
M  V30 2413 C 240.247 1.11648 -4.2901 0
M  V30 2414 H 237.467 0.0158325 -0.670813 0
M  V30 2415 H 240.011 -0.593394 -1.95702 0
M  V30 2416 H 238.166 1.18769 -3.68745 0
M  V30 2417 H 238.58 -0.400341 -5.2297 0
M  V30 2418 H 240.054 1.3046 -5.36362 0
M  V30 2419 H 240.531 2.09251 -3.86148 0
M  V30 2420 H 241.137 0.460958 -4.22795 0
M  V30 2421 N 239.452 1.56882 -0.150215 0
M  V30 2422 C 240.729 1.87844 0.545327 0
M  V30 2423 C 241.109 1.0567 1.82749 0
M  V30 2424 O 240.457 0.144442 2.28043 0
M  V30 2425 C 240.667 3.39526 0.80767 0
M  V30 2426 C 242.015 4.08814 1.14703 0
M  V30 2427 O 243.039 3.44723 0.896917 0
M  V30 2428 O 241.898 5.22004 1.61784 0
M  V30 2429 H 238.992 0.778677 0.278553 0
M  V30 2430 H 241.538 1.68666 -0.187068 0
M  V30 2431 H 240.31 3.91173 -0.0996096 0
M  V30 2432 H 239.933 3.64243 1.59413 0
M  V30 2433 N 240.93 -0.123565 1.57115 0
M  V30 2434 C 241.878 -1.17082 2.00984 0
M  V30 2435 C 242.872 -1.43136 0.906009 0
M  V30 2436 O 244.078 -1.43152 1.09121 0
M  V30 2437 H 240.453 -0.394653 0.64012 0
M  V30 2438 H 242.424 -0.774292 2.88179 0
M  V30 2439 C 241.173 -2.49057 2.42623 0
M  V30 2440 H 240.496 -2.29846 3.27125 0
M  V30 2441 H 241.936 -3.20906 2.7712 0
M  V30 2442 C 240.395 -3.11305 1.28805 0
M  V30 2443 O 240.925 -3.97171 0.60153 0
M  V30 2444 N 239.131 -2.71111 1.04628 0
M  V30 2445 H 238.678 -2.01382 1.60634 0
M  V30 2446 H 238.636 -3.1309 0.286685 0
M  V30 2447 N 242.408 -1.52605 -0.393616 0
M  V30 2448 C 243.656 -1.67093 -1.13685 0
M  V30 2449 C 243.977 -0.411011 -1.90619 0
M  V30 2450 O 243.247 0.574491 -1.87287 0
M  V30 2451 H 241.827 -0.615923 -0.422668 0
M  V30 2452 H 244.489 -1.89704 -0.447039 0
M  V30 2453 H 243.585 -2.51922 -1.84232 0
M  V30 2454 N 243.887 0.651787 -1.4349 0
M  V30 2455 C 244.835 1.78586 -1.49029 0
M  V30 2456 C 245.829 1.65448 -0.363767 0
M  V30 2457 O 247.035 1.71777 -0.537821 0
M  V30 2458 H 243.41 0.589236 -0.467231 0
M  V30 2459 H 245.381 1.71035 -2.44519 0
M  V30 2460 C 244.13 3.16851 -1.43181 0
M  V30 2461 H 243.453 3.27598 -2.29171 0
M  V30 2462 H 244.893 3.96156 -1.51118 0
M  V30 2463 C 243.352 3.36568 -0.149616 0
M  V30 2464 O 243.882 3.93885 0.788509 0
M  V30 2465 N 242.088 2.90539 -0.0593484 0
M  V30 2466 H 241.635 2.4408 -0.823575 0
M  V30 2467 H 241.593 3.04108 0.797853 0
M  V30 2468 N 245.365 1.30045 0.890287 0
M  V30 2469 C 246.611 1.18737 1.64406 0
M  V30 2470 C 246.944 -0.258525 1.92472 0
M  V30 2471 O 246.219 -1.18562 1.54186 0
M  V30 2472 C 246.502 2.01087 2.98724 0
M  V30 2473 C 246.355 3.53867 2.77665 0
M  V30 2474 C 247.674 1.84457 3.9958 0
M  V30 2475 H 244.793 0.432698 0.596608 0
M  V30 2476 H 247.435 1.5962 1.0306 0
M  V30 2477 H 245.585 1.66349 3.51084 0
M  V30 2478 H 247.257 3.98637 2.32133 0
M  V30 2479 H 245.5 3.78318 2.12269 0
M  V30 2480 H 246.171 4.06772 3.7315 0
M  V30 2481 H 248.647 2.14817 3.56361 0
M  V30 2482 H 247.523 2.44411 4.91482 0
M  V30 2483 H 247.784 0.802276 4.3476 0
M  V30 2484 N 246.843 -1.10192 1.12674 0
M  V30 2485 C 248.092 -1.81573 0.8783 0
M  V30 2486 C 248.405 -1.86249 -0.597557 0
M  V30 2487 O 249.611 -2.5386 -0.962681 0
M  V30 2488 C 248.067 -3.26149 1.52167 0
M  V30 2489 C 247.675 -3.29763 3.03249 0
M  V30 2490 C 249.419 -4.0234 1.3536 0
M  V30 2491 C 247.326 -4.68815 3.60508 0
M  V30 2492 H 246.256 -0.680394 0.324931 0
M  V30 2493 H 248.907 -1.23902 1.35353 0
M  V30 2494 H 247.289 -3.83832 0.974104 0
M  V30 2495 H 248.463 -2.8189 3.6452 0
M  V30 2496 H 246.778 -2.67059 3.19481 0
M  V30 2497 H 249.375 -5.05058 1.75559 0
M  V30 2498 H 249.718 -4.15235 0.297554 0
M  V30 2499 H 250.251 -3.51079 1.87052 0
M  V30 2500 H 246.99 -4.61121 4.65884 0
M  V30 2501 H 246.51 -5.17045 3.04014 0
M  V30 2502 H 248.189 -5.37785 3.59717 0
M  V30 2503 N 248.321 -0.919034 -1.28029 0
M  V30 2504 C 249.251 -0.428581 -2.29533 0
M  V30 2505 C 250.232 0.50659 -1.62381 0
M  V30 2506 O 251.417 0.413195 -1.89753 0
M  V30 2507 C 248.547 0.327388 -3.45753 0
M  V30 2508 C 247.501 -0.519137 -4.2484 0
M  V30 2509 C 246.827 0.365486 -5.33449 0
M  V30 2510 C 248.127 -1.77914 -4.91064 0
M  V30 2511 H 249.821 -1.27687 -2.70807 0
M  V30 2512 H 247.367 -0.615428 -1.30186 0
M  V30 2513 H 249.32 0.681378 -4.15855 0
M  V30 2514 H 248.044 1.20963 -3.03374 0
M  V30 2515 H 246.703 -0.855717 -3.56473 0
M  V30 2516 H 246.351 1.24642 -4.87312 0
M  V30 2517 H 246.051 -0.197356 -5.87268 0
M  V30 2518 H 247.575 0.715241 -6.06396 0
M  V30 2519 H 248.989 -1.49374 -5.53498 0
M  V30 2520 H 247.386 -2.2848 -5.54903 0
M  V30 2521 H 248.456 -2.50382 -4.15255 0
M  V30 2522 N 249.799 1.42003 -0.683588 0
M  V30 2523 C 251.076 1.95112 -0.138075 0
M  V30 2524 C 251.456 1.62359 1.34918 0
M  V30 2525 O 250.804 0.924311 2.08971 0
M  V30 2526 C 251.014 3.46505 -0.416581 0
M  V30 2527 C 252.362 4.23254 -0.337834 0
M  V30 2528 O 253.386 3.54468 -0.35082 0
M  V30 2529 O 252.245 5.45743 -0.287596 0
M  V30 2530 H 249.339 0.826961 -0.00797996 0
M  V30 2531 H 251.885 1.51784 -0.758924 0
M  V30 2532 H 250.657 3.63582 -1.4465 0
M  V30 2533 H 250.28 3.969 0.235839 0
M  V30 2534 N 251.277 0.427512 1.51691 0
M  V30 2535 C 252.523 -0.142439 2.02299 0
M  V30 2536 C 252.856 -1.43214 1.31162 0
M  V30 2537 O 252.131 -1.89833 0.423511 0
M  V30 2538 C 252.414 -0.371301 3.58181 0
M  V30 2539 C 252.267 0.936358 4.39946 0
M  V30 2540 C 253.586 -1.14542 4.24933 0
M  V30 2541 H 250.705 -0.0502937 0.735282 0
M  V30 2542 H 253.347 0.564584 1.81418 0
M  V30 2543 H 251.497 -0.973559 3.76104 0
M  V30 2544 H 253.169 1.57184 4.33694 0
M  V30 2545 H 251.412 1.5432 4.05423 0
M  V30 2546 H 252.083 0.730388 5.47147 0
M  V30 2547 H 254.559 -0.635362 4.11221 0
M  V30 2548 H 253.435 -1.27431 5.33903 0
M  V30 2549 H 253.696 -2.17093 3.85127 0
M  V30 2550 N 252.755 -1.56801 0.158532 0
M  V30 2551 C 253.705 -2.13923 -0.788738 0
M  V30 2552 C 254.689 -1.07006 -1.2016 0
M  V30 2553 O 255.881 -1.33159 -1.1661 0
M  V30 2554 C 253.01 -2.77348 -2.02319 0
M  V30 2555 C 252.096 -3.91404 -1.6329 0
M  V30 2556 N 252.487 -4.9677 -0.951463 0
M  V30 2557 C 250.785 -4.02326 -1.92482 0
M  V30 2558 C 251.486 -5.76698 -0.761221 0
M  V30 2559 N 250.462 -5.27859 -1.29869 0
M  V30 2560 H 254.264 -2.92757 -0.258995 0
M  V30 2561 H 251.778 -1.62344 -0.0426055 0
M  V30 2562 H 253.775 -3.16639 -2.71192 0
M  V30 2563 H 252.435 -1.99991 -2.558 0
M  V30 2564 H 253.446 -5.14284 -0.610928 0
M  V30 2565 H 250.123 -3.36059 -2.47732 0
M  V30 2566 H 251.513 -6.71529 -0.223284 0
M  V30 2567 N 254.233 0.115231 -1.57178 0
M  V30 2568 C 255.481 0.820727 -1.84685 0
M  V30 2569 C 255.802 1.80237 -0.744279 0
M  V30 2570 O 255.072 1.94529 0.231375 0
M  V30 2571 H 253.652 0.306084 -0.681411 0
M  V30 2572 H 256.314 0.101656 -1.94635 0
M  V30 2573 H 255.41 1.36366 -2.80733 0
M  V30 2574 N 255.711 1.52812 0.385517 0
M  V30 2575 C 256.644 1.72592 1.49289 0
M  V30 2576 C 257.622 0.573819 1.52138 0
M  V30 2577 O 258.806 0.80404 1.70492 0
M  V30 2578 C 255.933 1.78669 2.87741 0
M  V30 2579 C 254.979 3.00455 3.02703 0
M  V30 2580 S 255.812 4.60366 2.73538 0
M  V30 2581 C 256.968 4.69263 4.14177 0
M  V30 2582 H 257.201 2.66248 1.32285 0
M  V30 2583 H 254.734 1.43148 0.578611 0
M  V30 2584 H 256.692 1.82855 3.67524 0
M  V30 2585 H 255.353 0.861 3.02069 0
M  V30 2586 H 254.546 3.01258 4.04054 0
M  V30 2587 H 254.148 2.94278 2.30817 0
M  V30 2588 H 256.44 4.48092 5.08153 0
M  V30 2589 H 257.383 5.71276 4.18388 0
M  V30 2590 H 257.791 3.98072 4.00249 0
M  V30 2591 N 257.189 -0.644168 1.43834 0
M  V30 2592 C 258.099 -1.78563 1.52159 0
M  V30 2593 C 259.115 -1.69147 0.408069 0
M  V30 2594 O 260.291 -1.90156 0.663524 0
M  V30 2595 C 257.356 -3.14888 1.45073 0
M  V30 2596 C 256.417 -3.36034 2.6717 0
M  V30 2597 C 255.65 -4.65855 2.60413 0
M  V30 2598 O 255.873 -5.45805 1.65689 0
M  V30 2599 O 254.807 -4.88918 3.5106 0
M  V30 2600 H 258.633 -1.74494 2.48567 0
M  V30 2601 H 256.218 -0.80378 1.25935 0
M  V30 2602 H 258.1 -3.96179 1.43597 0
M  V30 2603 H 256.775 -3.19528 0.518037 0
M  V30 2604 H 255.682 -2.54472 2.74217 0
M  V30 2605 H 257.015 -3.36247 3.59442 0
M  V30 2606 N 258.668 -1.30515 -0.883378 0
M  V30 2607 C 259.917 -1.18795 -1.63005 0
M  V30 2608 C 260.23 0.255923 -1.93919 0
M  V30 2609 O 261.436 0.494654 -2.66956 0
M  V30 2610 C 259.892 -2.07878 -2.93794 0
M  V30 2611 C 259.5 -3.57184 -2.70414 0
M  V30 2612 C 261.244 -2.04924 -3.71761 0
M  V30 2613 C 259.151 -4.38317 -3.97029 0
M  V30 2614 H 258.081 -0.441031 -0.611562 0
M  V30 2615 H 260.732 -1.55275 -0.977854 0
M  V30 2616 H 259.114 -1.64283 -3.60315 0
M  V30 2617 H 260.288 -4.08937 -2.12384 0
M  V30 2618 H 258.603 -3.61976 -2.0582 0
M  V30 2619 H 261.2 -2.62792 -4.65665 0
M  V30 2620 H 261.543 -1.0331 -4.03277 0
M  V30 2621 H 262.076 -2.46649 -3.12104 0
M  V30 2622 H 258.815 -5.40632 -3.70671 0
M  V30 2623 H 258.335 -3.91326 -4.54559 0
M  V30 2624 H 260.014 -4.49834 -4.65036 0
M  V30 2625 N 260.146 1.09593 -1.13257 0
M  V30 2626 C 261.076 2.18214 -0.830946 0
M  V30 2627 C 262.057 1.68812 0.208966 0
M  V30 2628 O 263.242 1.9408 0.0682666 0
M  V30 2629 C 260.372 3.46051 -0.294296 0
M  V30 2630 C 259.326 4.08778 -1.26826 0
M  V30 2631 C 258.652 5.31419 -0.591449 0
M  V30 2632 C 259.952 4.51476 -2.62615 0
M  V30 2633 H 261.646 2.43703 -1.73923 0
M  V30 2634 H 259.192 1.17128 -0.837675 0
M  V30 2635 H 261.145 4.2134 -0.0709606 0
M  V30 2636 H 259.869 3.20079 0.649366 0
M  V30 2637 H 258.528 3.35505 -1.47756 0
M  V30 2638 H 258.176 5.01727 0.357633 0
M  V30 2639 H 257.876 5.74341 -1.24123 0
M  V30 2640 H 259.4 6.09433 -0.377355 0
M  V30 2641 H 260.814 5.17999 -2.45663 0
M  V30 2642 H 259.211 5.05277 -3.23752 0
M  V30 2643 H 260.281 3.63962 -3.20406 0
M  V30 2644 N 261.624 0.925811 1.2754 0
M  V30 2645 C 262.901 0.483726 1.89524 0
M  V30 2646 C 263.281 -1.03809 1.83812 0
M  V30 2647 O 262.629 -1.89143 1.28207 0
M  V30 2648 C 262.839 1.02769 3.33526 0
M  V30 2649 C 264.187 1.08703 4.10449 0
M  V30 2650 O 265.211 0.977175 3.42534 0
M  V30 2651 O 264.07 1.25599 5.31871 0
M  V30 2652 H 261.164 0.15529 0.812289 0
M  V30 2653 H 263.71 1.01738 1.35822 0
M  V30 2654 H 262.482 2.07155 3.31967 0
M  V30 2655 H 262.105 0.475567 3.94746 0
M  V30 2656 N 263.102 -1.41638 0.69111 0
M  V30 2657 C 264.513 -1.84346 0.295517 0
M  V30 2658 C 264.864 -1.57833 -1.16547 0
M  V30 2659 O 263.989 -1.04648 -1.89414 0
M  V30 2660 C 264.584 -3.34636 0.529575 0
M  V30 2661 C 263.143 -3.7593 0.187944 0
M  V30 2662 C 262.29 -2.65082 0.814052 0
M  V30 2663 H 265.241 -1.31253 0.892092 0
M  V30 2664 H 265.262 -3.79903 -0.213148 0
M  V30 2665 H 264.774 -3.53901 1.59297 0
M  V30 2666 H 262.875 -3.62268 -0.871367 0
M  V30 2667 H 262.988 -4.74808 0.63985 0
M  V30 2668 H 261.352 -2.53528 0.244017 0
M  V30 2669 H 262.135 -2.87167 1.88123 0
M  V30 2670 N 264.58 -0.43555 -1.51462 0
M  V30 2671 C 265.829 0.133007 -2.01261 0
M  V30 2672 C 266.142 1.43942 -1.32439 0
M  V30 2673 O 267.348 2.09081 -1.73198 0
M  V30 2674 C 265.804 0.287581 -3.58749 0
M  V30 2675 C 265.412 -1.00829 -4.36506 0
M  V30 2676 C 267.156 0.810004 -4.167 0
M  V30 2677 C 265.063 -0.819454 -5.85695 0
M  V30 2678 H 263.993 0.0534822 -0.752101 0
M  V30 2679 H 266.644 -0.565038 -1.74584 0
M  V30 2680 H 265.026 1.04859 -3.81865 0
M  V30 2681 H 266.2 -1.77749 -4.25138 0
M  V30 2682 H 264.515 -1.45911 -3.89999 0
M  V30 2683 H 267.112 0.967743 -5.2587 0
M  V30 2684 H 267.455 1.79196 -3.75758 0
M  V30 2685 H 267.988 0.107357 -3.97655 0
M  V30 2686 H 264.727 -1.77374 -6.31046 0
M  V30 2687 H 264.247 -0.0900208 -5.99732 0
M  V30 2688 H 265.926 -0.471949 -6.45276 0
M  V30 2689 N 266.058 1.56714 -0.166846 0
M  V30 2690 C 267.021 2.16539 0.751232 0
M  V30 2691 C 268.021 1.11228 1.16125 0
M  V30 2692 O 269.211 1.36765 1.07894 0
M  V30 2693 C 266.343 2.74462 2.02196 0
M  V30 2694 H 267.536 2.99013 0.230499 0
M  V30 2695 H 265.089 1.56081 0.0826982 0
M  V30 2696 H 265.824 1.95709 2.58589 0
M  V30 2697 H 265.609 3.51527 1.73698 0
M  V30 2698 H 267.099 3.20489 2.67725 0
M  V30 2699 N 267.536 -0.106894 1.57237 0
M  V30 2700 C 268.469 -1.16125 1.96444 0
M  V30 2701 C 269.447 -1.3947 0.835871 0
M  V30 2702 O 270.631 -1.53425 1.09513 0
M  V30 2703 C 267.758 -2.51277 2.27107 0
M  V30 2704 C 266.804 -2.44285 3.4961 0
M  V30 2705 S 267.637 -1.87077 5.01759 0
M  V30 2706 C 268.793 -3.23877 5.35588 0
M  V30 2707 H 269.026 -0.826971 2.85567 0
M  V30 2708 H 266.559 -0.314124 1.51171 0
M  V30 2709 H 268.517 -3.29035 2.45451 0
M  V30 2710 H 267.178 -2.81879 1.38576 0
M  V30 2711 H 266.371 -3.4387 3.68469 0
M  V30 2712 H 265.973 -1.74652 3.30715 0
M  V30 2713 H 268.265 -4.20122 5.31511 0
M  V30 2714 H 269.208 -3.09833 6.36717 0
M  V30 2715 H 269.616 -3.22864 4.63054 0
M  V30 2716 N 269.014 -1.53014 -0.377408 0
M  V30 2717 C 269.924 -1.81557 -1.48574 0
M  V30 2718 C 270.94 -0.703102 -1.59162 0
M  V30 2719 O 272.116 -0.99192 -1.75279 0
M  V30 2720 C 269.181 -1.9889 -2.83978 0
M  V30 2721 C 268.242 -3.22801 -2.83016 0
M  V30 2722 C 267.475 -3.39298 -4.11962 0
M  V30 2723 O 267.698 -2.60345 -5.0752 0
M  V30 2724 O 266.632 -4.32604 -4.18494 0
M  V30 2725 H 270.458 -2.75695 -1.27382 0
M  V30 2726 H 268.043 -1.38248 -0.566373 0
M  V30 2727 H 269.925 -2.11931 -3.6423 0
M  V30 2728 H 268.6 -1.07942 -3.05172 0
M  V30 2729 H 267.507 -3.15193 -2.01505 0
M  V30 2730 H 268.84 -4.13632 -2.66775 0
M  V30 2731 N 270.492 0.636531 -1.44174 0
M  V30 2732 C 271.44 1.76995 -1.50915 0
M  V30 2733 C 272.434 1.65053 -0.381295 0
M  V30 2734 O 273.64 1.71197 -0.55601 0
M  V30 2735 H 270.015 0.584247 -0.473455 0
M  V30 2736 H 271.986 1.68432 -2.4632 0
M  V30 2737 C 270.735 3.15314 -1.46534 0
M  V30 2738 H 270.058 3.25149 -2.32633 0
M  V30 2739 H 271.498 3.9453 -1.55312 0
M  V30 2740 C 269.957 3.3639 -0.185305 0
M  V30 2741 O 270.487 3.94699 0.746688 0
M  V30 2742 N 268.693 2.9046 -0.0901606 0
M  V30 2743 H 268.24 2.43193 -0.849416 0
M  V30 2744 H 268.198 3.04937 0.765553 0
M  V30 2745 N 271.97 1.30982 0.876444 0
M  V30 2746 C 272.933 1.18054 1.96459 0
M  V30 2747 C 273.933 0.109399 1.60427 0
M  V30 2748 O 275.123 0.358173 1.70478 0
M  V30 2749 C 272.255 0.810616 3.31122 0
M  V30 2750 H 273.448 2.14735 2.09354 0
M  V30 2751 H 271.001 1.145 1.06392 0
M  V30 2752 H 271.736 -0.155322 3.23928 0
M  V30 2753 H 271.521 1.58481 3.58645 0
M  V30 2754 H 273.011 0.743876 4.10921 0
M  V30 2755 N 273.449 -1.08991 1.13837 0
M  V30 2756 C 274.698 -1.80631 0.897509 0
M  V30 2757 C 275.011 -1.86872 -0.57777 0
M  V30 2758 O 276.217 -2.54866 -0.935701 0
M  V30 2759 C 274.673 -3.24517 1.55618 0
M  V30 2760 C 274.281 -3.26529 3.0673 0
M  V30 2761 C 276.025 -4.00882 1.3962 0
M  V30 2762 C 273.932 -4.64965 3.65461 0
M  V30 2763 H 272.862 -0.67691 0.332129 0
M  V30 2764 H 275.513 -1.2246 1.3666 0
M  V30 2765 H 273.895 -3.82778 1.01476 0
M  V30 2766 H 275.069 -2.78008 3.67489 0
M  V30 2767 H 273.384 -2.63656 3.22296 0
M  V30 2768 H 275.981 -5.03167 1.80906 0
M  V30 2769 H 276.324 -4.14896 0.341578 0
M  V30 2770 H 276.857 -3.49075 1.90766 0
M  V30 2771 H 273.596 -4.56153 4.70749 0
M  V30 2772 H 273.116 -5.13792 3.09481 0
M  V30 2773 H 274.795 -5.3394 3.654 0
M  V30 2774 N 274.927 -0.932562 -1.27047 0
M  V30 2775 C 275.875 -0.42603 -2.28665 0
M  V30 2776 C 276.869 0.49219 -1.62092 0
M  V30 2777 O 278.075 0.371355 -1.76128 0
M  V30 2778 H 274.45 -0.119213 -0.742491 0
M  V30 2779 H 276.421 -1.29579 -2.68797 0
M  V30 2780 C 275.17 0.301426 -3.46391 0
M  V30 2781 H 274.493 -0.39595 -3.97834 0
M  V30 2782 H 275.933 0.6202 -4.1944 0
M  V30 2783 C 274.392 1.51616 -3.00856 0
M  V30 2784 O 274.922 2.61476 -3.04948 0
M  V30 2785 N 273.128 1.36969 -2.56296 0
M  V30 2786 H 272.675 0.475873 -2.53166 0
M  V30 2787 H 272.633 2.18368 -2.26192 0
M  V30 2788 N 276.405 1.4127 -0.698611 0
M  V30 2789 C 277.368 2.29158 -0.044132 0
M  V30 2790 C 278.368 1.44529 0.704841 0
M  V30 2791 O 279.558 1.65643 0.539276 0
M  V30 2792 C 276.69 3.27459 0.947809 0
M  V30 2793 H 277.883 2.88529 -0.817994 0
M  V30 2794 H 275.436 1.49307 -0.46228 0
M  V30 2795 H 276.171 2.73073 1.74933 0
M  V30 2796 H 275.956 3.8991 0.41385 0
M  V30 2797 H 277.446 3.93311 1.40344 0
M  V30 2798 N 277.883 0.443576 1.51229 0
M  V30 2799 C 279.132 -0.122332 2.01329 0
M  V30 2800 C 279.445 -1.43237 1.33201 0
M  V30 2801 O 280.651 -2.0816 1.74304 0
M  V30 2802 C 279.107 -0.268551 3.58897 0
M  V30 2803 C 278.715 1.03142 4.35965 0
M  V30 2804 C 280.459 -0.787894 4.17124 0
M  V30 2805 C 278.366 0.850504 5.85252 0
M  V30 2806 H 277.296 -0.0494929 0.752374 0
M  V30 2807 H 279.947 0.574289 1.74282 0
M  V30 2808 H 278.329 -1.02832 3.82415 0
M  V30 2809 H 279.503 1.80001 4.24189 0
M  V30 2810 H 277.818 1.47977 3.89219 0
M  V30 2811 H 280.415 -0.939841 5.26375 0
M  V30 2812 H 280.758 -1.77201 3.76703 0
M  V30 2813 H 281.291 -0.0862669 3.97706 0
M  V30 2814 H 278.03 1.80718 6.30096 0
M  V30 2815 H 277.55 0.121825 5.99676 0
M  V30 2816 H 279.229 0.506163 6.45017 0
M  V30 2817 N 279.361 -1.56624 0.175154 0
M  V30 2818 C 280.772 -1.83561 -0.340916 0
M  V30 2819 C 281.123 -1.09511 -1.62794 0
M  V30 2820 O 280.248 -0.349389 -2.13561 0
M  V30 2821 C 280.843 -3.32979 -0.625313 0
M  V30 2822 C 279.402 -3.60399 -1.08581 0
M  V30 2823 C 278.549 -2.77024 -0.123722 0
M  V30 2824 H 281.5 -1.53593 0.399344 0
M  V30 2825 H 281.521 -3.50666 -1.47694 0
M  V30 2826 H 281.033 -3.86847 0.311575 0
M  V30 2827 H 279.134 -3.11945 -2.03767 0
M  V30 2828 H 279.247 -4.68711 -0.992317 0
M  V30 2829 H 277.611 -2.46993 -0.621821 0
M  V30 2830 H 278.394 -3.33674 0.807256 0
M  V30 2831 N 280.839 0.0985539 -1.57292 0
M  V30 2832 C 282.087 0.801092 -1.85545 0
M  V30 2833 C 282.408 1.79438 -0.763353 0
M  V30 2834 O 281.678 1.94763 0.21073 0
M  V30 2835 H 280.258 0.29884 -0.684619 0
M  V30 2836 H 282.92 0.0810064 -1.94732 0
M  V30 2837 H 282.016 1.3338 -2.82163 0
M  V30 2838 N 282.317 1.53212 0.369288 0
M  V30 2839 C 283.563 1.69466 1.11397 0
M  V30 2840 C 283.896 0.443257 1.89074 0
M  V30 2841 O 283.171 -0.559386 1.86282 0
M  V30 2842 C 283.454 2.9422 2.07621 0
M  V30 2843 C 283.307 4.29508 1.33577 0
M  V30 2844 C 284.626 3.14565 3.07794 0
M  V30 2845 H 281.745 0.616667 0.403597 0
M  V30 2846 H 284.387 1.85845 0.395179 0
M  V30 2847 H 282.537 2.80387 2.68916 0
M  V30 2848 H 284.209 4.55147 0.750955 0
M  V30 2849 H 282.452 4.29088 0.637618 0
M  V30 2850 H 283.123 5.12926 2.03989 0
M  V30 2851 H 285.599 3.2756 2.56601 0
M  V30 2852 H 284.475 4.03297 3.72348 0
M  V30 2853 H 284.736 2.29675 3.77759 0
M  V30 2854 N 283.795 -0.628877 1.44509 0
M  V30 2855 C 285.041 -1.39045 1.47629 0
M  V30 2856 C 285.374 -1.93892 0.109343 0
M  V30 2857 O 284.649 -1.7379 -0.87334 0
M  V30 2858 C 284.932 -2.55408 2.53848 0
M  V30 2859 C 284.785 -2.05896 3.99909 0
M  V30 2860 C 286.104 -3.5759 2.56549 0
M  V30 2861 H 283.223 -0.504232 0.537512 0
M  V30 2862 H 285.865 -0.710854 1.76201 0
M  V30 2863 H 284.015 -3.13384 2.29615 0
M  V30 2864 H 285.687 -1.52734 4.35282 0
M  V30 2865 H 283.93 -1.37061 4.11578 0
M  V30 2866 H 284.601 -2.89681 4.69882 0
M  V30 2867 H 287.077 -3.09419 2.78207 0
M  V30 2868 H 285.953 -4.36527 3.32769 0
M  V30 2869 H 286.214 -4.11808 1.60832 0
M  V30 2870 N 285.273 -1.31445 -0.869486 0
M  V30 2871 C 286.501 -1.24122 -1.65534 0
M  V30 2872 C 286.916 0.193387 -1.87807 0
M  V30 2873 O 286.273 1.12557 -1.43656 0
M  V30 2874 C 286.324 -1.98229 -3.02304 0
M  V30 2875 O 286.045 -3.3609 -2.81026 0
M  V30 2876 C 287.546 -1.97751 -3.96749 0
M  V30 2877 H 284.766 -0.428868 -0.516055 0
M  V30 2878 H 287.31 -1.73328 -1.08525 0
M  V30 2879 H 285.465 -1.52782 -3.56001 0
M  V30 2880 H 285.879 -3.7383 -3.67902 0
M  V30 2881 H 287.353 -2.54114 -4.90031 0
M  V30 2882 H 287.83 -0.960137 -4.28577 0
M  V30 2883 H 288.436 -2.43079 -3.48988 0
M  V30 2884 N 286.751 1.08385 -1.14413 0
M  V30 2885 C 287.997 1.81044 -0.913834 0
M  V30 2886 C 288.33 1.86004 0.558209 0
M  V30 2887 O 287.605 1.33606 1.4135 0
M  V30 2888 C 287.888 3.26648 -1.51569 0
M  V30 2889 C 287.741 3.29895 -3.0576 0
M  V30 2890 C 289.06 4.23629 -1.19273 0
M  V30 2891 H 286.179 0.65727 -0.333414 0
M  V30 2892 H 288.821 1.26896 -1.41412 0
M  V30 2893 H 286.971 3.72889 -1.09023 0
M  V30 2894 H 288.643 2.91977 -3.57137 0
M  V30 2895 H 286.886 2.69163 -3.40197 0
M  V30 2896 H 287.557 4.32516 -3.42977 0
M  V30 2897 H 290.033 3.85727 -1.56057 0
M  V30 2898 H 288.909 5.23822 -1.64017 0
M  V30 2899 H 289.17 4.41968 -0.108068 0
M  V30 2900 N 288.23 0.939286 1.26551 0
M  V30 2901 C 289.478 0.58469 1.93457 0
M  V30 2902 C 289.799 -0.878774 1.74076 0
M  V30 2903 O 289.069 -1.62421 1.09528 0
M  V30 2904 H 287.649 0.21325 0.715914 0
M  V30 2905 H 290.311 1.1942 1.54029 0
M  V30 2906 H 289.407 0.800849 3.0165 0
M  V30 2907 N 289.708 -1.40897 0.706093 0
M  V30 2908 C 290.638 -2.33418 0.0620085 0
M  V30 2909 C 291.619 -1.52385 -0.755827 0
M  V30 2910 O 292.804 -1.80886 -0.706674 0
M  V30 2911 C 289.934 -3.36293 -0.867445 0
M  V30 2912 C 288.888 -4.27716 -0.155932 0
M  V30 2913 C 288.214 -5.2105 -1.20046 0
M  V30 2914 C 289.514 -5.12944 0.984149 0
M  V30 2915 H 291.208 -2.87527 0.83477 0
M  V30 2916 H 288.754 -1.38249 0.402875 0
M  V30 2917 H 290.707 -3.99949 -1.32735 0
M  V30 2918 H 289.431 -2.80556 -1.67199 0
M  V30 2919 H 288.09 -3.65498 0.284047 0
M  V30 2920 H 287.738 -4.61624 -1.99781 0
M  V30 2921 H 287.438 -5.83056 -0.729328 0
M  V30 2922 H 288.962 -5.87584 -1.66066 0
M  V30 2923 H 290.376 -5.70109 0.604048 0
M  V30 2924 H 288.773 -5.83945 1.38304 0
M  V30 2925 H 289.843 -4.49485 1.81911 0
M  V30 2926 N 291.186 -0.45159 -1.50991 0
M  V30 2927 C 292.433 0.110074 -2.02201 0
M  V30 2928 C 292.761 1.4146 -1.33489 0
M  V30 2929 O 292.016 1.90617 -0.443125 0
M  V30 2930 C 292.315 0.361728 -3.55565 0
M  V30 2931 C 291.981 -0.858717 -4.42648 0
M  V30 2932 C 290.643 -1.19338 -4.66167 0
M  V30 2933 C 292.995 -1.67221 -4.93646 0
M  V30 2934 C 290.323 -2.34195 -5.37931 0
M  V30 2935 C 292.675 -2.8119 -5.6667 0
M  V30 2936 C 291.339 -3.15094 -5.88449 0
M  V30 2937 H 290.609 0.040279 -0.739904 0
M  V30 2938 H 293.256 -0.601696 -1.81802 0
M  V30 2939 H 291.561 1.15554 -3.74372 0
M  V30 2940 H 293.258 0.80996 -3.92735 0
M  V30 2941 H 289.848 -0.58796 -4.24548 0
M  V30 2942 H 294.032 -1.42686 -4.75347 0
M  V30 2943 H 289.288 -2.6076 -5.53005 0
M  V30 2944 H 293.462 -3.44585 -6.05173 0
M  V30 2945 H 291.089 -4.04204 -6.43835 0
M  V30 2946 N 292.664 1.56529 -0.183458 0
M  V30 2947 C 293.627 2.17324 0.728223 0
M  V30 2948 C 294.627 1.12453 1.14939 0
M  V30 2949 O 295.817 1.37902 1.06437 0
M  V30 2950 C 292.949 2.76591 1.99274 0
M  V30 2951 H 294.142 2.99241 0.198772 0
M  V30 2952 H 291.695 1.5616 0.0661391 0
M  V30 2953 H 292.43 1.98441 2.56499 0
M  V30 2954 H 292.215 3.5335 1.69959 0
M  V30 2955 H 293.705 3.23311 2.6431 0
M  V30 2956 N 294.142 -0.090211 1.57342 0
M  V30 2957 C 295.09 -1.12792 2.03422 0
M  V30 2958 C 296.084 -1.41182 0.936166 0
M  V30 2959 O 297.29 -1.40805 1.12133 0
M  V30 2960 H 293.665 -0.380986 0.648347 0
M  V30 2961 H 295.636 -0.71299 2.89757 0
M  V30 2962 C 294.385 -2.43855 2.47851 0
M  V30 2963 H 293.708 -2.22855 3.31927 0
M  V30 2964 H 295.148 -3.14955 2.83865 0
M  V30 2965 C 293.607 -3.08503 1.3538 0
M  V30 2966 O 294.137 -3.95805 0.685641 0
M  V30 2967 N 292.343 -2.68831 1.10355 0
M  V30 2968 H 291.89 -1.97929 1.64869 0
M  V30 2969 H 291.848 -3.12412 0.353031 0
M  V30 2970 N 295.62 -1.53406 -0.361157 0
M  V30 2971 C 297.036 -1.43277 -0.703124 0
M  V30 2972 C 297.236 -0.575384 -1.9311 0
M  V30 2973 O 296.292 -0.0595362 -2.5243 0
M  V30 2974 C 297.605 -2.8653 -0.9122 0
M  V30 2975 C 299.153 -2.96191 -1.01193 0
M  V30 2976 C 299.628 -4.40514 -1.25345 0
M  V30 2977 N 301.119 -4.43962 -1.32105 0
M  V30 2978 C 301.854 -5.52746 -1.5251 0
M  V30 2979 N 301.35 -6.71567 -1.70203 0
M  V30 2980 N 303.143 -5.40331 -1.54916 0
M  V30 2981 H 295.294 -2.07654 0.446475 0
M  V30 2982 H 297.557 -0.937944 0.137715 0
M  V30 2983 H 297.263 -3.51605 -0.0816414 0
M  V30 2984 H 297.137 -3.30441 -1.81903 0
M  V30 2985 H 299.524 -2.31266 -1.83303 0
M  V30 2986 H 299.605 -2.55667 -0.0823929 0
M  V30 2987 H 299.249 -5.06014 -0.437346 0
M  V30 2988 H 299.179 -4.78614 -2.19627 0
M  V30 2989 H 301.67 -3.58332 -1.20028 0
M  V30 2990 H 301.983 -7.50241 -1.85359 0
M  V30 2991 H 300.328 -6.74545 -1.67373 0
M  V30 2992 H 303.519 -4.46465 -1.40663 0
M  V30 2993 H 303.692 -6.25173 -1.70477 0
M  V30 2994 N 297.098 0.621204 -1.44841 0
M  V30 2995 C 298.346 1.37783 -1.47852 0
M  V30 2996 C 298.667 1.94653 -0.116224 0
M  V30 2997 O 297.937 1.76367 0.852737 0
M  V30 2998 H 296.517 0.511453 -0.544449 0
M  V30 2999 H 299.179 0.730446 -1.80694 0
M  V30 3000 H 298.275 2.20414 -2.20961 0
M  V30 3001 N 298.576 1.31904 0.862503 0
M  V30 3002 C 299.539 1.20131 1.95195 0
M  V30 3003 C 300.539 0.126409 1.60302 0
M  V30 3004 O 301.729 0.376234 1.70089 0
M  V30 3005 C 298.861 0.845691 3.30244 0
M  V30 3006 H 300.054 2.16943 2.07064 0
M  V30 3007 H 297.607 1.15622 1.05172 0
M  V30 3008 H 298.342 -0.120957 3.24074 0
M  V30 3009 H 298.127 1.62276 3.56944 0
M  V30 3010 H 299.617 0.787418 4.10109 0
M  V30 3011 N 300.054 -1.07777 1.14986 0
M  V30 3012 C 301.331 -1.7699 0.832695 0
M  V30 3013 C 301.711 -2.001 -0.672561 0
M  V30 3014 O 301.059 -1.61598 -1.6155 0
M  V30 3015 C 301.269 -3.08139 1.63863 0
M  V30 3016 C 302.617 -3.8256 1.84208 0
M  V30 3017 O 303.641 -3.17939 1.60603 0
M  V30 3018 O 302.5 -4.98612 2.23714 0
M  V30 3019 H 299.594 -0.768389 0.305791 0
M  V30 3020 H 302.14 -1.14182 1.25541 0
M  V30 3021 H 300.912 -2.86909 2.6608 0
M  V30 3022 H 300.535 -3.78678 1.21197 0
M  V30 3023 N 301.532 -0.945985 -1.26051 0
M  V30 3024 C 302.778 -0.597002 -1.93814 0
M  V30 3025 C 303.111 0.862484 -1.73997 0
M  V30 3026 O 302.386 1.61769 -1.07986 0
M  V30 3027 C 302.669 -0.945937 -3.47454 0
M  V30 3028 C 302.522 -2.46052 -3.76535 0
M  V30 3029 C 303.841 -0.464785 -4.37639 0
M  V30 3030 H 300.96 -0.218366 -0.703907 0
M  V30 3031 H 303.602 -1.18107 -1.48831 0
M  V30 3032 H 301.752 -0.448902 -3.85898 0
M  V30 3033 H 303.424 -3.03065 -3.47778 0
M  V30 3034 H 301.667 -2.90194 -3.22444 0
M  V30 3035 H 302.338 -2.65517 -4.83947 0
M  V30 3036 H 304.814 -0.891016 -4.06448 0
M  V30 3037 H 303.69 -0.737712 -5.4392 0
M  V30 3038 H 303.951 0.635274 -4.37512 0
M  V30 3039 N 303.011 1.40521 -0.713556 0
M  V30 3040 C 303.974 2.29098 -0.0684347 0
M  V30 3041 C 304.974 1.45268 0.689472 0
M  V30 3042 O 306.164 1.66205 0.521677 0
M  V30 3043 C 303.296 3.28446 0.913024 0
M  V30 3044 H 304.489 2.87645 -0.84855 0
M  V30 3045 H 302.042 1.48809 -0.47809 0
M  V30 3046 H 302.777 2.74913 1.72027 0
M  V30 3047 H 302.562 3.90327 0.372472 0
M  V30 3048 H 304.052 3.94777 1.36165 0
M  V30 3049 N 304.489 0.459591 1.5075 0
M  V30 3050 C 305.419 -0.330644 2.31147 0
M  V30 3051 C 306.4 -1.00087 1.37538 0
M  V30 3052 O 307.585 -1.00025 1.66459 0
M  V30 3053 C 304.715 -1.41958 3.16962 0
M  V30 3054 C 303.669 -0.871608 4.19031 0
M  V30 3055 C 302.995 -2.05797 4.9351 0
M  V30 3056 C 304.295 0.109251 5.22186 0
M  V30 3057 H 305.989 0.340336 2.97459 0
M  V30 3058 H 303.535 0.165119 1.4305 0
M  V30 3059 H 305.488 -1.9798 3.71997 0
M  V30 3060 H 304.212 -2.11917 2.48513 0
M  V30 3061 H 302.871 -0.333442 3.6508 0
M  V30 3062 H 302.519 -2.74427 4.21544 0
M  V30 3063 H 302.219 -1.6976 5.62544 0
M  V30 3064 H 303.743 -2.62331 5.51375 0
M  V30 3065 H 305.157 -0.361405 5.7216 0
M  V30 3066 H 303.554 0.383316 5.98875 0
M  V30 3067 H 304.624 1.03887 4.73641 0
M  V30 3068 N 305.967 -1.56429 0.191757 0
M  V30 3069 C 307.216 -1.9666 -0.448088 0
M  V30 3070 C 307.529 -1.08136 -1.62991 0
M  V30 3071 O 308.735 -1.38135 -2.33733 0
M  V30 3072 C 307.191 -3.49753 -0.848585 0
M  V30 3073 C 306.799 -4.46935 0.308764 0
M  V30 3074 C 308.543 -3.9876 -1.4557 0
M  V30 3075 C 306.45 -5.91293 -0.112506 0
M  V30 3076 H 305.38 -0.734312 -0.171179 0
M  V30 3077 H 308.031 -1.81301 0.283242 0
M  V30 3078 H 306.413 -3.60604 -1.63649 0
M  V30 3079 H 307.587 -4.47813 1.08627 0
M  V30 3080 H 305.902 -4.08102 0.827158 0
M  V30 3081 H 308.499 -5.04086 -1.78328 0
M  V30 3082 H 308.842 -3.42875 -2.36099 0
M  V30 3083 H 309.375 -3.9101 -0.731836 0
M  V30 3084 H 306.114 -6.51097 0.758514 0
M  V30 3085 H 305.634 -5.93676 -0.854941 0
M  V30 3086 H 307.313 -6.44663 -0.549448 0
M  V30 3087 N 307.445 0.0818655 -1.57387 0
M  V30 3088 C 308.693 0.781368 -1.86384 0
M  V30 3089 C 309.014 1.78618 -0.782342 0
M  V30 3090 O 308.284 1.94976 0.190061 0
M  V30 3091 H 306.864 0.291562 -0.687751 0
M  V30 3092 H 309.526 0.060348 -1.94807 0
M  V30 3093 H 308.622 1.3038 -2.83562 0
M  V30 3094 N 308.923 1.53595 0.353017 0
M  V30 3095 C 310.151 1.74311 1.1146 0
M  V30 3096 C 310.566 0.477854 1.82653 0
M  V30 3097 O 309.923 -0.549977 1.74016 0
M  V30 3098 C 309.974 2.91694 2.13534 0
M  V30 3099 O 309.695 4.13325 1.45238 0
M  V30 3100 C 311.196 3.24384 3.02142 0
M  V30 3101 H 308.416 0.582669 0.332773 0
M  V30 3102 H 310.96 2.00386 0.408107 0
M  V30 3103 H 309.115 2.67977 2.79763 0
M  V30 3104 H 309.529 4.79148 2.13349 0
M  V30 3105 H 311.003 4.09893 3.69718 0
M  V30 3106 H 311.48 2.40282 3.67643 0
M  V30 3107 H 312.086 3.50073 2.41514 0
M  V30 3108 N 310.401 -0.613514 1.45168 0
M  V30 3109 C 311.812 -1.19539 1.43413 0
M  V30 3110 C 312.163 -1.95558 0.158632 0
M  V30 3111 O 311.288 -2.0335 -0.740119 0
M  V30 3112 C 311.883 -2.17445 2.59813 0
M  V30 3113 C 310.442 -2.71022 2.61197 0
M  V30 3114 C 309.589 -1.46323 2.35552 0
M  V30 3115 H 312.54 -0.403163 1.53494 0
M  V30 3116 H 312.561 -3.00373 2.33574 0
M  V30 3117 H 312.073 -1.62089 3.52631 0
M  V30 3118 H 310.174 -3.30332 1.7237 0
M  V30 3119 H 310.287 -3.15859 3.60236 0
M  V30 3120 H 308.651 -1.75072 1.84992 0
M  V30 3121 H 309.434 -0.92844 3.30507 0
M  V30 3122 N 311.879 -1.3236 -0.855495 0
M  V30 3123 C 313.156 -1.13491 -1.59309 0
M  V30 3124 C 313.536 0.30503 -2.08885 0
M  V30 3125 O 312.884 1.30151 -1.87811 0
M  V30 3126 C 313.094 -2.16176 -2.73987 0
M  V30 3127 C 314.442 -2.49463 -3.43589 0
M  V30 3128 O 315.466 -2.14715 -2.84211 0
M  V30 3129 O 314.325 -3.09027 -4.50738 0
M  V30 3130 H 311.419 -0.437887 -0.701559 0
M  V30 3131 H 313.965 -1.43887 -0.899696 0
M  V30 3132 H 312.737 -3.1297 -2.34873 0
M  V30 3133 H 312.36 -1.86769 -3.51003 0
M  V30 3134 N 313.357 1.07166 -1.15556 0
M  V30 3135 C 314.605 1.79443 -0.929764 0
M  V30 3136 C 314.926 1.87246 0.544414 0
M  V30 3137 O 314.196 1.37473 1.39564 0
M  V30 3138 H 312.776 0.664625 -0.341003 0
M  V30 3139 H 315.438 1.29499 -1.45657 0
M  V30 3140 H 314.534 2.81832 -1.34079 0
M  V30 3141 N 314.835 0.952656 1.25548 0
M  V30 3142 C 316.081 0.607272 1.93494 0
M  V30 3143 C 316.414 -0.853245 1.74452 0
M  V30 3144 O 315.689 -1.61194 1.08843 0
M  V30 3145 C 315.972 0.96435 3.46947 0
M  V30 3146 C 315.825 2.48045 3.75225 0
M  V30 3147 C 317.144 0.487987 4.37386 0
M  V30 3148 H 314.263 0.222096 0.702739 0
M  V30 3149 H 316.905 1.18895 1.48203 0
M  V30 3150 H 315.055 0.469361 3.85654 0
M  V30 3151 H 316.727 3.04905 3.46166 0
M  V30 3152 H 314.97 2.919 3.209 0
M  V30 3153 H 315.641 2.6808 4.82532 0
M  V30 3154 H 318.117 0.912558 4.0597 0
M  V30 3155 H 316.993 0.766547 5.43521 0
M  V30 3156 H 317.254 -0.612063 4.37843 0
M  V30 3157 N 316.313 -1.40141 0.720998 0
M  V30 3158 C 317.26 -2.30688 0.071919 0
M  V30 3159 C 318.23 -1.48476 -0.744584 0
M  V30 3160 O 319.415 -1.77201 -0.707423 0
M  V30 3161 C 316.555 -3.34724 -0.839855 0
M  V30 3162 C 315.668 -4.31998 -0.0122438 0
M  V30 3163 C 314.803 -5.23102 -0.923995 0
M  V30 3164 C 313.842 -6.12033 -0.0907969 0
M  V30 3165 N 312.979 -6.95537 -0.957718 0
M  V30 3166 H 317.819 -2.85628 0.849755 0
M  V30 3167 H 315.356 -1.40653 0.430726 0
M  V30 3168 H 317.314 -3.93618 -1.38279 0
M  V30 3169 H 315.944 -2.81274 -1.58381 0
M  V30 3170 H 314.996 -3.74841 0.64794 0
M  V30 3171 H 316.308 -4.94772 0.632595 0
M  V30 3172 H 315.462 -5.86953 -1.53527 0
M  V30 3173 H 314.201 -4.60615 -1.60264 0
M  V30 3174 H 313.206 -5.47207 0.533377 0
M  V30 3175 H 314.431 -6.76581 0.584428 0
M  V30 3176 H 312.377 -6.35633 -1.62192 0
M  V30 3177 H 312.294 -7.55099 -0.36904 0
M  V30 3178 H 313.562 -7.63832 -1.555 0
M  V30 3179 N 317.792 -0.46758 -1.50504 0
M  V30 3180 C 319.02 0.0864133 -2.06719 0
M  V30 3181 C 319.435 1.33819 -1.33184 0
M  V30 3182 O 318.792 1.78061 -0.400083 0
M  V30 3183 C 318.843 0.378079 -3.59517 0
M  V30 3184 O 318.564 -0.824044 -4.3028 0
M  V30 3185 C 320.065 0.979426 -4.32345 0
M  V30 3186 H 317.285 -0.00551697 -0.670977 0
M  V30 3187 H 319.829 -0.655354 -1.93715 0
M  V30 3188 H 317.984 1.06977 -3.72337 0
M  V30 3189 H 318.398 -0.566518 -5.21432 0
M  V30 3190 H 319.872 1.1333 -5.40241 0
M  V30 3191 H 320.349 1.9686 -3.9261 0
M  V30 3192 H 320.955 0.326216 -4.24047 0
M  V30 3193 N 319.27 1.56325 -0.20005 0
M  V30 3194 C 320.519 1.96895 0.437652 0
M  V30 3195 C 320.832 1.08999 1.62415 0
M  V30 3196 O 322.038 1.39372 2.32997 0
M  V30 3197 C 320.494 3.50198 0.830025 0
M  V30 3198 C 320.102 4.46765 -0.332461 0
M  V30 3199 C 321.846 3.99526 1.43453 0
M  V30 3200 C 319.753 5.91344 0.0811468 0
M  V30 3201 H 318.683 0.735209 0.167282 0
M  V30 3202 H 321.334 1.81148 -0.292853 0
M  V30 3203 H 319.716 3.61467 1.61734 0
M  V30 3204 H 320.89 4.47231 -1.11 0
M  V30 3205 H 319.205 4.07657 -0.848789 0
M  V30 3206 H 321.802 5.05025 1.75652 0
M  V30 3207 H 322.145 3.44122 2.34277 0
M  V30 3208 H 322.678 3.91393 0.71109 0
M  V30 3209 H 319.417 6.50685 -0.793033 0
M  V30 3210 H 318.937 5.94121 0.823445 0
M  V30 3211 H 320.616 6.44945 0.515252 0
M  V30 3212 N 320.748 -0.0735177 1.57428 0
M  V30 3213 C 321.994 -0.774145 1.87443 0
M  V30 3214 C 322.327 -1.77311 0.792103 0
M  V30 3215 O 321.602 -1.93492 -0.197793 0
M  V30 3216 C 321.885 -1.48367 3.28115 0
M  V30 3217 C 321.738 -0.501227 4.46999 0
M  V30 3218 C 323.057 -2.429 3.66998 0
M  V30 3219 H 320.176 -0.279971 0.681752 0
M  V30 3220 H 322.818 -0.0373616 1.89963 0
M  V30 3221 H 320.968 -2.11171 3.26097 0
M  V30 3222 H 322.64 0.121468 4.6114 0
M  V30 3223 H 320.883 0.183593 4.33411 0
M  V30 3224 H 321.554 -1.03526 5.42205 0
M  V30 3225 H 324.03 -1.90175 3.70098 0
M  V30 3226 H 322.906 -2.89549 4.66318 0
M  V30 3227 H 323.167 -3.27628 2.96837 0
M  V30 3228 N 322.226 -1.5378 -0.344866 0
M  V30 3229 C 323.173 -1.81676 -1.42346 0
M  V30 3230 C 324.143 -0.662376 -1.52321 0
M  V30 3231 O 325.328 -0.906675 -1.67881 0
M  V30 3232 C 322.468 -2.03087 -2.79015 0
M  V30 3233 C 321.581 -3.30799 -2.77842 0
M  V30 3234 C 320.716 -3.42285 -4.0622 0
M  V30 3235 C 319.755 -4.6395 -3.9927 0
M  V30 3236 N 318.892 -4.72477 -5.19336 0
M  V30 3237 H 323.732 -2.73703 -1.17858 0
M  V30 3238 H 321.269 -1.35568 -0.570949 0
M  V30 3239 H 323.227 -2.1349 -3.58438 0
M  V30 3240 H 321.857 -1.14375 -3.01858 0
M  V30 3241 H 320.909 -3.29244 -1.90533 0
M  V30 3242 H 322.221 -4.20314 -2.68584 0
M  V30 3243 H 321.375 -3.52113 -4.94066 0
M  V30 3244 H 320.114 -2.50823 -4.18258 0
M  V30 3245 H 319.119 -4.54201 -3.09809 0
M  V30 3246 H 320.344 -5.56775 -3.88817 0
M  V30 3247 H 318.29 -3.83924 -5.3192 0
M  V30 3248 H 318.207 -5.55927 -5.12329 0
M  V30 3249 H 319.475 -4.86613 -6.08957 0
M  V30 3250 O 323.743 0.490843 -1.5386 0
M  V30 3251 H 324.434 1.14557 -1.56193 0
M  V30 END ATOM
M  V30 BEGIN BOND
M  V30 END BOND
M  V30 END CTAB
M  END
$$$$
