drugbank_target|P54965 Choloylglycine hydrolase (DB01956; DB02659; DB03619)
 OpenBabel12092119533D

  0  0  0     0  0            999 V3000
M  V30 BEGIN CTAB
M  V30 COUNTS 5193 5245 0 0 0
M  V30 BEGIN ATOM
M  V30 1 H -0.908 1.98254 -0.117106 0
M  V30 2 N 0 1.576 0 0
M  V30 3 C 0.933 2.03868 1.02534 0
M  V30 4 C 1.911 0.928543 1.3348 0
M  V30 5 O 3.095 1.19667 1.45644 0
M  V30 6 C 0.222 2.43627 2.35294 0
M  V30 7 C -0.732 3.65373 2.2001 0
M  V30 8 S 0.101 5.13292 1.52614 0
M  V30 9 C 1.257 5.56322 2.86805 0
M  V30 10 H 1.49 2.90518 0.631377 0
M  V30 11 H -0.977 1.52953 0.210867 0
M  V30 12 H 0.981 2.67203 3.11629 0
M  V30 13 H -0.358 1.57376 2.7183 0
M  V30 14 H -1.165 3.90944 3.18086 0
M  V30 15 H -1.563 3.418 1.51819 0
M  V30 16 H 0.729 5.58782 3.83104 0
M  V30 17 H 1.672 6.56266 2.65933 0
M  V30 18 H 2.08 4.83886 2.90714 0
M  V30 19 N 1.4781 -0.272755 1.55222 0
M  V30 20 C 2.7181 -1.01197 1.77591 0
M  V30 21 C 3.0821 -1.8349 0.565294 0
M  V30 22 O 4.2831 -2.60387 0.667242 0
M  V30 23 C 2.5541 -1.87096 3.04516 0
M  V30 24 S 4.1131 -2.67279 3.48004 0
M  V30 25 H 0.9311 -0.340836 0.62398 0
M  V30 26 H 3.5331 -0.282374 1.9345 0
M  V30 27 H 2.2371 -1.25565 3.90719 0
M  V30 28 H 1.7681 -2.64376 2.91323 0
M  V30 29 H 3.7831 -3.89593 3.07297 0
M  V30 30 N 2.9562 -1.48159 -0.537278 0
M  V30 31 C 4.1842 -1.59454 -1.31841 0
M  V30 32 C 4.5992 -0.252065 -1.8711 0
M  V30 33 O 3.9562 0.757621 -1.66031 0
M  V30 34 C 4.0072 -2.63546 -2.47439 0
M  V30 35 O 3.7282 -3.92583 -1.94449 0
M  V30 36 C 5.2292 -2.85212 -3.39366 0
M  V30 37 H 2.4492 -0.53785 -0.401196 0
M  V30 38 H 4.9932 -1.93932 -0.648891 0
M  V30 39 H 3.1482 -2.31946 -3.1029 0
M  V30 40 H 3.5622 -4.49629 -2.70063 0
M  V30 41 H 5.0362 -3.61863 -4.16844 0
M  V30 42 H 5.5132 -1.93765 -3.94147 0
M  V30 43 H 6.1192 -3.18086 -2.82314 0
M  V30 44 N 4.4343 0.785586 -1.36625 0
M  V30 45 C 5.6823 1.54057 -1.30808 0
M  V30 46 C 6.0033 1.94683 0.111157 0
M  V30 47 O 5.2733 1.65241 1.05224 0
M  V30 48 H 3.8533 0.571354 -0.481211 0
M  V30 49 H 6.5153 0.935821 -1.70963 0
M  V30 50 H 5.6113 2.44637 -1.93801 0
M  V30 51 N 5.9124 1.20967 1.01018 0
M  V30 52 C 6.8424 0.988272 2.11555 0
M  V30 53 C 7.8234 -0.0849778 1.69888 0
M  V30 54 O 9.0084 0.0738202 1.9406 0
M  V30 55 C 6.1384 0.546528 3.42973 0
M  V30 56 C 5.0924 1.56375 3.9841 0
M  V30 57 C 4.4184 0.97842 5.25672 0
M  V30 58 C 5.7184 2.94922 4.31066 0
M  V30 59 H 7.4124 1.91276 2.30334 0
M  V30 60 H 4.9584 0.921073 1.1069 0
M  V30 61 H 6.9114 0.378839 4.19694 0
M  V30 62 H 5.6354 -0.413598 3.23971 0
M  V30 63 H 4.2944 1.71891 3.23804 0
M  V30 64 H 3.9424 0.0101688 5.02999 0
M  V30 65 H 3.6424 1.65784 5.63728 0
M  V30 66 H 5.1664 0.821939 6.05043 0
M  V30 67 H 6.5804 2.8288 4.9865 0
M  V30 68 H 4.9774 3.5983 4.80253 0
M  V30 69 H 6.0474 3.4616 3.39561 0
M  V30 70 N 7.3905 -1.2043 1.01659 0
M  V30 71 C 8.3535 -2.21433 0.591616 0
M  V30 72 C 9.3535 -1.57203 -0.338226 0
M  V30 73 O 10.5435 -1.73737 -0.126918 0
M  V30 74 C 7.6755 -3.40628 -0.136058 0
M  V30 75 H 8.8685 -2.60545 1.48514 0
M  V30 76 H 6.4215 -1.33893 0.806379 0
M  V30 77 H 7.1565 -3.07019 -1.04449 0
M  V30 78 H 6.9415 -3.88475 0.531917 0
M  V30 79 H 8.4315 -4.15475 -0.420735 0
M  V30 80 N 8.8686 -0.792821 -1.36206 0
M  V30 81 C 9.7986 -0.207853 -2.32573 0
M  V30 82 C 10.7796 0.659055 -1.56813 0
M  V30 83 O 11.9646 0.592176 -1.84951 0
M  V30 84 C 9.0946 0.655449 -3.41059 0
M  V30 85 C 8.0486 -0.111842 -4.27854 0
M  V30 86 C 7.3746 0.872274 -5.27537 0
M  V30 87 C 8.6746 -1.30299 -5.05786 0
M  V30 88 H 10.3686 -1.01294 -2.81744 0
M  V30 89 H 7.9146 -0.48854 -1.3546 0
M  V30 90 H 9.8676 1.07464 -4.07467 0
M  V30 91 H 8.5916 1.49328 -2.90463 0
M  V30 92 H 7.2506 -0.512053 -3.63006 0
M  V30 93 H 6.8986 1.70523 -4.73214 0
M  V30 94 H 6.5986 0.363291 -5.86476 0
M  V30 95 H 8.1226 1.28996 -5.96818 0
M  V30 96 H 9.5366 -0.959379 -5.65216 0
M  V30 97 H 7.9336 -1.7455 -5.74154 0
M  V30 98 H 9.0036 -2.09663 -4.37229 0
M  V30 99 N 10.3467 1.47872 -0.545128 0
M  V30 100 C 11.2567 2.33633 0.212746 0
M  V30 101 C 12.2727 1.4744 0.923983 0
M  V30 102 O 13.4487 1.80393 0.895572 0
M  V30 103 C 10.5137 3.23884 1.23693 0
M  V30 104 C 9.5747 4.25961 0.534417 0
M  V30 105 C 8.8077 5.11899 1.5098 0
M  V30 106 O 9.0307 5.00077 2.7437 0
M  V30 107 O 7.9647 5.92831 1.0409 0
M  V30 108 H 11.7907 2.99714 -0.490416 0
M  V30 109 H 9.3757 1.46235 -0.305871 0
M  V30 110 H 11.2577 3.79666 1.82843 0
M  V30 111 H 9.9327 2.60446 1.92222 0
M  V30 112 H 8.8397 3.73972 -0.0979679 0
M  V30 113 H 10.1727 4.92079 -0.109213 0
M  V30 114 N 11.8248 0.280983 1.55075 0
M  V30 115 C 13.0528 -0.337293 2.04132 0
M  V30 116 C 13.4678 -1.4903 1.15912 0
M  V30 117 O 12.8248 -1.81606 0.180459 0
M  V30 118 C 12.8758 -0.812706 3.52246 0
M  V30 119 O 12.5968 0.294387 4.3711 0
M  V30 120 C 14.0978 -1.4982 4.17216 0
M  V30 121 H 11.3178 -0.0761638 0.666663 0
M  V30 122 H 13.8618 0.414787 2.00249 0
M  V30 123 H 12.0168 -1.51486 3.56554 0
M  V30 124 H 12.4308 -0.0721325 5.2445 0
M  V30 125 H 13.9048 -1.7822 5.22438 0
M  V30 126 H 14.3818 -2.43168 3.65741 0
M  V30 127 H 14.9878 -0.839742 4.16927 0
M  V30 128 N 13.3029 -1.57598 0.00835791 0
M  V30 129 C 14.2499 -2.08945 -0.980346 0
M  V30 130 C 15.2199 -0.986738 -1.33614 0
M  V30 131 O 16.4049 -1.25968 -1.43306 0
M  V30 132 C 13.5449 -2.60425 -2.26435 0
M  V30 133 C 12.6579 -3.84628 -1.96685 0
M  V30 134 C 11.7929 -4.24579 -3.19228 0
M  V30 135 C 10.8319 -5.41596 -2.85202 0
M  V30 136 N 9.9689 -5.768 -4.00307 0
M  V30 137 H 14.8089 -2.93148 -0.535551 0
M  V30 138 H 12.3459 -1.44912 -0.252776 0
M  V30 139 H 14.3039 -2.88354 -3.01509 0
M  V30 140 H 12.9339 -1.79083 -2.68568 0
M  V30 141 H 11.9859 -3.63556 -1.11942 0
M  V30 142 H 13.2979 -4.69796 -1.67611 0
M  V30 143 H 12.4519 -4.53834 -4.02641 0
M  V30 144 H 11.1909 -3.38137 -3.51447 0
M  V30 145 H 10.1959 -5.12056 -2.00198 0
M  V30 146 H 11.4209 -6.29721 -2.54222 0
M  V30 147 H 9.3669 -4.93316 -4.32407 0
M  V30 148 H 9.2839 -6.5656 -3.74786 0
M  V30 149 H 10.5519 -6.10652 -4.84484 0
M  V30 150 N 14.781 0.264519 -1.55364 0
M  V30 151 C 16.058 1.01677 -1.67096 0
M  V30 152 C 16.438 2.03996 -0.543015 0
M  V30 153 O 15.786 2.23907 0.45585 0
M  V30 154 C 15.996 1.66596 -3.0667 0
M  V30 155 C 17.344 2.17442 -3.64697 0
M  V30 156 O 18.368 1.76568 -3.09358 0
M  V30 157 O 17.227 2.92439 -4.61673 0
M  V30 158 H 14.321 0.472161 -0.678965 0
M  V30 159 H 16.867 0.259703 -1.67701 0
M  V30 160 H 15.639 0.924962 -3.80211 0
M  V30 161 H 15.262 2.48968 -3.10001 0
M  V30 162 N 16.2591 1.48442 0.529413 0
M  V30 163 C 17.5071 1.56179 1.28267 0
M  V30 164 C 17.8281 0.237721 1.93546 0
M  V30 165 O 17.0981 -0.740779 1.81354 0
M  V30 166 H 15.6781 0.575367 0.476405 0
M  V30 167 H 18.3401 1.84909 0.61602 0
M  V30 168 H 17.4361 2.34312 2.06165 0
M  V30 169 N 17.7372 -0.778329 1.37039 0
M  V30 170 C 18.6672 -1.90546 1.34962 0
M  V30 171 C 19.6482 -1.68681 0.219274 0
M  V30 172 O 20.8332 -1.89634 0.418624 0
M  V30 173 C 17.9632 -3.27734 1.14925 0
M  V30 174 C 16.9172 -3.64147 2.24902 0
M  V30 175 C 16.2432 -4.99806 1.89996 0
M  V30 176 C 17.5432 -3.71579 3.67051 0
M  V30 177 H 19.2372 -1.92541 2.29277 0
M  V30 178 H 16.7832 -0.924948 1.10366 0
M  V30 179 H 18.7362 -4.06215 1.12104 0
M  V30 180 H 17.4602 -3.26154 0.170631 0
M  V30 181 H 16.1192 -2.8797 2.26868 0
M  V30 182 H 15.7672 -4.94759 0.906796 0
M  V30 183 H 15.4672 -5.25139 2.63634 0
M  V30 184 H 16.9912 -5.80694 1.88749 0
M  V30 185 H 18.4052 -4.40227 3.67251 0
M  V30 186 H 16.8022 -4.08405 4.39688 0
M  V30 187 H 17.8722 -2.72404 4.01154 0
M  V30 188 N 19.2153 -1.21501 -1.00376 0
M  V30 189 C 20.1653 -0.942843 -2.07592 0
M  V30 190 C 21.1493 0.102384 -1.60574 0
M  V30 191 O 22.3413 -0.10671 -1.76678 0
M  V30 192 C 19.4703 -0.510729 -3.3948 0
M  V30 193 C 18.5563 -1.59009 -3.93163 0
M  V30 194 N 18.9473 -2.81544 -4.20198 0
M  V30 195 C 17.2453 -1.45925 -4.21452 0
M  V30 196 C 17.9463 -3.51261 -4.63671 0
M  V30 197 N 16.9223 -2.78703 -4.66718 0
M  V30 198 H 20.7243 -1.87378 -2.26421 0
M  V30 199 H 18.2383 -1.11093 -1.18458 0
M  V30 200 H 20.2353 -0.297101 -4.1584 0
M  V30 201 H 18.8953 0.413436 -3.22057 0
M  V30 202 H 19.9063 -3.18075 -4.08716 0
M  V30 203 H 16.5833 -0.600467 -4.13159 0
M  V30 204 H 17.9733 -4.56183 -4.93302 0
M  V30 205 N 20.6934 1.19889 -1.02296 0
M  V30 206 C 21.6234 2.25141 -0.619174 0
M  V30 207 C 22.6044 1.66051 0.368915 0
M  V30 208 O 23.7894 1.92546 0.252941 0
M  V30 209 C 20.9194 3.4728 0.0368783 0
M  V30 210 C 19.8734 4.19005 -0.872865 0
M  V30 211 C 19.1994 5.34637 -0.0822402 0
M  V30 212 C 20.4994 4.74452 -2.18387 0
M  V30 213 H 22.1934 2.59171 -1.49903 0
M  V30 214 H 19.7394 1.24579 -0.722222 0
M  V30 215 H 21.6924 4.20098 0.330958 0
M  V30 216 H 20.4164 3.12433 0.95149 0
M  V30 217 H 19.0754 3.48061 -1.15105 0
M  V30 218 H 18.7234 4.96034 0.83422 0
M  V30 219 H 18.4234 5.83557 -0.688149 0
M  V30 220 H 19.9474 6.10255 0.205238 0
M  V30 221 H 21.3614 5.39055 -1.95172 0
M  V30 222 H 19.7584 5.33834 -2.74119 0
M  V30 223 H 20.8284 3.92844 -2.84257 0
M  V30 224 N 22.1715 0.800033 1.35784 0
M  V30 225 C 23.4185 0.377342 1.98953 0
M  V30 226 C 23.7465 -1.05378 1.6348 0
M  V30 227 O 23.0015 -1.74459 0.886707 0
M  V30 228 C 23.3005 0.500276 3.53881 0
M  V30 229 C 22.9665 1.89375 4.09204 0
M  V30 230 C 21.6285 2.27499 4.24025 0
M  V30 231 C 23.9805 2.8057 4.39238 0
M  V30 232 C 21.3085 3.562 4.66195 0
M  V30 233 C 23.6605 4.0871 4.82844 0
M  V30 234 C 22.3245 4.46843 4.95871 0
M  V30 235 H 21.5945 0.138079 0.728021 0
M  V30 236 H 24.2415 1.01955 1.62103 0
M  V30 237 H 22.5465 -0.225405 3.91151 0
M  V30 238 H 24.2435 0.154097 4.00704 0
M  V30 239 H 20.8335 1.58753 3.98115 0
M  V30 240 H 25.0175 2.52367 4.27346 0
M  V30 241 H 20.2735 3.85602 4.74469 0
M  V30 242 H 24.4475 4.79481 5.05046 0
M  V30 243 H 22.0745 5.46623 5.28306 0
M  V30 244 N 23.6496 -1.47581 0.552962 0
M  V30 245 C 24.8976 -2.02082 0.0272703 0
M  V30 246 C 25.2186 -1.4301 -1.32563 0
M  V30 247 O 24.4886 -0.603745 -1.86365 0
M  V30 248 H 23.0686 -0.746966 0.00709182 0
M  V30 249 H 25.7306 -1.81033 0.722008 0
M  V30 250 H 24.8266 -3.12034 -0.0639951 0
M  V30 251 N 25.1277 -0.289203 -1.54924 0
M  V30 252 C 26.5437 0.0645403 -1.59469 0
M  V30 253 C 26.7437 1.53419 -1.30632 0
M  V30 254 O 25.7997 2.2852 -1.074 0
M  V30 255 C 27.1127 -0.32278 -2.98963 0
M  V30 256 C 28.6607 -0.270564 -3.11828 0
M  V30 257 C 29.1357 -0.632532 -4.53611 0
M  V30 258 N 30.6267 -0.584617 -4.59496 0
M  V30 259 C 31.3617 -0.837314 -5.67254 0
M  V30 260 N 30.8577 -1.15536 -6.83098 0
M  V30 261 N 32.6507 -0.765166 -5.56868 0
M  V30 262 H 24.8017 -1.24714 -1.71931 0
M  V30 263 H 27.0647 -0.504809 -0.802416 0
M  V30 264 H 26.7707 -1.34541 -3.24948 0
M  V30 265 H 26.6447 0.32944 -3.75759 0
M  V30 266 H 29.0317 0.742805 -2.85598 0
M  V30 267 H 29.1127 -0.957242 -2.37214 0
M  V30 268 H 28.7567 -1.64365 -4.80569 0
M  V30 269 H 28.6867 0.07609 -5.26545 0
M  V30 270 H 31.1777 -0.349248 -3.76283 0
M  V30 271 H 31.4907 -1.33447 -7.61191 0
M  V30 272 H 29.8357 -1.19328 -6.84679 0
M  V30 273 H 33.0267 -0.516432 -4.65243 0
M  V30 274 H 33.1997 -0.965477 -6.40767 0
M  V30 275 N 26.6058 1.57591 -0.0167156 0
M  V30 276 C 27.5538 2.10604 0.987353 0
M  V30 277 C 28.5478 1.02977 1.34507 0
M  V30 278 O 29.7538 1.21425 1.32875 0
M  V30 279 H 26.1288 0.672695 0.336134 0
M  V30 280 H 28.0998 2.93925 0.514817 0
M  V30 281 C 26.8488 2.6382 2.26483 0
M  V30 282 H 26.1718 3.46278 1.99829 0
M  V30 283 H 27.6118 3.04573 2.94977 0
M  V30 284 C 26.0708 1.55992 2.9861 0
M  V30 285 O 26.6008 0.952521 3.90243 0
M  V30 286 N 24.8068 1.28335 2.60727 0
M  V30 287 H 24.3538 1.77914 1.86291 0
M  V30 288 H 24.3118 0.564115 3.09298 0
M  V30 289 N 28.0839 -0.256276 1.55502 0
M  V30 290 C 29.0169 -1.34321 1.84481 0
M  V30 291 C 29.9949 -1.46802 0.699131 0
M  V30 292 O 31.1789 -1.63165 0.943904 0
M  V30 293 C 28.3059 -2.71779 2.02123 0
M  V30 294 C 27.3519 -2.76496 3.24734 0
M  V30 295 S 28.1849 -2.3405 4.81644 0
M  V30 296 C 29.3409 -3.73452 5.02279 0
M  V30 297 H 29.5739 -1.09539 2.76385 0
M  V30 298 H 27.1069 -0.45678 1.47489 0
M  V30 299 H 29.0649 -3.50932 2.12972 0
M  V30 300 H 27.7259 -2.93803 1.11078 0
M  V30 301 H 26.9189 -3.77424 3.34016 0
M  V30 302 H 26.5209 -2.05379 3.12563 0
M  V30 303 H 28.8129 -4.6887 4.89047 0
M  V30 304 H 29.7559 -3.6911 6.04287 0
M  V30 305 H 30.1639 -3.6553 4.30172 0
M  V30 306 N 29.562 -1.4872 -0.521534 0
M  V30 307 C 30.839 -1.4766 -1.2828 0
M  V30 308 C 31.219 -0.19292 -2.10217 0
M  V30 309 O 30.567 0.825193 -2.13079 0
M  V30 310 C 30.777 -2.74358 -2.15705 0
M  V30 311 C 32.125 -3.23028 -2.75569 0
M  V30 312 O 33.149 -2.75333 -2.25987 0
M  V30 313 O 32.008 -4.0604 -3.65778 0
M  V30 314 H 29.102 -0.590085 -0.579421 0
M  V30 315 H 31.648 -1.60963 -0.537492 0
M  V30 316 H 30.42 -3.59292 -1.54999 0
M  V30 317 H 30.043 -2.63816 -2.97467 0
M  V30 318 N 31.0401 0.771051 -1.3745 0
M  V30 319 C 32.2891 1.52491 -1.3202 0
M  V30 320 C 32.6021 1.9538 0.0927347 0
M  V30 321 O 33.8081 2.70159 0.269503 0
M  V30 322 C 32.2641 2.75366 -2.31736 0
M  V30 323 C 31.8721 2.39573 -3.78562 0
M  V30 324 C 33.6161 3.53307 -2.35318 0
M  V30 325 C 31.5231 3.58954 -4.70007 0
M  V30 326 H 30.4531 0.572506 -0.490666 0
M  V30 327 H 33.1041 0.844474 -1.62914 0
M  V30 328 H 31.4861 3.45303 -1.93861 0
M  V30 329 H 32.6601 1.77415 -4.25277 0
M  V30 330 H 30.9751 1.74805 -3.77932 0
M  V30 331 H 33.5721 4.42039 -3.00842 0
M  V30 332 H 33.9151 3.93217 -1.36698 0
M  V30 333 H 34.4481 2.90367 -2.71904 0
M  V30 334 H 31.1871 3.24125 -5.69757 0
M  V30 335 H 30.7071 4.20214 -4.27996 0
M  V30 336 H 32.3861 4.25758 -4.87175 0
M  V30 337 N 32.5182 1.22032 0.997298 0
M  V30 338 C 33.4282 1.00271 2.12092 0
M  V30 339 C 34.4442 -0.047621 1.73935 0
M  V30 340 O 35.6202 0.144136 2.00884 0
M  V30 341 C 32.6852 0.578449 3.4184 0
M  V30 342 C 31.7462 1.70189 3.94125 0
M  V30 343 C 30.9792 1.29778 5.17681 0
M  V30 344 O 31.2022 0.174676 5.70132 0
M  V30 345 O 30.1362 2.11261 5.63607 0
M  V30 346 H 33.9622 1.94398 2.3333 0
M  V30 347 H 31.5472 1.00587 1.10465 0
M  V30 348 H 33.4292 0.351998 4.19927 0
M  V30 349 H 32.1042 -0.334019 3.21972 0
M  V30 350 H 31.0112 1.98282 3.1723 0
M  V30 351 H 32.3442 2.59206 4.18417 0
M  V30 352 N 33.9963 -1.19345 1.0293 0
M  V30 353 C 35.2263 -1.92717 0.744563 0
M  V30 354 C 35.6343 -1.75751 -0.700579 0
M  V30 355 O 34.9773 -1.07703 -1.48815 0
M  V30 356 C 35.0393 -3.44828 1.01657 0
M  V30 357 C 34.7033 -3.85564 2.45335 0
M  V30 358 C 35.7003 -3.90286 3.43472 0
M  V30 359 C 33.3853 -4.1719 2.79746 0
M  V30 360 C 35.3793 -4.26065 4.74075 0
M  V30 361 C 33.0663 -4.52642 4.10559 0
M  V30 362 C 34.0643 -4.57054 5.07534 0
M  V30 363 O 33.7523 -4.91685 6.36004 0
M  V30 364 H 33.4843 -0.618977 0.271742 0
M  V30 365 H 36.0383 -1.52415 1.37691 0
M  V30 366 H 34.2683 -3.85314 0.327084 0
M  V30 367 H 35.9573 -3.99437 0.721427 0
M  V30 368 H 36.7233 -3.66002 3.18225 0
M  V30 369 H 32.6023 -4.1294 2.04943 0
M  V30 370 H 36.1463 -4.29423 5.49765 0
M  V30 371 H 32.0433 -4.76383 4.35579 0
M  V30 372 H 32.8113 -5.09631 6.40483 0
M  V30 373 N 35.4744 -0.807222 -1.35358 0
M  V30 374 C 36.6994 -0.399309 -2.0352 0
M  V30 375 C 37.1244 0.981986 -1.60433 0
M  V30 376 O 36.4824 1.63601 -0.781299 0
M  V30 377 C 36.5304 -0.491552 -3.57234 0
M  V30 378 O 35.6344 0.494754 -4.09421 0
M  V30 379 H 34.9754 -0.166682 -0.642739 0
M  V30 380 H 37.5054 -1.09328 -1.72941 0
M  V30 381 H 37.5154 -0.361588 -4.06395 0
M  V30 382 H 36.1904 -1.49907 -3.87944 0
M  V30 383 H 34.7674 0.324977 -3.71481 0
M  V30 384 N 36.9525 1.47285 -0.560781 0
M  V30 385 C 38.1995 2.02464 -0.038062 0
M  V30 386 C 38.5275 1.43474 1.31322 0
M  V30 387 O 37.7825 0.581311 1.86867 0
M  V30 388 C 38.0815 3.57258 0.100784 0
M  V30 389 C 37.7475 4.35184 -1.18007 0
M  V30 390 C 36.4095 4.56194 -1.53103 0
M  V30 391 C 38.7615 4.80098 -2.02867 0
M  V30 392 C 36.0895 5.19367 -2.729 0
M  V30 393 C 38.4415 5.44593 -3.21871 0
M  V30 394 C 37.1055 5.63835 -3.57276 0
M  V30 395 H 36.3755 0.740869 -0.0139279 0
M  V30 396 H 39.0225 1.76916 -0.733012 0
M  V30 397 H 37.3275 3.81819 0.878724 0
M  V30 398 H 39.0245 3.97606 0.520639 0
M  V30 399 H 35.6145 4.19113 -0.8968 0
M  V30 400 H 39.7985 4.63642 -1.7706 0
M  V30 401 H 35.0545 5.32459 -3.00496 0
M  V30 402 H 39.2285 5.78358 -3.87911 0
M  V30 403 H 36.8555 6.12557 -4.50197 0
M  V30 404 N 38.4306 0.297415 1.54768 0
M  V30 405 C 39.3786 -0.596051 2.24833 0
M  V30 406 C 40.3726 -1.13992 1.25308 0
M  V30 407 O 41.5786 -1.09098 1.4317 0
M  V30 408 H 37.9536 -0.210814 0.721846 0
M  V30 409 H 39.9246 0.0174667 2.98395 0
M  V30 410 C 38.6736 -1.75818 2.99972 0
M  V30 411 H 37.9966 -1.3489 3.76357 0
M  V30 412 H 39.4366 -2.35949 3.52284 0
M  V30 413 C 37.8956 -2.66014 2.06732 0
M  V30 414 O 38.4256 -3.67009 1.63302 0
M  V30 415 N 36.6316 -2.33669 1.72763 0
M  V30 416 H 36.1786 -1.51586 2.08277 0
M  V30 417 H 36.1366 -2.94285 1.10652 0
M  V30 418 N 39.9087 -1.5758 0.0250728 0
M  V30 419 C 40.8407 -2.06869 -0.986796 0
M  V30 420 C 41.8537 -0.991332 -1.29137 0
M  V30 421 O 43.0427 -1.26761 -1.25674 0
M  V30 422 C 40.1427 -2.47486 -2.31525 0
M  V30 423 C 39.3157 -3.78253 -2.19643 0
M  V30 424 C 38.3747 -4.05464 -3.35388 0
M  V30 425 O 37.4007 -4.75774 -3.12454 0
M  V30 426 N 38.6027 -3.55321 -4.59051 0
M  V30 427 H 41.3677 -2.94302 -0.566276 0
M  V30 428 H 38.9287 -1.6109 -0.161776 0
M  V30 429 H 40.9207 -2.62785 -3.07776 0
M  V30 430 H 39.4907 -1.65441 -2.65232 0
M  V30 431 H 38.7107 -3.7279 -1.28144 0
M  V30 432 H 39.9987 -4.63936 -2.08903 0
M  V30 433 H 39.3967 -2.98431 -4.80578 0
M  V30 434 H 37.9537 -3.75905 -5.32483 0
M  V30 435 N 41.3868 0.248026 -1.55636 0
M  V30 436 C 42.6118 0.998028 -1.81808 0
M  V30 437 C 43.0368 1.78207 -0.601979 0
M  V30 438 O 42.3948 1.75653 0.448961 0
M  V30 439 C 42.4428 1.9125 -3.05705 0
M  V30 440 O 41.5468 3.00406 -2.82542 0
M  V30 441 H 40.8878 0.284045 -0.600179 0
M  V30 442 H 43.4178 0.269357 -2.02819 0
M  V30 443 H 43.4278 2.32737 -3.35108 0
M  V30 444 H 42.1028 1.33602 -3.93857 0
M  V30 445 H 40.6798 2.63056 -2.64303 0
M  V30 446 N 42.8649 1.48995 0.513639 0
M  V30 447 C 44.1139 1.57093 1.2651 0
M  V30 448 C 44.4269 0.257091 1.93903 0
M  V30 449 O 45.6329 0.216478 2.70636 0
M  V30 450 C 44.0889 2.77118 2.29638 0
M  V30 451 C 43.6969 4.15209 1.68241 0
M  V30 452 C 45.4409 2.94538 3.05692 0
M  V30 453 C 43.3479 5.26474 2.69406 0
M  V30 454 H 42.2779 0.584876 0.475854 0
M  V30 455 H 44.9289 1.7536 0.540487 0
M  V30 456 H 43.3109 2.52319 3.05207 0
M  V30 457 H 44.4849 4.50094 0.987505 0
M  V30 458 H 42.7999 4.03042 1.04623 0
M  V30 459 H 45.3969 3.74832 3.8132 0
M  V30 460 H 45.7399 2.04614 3.62545 0
M  V30 461 H 46.2729 3.19316 2.37238 0
M  V30 462 H 43.0119 6.18417 2.17351 0
M  V30 463 H 42.5319 4.96058 3.37175 0
M  V30 464 H 44.2109 5.55277 3.32078 0
M  V30 465 N 44.343 -0.763751 1.37857 0
M  V30 466 C 45.592 -1.51789 1.32827 0
M  V30 467 C 45.905 -1.95426 -0.0823719 0
M  V30 468 O 47.111 -2.70298 -0.255172 0
M  V30 469 C 45.567 -2.74133 2.33193 0
M  V30 470 C 45.175 -2.37562 3.79827 0
M  V30 471 C 46.919 -3.52054 2.37188 0
M  V30 472 C 44.826 -3.56456 4.71904 0
M  V30 473 H 43.756 -0.569896 0.493695 0
M  V30 474 H 46.407 -0.835822 1.63359 0
M  V30 475 H 44.789 -3.4427 1.9569 0
M  V30 476 H 45.963 -1.75157 4.26212 0
M  V30 477 H 44.278 -1.72798 3.78853 0
M  V30 478 H 46.875 -4.40437 3.03182 0
M  V30 479 H 47.218 -3.92486 1.38782 0
M  V30 480 H 47.751 -2.88921 2.7344 0
M  V30 481 H 44.49 -3.21099 5.71468 0
M  V30 482 H 44.01 -4.17938 4.30218 0
M  V30 483 H 45.689 -4.23168 4.89426 0
M  V30 484 N 45.8211 -1.22559 -0.990812 0
M  V30 485 C 47.0681 -1.05141 -1.73065 0
M  V30 486 C 47.3961 0.413191 -1.9006 0
M  V30 487 O 46.6511 1.32257 -1.44245 0
M  V30 488 C 46.9501 -1.71011 -3.13831 0
M  V30 489 C 46.6161 -3.20911 -3.16745 0
M  V30 490 C 45.2781 -3.61812 -3.17247 0
M  V30 491 C 47.6301 -4.16846 -3.12872 0
M  V30 492 C 44.9581 -4.97127 -3.1158 0
M  V30 493 C 47.3101 -5.5214 -3.08746 0
M  V30 494 C 45.9741 -5.92419 -3.07565 0
M  V30 495 H 45.2441 -0.384738 -0.633291 0
M  V30 496 H 47.8911 -1.5235 -1.16025 0
M  V30 497 H 46.1961 -1.16133 -3.74193 0
M  V30 498 H 47.8931 -1.55023 -3.69823 0
M  V30 499 H 44.4831 -2.88344 -3.17105 0
M  V30 500 H 48.6671 -3.86263 -3.11632 0
M  V30 501 H 43.9231 -5.27562 -3.09012 0
M  V30 502 H 48.0971 -6.26201 -3.04705 0
M  V30 503 H 45.7241 -6.97236 -3.02929 0
M  V30 504 N 47.2992 1.18797 -1.03562 0
M  V30 505 C 48.5482 1.87978 -0.731235 0
M  V30 506 C 48.8612 1.80911 0.743671 0
M  V30 507 O 50.0672 2.45407 1.16137 0
M  V30 508 C 48.5232 3.3721 -1.25768 0
M  V30 509 C 48.1312 3.52818 -2.76085 0
M  V30 510 C 49.8752 4.11825 -1.0296 0
M  V30 511 C 47.7822 4.9598 -3.22114 0
M  V30 512 H 46.7122 0.704063 -0.269835 0
M  V30 513 H 49.3632 1.34266 -1.25079 0
M  V30 514 H 47.7452 3.90359 -0.666011 0
M  V30 515 H 48.9192 3.09965 -3.40966 0
M  V30 516 H 47.2342 2.91602 -2.97249 0
M  V30 517 H 49.8312 5.17411 -1.34869 0
M  V30 518 H 50.1742 4.16287 0.0333546 0
M  V30 519 H 50.7072 3.64833 -1.58562 0
M  V30 520 H 47.4462 4.96684 -4.27768 0
M  V30 521 H 46.9662 5.39569 -2.61965 0
M  V30 522 H 48.6452 5.6467 -3.15844 0
M  V30 523 N 48.7773 0.814389 1.34928 0
M  V30 524 C 50.1883 0.458364 1.80986 0
M  V30 525 C 50.5393 -1.02042 1.67577 0
M  V30 526 O 49.6643 -1.79352 1.21086 0
M  V30 527 C 50.2593 0.825212 3.28597 0
M  V30 528 C 48.8183 0.521677 3.72767 0
M  V30 529 C 47.9653 1.04668 2.56788 0
M  V30 530 H 50.9163 1.00533 1.22795 0
M  V30 531 H 50.9373 0.12571 3.80292 0
M  V30 532 H 50.4493 1.90154 3.38324 0
M  V30 533 H 48.5503 -0.545589 3.68584 0
M  V30 534 H 48.6633 1.05977 4.67232 0
M  V30 535 H 47.0273 0.468622 2.50352 0
M  V30 536 H 47.8103 2.12927 2.6929 0
M  V30 537 N 50.2554 -1.46986 0.568584 0
M  V30 538 C 51.6714 -1.57946 0.229189 0
M  V30 539 C 51.8714 -1.56567 -1.26843 0
M  V30 540 O 50.9274 -1.47511 -2.04931 0
M  V30 541 C 52.2404 -2.87963 0.865909 0
M  V30 542 C 53.7884 -3.01568 0.838188 0
M  V30 543 C 54.2634 -4.34301 1.45419 0
M  V30 544 N 55.7544 -4.40965 1.41788 0
M  V30 545 C 56.4894 -5.42256 1.86403 0
M  V30 546 N 55.9854 -6.50297 2.38926 0
M  V30 547 N 57.7784 -5.3337 1.77405 0
M  V30 548 H 49.9294 -1.46126 1.54146 0
M  V30 549 H 52.1924 -0.696156 0.643484 0
M  V30 550 H 51.8984 -2.94742 1.91886 0
M  V30 551 H 51.7724 -3.75423 0.365687 0
M  V30 552 H 54.1594 -2.94379 -0.206106 0
M  V30 553 H 54.2404 -2.1562 1.37629 0
M  V30 554 H 53.8844 -4.42247 2.49761 0
M  V30 555 H 53.8144 -5.19 0.891435 0
M  V30 556 H 56.3054 -3.63484 1.03381 0
M  V30 557 H 56.6184 -7.23777 2.70863 0
M  V30 558 H 54.9634 -6.51155 2.42944 0
M  V30 559 H 58.1544 -4.47865 1.3614 0
M  V30 560 H 58.3274 -6.12169 2.12492 0
M  V30 561 N 51.7335 -0.305618 -1.54608 0
M  V30 562 C 52.6815 0.584119 -2.25146 0
M  V30 563 C 53.6755 1.13326 -1.25911 0
M  V30 564 O 54.8815 1.08337 -1.43747 0
M  V30 565 H 51.2565 0.206983 -0.722954 0
M  V30 566 H 53.2275 -0.033291 -2.98381 0
M  V30 567 C 51.9765 1.74225 -3.009 0
M  V30 568 H 51.2995 1.32892 -3.77067 0
M  V30 569 H 52.7395 2.34077 -3.53531 0
M  V30 570 C 51.1985 2.64914 -2.0814 0
M  V30 571 O 51.7285 3.66137 -1.65246 0
M  V30 572 N 49.9345 2.3275 -1.74 0
M  V30 573 H 49.4815 1.50479 -2.09078 0
M  V30 574 H 49.4395 2.93694 -1.12211 0
M  V30 575 N 53.2116 1.57565 -0.0334293 0
M  V30 576 C 54.4586 1.91978 0.644272 0
M  V30 577 C 54.7866 0.910231 1.71887 0
M  V30 578 O 54.0416 -0.0801961 1.95536 0
M  V30 579 C 54.3406 3.33112 1.29504 0
M  V30 580 C 54.0066 4.49537 0.350388 0
M  V30 581 C 52.6686 4.81115 0.0903974 0
M  V30 582 C 55.0206 5.20347 -0.298032 0
M  V30 583 C 52.3486 5.8086 -0.825746 0
M  V30 584 C 54.7006 6.2107 -1.20226 0
M  V30 585 C 53.3646 6.51088 -1.4711 0
M  V30 586 H 52.6346 0.702496 0.235756 0
M  V30 587 H 55.2816 1.91259 -0.0961176 0
M  V30 588 H 53.5866 3.30113 2.11028 0
M  V30 589 H 55.2836 3.57011 1.82603 0
M  V30 590 H 51.8736 4.24883 0.563205 0
M  V30 591 H 56.0576 4.96178 -0.110234 0
M  V30 592 H 51.3136 6.02461 -1.04169 0
M  V30 593 H 55.4876 6.75057 -1.71086 0
M  V30 594 H 53.1146 7.28193 -2.18264 0
M  V30 595 N 54.6897 -0.239769 1.55765 0
M  V30 596 C 55.6367 -1.29696 1.90913 0
M  V30 597 C 56.6067 -1.47478 0.764164 0
M  V30 598 O 57.7917 -1.61345 1.01845 0
M  V30 599 C 54.9317 -2.64598 2.21544 0
M  V30 600 C 54.0447 -2.54765 3.48882 0
M  V30 601 C 53.1797 -3.82069 3.69049 0
M  V30 602 C 52.2187 -3.66883 4.89963 0
M  V30 603 N 51.3557 -4.86094 5.06614 0
M  V30 604 H 56.1957 -0.990224 2.81067 0
M  V30 605 H 53.7327 -0.477684 1.39128 0
M  V30 606 H 55.6907 -3.43132 2.3731 0
M  V30 607 H 54.3207 -2.93405 1.34585 0
M  V30 608 H 53.3727 -1.67763 3.41409 0
M  V30 609 H 54.6847 -2.39457 4.37563 0
M  V30 610 H 53.8387 -4.69046 3.84812 0
M  V30 611 H 52.5777 -4.00282 2.78614 0
M  V30 612 H 51.5827 -2.78289 4.74168 0
M  V30 613 H 52.8077 -3.50157 5.81865 0
M  V30 614 H 50.7537 -5.04655 4.19117 0
M  V30 615 H 50.6707 -4.73443 5.89396 0
M  V30 616 H 51.9387 -5.74549 5.26795 0
M  V30 617 N 56.1678 -1.49265 -0.50573 0
M  V30 618 C 57.4078 -1.60128 -1.27038 0
M  V30 619 C 57.7718 -0.279557 -1.89954 0
M  V30 620 O 58.9728 -0.263329 -2.67507 0
M  V30 621 C 57.2438 -2.72507 -2.31246 0
M  V30 622 S 58.8028 -3.0329 -3.17113 0
M  V30 623 H 55.6208 -0.564863 -0.4318 0
M  V30 624 H 58.2228 -1.86902 -0.573397 0
M  V30 625 H 56.9268 -3.67068 -1.83546 0
M  V30 626 H 56.4578 -2.4771 -3.05619 0
M  V30 627 H 58.4728 -2.44448 -4.31809 0
M  V30 628 N 57.6459 0.756429 -1.3826 0
M  V30 629 C 58.8919 1.51772 -1.34511 0
M  V30 630 C 59.2249 1.94089 0.0656691 0
M  V30 631 O 58.4999 1.65221 1.02626 0
M  V30 632 C 58.7829 2.77226 -2.29821 0
M  V30 633 C 58.6359 2.41065 -3.79747 0
M  V30 634 C 59.9549 3.79236 -2.23312 0
M  V30 635 H 57.0739 0.550578 -0.489931 0
M  V30 636 H 59.7159 0.866607 -1.69086 0
M  V30 637 H 57.8659 3.32784 -2.00467 0
M  V30 638 H 59.5379 1.91303 -4.19763 0
M  V30 639 H 57.7809 1.7356 -3.97567 0
M  V30 640 H 58.4519 3.3081 -4.41892 0
M  V30 641 H 60.9279 3.3321 -2.49219 0
M  V30 642 H 59.8039 4.64714 -2.92116 0
M  V30 643 H 60.0649 4.24615 -1.23102 0
M  V30 644 N 59.124 1.23083 0.984299 0
M  V30 645 C 60.072 1.00593 2.09723 0
M  V30 646 C 61.066 -0.0538014 1.69315 0
M  V30 647 O 62.272 0.0993719 1.79725 0
M  V30 648 H 58.647 0.30817 0.685956 0
M  V30 649 H 60.618 1.95012 2.2586 0
M  V30 650 C 59.367 0.609601 3.42314 0
M  V30 651 H 58.69 1.41675 3.73856 0
M  V30 652 H 60.13 0.491726 4.21139 0
M  V30 653 C 58.589 -0.681745 3.2993 0
M  V30 654 O 59.119 -1.73192 3.62446 0
M  V30 655 N 57.325 -0.656178 2.83095 0
M  V30 656 H 56.872 0.198759 2.56832 0
M  V30 657 H 56.83 -1.52044 2.75191 0
M  V30 658 N 60.6021 -1.18246 1.0419 0
M  V30 659 C 61.5491 -2.2192 0.634037 0
M  V30 660 C 62.5191 -1.62179 -0.358765 0
M  V30 661 O 63.7041 -1.89122 -0.252466 0
M  V30 662 C 60.8441 -3.451 0.00445535 0
M  V30 663 C 59.9571 -4.19174 1.04487 0
M  V30 664 C 59.0921 -5.29813 0.383676 0
M  V30 665 C 58.1311 -5.9566 1.4091 0
M  V30 666 N 57.2681 -6.97834 0.772784 0
M  V30 667 H 62.1081 -2.56164 1.52263 0
M  V30 668 H 59.6451 -1.25843 0.761701 0
M  V30 669 H 61.6031 -4.15485 -0.377919 0
M  V30 670 H 60.2331 -3.11472 -0.847652 0
M  V30 671 H 59.2851 -3.47604 1.54518 0
M  V30 672 H 60.5971 -4.64267 1.82368 0
M  V30 673 H 59.7511 -6.06677 -0.0528366 0
M  V30 674 H 58.4901 -4.85825 -0.427208 0
M  V30 675 H 57.4951 -5.17535 1.85574 0
M  V30 676 H 58.7201 -6.4173 2.22171 0
M  V30 677 H 56.6661 -6.55998 -0.0177708 0
M  V30 678 H 56.5831 -7.41186 1.48928 0
M  V30 679 H 57.8511 -7.78665 0.36071 0
M  V30 680 N 62.0802 -0.821533 -1.34494 0
M  V30 681 C 63.3052 -0.420873 -2.03085 0
M  V30 682 C 63.7302 0.964915 -1.61465 0
M  V30 683 O 63.0882 1.62763 -0.798607 0
M  V30 684 C 63.1362 -0.529414 -3.56693 0
M  V30 685 O 62.2402 0.451302 -4.09923 0
M  V30 686 H 61.5812 -0.173489 -0.640935 0
M  V30 687 H 64.1112 -1.11157 -1.71771 0
M  V30 688 H 64.1212 -0.404671 -4.05988 0
M  V30 689 H 62.7962 -1.54014 -3.86332 0
M  V30 690 H 61.3732 0.285558 -3.71805 0
M  V30 691 N 63.5583 1.46682 -0.576371 0
M  V30 692 C 64.5063 2.31953 0.17335 0
M  V30 693 C 65.5003 1.44098 0.89062 0
M  V30 694 O 66.7063 1.60759 0.809728 0
M  V30 695 H 63.0813 0.748273 0.0747727 0
M  V30 696 H 65.0523 2.93007 -0.564738 0
M  V30 697 C 63.8013 3.27142 1.17786 0
M  V30 698 H 63.1243 3.94719 0.635361 0
M  V30 699 H 64.5643 3.896 1.67296 0
M  V30 700 C 63.0233 2.52036 2.23561 0
M  V30 701 O 63.5533 2.27877 3.3081 0
M  V30 702 N 61.7593 2.12709 1.97998 0
M  V30 703 H 61.3063 2.32557 1.10792 0
M  V30 704 H 61.2643 1.62776 2.68982 0
M  V30 705 N 65.0364 0.313813 1.54444 0
M  V30 706 C 65.9834 -0.55655 2.23989 0
M  V30 707 C 66.9534 -1.11943 1.22711 0
M  V30 708 O 68.1384 -1.16158 1.51367 0
M  V30 709 C 65.2784 -1.71635 2.99392 0
M  V30 710 C 64.3914 -1.18364 4.15468 0
M  V30 711 C 63.5264 -2.30834 4.78424 0
M  V30 712 C 62.5654 -1.74762 5.86622 0
M  V30 713 N 61.7024 -2.80855 6.43479 0
M  V30 714 H 66.5424 0.0430893 2.97969 0
M  V30 715 H 64.0794 0.0330359 1.47063 0
M  V30 716 H 66.0374 -2.39868 3.41349 0
M  V30 717 H 64.6674 -2.28742 2.27765 0
M  V30 718 H 63.7194 -0.393163 3.78363 0
M  V30 719 H 65.0314 -0.733262 4.93381 0
M  V30 720 H 64.1854 -3.0699 5.23299 0
M  V30 721 H 62.9244 -2.79204 3.99871 0
M  V30 722 H 61.9294 -0.970995 5.41158 0
M  V30 723 H 63.1544 -1.2728 6.67066 0
M  V30 724 H 61.1004 -3.28535 5.67804 0
M  V30 725 H 61.0174 -2.40351 7.16776 0
M  V30 726 H 62.2854 -3.5687 6.93011 0
M  V30 727 N 66.5145 -1.57545 0.0417849 0
M  V30 728 C 67.4615 -2.10977 -0.935805 0
M  V30 729 C 68.4315 -1.01486 -1.31491 0
M  V30 730 O 69.6165 -1.2898 -1.40602 0
M  V30 731 C 66.7565 -2.65169 -2.2086 0
M  V30 732 C 65.8695 -3.88714 -1.88482 0
M  V30 733 C 65.0045 -4.31254 -3.1015 0
M  V30 734 C 64.0435 -5.47524 -2.7365 0
M  V30 735 N 63.1805 -5.85162 -3.87982 0
M  V30 736 H 68.0205 -2.94218 -0.473249 0
M  V30 737 H 65.5575 -1.45415 -0.221981 0
M  V30 738 H 67.5155 -2.94685 -2.95325 0
M  V30 739 H 66.1455 -1.8474 -2.64709 0
M  V30 740 H 65.1975 -3.65849 -1.04205 0
M  V30 741 H 66.5095 -4.73245 -1.57608 0
M  V30 742 H 65.6635 -4.62273 -3.92923 0
M  V30 743 H 64.4025 -3.45516 -3.44195 0
M  V30 744 H 63.4075 -5.16187 -1.89291 0
M  V30 745 H 64.6325 -6.34971 -2.40807 0
M  V30 746 H 62.5785 -5.02377 -4.21846 0
M  V30 747 H 62.4955 -6.64362 -3.60775 0
M  V30 748 H 63.7635 -6.20791 -4.71422 0
M  V30 749 N 67.9926 0.231505 -1.5589 0
M  V30 750 C 68.9026 1.308 -1.94752 0
M  V30 751 C 69.9186 1.51826 -0.849989 0
M  V30 752 O 71.0946 1.6515 -1.15271 0
M  V30 753 C 68.1596 2.63968 -2.24771 0
M  V30 754 C 67.2206 2.51331 -3.48039 0
M  V30 755 C 66.4536 3.78148 -3.76616 0
M  V30 756 O 66.6766 4.80722 -3.07022 0
M  V30 757 O 65.6106 3.75857 -4.70123 0
M  V30 758 H 69.4366 1.0083 -2.86474 0
M  V30 759 H 67.0216 0.433547 -1.42971 0
M  V30 760 H 68.9036 3.42633 -2.45318 0
M  V30 761 H 67.5786 2.9364 -1.36225 0
M  V30 762 H 66.4856 1.709 -3.32782 0
M  V30 763 H 67.8186 2.26601 -4.36936 0
M  V30 764 N 69.4707 1.49531 0.497807 0
M  V30 765 C 70.4007 1.6935 1.60757 0
M  V30 766 C 71.3817 0.542218 1.61227 0
M  V30 767 O 72.5667 0.778417 1.77917 0
M  V30 768 C 69.6967 1.76298 2.99226 0
M  V30 769 C 68.6507 2.91248 3.13622 0
M  V30 770 C 67.9767 2.83312 4.53474 0
M  V30 771 C 69.2767 4.3214 2.93346 0
M  V30 772 H 70.9707 2.62263 1.44425 0
M  V30 773 H 68.5167 1.26208 0.693367 0
M  V30 774 H 70.4697 1.88749 3.76765 0
M  V30 775 H 69.1937 0.799871 3.16654 0
M  V30 776 H 67.8527 2.78404 2.38509 0
M  V30 777 H 67.5007 1.84902 4.67782 0
M  V30 778 H 67.2007 3.60465 4.64046 0
M  V30 779 H 68.7247 2.97775 5.33069 0
M  V30 780 H 70.1387 4.45649 3.60652 0
M  V30 781 H 68.5357 5.1054 3.15387 0
M  V30 782 H 69.6057 4.46363 1.89441 0
M  V30 783 N 70.9488 -0.749086 1.3866 0
M  V30 784 C 72.1768 -1.53834 1.38358 0
M  V30 785 C 72.5918 -1.88783 -0.0255219 0
M  V30 786 O 71.9488 -1.53101 -0.993292 0
M  V30 787 C 71.9998 -2.83468 2.2434 0
M  V30 788 O 71.7208 -2.50008 3.5976 0
M  V30 789 C 73.2218 -3.7758 2.32267 0
M  V30 790 H 70.4418 -0.47585 0.473083 0
M  V30 791 H 72.9858 -0.926726 1.82297 0
M  V30 792 H 71.1408 -3.40995 1.83851 0
M  V30 793 H 71.5548 -3.33182 4.05081 0
M  V30 794 H 73.0288 -4.65478 2.96706 0
M  V30 795 H 73.5058 -4.18334 1.33765 0
M  V30 796 H 74.1118 -3.25976 2.73166 0
M  V30 797 N 72.4269 -1.23603 -0.977757 0
M  V30 798 C 73.6549 -1.09646 -1.75458 0
M  V30 799 C 74.0699 0.351859 -1.85492 0
M  V30 800 O 73.4269 1.24327 -1.336 0
M  V30 801 C 73.4779 -1.71895 -3.18016 0
M  V30 802 O 73.1989 -3.11063 -3.08498 0
M  V30 803 C 74.6999 -1.63415 -4.12081 0
M  V30 804 H 71.9199 -0.38359 -0.550545 0
M  V30 805 H 74.4639 -1.63507 -1.22824 0
M  V30 806 H 72.6189 -1.22061 -3.67668 0
M  V30 807 H 73.0329 -3.41305 -3.9826 0
M  V30 808 H 74.5069 -2.11669 -5.09804 0
M  V30 809 H 74.9839 -0.593462 -4.35172 0
M  V30 810 H 75.5899 -2.12628 -3.68334 0
M  V30 811 N 73.905 1.17692 -1.04816 0
M  V30 812 C 74.852 2.21581 -0.645797 0
M  V30 813 C 75.822 1.62367 0.350159 0
M  V30 814 O 77.007 1.89254 0.242433 0
M  V30 815 C 74.147 3.45092 -0.0227568 0
M  V30 816 C 73.26 4.18613 -1.06709 0
M  V30 817 C 72.395 5.29602 -0.411767 0
M  V30 818 C 71.434 5.94904 -1.44067 0
M  V30 819 N 70.571 6.97414 -0.809781 0
M  V30 820 H 75.411 2.55353 -1.5362 0
M  V30 821 H 72.948 1.25438 -0.768364 0
M  V30 822 H 74.906 4.15679 0.35588 0
M  V30 823 H 73.536 3.11917 0.831122 0
M  V30 824 H 72.588 3.46779 -1.5636 0
M  V30 825 H 73.9 4.63293 -1.84827 0
M  V30 826 H 73.054 6.06696 0.0206623 0
M  V30 827 H 71.793 4.86045 0.401438 0
M  V30 828 H 70.798 5.16544 -1.88316 0
M  V30 829 H 72.023 6.40542 -2.25571 0
M  V30 830 H 69.969 6.55998 -0.0170186 0
M  V30 831 H 69.886 7.40386 -1.52856 0
M  V30 832 H 71.154 7.78463 -0.401999 0
M  V30 833 N 75.3831 0.828654 1.34056 0
M  V30 834 C 76.6131 0.431993 2.02033 0
M  V30 835 C 77.0211 -0.96844 1.62536 0
M  V30 836 O 76.3641 -1.6391 0.829408 0
M  V30 837 C 76.4261 0.461224 3.56529 0
M  V30 838 C 76.0901 1.81599 4.1937 0
M  V30 839 C 77.0871 2.7777 4.39477 0
M  V30 840 C 74.7721 2.10604 4.56017 0
M  V30 841 C 76.7661 4.01115 4.95364 0
M  V30 842 C 74.4531 3.34207 5.11614 0
M  V30 843 C 75.4511 4.2928 5.31232 0
M  V30 844 O 75.1391 5.50699 5.8565 0
M  V30 845 H 74.8711 0.170943 0.654029 0
M  V30 846 H 77.4251 1.11988 1.72185 0
M  V30 847 H 75.6551 -0.283388 3.8566 0
M  V30 848 H 77.3441 0.0838149 4.05813 0
M  V30 849 H 78.1101 2.56659 4.11523 0
M  V30 850 H 73.9891 1.37402 4.40047 0
M  V30 851 H 77.5331 4.75333 5.10592 0
M  V30 852 H 73.4301 3.55179 5.38997 0
M  V30 853 H 74.1981 5.52298 6.04077 0
M  V30 854 N 76.8612 -1.46375 0.584142 0
M  V30 855 C 77.8242 -2.28784 -0.138108 0
M  V30 856 C 78.8242 -1.38471 -0.817462 0
M  V30 857 O 80.0142 -1.60833 -0.669199 0
M  V30 858 C 77.1462 -3.18892 -1.20503 0
M  V30 859 H 78.3392 -2.94117 0.586127 0
M  V30 860 H 75.8922 -1.52509 0.342171 0
M  V30 861 H 76.6272 -2.58309 -1.96079 0
M  V30 862 H 76.4122 -3.85388 -0.722384 0
M  V30 863 H 77.9022 -3.80914 -1.71155 0
M  V30 864 N 78.3393 -0.321999 -1.54275 0
M  V30 865 C 79.5853 0.281461 -2.00837 0
M  V30 866 C 79.9183 1.51909 -1.20985 0
M  V30 867 O 79.1933 1.923 -0.291733 0
M  V30 868 C 79.4763 0.617162 -3.54772 0
M  V30 869 C 79.3293 -0.631064 -4.45351 0
M  V30 870 C 80.6483 1.43542 -4.16033 0
M  V30 871 H 77.7673 0.100826 -0.730071 0
M  V30 872 H 80.4093 -0.438268 -1.84876 0
M  V30 873 H 78.5593 1.23034 -3.68504 0
M  V30 874 H 80.2313 -1.26934 -4.43492 0
M  V30 875 H 78.4743 -1.26025 -4.15091 0
M  V30 876 H 79.1453 -0.351735 -5.50878 0
M  V30 877 H 81.6213 0.917134 -4.05867 0
M  V30 878 H 80.4973 1.63907 -5.23856 0
M  V30 879 H 80.7583 2.43108 -3.69257 0
M  V30 880 N 79.8174 1.5752 -0.0501392 0
M  V30 881 C 80.7474 2.14502 0.922566 0
M  V30 882 C 81.7284 1.06642 1.3252 0
M  V30 883 O 82.9134 1.34577 1.4001 0
M  V30 884 C 80.0434 2.68916 2.19776 0
M  V30 885 C 78.9974 3.8175 1.93523 0
M  V30 886 C 78.3234 4.22677 3.27487 0
M  V30 887 C 79.6234 5.06932 1.25765 0
M  V30 888 H 81.3174 2.9603 0.447952 0
M  V30 889 H 78.8634 1.42401 0.214024 0
M  V30 890 H 80.8164 3.07419 2.88222 0
M  V30 891 H 79.5404 1.84578 2.69441 0
M  V30 892 H 78.1994 3.43718 1.27489 0
M  V30 893 H 77.8474 3.35291 3.74952 0
M  V30 894 H 77.5474 4.98725 3.1072 0
M  V30 895 H 79.0714 4.63779 3.97166 0
M  V30 896 H 80.4854 5.42888 1.84244 0
M  V30 897 H 78.8824 5.88116 1.19328 0
M  V30 898 H 79.9524 4.84337 0.233536 0
M  V30 899 N 81.2955 -0.223234 1.56011 0
M  V30 900 C 82.5435 -0.946003 1.78592 0
M  V30 901 C 82.8645 -1.84936 0.618349 0
M  V30 902 O 82.1345 -1.92473 -0.364833 0
M  V30 903 H 80.7145 -0.352298 0.658707 0
M  V30 904 H 83.3765 -0.235494 1.93472 0
M  V30 905 H 82.4725 -1.55381 2.70672 0
M  V30 906 N 82.7736 -1.49793 -0.48987 0
M  V30 907 C 83.7066 -1.61898 -1.60823 0
M  V30 908 C 84.6846 -0.467651 -1.5573 0
M  V30 909 O 85.8686 -0.684682 -1.75626 0
M  V30 910 C 82.9956 -1.58422 -2.99366 0
M  V30 911 C 82.0416 -2.78889 -3.22682 0
M  V30 912 S 82.8746 -4.40429 -3.04602 0
M  V30 913 C 84.0306 -4.39617 -4.4552 0
M  V30 914 H 84.2636 -2.56502 -1.50312 0
M  V30 915 H 81.7966 -1.38822 -0.675849 0
M  V30 916 H 83.7546 -1.57103 -3.79248 0
M  V30 917 H 82.4156 -0.650866 -3.07283 0
M  V30 918 H 81.6086 -2.72708 -4.23847 0
M  V30 919 H 81.2106 -2.77678 -2.50541 0
M  V30 920 H 83.5026 -4.12022 -5.37814 0
M  V30 921 H 84.4456 -5.41097 -4.56749 0
M  V30 922 H 84.8536 -3.69554 -4.2672 0
M  V30 923 N 84.2517 0.741722 -1.39055 0
M  V30 924 C 85.4997 1.49818 -1.35643 0
M  V30 925 C 85.8207 1.94938 0.0491642 0
M  V30 926 O 85.0907 1.68505 0.999141 0
M  V30 927 H 83.6707 0.555755 -0.499144 0
M  V30 928 H 86.3327 0.880957 -1.73854 0
M  V30 929 H 85.4287 2.38348 -2.01486 0
M  V30 930 N 85.7298 1.2412 0.971189 0
M  V30 931 C 86.9578 1.10575 1.74874 0
M  V30 932 C 87.3728 -0.342017 1.85676 0
M  V30 933 O 86.7298 -1.23617 1.34258 0
M  V30 934 C 86.7808 1.73579 3.171 0
M  V30 935 O 86.5018 3.12695 3.06844 0
M  V30 936 C 88.0028 1.65598 4.11208 0
M  V30 937 H 85.2228 0.386504 0.548503 0
M  V30 938 H 87.7668 1.64156 1.21955 0
M  V30 939 H 85.9218 1.24009 3.67016 0
M  V30 940 H 86.3358 3.43412 3.96445 0
M  V30 941 H 87.8098 2.1437 5.08674 0
M  V30 942 H 88.2868 0.616532 4.34851 0
M  V30 943 H 88.8928 2.14578 3.67201 0
M  V30 944 N 87.2079 -1.17134 1.05439 0
M  V30 945 C 88.4569 -1.86791 0.761049 0
M  V30 946 C 88.7699 -1.82072 -0.714795 0
M  V30 947 O 89.9759 -2.47223 -1.12218 0
M  V30 948 C 88.4319 -3.35166 1.31117 0
M  V30 949 C 88.0399 -3.48381 2.81664 0
M  V30 950 C 89.7839 -4.10134 1.09499 0
M  V30 951 C 87.6909 -4.90793 3.29964 0
M  V30 952 H 86.6209 -0.699681 0.281002 0
M  V30 953 H 89.2719 -1.3226 1.27199 0
M  V30 954 H 87.6539 -3.8925 0.72803 0
M  V30 955 H 88.8279 -3.04502 3.45855 0
M  V30 956 H 87.1429 -2.86836 3.01851 0
M  V30 957 H 89.7399 -5.152 1.43084 0
M  V30 958 H 90.0829 -4.16287 0.0328772 0
M  V30 959 H 90.6159 -3.62264 1.64346 0
M  V30 960 H 87.3549 -4.89816 4.35616 0
M  V30 961 H 86.8749 -5.35333 2.70516 0
M  V30 962 H 88.5539 -5.59573 3.24787 0
M  V30 963 N 88.686 -0.835752 -1.33615 0
M  V30 964 C 89.933 -0.429959 -1.97883 0
M  V30 965 C 90.261 1.01006 -1.66217 0
M  V30 966 O 89.516 1.72047 -0.93265 0
M  V30 967 C 89.815 -0.593925 -3.52431 0
M  V30 968 C 89.481 -2.00158 -4.04039 0
M  V30 969 C 88.143 -2.38662 -4.17844 0
M  V30 970 C 90.495 -2.92117 -4.31644 0
M  V30 971 C 87.823 -3.68435 -4.56588 0
M  V30 972 C 90.175 -4.21368 -4.71838 0
M  V30 973 C 88.839 -4.59833 -4.83849 0
M  V30 974 H 88.109 -0.157333 -0.724104 0
M  V30 975 H 90.756 -1.06217 -1.59343 0
M  V30 976 H 89.061 0.121619 -3.91611 0
M  V30 977 H 90.758 -0.260282 -4.00154 0
M  V30 978 H 87.348 -1.69252 -3.93766 0
M  V30 979 H 91.532 -2.63608 -4.20505 0
M  V30 980 H 86.788 -3.98046 -4.64079 0
M  V30 981 H 90.962 -4.92703 -4.92155 0
M  V30 982 H 88.589 -5.60438 -5.13627 0
M  V30 983 N 90.1641 1.46063 -0.591896 0
M  V30 984 C 91.4411 1.95595 -0.0137119 0
M  V30 985 C 91.8211 1.5345 1.4497 0
M  V30 986 O 91.1691 0.789543 2.14426 0
M  V30 987 C 91.3791 3.48453 -0.195373 0
M  V30 988 C 92.7271 4.24546 -0.0679765 0
M  V30 989 O 93.7511 3.55982 -0.124681 0
M  V30 990 O 92.6101 5.46467 0.0600579 0
M  V30 991 H 89.7041 0.825795 0.0446279 0
M  V30 992 H 92.2501 1.56303 -0.660859 0
M  V30 993 H 91.0221 3.72045 -1.21235 0
M  V30 994 H 90.6451 3.94597 0.487775 0
M  V30 995 N 91.6422 0.330177 1.54103 0
M  V30 996 C 92.9192 -0.325007 1.92881 0
M  V30 997 C 93.2992 -1.6934 1.26045 0
M  V30 998 O 92.6472 -2.24855 0.406526 0
M  V30 999 C 92.8572 -0.410634 3.46576 0
M  V30 1000 C 94.2052 -0.667801 4.19316 0
M  V30 1001 O 95.2292 -0.49329 3.52768 0
M  V30 1002 O 94.0882 -1.00491 5.37181 0
M  V30 1003 H 91.1822 -0.186873 0.80561 0
M  V30 1004 H 93.7282 0.380376 1.65382 0
M  V30 1005 H 92.5002 0.550164 3.87413 0
M  V30 1006 H 92.1232 -1.16333 3.802 0
M  V30 1007 N 93.1203 -1.57491 0.0584922 0
M  V30 1008 C 94.3503 -1.9701 -0.622134 0
M  V30 1009 C 94.7583 -0.935034 -1.6448 0
M  V30 1010 O 94.1013 0.0882904 -1.83488 0
M  V30 1011 C 94.1633 -3.32794 -1.35972 0
M  V30 1012 C 93.8273 -4.54343 -0.492043 0
M  V30 1013 C 94.8243 -5.19323 0.244901 0
M  V30 1014 C 92.5093 -5.00534 -0.420821 0
M  V30 1015 C 94.5033 -6.28835 1.04143 0
M  V30 1016 C 92.1903 -6.09921 0.379389 0
M  V30 1017 C 93.1883 -6.73933 1.10919 0
M  V30 1018 O 92.8763 -7.81216 1.89623 0
M  V30 1019 H 92.6083 -0.653127 -0.174359 0
M  V30 1020 H 95.1623 -2.05029 0.123418 0
M  V30 1021 H 93.3923 -3.21351 -2.15105 0
M  V30 1022 H 95.0813 -3.5701 -1.93129 0
M  V30 1023 H 95.8473 -4.8459 0.19939 0
M  V30 1024 H 91.7263 -4.50496 -0.978474 0
M  V30 1025 H 95.2703 -6.7873 1.61157 0
M  V30 1026 H 91.1673 -6.44089 0.426512 0
M  V30 1027 H 91.9353 -7.98029 1.81913 0
M  V30 1028 N 94.5984 0.214957 -1.56127 0
M  V30 1029 C 96.0094 0.781386 -1.69562 0
M  V30 1030 C 96.3604 1.84707 -0.66165 0
M  V30 1031 O 95.4854 2.156 0.185927 0
M  V30 1032 C 96.0804 1.42411 -3.07416 0
M  V30 1033 C 94.6394 1.93786 -3.22683 0
M  V30 1034 C 93.7864 0.800438 -2.65496 0
M  V30 1035 H 96.7374 -0.00980633 -1.58697 0
M  V30 1036 H 96.7584 2.29309 -3.0364 0
M  V30 1037 H 96.2704 0.64826 -3.82648 0
M  V30 1038 H 94.3714 2.74152 -2.52332 0
M  V30 1039 H 94.4844 2.1133 -4.29973 0
M  V30 1040 H 92.8484 1.2095 -2.2415 0
M  V30 1041 H 93.6314 0.0371471 -3.4328 0
M  V30 1042 N 96.0765 1.50051 0.48192 0
M  V30 1043 C 97.3045 1.64237 1.25832 0
M  V30 1044 C 97.7195 0.321336 1.86045 0
M  V30 1045 O 97.0765 -0.695478 1.68729 0
M  V30 1046 C 97.1275 2.72548 2.37487 0
M  V30 1047 O 96.8485 3.99529 1.79745 0
M  V30 1048 C 98.3495 2.9761 3.28547 0
M  V30 1049 H 95.5695 0.55237 0.380957 0
M  V30 1050 H 98.1135 1.96207 0.576467 0
M  V30 1051 H 96.2685 2.43303 3.01467 0
M  V30 1052 H 96.6825 4.59342 2.5319 0
M  V30 1053 H 98.1565 3.77084 4.03127 0
M  V30 1054 H 98.6335 2.0826 3.86684 0
M  V30 1055 H 99.2395 3.28345 2.70314 0
M  V30 1056 N 97.5546 -0.734337 1.39446 0
M  V30 1057 C 98.8016 -1.49391 1.36706 0
M  V30 1058 C 99.1296 -1.94465 -0.0367813 0
M  V30 1059 O 98.3846 -1.67154 -1.01774 0
M  V30 1060 C 98.6836 -2.74711 2.28623 0
M  V30 1061 C 98.3496 -2.48501 3.76242 0
M  V30 1062 C 97.0116 -2.41062 4.16464 0
M  V30 1063 C 99.3636 -2.26098 4.69606 0
M  V30 1064 C 96.6916 -2.09262 5.48112 0
M  V30 1065 C 99.0436 -1.95814 6.01531 0
M  V30 1066 C 97.7076 -1.86845 6.40816 0
M  V30 1067 H 96.9776 -0.546661 0.500243 0
M  V30 1068 H 99.6246 -0.842788 1.71957 0
M  V30 1069 H 97.9296 -3.44569 1.86492 0
M  V30 1070 H 99.6266 -3.32741 2.23796 0
M  V30 1071 H 96.2166 -2.55169 3.44364 0
M  V30 1072 H 100.401 -2.30812 4.39363 0
M  V30 1073 H 95.6566 -2.00841 5.77471 0
M  V30 1074 H 99.8306 -1.77488 6.73403 0
M  V30 1075 H 97.4576 -1.6197 7.42745 0
M  V30 1076 N 99.0327 -1.24633 -0.964593 0
M  V30 1077 C 99.9957 -1.0424 -2.04124 0
M  V30 1078 C 100.996 0.00137563 -1.608 0
M  V30 1079 O 102.186 -0.239883 -1.7254 0
M  V30 1080 C 99.3177 -0.580588 -3.3592 0
M  V30 1081 H 100.511 -1.99803 -2.23649 0
M  V30 1082 H 98.0637 -1.06899 -1.14027 0
M  V30 1083 H 98.7987 0.3781 -3.22088 0
M  V30 1084 H 98.5837 -1.33398 -3.6871 0
M  V30 1085 H 100.074 -0.459034 -4.15069 0
M  V30 1086 N 100.511 1.16574 -1.06058 0
M  V30 1087 C 101.788 1.83048 -0.689416 0
M  V30 1088 C 102.168 1.94122 0.829443 0
M  V30 1089 O 101.516 1.48249 1.7388 0
M  V30 1090 C 101.726 3.20186 -1.38859 0
M  V30 1091 C 103.074 3.95989 -1.53226 0
M  V30 1092 O 104.098 3.29696 -1.3483 0
M  V30 1093 O 102.957 5.14813 -1.83384 0
M  V30 1094 H 100.051 0.790258 -0.243764 0
M  V30 1095 H 102.597 1.23797 -1.16071 0
M  V30 1096 H 101.369 3.07146 -2.4244 0
M  V30 1097 H 100.992 3.87112 -0.907216 0
M  V30 1098 N 101.989 0.842826 1.3317 0
M  V30 1099 C 103.237 0.439577 1.97262 0
M  V30 1100 C 103.558 -1.00548 1.67078 0
M  V30 1101 O 102.828 -1.70098 0.971779 0
M  V30 1102 H 101.408 0.159558 0.72976 0
M  V30 1103 H 104.07 1.07665 1.62463 0
M  V30 1104 H 103.166 0.574886 3.0676 0
M  V30 1105 N 103.467 -1.45747 0.599634 0
M  V30 1106 C 104.4 -2.27547 -0.172552 0
M  V30 1107 C 105.378 -1.36657 -0.881116 0
M  V30 1108 O 106.562 -1.66081 -0.891595 0
M  V30 1109 C 103.689 -3.14829 -1.24903 0
M  V30 1110 C 102.735 -4.21603 -0.644465 0
M  V30 1111 S 103.568 -5.32754 0.541606 0
M  V30 1112 C 104.724 -6.23604 -0.535656 0
M  V30 1113 H 104.957 -2.92691 0.521468 0
M  V30 1114 H 102.49 -1.49473 0.386947 0
M  V30 1115 H 104.448 -3.65675 -1.86527 0
M  V30 1116 H 103.109 -2.48965 -1.91508 0
M  V30 1117 H 102.302 -4.82566 -1.45417 0
M  V30 1118 H 101.904 -3.73857 -0.103534 0
M  V30 1119 H 104.196 -6.62519 -1.41686 0
M  V30 1120 H 105.139 -7.0809 0.0376246 0
M  V30 1121 H 105.547 -5.58103 -0.84741 0
M  V30 1122 N 104.945 -0.338344 -1.53925 0
M  V30 1123 C 105.893 0.536231 -2.26335 0
M  V30 1124 C 106.887 1.1063 -1.28286 0
M  V30 1125 O 108.093 1.05264 -1.46012 0
M  V30 1126 H 104.468 0.191602 -0.727181 0
M  V30 1127 H 106.439 -0.0965747 -2.98244 0
M  V30 1128 C 105.188 1.67803 -3.04528 0
M  V30 1129 H 104.511 1.24864 -3.79801 0
M  V30 1130 H 105.951 2.26526 -3.58416 0
M  V30 1131 C 104.41 2.60439 -2.13712 0
M  V30 1132 O 104.94 3.6255 -1.72975 0
M  V30 1133 N 103.146 2.29006 -1.78898 0
M  V30 1134 H 102.693 1.46011 -2.12223 0
M  V30 1135 H 102.651 2.91248 -1.18416 0
M  V30 1136 N 106.423 1.57458 -0.0668435 0
M  V30 1137 C 107.333 2.15937 0.916975 0
M  V30 1138 C 108.349 1.12123 1.33058 0
M  V30 1139 O 109.525 1.44366 1.40429 0
M  V30 1140 C 106.59 2.70547 2.16807 0
M  V30 1141 C 105.651 3.89215 1.81135 0
M  V30 1142 C 104.884 4.41211 3.0028 0
M  V30 1143 O 105.107 3.92225 4.14144 0
M  V30 1144 O 104.041 5.32605 2.80384 0
M  V30 1145 H 107.867 3.00354 0.449561 0
M  V30 1146 H 105.452 1.48584 0.155949 0
M  V30 1147 H 107.334 3.0557 2.90181 0
M  V30 1148 H 106.009 1.89192 2.62656 0
M  V30 1149 H 104.916 3.59054 1.05028 0
M  V30 1150 H 106.249 4.71848 1.40073 0
M  V30 1151 N 107.901 -0.206675 1.56239 0
M  V30 1152 C 108.848 -1.25617 1.93621 0
M  V30 1153 C 109.818 -1.45824 0.795274 0
M  V30 1154 O 111.003 -1.59148 1.05245 0
M  V30 1155 C 108.143 -2.59839 2.27107 0
M  V30 1156 C 107.256 -2.47308 3.54207 0
M  V30 1157 C 106.391 -3.74155 3.7707 0
M  V30 1158 C 105.43 -3.56407 4.97635 0
M  V30 1159 N 104.567 -4.75238 5.1681 0
M  V30 1160 H 109.407 -0.930383 2.83104 0
M  V30 1161 H 106.944 -0.448065 1.4011 0
M  V30 1162 H 108.902 -3.38021 2.44535 0
M  V30 1163 H 107.532 -2.90485 1.40778 0
M  V30 1164 H 106.584 -1.60483 3.4489 0
M  V30 1165 H 107.896 -2.30122 4.42544 0
M  V30 1166 H 107.05 -4.60778 3.94675 0
M  V30 1167 H 105.789 -3.94282 2.87042 0
M  V30 1168 H 104.794 -2.68168 4.79964 0
M  V30 1169 H 106.019 -3.37736 5.89161 0
M  V30 1170 H 103.965 -4.95651 4.29728 0
M  V30 1171 H 103.882 -4.60835 5.99306 0
M  V30 1172 H 105.15 -5.63246 5.38864 0
M  V30 1173 N 109.379 -1.50304 -0.473955 0
M  V30 1174 C 110.627 -1.60832 -1.22382 0
M  V30 1175 C 110.948 -0.30939 -1.9253 0
M  V30 1176 O 110.218 0.67296 -1.83978 0
M  V30 1177 H 108.798 -0.592652 -0.454723 0
M  V30 1178 H 111.46 -1.87068 -0.546968 0
M  V30 1179 H 110.556 -2.41803 -1.97327 0
M  V30 1180 N 110.857 0.726932 -1.39834 0
M  V30 1181 C 111.787 1.85405 -1.41941 0
M  V30 1182 C 112.768 1.67751 -0.281728 0
M  V30 1183 O 113.953 1.8795 -0.488717 0
M  V30 1184 C 111.083 3.23243 -1.2701 0
M  V30 1185 C 110.037 3.55549 -2.38262 0
M  V30 1186 C 109.363 4.9241 -2.08415 0
M  V30 1187 C 110.663 3.577 -3.80589 0
M  V30 1188 H 112.357 1.83899 -2.36266 0
M  V30 1189 H 109.903 0.883349 -1.13723 0
M  V30 1190 H 111.856 4.01775 -1.27103 0
M  V30 1191 H 110.58 3.25296 -0.291564 0
M  V30 1192 H 109.239 2.79351 -2.37399 0
M  V30 1193 H 108.887 4.91052 -1.0898 0
M  V30 1194 H 108.587 5.14992 -2.82943 0
M  V30 1195 H 110.111 5.73289 -2.10171 0
M  V30 1196 H 111.525 4.26293 -3.83337 0
M  V30 1197 H 109.922 3.91804 -4.54543 0
M  V30 1198 H 110.992 2.57328 -4.10987 0
M  V30 1199 N 112.336 1.25143 0.95797 0
M  V30 1200 C 113.584 1.09476 1.69881 0
M  V30 1201 C 113.905 -0.365502 1.91544 0
M  V30 1202 O 113.175 -1.25985 1.50015 0
M  V30 1203 H 111.755 0.402128 0.629525 0
M  V30 1204 H 114.417 1.57214 1.15194 0
M  V30 1205 H 113.513 1.60046 2.6794 0
M  V30 1206 N 113.814 -1.1601 1.06675 0
M  V30 1207 C 115.054 -1.88304 0.795037 0
M  V30 1208 C 115.418 -1.80062 -0.666466 0
M  V30 1209 O 116.619 -2.47319 -1.05293 0
M  V30 1210 C 114.89 -3.33664 1.28076 0
M  V30 1211 S 116.449 -4.23768 1.13868 0
M  V30 1212 H 113.267 -0.649928 0.288296 0
M  V30 1213 H 115.869 -1.4001 1.36445 0
M  V30 1214 H 114.573 -3.37203 2.33927 0
M  V30 1215 H 114.104 -3.87009 0.706253 0
M  V30 1216 H 116.119 -4.96148 0.0719668 0
M  V30 1217 N 115.292 -0.849877 -1.32721 0
M  V30 1218 C 116.255 -0.296122 -2.27279 0
M  V30 1219 C 117.255 0.541458 -1.5141 0
M  V30 1220 O 118.445 0.353658 -1.70572 0
M  V30 1221 C 115.577 0.581579 -3.35902 0
M  V30 1222 H 116.77 -1.13064 -2.77771 0
M  V30 1223 H 114.323 -0.62383 -1.43311 0
M  V30 1224 H 115.058 1.43809 -2.9067 0
M  V30 1225 H 114.843 -0.0178814 -3.92096 0
M  V30 1226 H 116.333 0.961951 -4.0637 0
M  V30 1227 N 116.77 1.45427 -0.607355 0
M  V30 1228 C 118.018 2.01841 -0.102253 0
M  V30 1229 C 118.339 1.47832 1.27164 0
M  V30 1230 O 117.609 0.672497 1.83995 0
M  V30 1231 H 116.189 0.746188 -0.0348101 0
M  V30 1232 H 118.851 1.78229 -0.7887 0
M  V30 1233 H 117.947 3.12057 -0.0518585 0
M  V30 1234 N 118.248 0.346503 1.53744 0
M  V30 1235 C 119.178 -0.501193 2.28058 0
M  V30 1236 C 120.159 -1.10014 1.29734 0
M  V30 1237 O 121.344 -1.12097 1.58581 0
M  V30 1238 C 118.474 -1.65078 3.05559 0
M  V30 1239 C 117.428 -1.18003 4.11411 0
M  V30 1240 C 116.754 -2.41837 4.76884 0
M  V30 1241 C 118.054 -0.278394 5.21558 0
M  V30 1242 H 119.748 0.11875 2.99164 0
M  V30 1243 H 117.294 0.0585531 1.43881 0
M  V30 1244 H 119.247 -2.25028 3.56287 0
M  V30 1245 H 117.971 -2.29767 2.32109 0
M  V30 1246 H 116.63 -0.603331 3.61601 0
M  V30 1247 H 116.278 -3.0494 4.00026 0
M  V30 1248 H 115.978 -2.1102 5.48402 0
M  V30 1249 H 117.502 -3.02508 5.30397 0
M  V30 1250 H 118.916 -0.784823 5.67903 0
M  V30 1251 H 117.313 -0.0619707 6.00068 0
M  V30 1252 H 118.383 0.684677 4.80042 0
M  V30 1253 N 119.726 -1.57421 0.075193 0
M  V30 1254 C 120.674 -2.14124 -0.908508 0
M  V30 1255 C 121.668 -1.07898 -1.30592 0
M  V30 1256 O 122.874 -1.26273 -1.28277 0
M  V30 1257 H 119.249 -0.684707 -0.310935 0
M  V30 1258 H 121.22 -2.95634 -0.405374 0
M  V30 1259 C 119.969 -2.72044 -2.16535 0
M  V30 1260 H 119.292 -3.53456 -1.86839 0
M  V30 1261 H 120.732 -3.15311 -2.83469 0
M  V30 1262 C 119.191 -1.66968 -2.92615 0
M  V30 1263 O 119.721 -1.0967 -3.86439 0
M  V30 1264 N 117.927 -1.37923 -2.55784 0
M  V30 1265 H 117.474 -1.84706 -1.79559 0
M  V30 1266 H 117.432 -0.67852 -3.06991 0
M  V30 1267 N 121.204 0.198386 -1.56346 0
M  V30 1268 C 122.451 0.919286 -1.80431 0
M  V30 1269 C 122.779 1.83393 -0.647866 0
M  V30 1270 O 122.034 1.92236 0.366556 0
M  V30 1271 C 122.333 1.77031 -3.10475 0
M  V30 1272 C 121.999 1.00693 -4.39513 0
M  V30 1273 C 120.661 0.796145 -4.74568 0
M  V30 1274 C 123.013 0.469559 -5.19081 0
M  V30 1275 C 120.341 0.0364588 -5.86689 0
M  V30 1276 C 122.693 -0.2769 -6.31994 0
M  V30 1277 C 121.357 -0.49873 -6.65634 0
M  V30 1278 H 120.627 0.336391 -0.660244 0
M  V30 1279 H 123.274 0.185872 -1.90596 0
M  V30 1280 H 121.579 2.5723 -2.95533 0
M  V30 1281 H 123.276 2.33065 -3.26315 0
M  V30 1282 H 119.866 1.18122 -4.12001 0
M  V30 1283 H 124.05 0.619816 -4.92414 0
M  V30 1284 H 119.306 -0.145412 -6.11227 0
M  V30 1285 H 123.48 -0.700684 -6.92866 0
M  V30 1286 H 121.107 -1.0893 -7.52355 0
M  V30 1287 N 122.682 1.50554 0.465978 0
M  V30 1288 C 124.093 1.54599 1.04671 0
M  V30 1289 C 124.444 0.352488 1.93008 0
M  V30 1290 O 123.569 -0.534044 2.09707 0
M  V30 1291 C 124.164 2.80166 1.90505 0
M  V30 1292 C 122.723 2.86876 2.43678 0
M  V30 1293 C 121.87 2.48947 1.22151 0
M  V30 1294 H 124.821 1.56744 0.248384 0
M  V30 1295 H 124.842 2.62311 2.75633 0
M  V30 1296 H 124.354 3.67013 1.26186 0
M  V30 1297 H 122.455 2.04393 3.11536 0
M  V30 1298 H 122.568 3.89885 2.78436 0
M  V30 1299 H 120.932 2.01498 1.5579 0
M  V30 1300 H 121.715 3.38107 0.594866 0
M  V30 1301 N 124.16 -0.719506 1.40217 0
M  V30 1302 C 125.406 -1.48152 1.38488 0
M  V30 1303 C 125.739 -1.94195 -0.0141867 0
M  V30 1304 O 125.014 -1.67884 -0.982096 0
M  V30 1305 C 125.297 -2.71035 2.37091 0
M  V30 1306 C 125.15 -2.30912 3.86005 0
M  V30 1307 C 126.469 -3.73182 2.33288 0
M  V30 1308 H 123.588 -0.537395 0.504357 0
M  V30 1309 H 126.23 -0.821472 1.71324 0
M  V30 1310 H 124.38 -3.27352 2.0922 0
M  V30 1311 H 126.052 -1.80107 4.24687 0
M  V30 1312 H 124.295 -1.62958 4.02029 0
M  V30 1313 H 124.966 -3.18978 4.50508 0
M  V30 1314 H 127.442 -3.26485 2.57966 0
M  V30 1315 H 126.318 -4.56806 3.04334 0
M  V30 1316 H 126.579 -4.21202 1.34317 0
M  V30 1317 N 125.638 -1.25649 -0.95132 0
M  V30 1318 C 126.868 -1.13179 -1.72841 0
M  V30 1319 C 127.276 0.316827 -1.86528 0
M  V30 1320 O 126.619 1.22948 -1.3649 0
M  V30 1321 C 126.681 -1.71644 -3.15878 0
M  V30 1322 C 126.345 -3.20667 -3.25609 0
M  V30 1323 C 127.342 -4.17616 -3.09666 0
M  V30 1324 C 125.027 -3.6094 -3.49324 0
M  V30 1325 C 127.021 -5.52817 -3.17289 0
M  V30 1326 C 124.708 -4.96278 -3.56584 0
M  V30 1327 C 125.706 -5.92025 -3.40581 0
M  V30 1328 O 125.394 -7.24899 -3.47528 0
M  V30 1329 H 125.126 -0.395389 -0.54831 0
M  V30 1330 H 127.68 -1.66566 -1.20187 0
M  V30 1331 H 125.91 -1.12707 -3.69911 0
M  V30 1332 H 127.599 -1.54225 -3.75459 0
M  V30 1333 H 128.365 -3.87842 -2.91211 0
M  V30 1334 H 124.244 -2.86907 -3.6084 0
M  V30 1335 H 127.788 -6.2753 -3.04716 0
M  V30 1336 H 123.685 -5.25716 -3.74556 0
M  V30 1337 H 124.453 -7.33039 -3.64138 0
M  V30 1338 N 127.117 1.15442 -1.07289 0
M  V30 1339 C 128.363 1.86489 -0.796846 0
M  V30 1340 C 128.696 1.82078 0.675371 0
M  V30 1341 O 127.971 1.24346 1.4956 0
M  V30 1342 C 128.254 3.35626 -1.30489 0
M  V30 1343 C 128.107 3.48673 -2.84161 0
M  V30 1344 C 129.426 4.30357 -0.920907 0
M  V30 1345 H 126.545 0.677144 -0.290939 0
M  V30 1346 H 129.187 1.35633 -1.33056 0
M  V30 1347 H 127.337 3.79068 -0.850883 0
M  V30 1348 H 129.009 3.14099 -3.37846 0
M  V30 1349 H 127.252 2.90253 -3.22391 0
M  V30 1350 H 127.923 4.53453 -3.14777 0
M  V30 1351 H 130.399 3.94871 -1.3121 0
M  V30 1352 H 129.275 5.33193 -1.30372 0
M  V30 1353 H 129.536 4.4176 0.173226 0
M  V30 1354 N 128.595 0.856903 1.32268 0
M  V30 1355 C 129.82 0.474569 2.01897 0
M  V30 1356 C 130.245 -0.921766 1.63967 0
M  V30 1357 O 129.603 -1.60589 0.84148 0
M  V30 1358 C 129.651 0.623799 3.55164 0
M  V30 1359 O 128.755 -0.342459 4.10976 0
M  V30 1360 H 128.096 0.190422 0.63611 0
M  V30 1361 H 130.626 1.15672 1.68764 0
M  V30 1362 H 130.636 0.512169 4.04773 0
M  V30 1363 H 129.311 1.64202 3.82113 0
M  V30 1364 H 127.888 -0.18688 3.72431 0
M  V30 1365 N 130.073 -1.45103 0.615059 0
M  V30 1366 C 131.303 -2.06254 0.119596 0
M  V30 1367 C 131.711 -1.4591 -1.20445 0
M  V30 1368 O 131.054 -0.570384 -1.7462 0
M  V30 1369 C 131.116 -3.59396 -0.0865591 0
M  V30 1370 C 130.78 -4.42116 1.15683 0
M  V30 1371 C 131.777 -4.7662 2.07676 0
M  V30 1372 C 129.462 -4.82749 1.38775 0
M  V30 1373 C 131.456 -5.50622 3.21082 0
M  V30 1374 C 129.143 -5.56504 2.52481 0
M  V30 1375 C 130.141 -5.90358 3.43463 0
M  V30 1376 O 129.829 -6.62615 4.55189 0
M  V30 1377 H 129.561 -0.672423 0.0694512 0
M  V30 1378 H 132.115 -1.87219 0.844885 0
M  V30 1379 H 130.345 -3.76859 -0.866823 0
M  V30 1380 H 132.034 -4.02365 -0.534555 0
M  V30 1381 H 132.8 -4.4578 1.91063 0
M  V30 1382 H 128.679 -4.55829 0.688545 0
M  V30 1383 H 132.223 -5.76965 3.92119 0
M  V30 1384 H 128.12 -5.86759 2.69043 0
M  V30 1385 H 128.888 -6.81071 4.53966 0
M  V30 1386 N 131.551 -0.354651 -1.53558 0
M  V30 1387 C 132.776 0.242153 -2.05981 0
M  V30 1388 C 133.201 1.42553 -1.2272 0
M  V30 1389 O 132.559 1.79656 -0.243604 0
M  V30 1390 C 132.607 0.624367 -3.55154 0
M  V30 1391 O 131.711 1.72301 -3.74681 0
M  V30 1392 H 131.052 0.0378432 -0.662921 0
M  V30 1393 H 133.582 -0.512087 -1.98088 0
M  V30 1394 H 133.592 0.898433 -3.97985 0
M  V30 1395 H 132.267 -0.240989 -4.15201 0
M  V30 1396 H 130.844 1.44535 -3.4375 0
M  V30 1397 N 133.029 1.57378 -0.0835403 0
M  V30 1398 C 133.976 2.13384 0.879539 0
M  V30 1399 C 134.946 1.04936 1.28754 0
M  V30 1400 O 136.131 1.32662 1.37133 0
M  V30 1401 C 133.271 2.70932 2.13752 0
M  V30 1402 C 132.384 3.93575 1.7811 0
M  V30 1403 C 131.519 4.39326 2.98607 0
M  V30 1404 C 130.558 5.54587 2.59037 0
M  V30 1405 N 129.695 5.95243 3.72331 0
M  V30 1406 H 134.535 2.9537 0.395076 0
M  V30 1407 H 132.072 1.45953 0.183349 0
M  V30 1408 H 134.03 3.02411 2.87408 0
M  V30 1409 H 132.66 1.91693 2.59718 0
M  V30 1410 H 131.712 3.68483 0.94469 0
M  V30 1411 H 133.024 4.77258 1.45005 0
M  V30 1412 H 132.178 4.72528 3.80529 0
M  V30 1413 H 130.917 3.5452 3.34913 0
M  V30 1414 H 129.922 5.21024 1.75539 0
M  V30 1415 H 131.147 6.41133 2.23887 0
M  V30 1416 H 129.093 5.13385 4.08378 0
M  V30 1417 H 129.01 6.73694 3.43034 0
M  V30 1418 H 130.278 6.33072 4.54797 0
M  V30 1419 N 134.507 -0.190092 1.56449 0
M  V30 1420 C 135.417 -1.25591 1.98152 0
M  V30 1421 C 136.433 -1.49519 0.889944 0
M  V30 1422 O 137.609 -1.62036 1.19609 0
M  V30 1423 C 134.674 -2.57916 2.3169 0
M  V30 1424 C 133.735 -2.42015 3.5458 0
M  V30 1425 C 132.968 -3.6803 3.8651 0
M  V30 1426 O 133.191 -4.72413 3.1966 0
M  V30 1427 O 132.125 -3.6326 4.79923 0
M  V30 1428 H 135.951 -0.931988 2.89046 0
M  V30 1429 H 133.536 -0.395488 1.4407 0
M  V30 1430 H 135.418 -3.36008 2.54316 0
M  V30 1431 H 134.093 -2.89925 1.43963 0
M  V30 1432 H 133 -1.62017 3.37196 0
M  V30 1433 H 134.333 -2.14937 4.4279 0
M  V30 1434 N 135.985 -1.50799 -0.457987 0
M  V30 1435 C 137.262 -1.52968 -1.21902 0
M  V30 1436 C 137.642 -0.281906 -2.09209 0
M  V30 1437 O 136.99 0.734076 -2.16388 0
M  V30 1438 C 137.2 -2.8326 -2.03875 0
M  V30 1439 C 138.548 -3.34425 -2.6162 0
M  V30 1440 O 139.572 -2.8467 -2.14106 0
M  V30 1441 O 138.431 -4.21188 -3.48228 0
M  V30 1442 H 135.525 -0.614129 -0.553873 0
M  V30 1443 H 138.071 -1.63098 -0.468739 0
M  V30 1444 H 136.843 -3.65543 -1.39621 0
M  V30 1445 H 136.466 -2.76195 -2.8601 0
M  V30 1446 N 137.463 0.71206 -1.40597 0
M  V30 1447 C 138.712 1.46754 -1.38369 0
M  V30 1448 C 139.025 1.95598 0.0097839 0
M  V30 1449 O 140.231 2.71059 0.154677 0
M  V30 1450 C 138.687 2.65289 -2.43207 0
M  V30 1451 C 138.295 2.23301 -3.88382 0
M  V30 1452 C 140.039 3.43008 -2.50091 0
M  V30 1453 C 137.946 3.38696 -4.84808 0
M  V30 1454 H 136.876 0.55118 -0.514506 0
M  V30 1455 H 139.527 0.774616 -1.66349 0
M  V30 1456 H 137.909 3.36769 -2.08332 0
M  V30 1457 H 139.083 1.59218 -4.32419 0
M  V30 1458 H 137.398 1.58618 -3.85006 0
M  V30 1459 H 139.995 4.28881 -3.1932 0
M  V30 1460 H 140.338 3.87065 -1.53253 0
M  V30 1461 H 140.871 2.78574 -2.83974 0
M  V30 1462 H 137.61 2.99668 -5.82992 0
M  V30 1463 H 137.13 4.01683 -4.45433 0
M  V30 1464 H 138.809 4.04712 -5.04794 0
M  V30 1465 N 138.941 1.26152 0.944643 0
M  V30 1466 C 139.851 1.09176 2.07648 0
M  V30 1467 C 140.867 0.0261935 1.7398 0
M  V30 1468 O 142.043 0.229208 2.00091 0
M  V30 1469 C 139.108 0.722915 3.39079 0
M  V30 1470 C 138.169 1.86752 3.86552 0
M  V30 1471 C 137.402 1.51617 5.11711 0
M  V30 1472 O 137.625 0.416331 5.68879 0
M  V30 1473 O 136.559 2.34975 5.54139 0
M  V30 1474 H 140.385 2.0412 2.24875 0
M  V30 1475 H 137.97 1.05182 1.061 0
M  V30 1476 H 139.852 0.529787 4.18056 0
M  V30 1477 H 138.527 -0.197159 3.23099 0
M  V30 1478 H 137.434 2.11558 3.08535 0
M  V30 1479 H 138.767 2.76719 4.07047 0
M  V30 1480 N 140.419 -1.14872 1.07899 0
M  V30 1481 C 141.667 -1.85422 0.803941 0
M  V30 1482 C 141.988 -1.83051 -0.67211 0
M  V30 1483 O 141.258 -1.27532 -1.48703 0
M  V30 1484 H 139.838 -0.686537 0.294408 0
M  V30 1485 H 142.5 -1.39226 1.3639 0
M  V30 1486 H 141.596 -2.90399 1.14346 0
M  V30 1487 N 141.898 -0.863906 -1.31812 0
M  V30 1488 C 142.845 -0.313303 -2.28664 0
M  V30 1489 C 143.815 0.584868 -1.55462 0
M  V30 1490 O 145 0.517805 -1.83639 0
M  V30 1491 C 142.14 0.48441 -3.41683 0
M  V30 1492 C 141.253 -0.440594 -4.29747 0
M  V30 1493 C 140.388 0.370652 -5.29905 0
M  V30 1494 C 139.427 -0.551164 -6.09613 0
M  V30 1495 N 138.564 0.223462 -7.01744 0
M  V30 1496 H 143.404 -1.14444 -2.75148 0
M  V30 1497 H 140.941 -0.575769 -1.35364 0
M  V30 1498 H 142.899 0.962627 -4.05943 0
M  V30 1499 H 141.529 1.28029 -2.96325 0
M  V30 1500 H 140.581 -1.03724 -3.65986 0
M  V30 1501 H 141.893 -1.14767 -4.85417 0
M  V30 1502 H 141.047 0.911638 -5.99812 0
M  V30 1503 H 139.786 1.11105 -4.74876 0
M  V30 1504 H 138.791 -1.10396 -5.38603 0
M  V30 1505 H 140.016 -1.29032 -6.66729 0
M  V30 1506 H 137.962 0.946787 -6.49132 0
M  V30 1507 H 137.879 -0.424399 -7.54808 0
M  V30 1508 H 139.147 0.745876 -7.75923 0
M  V30 1509 N 143.376 1.44774 -0.622745 0
M  V30 1510 C 144.604 2.06487 -0.130722 0
M  V30 1511 C 145.019 1.46476 1.19123 0
M  V30 1512 O 144.376 0.584502 1.72887 0
M  V30 1513 C 144.427 3.615 -0.000807207 0
M  V30 1514 O 144.148 4.19274 -1.27048 0
M  V30 1515 C 145.649 4.40229 0.520898 0
M  V30 1516 H 142.869 0.666704 -0.0758106 0
M  V30 1517 H 145.413 1.85779 -0.854774 0
M  V30 1518 H 143.568 3.81498 0.673643 0
M  V30 1519 H 143.982 5.12622 -1.1099 0
M  V30 1520 H 145.456 5.49144 0.560838 0
M  V30 1521 H 145.933 4.1108 1.54627 0
M  V30 1522 H 146.539 4.25131 -0.120018 0
M  V30 1523 N 144.854 0.36279 1.53368 0
M  V30 1524 C 145.802 -0.500155 2.27159 0
M  V30 1525 C 146.796 -1.08575 1.3003 0
M  V30 1526 O 148.002 -1.02927 1.47668 0
M  V30 1527 H 144.377 -0.180009 0.730138 0
M  V30 1528 H 146.348 0.14401 2.98052 0
M  V30 1529 C 145.097 -1.62937 3.07159 0
M  V30 1530 H 144.42 -1.18806 3.8174 0
M  V30 1531 H 145.86 -2.20795 3.61975 0
M  V30 1532 C 144.319 -2.57007 2.17829 0
M  V30 1533 O 144.849 -3.59752 1.78721 0
M  V30 1534 N 143.055 -2.26131 1.82518 0
M  V30 1535 H 142.602 -1.42616 2.14519 0
M  V30 1536 H 142.56 -2.89327 1.23034 0
M  V30 1537 N 146.332 -1.57332 0.0918853 0
M  V30 1538 C 147.581 -1.93412 -0.572249 0
M  V30 1539 C 147.894 -0.975515 -1.69538 0
M  V30 1540 O 149.1 -1.22991 -2.42045 0
M  V30 1541 C 147.556 -3.43648 -1.0693 0
M  V30 1542 C 147.164 -4.47994 0.0239049 0
M  V30 1543 C 148.908 -3.88695 -1.70635 0
M  V30 1544 C 146.815 -5.89381 -0.488319 0
M  V30 1545 H 145.745 -0.721939 -0.217532 0
M  V30 1546 H 148.396 -1.82735 0.167369 0
M  V30 1547 H 146.778 -3.49466 -1.8625 0
M  V30 1548 H 147.952 -4.53815 0.799277 0
M  V30 1549 H 146.267 -4.12536 0.565946 0
M  V30 1550 H 148.864 -4.91725 -2.10025 0
M  V30 1551 H 149.207 -3.27166 -2.57426 0
M  V30 1552 H 149.74 -3.85564 -0.979023 0
M  V30 1553 H 146.479 -6.54602 0.342906 0
M  V30 1554 H 145.999 -5.87037 -1.23077 0
M  V30 1555 H 147.678 -6.39863 -0.958317 0
M  V30 1556 N 147.81 0.181792 -1.56548 0
M  V30 1557 C 149.221 0.745244 -1.71181 0
M  V30 1558 C 149.572 1.83262 -0.70068 0
M  V30 1559 O 148.697 2.15946 0.140154 0
M  V30 1560 C 149.292 1.35859 -3.10367 0
M  V30 1561 C 147.851 1.86898 -3.2672 0
M  V30 1562 C 146.998 0.743942 -2.67134 0
M  V30 1563 H 149.949 -0.0434661 -1.5864 0
M  V30 1564 H 149.97 2.22817 -3.08436 0
M  V30 1565 H 149.482 0.566948 -3.83937 0
M  V30 1566 H 147.583 2.68738 -2.5809 0
M  V30 1567 H 147.696 2.02162 -4.34359 0
M  V30 1568 H 146.06 1.16169 -2.26665 0
M  V30 1569 H 146.843 -0.035676 -3.43281 0
M  V30 1570 N 149.288 1.51039 0.449983 0
M  V30 1571 C 150.534 1.63322 1.20223 0
M  V30 1572 C 150.867 0.34241 1.91158 0
M  V30 1573 O 150.142 -0.657344 1.83055 0
M  V30 1574 C 150.425 2.82801 2.22925 0
M  V30 1575 C 150.278 4.21823 1.56157 0
M  V30 1576 C 151.597 2.97807 3.24035 0
M  V30 1577 H 148.716 0.594407 0.435718 0
M  V30 1578 H 151.358 1.83489 0.493136 0
M  V30 1579 H 149.508 2.65738 2.834 0
M  V30 1580 H 151.18 4.50526 0.991162 0
M  V30 1581 H 149.423 4.25105 0.864172 0
M  V30 1582 H 150.094 5.01391 2.30891 0
M  V30 1583 H 152.57 3.13497 2.73603 0
M  V30 1584 H 151.446 3.82992 3.93202 0
M  V30 1585 H 151.707 2.09328 3.89402 0
M  V30 1586 N 150.766 -0.704594 1.40972 0
M  V30 1587 C 151.996 -1.49138 1.42974 0
M  V30 1588 C 152.404 -1.89175 0.0308406 0
M  V30 1589 O 151.747 -1.56734 -0.958138 0
M  V30 1590 C 151.809 -2.79016 2.26694 0
M  V30 1591 C 151.473 -2.61236 3.74973 0
M  V30 1592 C 152.47 -2.27773 4.67349 0
M  V30 1593 C 150.155 -2.77158 4.18914 0
M  V30 1594 C 152.149 -2.10457 6.01653 0
M  V30 1595 C 149.836 -2.59459 5.53285 0
M  V30 1596 C 150.834 -2.26158 6.4447 0
M  V30 1597 O 150.522 -2.08605 7.76363 0
M  V30 1598 H 150.254 -0.466443 0.489292 0
M  V30 1599 H 152.808 -0.8758 1.85793 0
M  V30 1600 H 151.038 -3.42947 1.78673 0
M  V30 1601 H 152.727 -3.40782 2.20504 0
M  V30 1602 H 153.493 -2.15095 4.34694 0
M  V30 1603 H 149.372 -3.02064 3.48251 0
M  V30 1604 H 152.916 -1.84387 6.72791 0
M  V30 1605 H 148.813 -2.71725 5.85522 0
M  V30 1606 H 149.581 -2.23439 7.87412 0
M  V30 1607 N 152.244 -1.26651 -0.937939 0
M  V30 1608 C 153.192 -1.08308 -2.05845 0
M  V30 1609 C 154.186 -0.0090757 -1.69398 0
M  V30 1610 O 155.392 -0.166007 -1.79233 0
M  V30 1611 H 151.767 -0.333416 -0.674046 0
M  V30 1612 H 153.738 -2.03261 -2.18467 0
M  V30 1613 C 152.487 -0.736229 -3.39816 0
M  V30 1614 H 151.81 -1.55453 -3.6834 0
M  V30 1615 H 153.25 -0.64769 -4.19024 0
M  V30 1616 C 151.709 0.558824 -3.32233 0
M  V30 1617 O 152.239 1.59621 -3.68624 0
M  V30 1618 N 150.445 0.550657 -2.85335 0
M  V30 1619 H 149.992 -0.293943 -2.55917 0
M  V30 1620 H 149.95 1.41726 -2.80644 0
M  V30 1621 N 153.722 1.14298 -1.08507 0
M  V30 1622 C 154.969 1.85359 -0.815373 0
M  V30 1623 C 155.297 1.83001 0.658865 0
M  V30 1624 O 154.552 1.25655 1.50031 0
M  V30 1625 C 154.851 3.33547 -1.28379 0
M  V30 1626 C 154.517 3.56093 -2.76602 0
M  V30 1627 C 153.179 3.61955 -3.17084 0
M  V30 1628 C 155.531 3.64834 -3.72217 0
M  V30 1629 C 152.859 3.74082 -4.51973 0
M  V30 1630 C 155.211 3.78487 -5.06883 0
M  V30 1631 C 153.875 3.82598 -5.46969 0
M  V30 1632 H 153.145 0.678276 -0.298366 0
M  V30 1633 H 155.792 1.35002 -1.35819 0
M  V30 1634 H 154.097 3.86191 -0.660593 0
M  V30 1635 H 155.794 3.86959 -1.05186 0
M  V30 1636 H 152.384 3.52179 -2.4427 0
M  V30 1637 H 156.568 3.59595 -3.42061 0
M  V30 1638 H 151.824 3.75527 -4.82483 0
M  V30 1639 H 155.998 3.84193 -5.80834 0
M  V30 1640 H 153.625 3.91747 -6.51489 0
M  V30 1641 N 155.201 0.870884 1.31352 0
M  V30 1642 C 156.131 0.343096 2.30966 0
M  V30 1643 C 157.112 -0.566507 1.60389 0
M  V30 1644 O 158.297 -0.483336 1.88089 0
M  V30 1645 C 155.427 -0.455487 3.443 0
M  V30 1646 C 154.381 0.361103 4.26474 0
M  V30 1647 C 153.707 -0.563221 5.31725 0
M  V30 1648 C 155.007 1.59566 4.97329 0
M  V30 1649 H 156.701 1.17548 2.75359 0
M  V30 1650 H 154.247 0.566686 1.32381 0
M  V30 1651 H 156.2 -0.83525 4.13039 0
M  V30 1652 H 154.924 -1.32139 2.98675 0
M  V30 1653 H 153.583 0.722825 3.59403 0
M  V30 1654 H 153.231 -1.42643 4.82351 0
M  V30 1655 H 152.931 -0.0207409 5.87596 0
M  V30 1656 H 154.455 -0.939808 6.03324 0
M  V30 1657 H 155.869 1.28728 5.58661 0
M  V30 1658 H 154.266 2.07728 5.63 0
M  V30 1659 H 155.336 2.34798 4.24262 0
M  V30 1660 N 156.679 -1.44442 0.630414 0
M  V30 1661 C 157.609 -2.33418 -0.0618083 0
M  V30 1662 C 158.59 -1.48165 -0.835541 0
M  V30 1663 O 159.775 -1.76886 -0.801564 0
M  V30 1664 C 156.905 -3.31222 -1.04449 0
M  V30 1665 C 155.859 -4.26288 -0.382436 0
M  V30 1666 C 155.185 -5.13954 -1.47497 0
M  V30 1667 C 156.485 -5.1744 0.710865 0
M  V30 1668 H 158.179 -2.91548 0.681184 0
M  V30 1669 H 155.725 -1.40191 0.329026 0
M  V30 1670 H 157.678 -3.92351 -1.53748 0
M  V30 1671 H 156.402 -2.71299 -1.81836 0
M  V30 1672 H 155.061 -3.6649 0.0899054 0
M  V30 1673 H 154.709 -4.50385 -2.2397 0
M  V30 1674 H 154.409 -5.7837 -1.03737 0
M  V30 1675 H 155.933 -5.77955 -1.96979 0
M  V30 1676 H 157.347 -5.72509 0.300996 0
M  V30 1677 H 155.744 -5.90455 1.07156 0
M  V30 1678 H 156.814 -4.58496 1.57829 0
M  V30 1679 N 158.157 -0.370918 -1.53173 0
M  V30 1680 C 159.403 0.209976 -2.02313 0
M  V30 1681 C 159.758 1.45987 -1.25322 0
M  V30 1682 O 159.051 1.8856 -0.339965 0
M  V30 1683 C 159.245 0.549696 -3.53147 0
M  V30 1684 C 159.074 -0.665721 -4.44745 0
M  V30 1685 C 157.844 -1.17942 -4.91343 0
M  V30 1686 C 160.042 -1.53255 -4.90935 0
M  V30 1687 N 158.024 -2.35431 -5.66962 0
M  V30 1688 C 159.395 -2.55403 -5.64951 0
M  V30 1689 C 161.45 -1.5548 -4.73002 0
M  V30 1690 C 160.153 -3.5964 -6.22938 0
M  V30 1691 C 162.179 -2.58613 -5.31858 0
M  V30 1692 C 161.541 -3.59485 -6.05764 0
M  V30 1693 H 157.64 0.0394095 -0.781006 0
M  V30 1694 H 160.224 -0.516666 -1.8772 0
M  V30 1695 H 158.395 1.24541 -3.67891 0
M  V30 1696 H 160.127 1.11614 -3.89004 0
M  V30 1697 H 156.882 -0.743228 -4.67732 0
M  V30 1698 H 157.306 -2.94827 -6.09431 0
M  V30 1699 H 161.948 -0.788457 -4.15383 0
M  V30 1700 H 159.666 -4.37153 -6.79649 0
M  V30 1701 H 163.252 -2.61195 -5.19873 0
M  V30 1702 H 162.132 -4.3798 -6.50495 0
M  V30 1703 N 159.635 1.57281 -0.100228 0
M  V30 1704 C 160.881 1.94826 0.563101 0
M  V30 1705 C 161.214 0.982475 1.67514 0
M  V30 1706 O 160.489 0.0164069 1.94493 0
M  V30 1707 C 160.772 3.42453 1.11346 0
M  V30 1708 C 160.625 4.498 0.00612081 0
M  V30 1709 C 161.944 3.91506 2.01024 0
M  V30 1710 H 159.063 0.708428 0.203221 0
M  V30 1711 H 161.705 1.8922 -0.171979 0
M  V30 1712 H 159.855 3.47361 1.7399 0
M  V30 1713 H 161.527 4.57 -0.628357 0
M  V30 1714 H 159.77 4.28756 -0.659581 0
M  V30 1715 H 160.441 5.50306 0.432109 0
M  V30 1716 H 162.917 3.88784 1.48278 0
M  V30 1717 H 161.793 4.95358 2.36457 0
M  V30 1718 H 162.054 3.31099 2.92961 0
M  V30 1719 N 161.113 -0.173488 1.56642 0
M  V30 1720 C 162.043 -1.2171 1.99271 0
M  V30 1721 C 163.024 -1.46289 0.867959 0
M  V30 1722 O 164.209 -1.5766 1.13388 0
M  V30 1723 C 161.339 -2.55651 2.35074 0
M  V30 1724 C 160.293 -2.45645 3.50489 0
M  V30 1725 C 159.619 -3.84056 3.72028 0
M  V30 1726 C 160.919 -1.96302 4.84007 0
M  V30 1727 H 162.613 -0.86275 2.867 0
M  V30 1728 H 160.159 -0.413571 1.37933 0
M  V30 1729 H 162.112 -3.2886 2.63494 0
M  V30 1730 H 160.836 -2.92869 1.44552 0
M  V30 1731 H 159.495 -1.7489 3.22194 0
M  V30 1732 H 159.143 -4.18664 2.788 0
M  V30 1733 H 158.843 -3.7823 4.49684 0
M  V30 1734 H 160.367 -4.58854 4.02846 0
M  V30 1735 H 161.781 -2.59284 5.11317 0
M  V30 1736 H 160.178 -2.01429 5.65284 0
M  V30 1737 H 161.248 -0.917226 4.76146 0
M  V30 1738 N 162.591 -1.51276 -0.441967 0
M  V30 1739 C 163.554 -1.7167 -1.51862 0
M  V30 1740 C 164.554 -0.586793 -1.49711 0
M  V30 1741 O 165.744 -0.854276 -1.51815 0
M  V30 1742 C 162.876 -1.76889 -2.91416 0
M  V30 1743 H 164.069 -2.67754 -1.35084 0
M  V30 1744 H 161.622 -1.41196 -0.670333 0
M  V30 1745 H 162.357 -0.826026 -3.13604 0
M  V30 1746 H 162.142 -2.59001 -2.94382 0
M  V30 1747 H 163.632 -1.94522 -3.69528 0
M  V30 1748 N 164.069 0.697108 -1.41344 0
M  V30 1749 C 165.017 1.83237 -1.43272 0
M  V30 1750 C 166.011 1.66522 -0.310947 0
M  V30 1751 O 167.217 1.73402 -0.482899 0
M  V30 1752 H 163.592 0.603802 -0.448249 0
M  V30 1753 H 165.563 1.78727 -2.38954 0
M  V30 1754 C 164.312 3.21245 -1.33029 0
M  V30 1755 H 163.635 3.34723 -2.18633 0
M  V30 1756 H 165.075 4.00763 -1.38439 0
M  V30 1757 C 163.534 3.36873 -0.0424635 0
M  V30 1758 O 164.064 3.91177 0.913421 0
M  V30 1759 N 162.27 2.90581 0.0331145 0
M  V30 1760 H 161.817 2.46577 -0.745506 0
M  V30 1761 H 161.775 3.01416 0.894199 0
M  V30 1762 N 165.547 1.27147 0.931209 0
M  V30 1763 C 166.794 1.13278 1.67852 0
M  V30 1764 C 167.122 -0.32204 1.91815 0
M  V30 1765 O 166.377 -1.25224 1.50391 0
M  V30 1766 C 166.676 1.8579 3.05314 0
M  V30 1767 C 166.342 3.35657 3.01073 0
M  V30 1768 C 165.004 3.76536 2.99623 0
M  V30 1769 C 167.356 4.31299 2.92627 0
M  V30 1770 C 164.684 5.11426 2.87506 0
M  V30 1771 C 167.036 5.66242 2.82051 0
M  V30 1772 C 165.7 6.06418 2.7895 0
M  V30 1773 H 164.97 0.414515 0.614214 0
M  V30 1774 H 167.617 1.57712 1.08624 0
M  V30 1775 H 165.922 1.33854 3.68226 0
M  V30 1776 H 167.619 1.72491 3.62005 0
M  V30 1777 H 164.209 3.03146 3.02986 0
M  V30 1778 H 168.393 4.00692 2.92848 0
M  V30 1779 H 163.649 5.41705 2.83489 0
M  V30 1780 H 167.823 6.40026 2.74481 0
M  V30 1781 H 165.45 7.10895 2.69318 0
M  V30 1782 N 167.025 -1.13721 1.09112 0
M  V30 1783 C 168.25 -1.89314 0.847053 0
M  V30 1784 C 168.675 -1.78416 -0.595774 0
M  V30 1785 O 168.033 -1.12942 -1.41823 0
M  V30 1786 C 168.081 -3.3701 1.28284 0
M  V30 1787 O 167.185 -4.10054 0.439267 0
M  V30 1788 H 166.526 -0.588745 0.307044 0
M  V30 1789 H 169.056 -1.43902 1.45442 0
M  V30 1790 H 169.066 -3.87834 1.26683 0
M  V30 1791 H 167.741 -3.4426 2.33363 0
M  V30 1792 H 166.318 -3.69266 0.519312 0
M  V30 1793 N 168.503 -0.877838 -1.30888 0
M  V30 1794 C 169.728 -0.506629 -2.01117 0
M  V30 1795 C 170.153 0.895564 -1.65412 0
M  V30 1796 O 169.511 1.5923 -0.866922 0
M  V30 1797 C 169.559 -0.680223 -3.54126 0
M  V30 1798 O 168.663 0.277033 -4.11468 0
M  V30 1799 H 168.004 -0.200518 -0.633 0
M  V30 1800 H 170.534 -1.18342 -1.66902 0
M  V30 1801 H 170.544 -0.5765 -4.03907 0
M  V30 1802 H 169.219 -1.70261 -3.79452 0
M  V30 1803 H 167.796 0.127606 -3.72682 0
M  V30 1804 N 169.982 1.44106 -0.638065 0
M  V30 1805 C 171.228 2.02277 -0.145546 0
M  V30 1806 C 171.561 1.50125 1.23191 0
M  V30 1807 O 170.836 0.688133 1.8192 0
M  V30 1808 C 171.119 3.59829 -0.139791 0
M  V30 1809 C 170.972 4.22247 -1.55008 0
M  V30 1810 C 172.291 4.36873 0.531966 0
M  V30 1811 H 169.41 0.734992 -0.0543632 0
M  V30 1812 H 172.052 1.71592 -0.815863 0
M  V30 1813 H 170.202 3.86102 0.431007 0
M  V30 1814 H 171.874 4.07057 -2.1703 0
M  V30 1815 H 170.117 3.79476 -2.10191 0
M  V30 1816 H 170.788 5.31284 -1.49804 0
M  V30 1817 H 173.264 4.16074 0.0464781 0
M  V30 1818 H 172.14 5.4657 0.505206 0
M  V30 1819 H 172.401 4.11995 1.60352 0
M  V30 1820 N 171.46 0.379036 1.52974 0
M  V30 1821 C 172.37 -0.468639 2.29872 0
M  V30 1822 C 173.386 -1.08067 1.36373 0
M  V30 1823 O 174.562 -1.08871 1.69438 0
M  V30 1824 C 171.627 -1.58594 3.083 0
M  V30 1825 C 170.688 -1.00007 4.17489 0
M  V30 1826 C 169.921 -2.06413 4.92168 0
M  V30 1827 O 170.144 -3.27751 4.66835 0
M  V30 1828 O 169.078 -1.68717 5.7777 0
M  V30 1829 H 172.904 0.157508 3.03291 0
M  V30 1830 H 170.489 0.143035 1.48714 0
M  V30 1831 H 172.371 -2.23525 3.57232 0
M  V30 1832 H 171.046 -2.19724 2.37703 0
M  V30 1833 H 169.953 -0.314299 3.72777 0
M  V30 1834 H 171.286 -0.433135 4.90291 0
M  V30 1835 N 172.938 -1.57226 0.108567 0
M  V30 1836 C 173.848 -2.18292 -0.859401 0
M  V30 1837 C 174.864 -1.15612 -1.30038 0
M  V30 1838 O 176.04 -1.48039 -1.36552 0
M  V30 1839 C 173.105 -2.762 -2.09558 0
M  V30 1840 C 172.166 -3.93881 -1.70752 0
M  V30 1841 C 171.399 -4.49018 -2.88477 0
M  V30 1842 O 171.622 -4.03068 -4.036 0
M  V30 1843 O 170.556 -5.39852 -2.66164 0
M  V30 1844 H 174.382 -3.01441 -0.369769 0
M  V30 1845 H 171.967 -1.48945 -0.1165 0
M  V30 1846 H 173.849 -3.13156 -2.81978 0
M  V30 1847 H 172.524 -1.96089 -2.57548 0
M  V30 1848 H 171.431 -3.61713 -0.954714 0
M  V30 1849 H 172.764 -4.75396 -1.27513 0
M  V30 1850 N 174.416 0.165178 -1.56732 0
M  V30 1851 C 175.662 0.882112 -1.82611 0
M  V30 1852 C 175.995 1.81628 -0.687378 0
M  V30 1853 O 175.27 1.92009 0.310267 0
M  V30 1854 C 175.553 1.67245 -3.18906 0
M  V30 1855 C 175.406 0.760987 -4.43316 0
M  V30 1856 C 176.725 2.63884 -3.52212 0
M  V30 1857 H 173.844 0.319242 -0.664269 0
M  V30 1858 H 176.486 0.148052 -1.89422 0
M  V30 1859 H 174.636 2.29824 -3.1323 0
M  V30 1860 H 176.308 0.147596 -4.61064 0
M  V30 1861 H 174.551 0.0694102 -4.33744 0
M  V30 1862 H 175.222 1.34962 -5.35247 0
M  V30 1863 H 177.698 2.11429 -3.58381 0
M  V30 1864 H 176.574 3.16245 -4.48643 0
M  V30 1865 H 176.835 3.44377 -2.77231 0
M  V30 1866 N 175.894 1.51508 0.433938 0
M  V30 1867 C 176.841 1.73068 1.52696 0
M  V30 1868 C 177.811 0.572441 1.55924 0
M  V30 1869 O 178.996 0.807253 1.72882 0
M  V30 1870 C 176.136 1.86474 2.90381 0
M  V30 1871 C 175.249 3.14037 2.96656 0
M  V30 1872 C 174.384 3.18019 4.25485 0
M  V30 1873 C 173.423 4.39882 4.2564 0
M  V30 1874 N 172.56 4.41394 5.45999 0
M  V30 1875 H 177.4 2.66366 1.33615 0
M  V30 1876 H 174.937 1.32008 0.649018 0
M  V30 1877 H 176.895 1.92229 3.70275 0
M  V30 1878 H 175.525 0.965809 3.08013 0
M  V30 1879 H 174.577 3.17575 2.09404 0
M  V30 1880 H 175.889 4.0394 2.92633 0
M  V30 1881 H 175.043 3.22708 5.13755 0
M  V30 1882 H 173.782 2.2601 4.3217 0
M  V30 1883 H 172.787 4.35366 3.35763 0
M  V30 1884 H 174.012 5.33159 4.20617 0
M  V30 1885 H 171.958 3.52258 5.53399 0
M  V30 1886 H 171.875 5.25111 5.4387 0
M  V30 1887 H 173.143 4.50281 6.36292 0
M  V30 1888 N 177.372 -0.689602 1.41712 0
M  V30 1889 C 178.282 -1.83314 1.46401 0
M  V30 1890 C 179.298 -1.7036 0.35405 0
M  V30 1891 O 180.474 -1.92171 0.602692 0
M  V30 1892 C 177.539 -3.19344 1.34982 0
M  V30 1893 C 176.6 -3.44363 2.56344 0
M  V30 1894 C 175.833 -4.73904 2.45461 0
M  V30 1895 O 176.056 -5.508 1.48241 0
M  V30 1896 O 174.99 -4.99839 3.35328 0
M  V30 1897 H 178.816 -1.82314 2.42889 0
M  V30 1898 H 176.401 -0.843438 1.23315 0
M  V30 1899 H 178.283 -4.00547 1.3092 0
M  V30 1900 H 176.958 -3.21014 0.41612 0
M  V30 1901 H 175.865 -2.63067 2.65982 0
M  V30 1902 H 177.198 -3.47512 3.48563 0
M  V30 1903 N 178.85 -1.27639 -0.924453 0
M  V30 1904 C 179.813 -1.10681 -2.00705 0
M  V30 1905 C 180.813 -0.0497823 -1.60723 0
M  V30 1906 O 182.003 -0.294654 -1.7169 0
M  V30 1907 C 179.135 -0.687164 -3.33902 0
M  V30 1908 H 180.328 -2.06817 -2.17179 0
M  V30 1909 H 177.881 -1.10473 -1.10569 0
M  V30 1910 H 178.616 0.275439 -3.23128 0
M  V30 1911 H 178.401 -1.45061 -3.6428 0
M  V30 1912 H 179.891 -0.590853 -4.13399 0
M  V30 1913 N 180.328 1.1314 -1.09713 0
M  V30 1914 C 181.258 2.20748 -0.761102 0
M  V30 1915 C 182.239 1.68061 0.262566 0
M  V30 1916 O 183.424 1.93765 0.129977 0
M  V30 1917 C 180.554 3.46812 -0.184054 0
M  V30 1918 C 179.508 4.12606 -1.13757 0
M  V30 1919 C 178.834 5.33031 -0.422083 0
M  V30 1920 C 180.134 4.59603 -2.48118 0
M  V30 1921 H 181.828 2.49113 -1.66082 0
M  V30 1922 H 179.374 1.19734 -0.799987 0
M  V30 1923 H 181.327 4.21353 0.0631215 0
M  V30 1924 H 180.051 3.17851 0.750868 0
M  V30 1925 H 178.71 3.40036 -1.37007 0
M  V30 1926 H 178.358 5.00335 0.517072 0
M  V30 1927 H 178.058 5.77999 -1.05788 0
M  V30 1928 H 179.582 6.10325 -0.183277 0
M  V30 1929 H 180.996 5.25552 -2.29059 0
M  V30 1930 H 179.393 5.15321 -3.07514 0
M  V30 1931 H 180.463 3.73971 -3.08665 0
M  V30 1932 N 181.806 0.884767 1.30421 0
M  V30 1933 C 182.753 0.349642 2.28136 0
M  V30 1934 C 183.723 -0.560061 1.56373 0
M  V30 1935 O 184.908 -0.488524 1.8444 0
M  V30 1936 C 182.048 -0.42999 3.42411 0
M  V30 1937 C 181.161 0.508907 4.28992 0
M  V30 1938 C 180.296 -0.286301 5.30428 0
M  V30 1939 C 179.335 0.648079 6.08659 0
M  V30 1940 N 178.472 -0.111792 7.02011 0
M  V30 1941 H 183.312 1.18807 2.73293 0
M  V30 1942 H 180.849 0.597231 1.3443 0
M  V30 1943 H 182.807 -0.897923 4.07423 0
M  V30 1944 H 181.437 -1.23299 2.98324 0
M  V30 1945 H 180.489 1.09533 3.64289 0
M  V30 1946 H 181.801 1.22475 4.8353 0
M  V30 1947 H 180.955 -0.816098 6.01186 0
M  V30 1948 H 179.694 -1.03536 4.76583 0
M  V30 1949 H 178.699 1.18951 5.36778 0
M  V30 1950 H 179.924 1.39623 6.64592 0
M  V30 1951 H 177.87 -0.843395 6.50556 0
M  V30 1952 H 177.787 0.544429 7.54037 0
M  V30 1953 H 179.055 -0.622339 7.77012 0
M  V30 1954 N 183.284 -1.43765 0.645699 0
M  V30 1955 C 184.232 -2.32516 -0.0624849 0
M  V30 1956 C 185.226 -1.48183 -0.820855 0
M  V30 1957 O 186.432 -1.64439 -0.732106 0
M  V30 1958 H 182.807 -0.750989 -0.0389864 0
M  V30 1959 H 184.778 -2.89979 0.703892 0
M  V30 1960 C 183.527 -3.32389 -1.02044 0
M  V30 1961 H 182.85 -3.97301 -0.446312 0
M  V30 1962 H 184.29 -3.97138 -1.48517 0
M  V30 1963 C 182.749 -2.62416 -2.11281 0
M  V30 1964 O 183.279 -2.434 -3.19561 0
M  V30 1965 N 181.485 -2.21913 -1.87624 0
M  V30 1966 H 181.032 -2.37578 -0.995703 0
M  V30 1967 H 180.99 -1.75424 -2.6091 0
M  V30 1968 N 184.763 -0.387143 -1.52771 0
M  V30 1969 C 185.726 0.436939 -2.24997 0
M  V30 1970 C 186.726 0.991991 -1.26555 0
M  V30 1971 O 187.916 0.874335 -1.50669 0
M  V30 1972 C 185.048 1.61281 -3.00335 0
M  V30 1973 H 186.241 -0.195365 -2.99263 0
M  V30 1974 H 183.794 -0.139218 -1.55679 0
M  V30 1975 H 184.529 2.2826 -2.30364 0
M  V30 1976 H 184.314 1.22154 -3.72587 0
M  V30 1977 H 185.804 2.19629 -3.5518 0
M  V30 1978 N 186.241 1.57166 -0.116904 0
M  V30 1979 C 187.189 2.16457 0.851418 0
M  V30 1980 C 188.183 1.11323 1.27686 0
M  V30 1981 O 189.389 1.2963 1.24884 0
M  V30 1982 H 185.764 0.69271 0.292672 0
M  V30 1983 H 187.735 2.96605 0.32685 0
M  V30 1984 C 186.484 2.77689 2.09246 0
M  V30 1985 H 185.807 3.58285 1.77402 0
M  V30 1986 H 187.247 3.22716 2.7501 0
M  V30 1987 C 185.706 1.74667 2.88085 0
M  V30 1988 O 186.236 1.19877 3.83396 0
M  V30 1989 N 184.442 1.44656 2.52038 0
M  V30 1990 H 183.989 1.89402 1.74599 0
M  V30 1991 H 183.947 0.759675 3.05084 0
M  V30 1992 N 187.719 -0.156864 1.56817 0
M  V30 1993 C 188.968 -0.869504 1.81996 0
M  V30 1994 C 189.281 -1.82777 0.696545 0
M  V30 1995 O 190.487 -2.58384 0.833658 0
M  V30 1996 C 188.943 -1.59679 3.22538 0
M  V30 1997 C 188.551 -0.681431 4.42787 0
M  V30 1998 C 190.295 -2.2968 3.56997 0
M  V30 1999 C 188.202 -1.40978 5.74351 0
M  V30 2000 H 187.132 -0.328438 0.678708 0
M  V30 2001 H 189.783 -0.1223 1.83092 0
M  V30 2002 H 188.165 -2.38927 3.158 0
M  V30 2003 H 189.339 0.0751166 4.60739 0
M  V30 2004 H 187.654 -0.0903431 4.16302 0
M  V30 2005 H 190.251 -2.84794 4.52544 0
M  V30 2006 H 190.594 -3.05707 2.82576 0
M  V30 2007 H 191.127 -1.57361 3.65352 0
M  V30 2008 H 187.866 -0.691561 6.51842 0
M  V30 2009 H 187.386 -2.13929 5.60352 0
M  V30 2010 H 189.065 -1.95337 6.16808 0
M  V30 2011 N 189.197 -1.51736 -0.425897 0
M  V30 2012 C 190.443 -1.65214 -1.1761 0
M  V30 2013 C 190.776 -0.372778 -1.90589 0
M  V30 2014 O 190.051 0.628139 -1.84078 0
M  V30 2015 C 190.334 -2.86312 -2.18398 0
M  V30 2016 C 190.187 -4.24254 -1.49426 0
M  V30 2017 C 191.506 -3.02925 -3.19256 0
M  V30 2018 H 188.625 -0.601263 -0.426206 0
M  V30 2019 H 191.267 -1.8425 -0.463882 0
M  V30 2020 H 189.417 -2.70213 -2.79137 0
M  V30 2021 H 191.089 -4.52046 -0.919362 0
M  V30 2022 H 189.332 -4.26426 -0.796432 0
M  V30 2023 H 190.003 -5.05001 -2.22885 0
M  V30 2024 H 192.479 -3.1781 -2.68581 0
M  V30 2025 H 191.355 -3.89199 -3.8706 0
M  V30 2026 H 191.616 -2.15497 -3.86023 0
M  V30 2027 N 190.675 0.682077 -1.42076 0
M  V30 2028 C 191.952 1.43755 -1.32642 0
M  V30 2029 C 192.332 2.11063 0.0396611 0
M  V30 2030 O 191.68 2.02701 1.05474 0
M  V30 2031 C 191.89 2.44596 -2.48946 0
M  V30 2032 C 193.238 3.09454 -2.9073 0
M  V30 2033 O 194.262 2.54922 -2.48783 0
M  V30 2034 O 193.121 4.08253 -3.63307 0
M  V30 2035 H 190.215 0.640857 -0.522715 0
M  V30 2036 H 192.761 0.711415 -1.54068 0
M  V30 2037 H 191.533 1.93609 -3.40046 0
M  V30 2038 H 191.156 3.24701 -2.29467 0
M  V30 2039 N 192.153 1.28127 0.917671 0
M  V30 2040 C 193.402 1.14432 1.66097 0
M  V30 2041 C 193.715 -0.307247 1.93172 0
M  V30 2042 O 194.921 -0.565259 2.65551 0
M  V30 2043 C 193.377 2.00015 2.99202 0
M  V30 2044 C 192.985 3.49889 2.79789 0
M  V30 2045 C 194.729 1.94996 3.77064 0
M  V30 2046 C 192.636 4.27636 4.08511 0
M  V30 2047 H 191.566 0.424662 0.62304 0
M  V30 2048 H 194.217 1.52628 1.01868 0
M  V30 2049 H 192.599 1.54672 3.64544 0
M  V30 2050 H 193.773 4.03162 2.23152 0
M  V30 2051 H 192.088 3.56392 2.15345 0
M  V30 2052 H 194.685 2.50354 4.72469 0
M  V30 2053 H 195.028 0.925819 4.05875 0
M  V30 2054 H 195.561 2.38287 3.18534 0
M  V30 2055 H 192.3 5.30615 3.84874 0
M  V30 2056 H 191.82 3.79137 4.64774 0
M  V30 2057 H 193.499 4.37346 4.76799 0
M  V30 2058 N 193.631 -1.12557 1.10312 0
M  V30 2059 C 195.042 -1.65574 0.862678 0
M  V30 2060 C 195.393 -1.86566 -0.607256 0
M  V30 2061 O 194.518 -1.59121 -1.46662 0
M  V30 2062 C 195.113 -3.00776 1.55947 0
M  V30 2063 C 193.672 -3.50748 1.36576 0
M  V30 2064 C 192.819 -2.25797 1.60968 0
M  V30 2065 H 195.77 -0.963552 1.26101 0
M  V30 2066 H 195.791 -3.67185 0.997753 0
M  V30 2067 H 195.303 -2.85465 2.62928 0
M  V30 2068 H 193.404 -3.71245 0.317531 0
M  V30 2069 H 193.517 -4.30289 2.10686 0
M  V30 2070 H 191.881 -2.32841 1.03234 0
M  V30 2071 H 192.664 -2.13043 2.69198 0
M  V30 2072 N 195.109 -0.891671 -1.2995 0
M  V30 2073 C 196.358 -0.509521 -1.95158 0
M  V30 2074 C 196.671 0.947388 -1.71125 0
M  V30 2075 O 197.877 1.43669 -2.30372 0
M  V30 2076 C 196.333 -0.860315 -3.49466 0
M  V30 2077 C 195.941 -2.33545 -3.8231 0
M  V30 2078 C 197.685 -0.547687 -4.20952 0
M  V30 2079 C 195.592 -2.62752 -5.29826 0
M  V30 2080 H 194.522 -0.18682 -0.730489 0
M  V30 2081 H 197.173 -1.08756 -1.47798 0
M  V30 2082 H 195.555 -0.211285 -3.95436 0
M  V30 2083 H 196.729 -3.02936 -3.47227 0
M  V30 2084 H 195.044 -2.61629 -3.23944 0
M  V30 2085 H 197.641 -0.742854 -5.29515 0
M  V30 2086 H 197.984 0.51332 -4.13123 0
M  V30 2087 H 198.517 -1.1542 -3.80688 0
M  V30 2088 H 195.256 -3.6762 -5.42712 0
M  V30 2089 H 194.776 -1.97977 -5.66185 0
M  V30 2090 H 196.455 -2.48601 -5.97333 0
M  V30 2091 N 196.587 1.43421 -0.653314 0
M  V30 2092 C 197.812 2.06678 -0.172846 0
M  V30 2093 C 198.237 1.48648 1.15262 0
M  V30 2094 O 197.595 0.596457 1.71208 0
M  V30 2095 C 197.643 3.60474 -0.0953184 0
M  V30 2096 O 196.747 4.01487 0.942442 0
M  V30 2097 H 196.088 0.657181 -0.0949155 0
M  V30 2098 H 198.618 1.83925 -0.896265 0
M  V30 2099 H 198.628 4.07905 0.0879728 0
M  V30 2100 H 197.303 4.02088 -1.06291 0
M  V30 2101 H 195.88 3.65646 0.731932 0
M  V30 2102 N 198.065 0.39524 1.52563 0
M  V30 2103 C 198.975 -0.444232 2.30356 0
M  V30 2104 C 199.991 -1.06615 1.37511 0
M  V30 2105 O 201.167 -1.07067 1.70583 0
M  V30 2106 C 198.232 -1.55315 3.09964 0
M  V30 2107 C 197.293 -0.955734 4.18526 0
M  V30 2108 C 196.526 -2.01181 4.9433 0
M  V30 2109 O 196.749 -3.22781 4.70285 0
M  V30 2110 O 195.683 -1.62579 5.79527 0
M  V30 2111 H 199.509 0.189667 3.03107 0
M  V30 2112 H 197.094 0.1588 1.48554 0
M  V30 2113 H 198.976 -2.19724 3.59582 0
M  V30 2114 H 197.651 -2.17191 2.4002 0
M  V30 2115 H 196.558 -0.274743 3.7309 0
M  V30 2116 H 197.891 -0.381109 4.90722 0
M  V30 2117 N 199.544 -1.57102 0.125237 0
M  V30 2118 C 200.492 -2.16905 -0.839927 0
M  V30 2119 C 201.486 -1.11998 -1.27094 0
M  V30 2120 O 202.692 -1.3029 -1.24195 0
M  V30 2121 H 199.067 -0.694252 -0.288995 0
M  V30 2122 H 201.038 -2.96774 -0.311115 0
M  V30 2123 C 199.787 -2.78795 -2.07771 0
M  V30 2124 H 199.11 -3.59221 -1.755 0
M  V30 2125 H 200.55 -3.2417 -2.73295 0
M  V30 2126 C 199.009 -1.76193 -2.87155 0
M  V30 2127 O 199.539 -1.21909 -3.82755 0
M  V30 2128 N 197.745 -1.45991 -2.51267 0
M  V30 2129 H 197.292 -1.90325 -1.73592 0
M  V30 2130 H 197.25 -0.775844 -3.04677 0
M  V30 2131 N 201.022 0.148545 -1.56898 0
M  V30 2132 C 202.271 0.85984 -1.82454 0
M  V30 2133 C 202.584 1.82406 -0.706229 0
M  V30 2134 O 203.79 2.57938 -0.847349 0
M  V30 2135 C 202.246 1.57967 -3.2338 0
M  V30 2136 C 201.854 0.65794 -4.43142 0
M  V30 2137 C 203.598 2.27784 -3.58211 0
M  V30 2138 C 201.505 1.3793 -5.75091 0
M  V30 2139 H 200.435 0.324834 -0.68044 0
M  V30 2140 H 203.086 0.112588 -1.83154 0
M  V30 2141 H 201.468 2.37249 -3.17063 0
M  V30 2142 H 202.642 -0.0995497 -4.60692 0
M  V30 2143 H 200.957 0.0682643 -4.16344 0
M  V30 2144 H 203.554 2.8239 -4.54048 0
M  V30 2145 H 203.897 3.04204 -2.84193 0
M  V30 2146 H 204.43 1.55421 -3.66182 0
M  V30 2147 H 201.169 0.656982 -6.52199 0
M  V30 2148 H 200.689 2.10954 -5.61479 0
M  V30 2149 H 202.368 1.92063 -6.17835 0
M  V30 2150 N 202.5 1.5196 0.417844 0
M  V30 2151 C 203.911 1.57851 0.997 0
M  V30 2152 C 204.262 0.413714 1.91789 0
M  V30 2153 O 203.387 -0.467057 2.113 0
M  V30 2154 C 203.982 2.86085 1.81496 0
M  V30 2155 C 202.541 2.94483 2.34428 0
M  V30 2156 C 201.688 2.52707 1.14169 0
M  V30 2157 H 204.639 1.57455 0.198392 0
M  V30 2158 H 204.66 2.70947 2.67148 0
M  V30 2159 H 204.172 3.70842 1.14446 0
M  V30 2160 H 202.273 2.142 3.04875 0
M  V30 2161 H 202.386 3.98546 2.65891 0
M  V30 2162 H 200.75 2.06353 1.49301 0
M  V30 2163 H 201.533 3.39828 0.486999 0
M  V30 2164 N 203.978 -0.674533 1.42435 0
M  V30 2165 C 204.926 -1.80934 1.46169 0
M  V30 2166 C 205.92 -1.66006 0.3374 0
M  V30 2167 O 207.126 -1.72611 0.510425 0
M  V30 2168 H 203.501 -0.596594 0.457798 0
M  V30 2169 H 205.472 -1.74903 2.41767 0
M  V30 2170 C 204.221 -3.19088 1.38123 0
M  V30 2171 H 203.544 -3.31203 2.23931 0
M  V30 2172 H 204.984 -3.9851 1.44797 0
M  V30 2173 C 203.443 -3.36763 0.0960517 0
M  V30 2174 O 203.973 -3.92581 -0.851073 0
M  V30 2175 N 202.179 -2.90597 0.0131186 0
M  V30 2176 H 201.726 -2.45359 0.784639 0
M  V30 2177 H 201.684 -3.028 -0.846133 0
M  V30 2178 N 205.456 -1.28612 -0.910864 0
M  V30 2179 C 206.684 -1.18792 -1.69399 0
M  V30 2180 C 207.099 0.253039 -1.87097 0
M  V30 2181 O 206.456 1.17071 -1.40003 0
M  V30 2182 C 206.507 -1.88511 -3.08457 0
M  V30 2183 O 206.228 -3.26979 -2.91576 0
M  V30 2184 C 207.729 -1.85029 -4.02839 0
M  V30 2185 H 204.949 -0.412233 -0.529438 0
M  V30 2186 H 207.493 -1.69788 -1.13984 0
M  V30 2187 H 205.648 -1.41379 -3.60681 0
M  V30 2188 H 206.062 -3.61936 -3.79608 0
M  V30 2189 H 207.536 -2.38395 -4.97867 0
M  V30 2190 H 208.013 -0.823303 -4.31414 0
M  V30 2191 H 208.619 -2.31853 -3.56545 0
M  V30 2192 N 206.934 1.1197 -1.10907 0
M  V30 2193 C 208.162 1.87402 -0.876824 0
M  V30 2194 C 208.577 1.79894 0.573025 0
M  V30 2195 O 207.934 1.17629 1.39534 0
M  V30 2196 C 207.985 3.36428 -1.32282 0
M  V30 2197 O 207.706 3.43765 -2.71582 0
M  V30 2198 C 209.207 4.28783 -1.12518 0
M  V30 2199 H 206.427 0.592793 -0.314384 0
M  V30 2200 H 208.971 1.41649 -1.47499 0
M  V30 2201 H 207.126 3.79706 -0.768229 0
M  V30 2202 H 207.54 4.3652 -2.90776 0
M  V30 2203 H 209.014 5.31613 -1.48633 0
M  V30 2204 H 209.491 4.39153 -0.0642394 0
M  V30 2205 H 210.097 3.91291 -1.66648 0
M  V30 2206 N 208.412 0.89855 1.29475 0
M  V30 2207 C 209.342 0.39201 2.30186 0
M  V30 2208 C 210.323 -0.532359 1.61555 0
M  V30 2209 O 211.508 -0.443331 1.89072 0
M  V30 2210 C 208.638 -0.382353 3.45189 0
M  V30 2211 C 207.592 0.451483 4.25612 0
M  V30 2212 C 206.918 -0.450307 5.328 0
M  V30 2213 C 208.218 1.70079 4.93832 0
M  V30 2214 H 209.912 1.23362 2.72804 0
M  V30 2215 H 207.458 0.594638 1.31149 0
M  V30 2216 H 209.411 -0.747451 4.14718 0
M  V30 2217 H 208.135 -1.25774 3.01411 0
M  V30 2218 H 206.794 0.798897 3.57789 0
M  V30 2219 H 206.442 -1.32379 4.85268 0
M  V30 2220 H 206.142 0.103902 5.87508 0
M  V30 2221 H 207.666 -0.811623 6.05182 0
M  V30 2222 H 209.08 1.40549 5.55805 0
M  V30 2223 H 207.477 2.19623 5.58467 0
M  V30 2224 H 208.547 2.43744 4.19186 0
M  V30 2225 N 209.89 -1.43072 0.660911 0
M  V30 2226 C 210.84 -2.27948 -0.04847 0
M  V30 2227 C 211.824 -1.40325 -0.787246 0
M  V30 2228 O 213.016 -1.63893 -0.668446 0
M  V30 2229 C 210.145 -3.28143 -1.00881 0
M  V30 2230 C 209.231 -4.23252 -0.268108 0
M  V30 2231 N 209.622 -5.00656 0.719528 0
M  V30 2232 C 207.92 -4.43092 -0.508493 0
M  V30 2233 C 208.621 -5.70019 1.15988 0
M  V30 2234 N 207.597 -5.41364 0.492584 0
M  V30 2235 H 211.399 -2.85213 0.709279 0
M  V30 2236 H 208.913 -1.54869 0.488822 0
M  V30 2237 H 210.91 -3.87736 -1.53188 0
M  V30 2238 H 209.57 -2.7244 -1.76654 0
M  V30 2239 H 210.581 -5.06115 1.09855 0
M  V30 2240 H 207.258 -3.98449 -1.24679 0
M  V30 2241 H 208.648 -6.4214 1.97751 0
M  V30 2242 N 211.368 -0.403325 -1.52352 0
M  V30 2243 C 212.614 0.167015 -2.02713 0
M  V30 2244 C 212.969 1.43296 -1.28391 0
M  V30 2245 O 212.262 1.87796 -0.379885 0
M  V30 2246 C 212.456 0.474665 -3.54234 0
M  V30 2247 C 212.285 -0.759909 -4.43233 0
M  V30 2248 C 211.055 -1.28338 -4.88731 0
M  V30 2249 C 213.253 -1.63634 -4.87574 0
M  V30 2250 N 211.235 -2.47404 -5.6184 0
M  V30 2251 C 212.606 -2.67329 -5.59406 0
M  V30 2252 C 214.661 -1.65478 -4.69597 0
M  V30 2253 C 213.364 -3.72773 -6.15169 0
M  V30 2254 C 215.39 -2.69837 -5.26253 0
M  V30 2255 C 214.752 -3.72253 -5.98002 0
M  V30 2256 H 210.851 0.0228343 -0.781667 0
M  V30 2257 H 213.435 -0.556368 -1.86581 0
M  V30 2258 H 211.606 1.16709 -3.7045 0
M  V30 2259 H 213.338 1.03338 -3.91284 0
M  V30 2260 H 210.093 -0.842273 -4.6605 0
M  V30 2261 H 210.517 -3.07688 -6.0304 0
M  V30 2262 H 215.159 -0.876389 -4.13617 0
M  V30 2263 H 212.877 -4.51471 -6.70223 0
M  V30 2264 H 216.463 -2.72164 -5.14216 0
M  V30 2265 H 215.343 -4.51679 -6.41058 0
M  V30 2266 N 212.846 1.57033 -0.133567 0
M  V30 2267 C 213.779 2.11824 0.848872 0
M  V30 2268 C 214.757 1.03833 1.2513 0
M  V30 2269 O 215.941 1.31579 1.34978 0
M  V30 2270 C 213.068 2.62692 2.138 0
M  V30 2271 C 212.114 3.82705 1.88253 0
M  V30 2272 S 212.947 5.2438 1.08563 0
M  V30 2273 C 214.103 5.78627 2.38624 0
M  V30 2274 H 214.336 2.94824 0.38289 0
M  V30 2275 H 211.869 1.5419 0.0804796 0
M  V30 2276 H 213.827 2.92652 2.87863 0
M  V30 2277 H 212.488 1.79847 2.57515 0
M  V30 2278 H 211.681 4.16496 2.83809 0
M  V30 2279 H 211.283 3.53437 1.22305 0
M  V30 2280 H 213.575 5.8924 3.34369 0
M  V30 2281 H 214.518 6.76443 2.09358 0
M  V30 2282 H 214.926 5.06783 2.48658 0
M  V30 2283 N 214.325 -0.140222 1.56975 0
M  V30 2284 C 215.574 -0.850152 1.82908 0
M  V30 2285 C 215.887 -1.82028 0.715892 0
M  V30 2286 O 217.093 -2.57485 0.861016 0
M  V30 2287 C 215.549 -1.5625 3.24213 0
M  V30 2288 C 215.157 -0.63443 4.43485 0
M  V30 2289 C 216.901 -2.25881 3.59413 0
M  V30 2290 C 214.808 -1.34879 5.75814 0
M  V30 2291 H 213.738 -0.321221 0.682153 0
M  V30 2292 H 216.389 -0.102874 1.83211 0
M  V30 2293 H 214.771 -2.35565 3.18316 0
M  V30 2294 H 215.945 0.12398 4.60633 0
M  V30 2295 H 214.26 -0.0461836 4.16374 0
M  V30 2296 H 216.857 -2.79978 4.5554 0
M  V30 2297 H 217.2 -3.02693 2.85802 0
M  V30 2298 H 217.733 -1.53477 3.67001 0
M  V30 2299 H 214.472 -0.622385 6.52539 0
M  V30 2300 H 213.992 -2.07974 5.6259 0
M  V30 2301 H 215.671 -1.88784 6.18845 0
M  V30 2302 N 215.803 -1.52179 -0.40978 0
M  V30 2303 C 217.028 -1.70347 -1.18308 0
M  V30 2304 C 217.453 -0.411887 -1.83535 0
M  V30 2305 O 216.811 0.630587 -1.6998 0
M  V30 2306 C 216.859 -2.83977 -2.22238 0
M  V30 2307 O 215.963 -2.495 -3.28365 0
M  V30 2308 H 215.304 -0.567103 -0.345384 0
M  V30 2309 H 217.834 -1.98879 -0.480445 0
M  V30 2310 H 217.844 -3.0887 -2.66577 0
M  V30 2311 H 216.519 -3.77685 -1.74146 0
M  V30 2312 H 215.096 -2.35277 -2.89308 0
M  V30 2313 N 217.281 0.66697 -1.42791 0
M  V30 2314 C 218.558 1.4234 -1.34159 0
M  V30 2315 C 218.938 2.11093 0.0172729 0
M  V30 2316 O 218.286 2.03808 1.03318 0
M  V30 2317 C 218.496 2.41942 -2.51526 0
M  V30 2318 C 219.844 3.06353 -2.93995 0
M  V30 2319 O 220.868 2.52269 -2.51473 0
M  V30 2320 O 219.727 4.04376 -3.67617 0
M  V30 2321 H 216.821 0.635277 -0.529483 0
M  V30 2322 H 219.367 0.695034 -1.54814 0
M  V30 2323 H 218.139 1.89991 -3.42081 0
M  V30 2324 H 217.762 3.22249 -2.32898 0
M  V30 2325 N 218.759 1.29093 0.90403 0
M  V30 2326 C 220.008 1.16187 1.64874 0
M  V30 2327 C 220.321 -0.286742 1.93487 0
M  V30 2328 O 221.527 -0.537062 2.66135 0
M  V30 2329 C 219.983 2.03177 2.97064 0
M  V30 2330 C 219.591 3.52836 2.76062 0
M  V30 2331 C 221.335 1.98984 3.74974 0
M  V30 2332 C 219.242 4.31945 4.03952 0
M  V30 2333 H 218.172 0.431246 0.618501 0
M  V30 2334 H 220.823 1.53699 1.00243 0
M  V30 2335 H 219.205 1.5853 3.62883 0
M  V30 2336 H 220.379 4.05507 2.18863 0
M  V30 2337 H 218.694 3.58656 2.11553 0
M  V30 2338 H 221.291 2.55351 4.69787 0
M  V30 2339 H 221.634 0.968815 4.0487 0
M  V30 2340 H 222.167 2.41652 3.15989 0
M  V30 2341 H 218.906 5.34667 3.79225 0
M  V30 2342 H 218.426 3.84045 4.60727 0
M  V30 2343 H 220.105 4.42379 4.72133 0
M  V30 2344 N 220.237 -1.11381 1.11499 0
M  V30 2345 C 221.465 -1.86934 0.88675 0
M  V30 2346 C 221.88 -1.80195 -0.563476 0
M  V30 2347 O 221.237 -1.18367 -1.38908 0
M  V30 2348 C 221.288 -3.35722 1.34064 0
M  V30 2349 O 221.009 -3.4232 2.73401 0
M  V30 2350 C 222.51 -4.2818 1.14791 0
M  V30 2351 H 219.73 -0.591117 0.317523 0
M  V30 2352 H 222.274 -1.40865 1.48248 0
M  V30 2353 H 220.429 -3.79294 0.788355 0
M  V30 2354 H 220.843 -4.34971 2.93087 0
M  V30 2355 H 222.317 -5.30817 1.5145 0
M  V30 2356 H 222.794 -4.39113 0.0875279 0
M  V30 2357 H 223.4 -3.90402 1.68721 0
M  V30 2358 N 221.715 -0.905404 -1.28997 0
M  V30 2359 C 222.963 -0.533192 -1.9494 0
M  V30 2360 C 223.284 0.924618 -1.71685 0
M  V30 2361 O 222.554 1.65268 -1.05183 0
M  V30 2362 H 221.134 -0.194194 -0.721317 0
M  V30 2363 H 223.796 -1.15294 -1.57141 0
M  V30 2364 H 222.892 -0.72059 -3.03667 0
M  V30 2365 N 223.193 1.4272 -0.668489 0
M  V30 2366 C 224.14 2.30796 0.0137489 0
M  V30 2367 C 225.11 1.4561 0.799177 0
M  V30 2368 O 226.295 1.74453 0.772702 0
M  V30 2369 C 223.435 3.31377 0.963507 0
M  V30 2370 C 222.548 4.31655 0.172569 0
M  V30 2371 C 221.683 5.19312 1.1175 0
M  V30 2372 C 220.722 6.11274 0.317886 0
M  V30 2373 N 219.859 6.91504 1.2152 0
M  V30 2374 H 224.699 2.88585 -0.743161 0
M  V30 2375 H 222.236 1.42154 -0.378226 0
M  V30 2376 H 224.194 3.88214 1.52792 0
M  V30 2377 H 222.824 2.75202 1.68712 0
M  V30 2378 H 221.876 3.76988 -0.508374 0
M  V30 2379 H 223.188 4.96779 -0.448527 0
M  V30 2380 H 222.342 5.80851 1.75206 0
M  V30 2381 H 221.081 4.5435 1.77249 0
M  V30 2382 H 220.086 5.48809 -0.329918 0
M  V30 2383 H 221.311 6.78283 -0.332917 0
M  V30 2384 H 219.257 6.29176 1.85671 0
M  V30 2385 H 219.174 7.53209 0.649036 0
M  V30 2386 H 220.442 7.57535 1.83742 0
M  V30 2387 N 224.671 0.411399 1.52136 0
M  V30 2388 C 225.896 -0.165538 2.06738 0
M  V30 2389 C 226.321 -1.379 1.27926 0
M  V30 2390 O 225.679 -1.78628 0.310114 0
M  V30 2391 C 225.727 -0.492124 3.57226 0
M  V30 2392 O 224.831 -1.58276 3.80818 0
M  V30 2393 H 224.172 -0.0132132 0.663869 0
M  V30 2394 H 226.702 0.585253 1.96051 0
M  V30 2395 H 226.712 -0.750104 4.01045 0
M  V30 2396 H 225.387 0.394922 4.14021 0
M  V30 2397 H 223.964 -1.31677 3.48877 0
M  V30 2398 N 226.149 -1.5696 0.141893 0
M  V30 2399 C 227.398 -1.95135 -0.510427 0
M  V30 2400 C 227.711 -1.02896 -1.66348 0
M  V30 2401 O 228.917 -1.30629 -2.38009 0
M  V30 2402 C 227.373 -3.46876 -0.959427 0
M  V30 2403 C 226.981 -4.47691 0.166419 0
M  V30 2404 C 228.725 -3.93927 -1.58183 0
M  V30 2405 C 226.632 -5.90636 -0.300565 0
M  V30 2406 H 225.562 -0.728494 -0.194454 0
M  V30 2407 H 228.213 -1.8211 0.22542 0
M  V30 2408 H 226.595 -3.55215 -1.75038 0
M  V30 2409 H 227.769 -4.51043 0.94325 0
M  V30 2410 H 226.084 -4.10527 0.696905 0
M  V30 2411 H 228.681 -4.98158 -1.94275 0
M  V30 2412 H 229.024 -3.3519 -2.46888 0
M  V30 2413 H 229.557 -3.88484 -0.855863 0
M  V30 2414 H 226.296 -6.5318 0.550989 0
M  V30 2415 H 225.816 -5.90655 -1.04338 0
M  V30 2416 H 227.495 -6.42588 -0.754265 0
M  V30 2417 N 227.627 0.131896 -1.57047 0
M  V30 2418 C 228.873 0.843179 -1.84441 0
M  V30 2419 C 229.206 1.80129 -0.725749 0
M  V30 2420 O 228.481 1.92624 0.269469 0
M  V30 2421 C 228.764 1.60442 -3.22382 0
M  V30 2422 C 228.617 0.666782 -4.4483 0
M  V30 2423 C 229.936 2.56354 -3.5773 0
M  V30 2424 H 227.055 0.305081 -0.670891 0
M  V30 2425 H 229.697 0.107839 -1.89694 0
M  V30 2426 H 227.847 2.23128 -3.18035 0
M  V30 2427 H 229.519 0.0497646 -4.61273 0
M  V30 2428 H 227.762 -0.022609 -4.33794 0
M  V30 2429 H 228.433 1.23579 -5.37989 0
M  V30 2430 H 230.909 2.0378 -3.62785 0
M  V30 2431 H 229.785 3.06657 -4.5525 0
M  V30 2432 H 230.046 3.38419 -2.84473 0
M  V30 2433 N 229.106 1.52395 0.401703 0
M  V30 2434 C 230.352 1.67065 1.14966 0
M  V30 2435 C 230.685 0.403052 1.89971 0
M  V30 2436 O 229.96 -0.598774 1.85054 0
M  V30 2437 C 230.243 2.8975 2.13815 0
M  V30 2438 C 230.096 4.26578 1.42658 0
M  V30 2439 C 231.415 3.07965 3.14397 0
M  V30 2440 H 228.534 0.607968 0.416587 0
M  V30 2441 H 231.176 1.84965 0.434511 0
M  V30 2442 H 229.326 2.74619 2.74803 0
M  V30 2443 H 230.998 4.53451 0.847329 0
M  V30 2444 H 229.241 4.27639 0.72849 0
M  V30 2445 H 229.912 5.08483 2.14823 0
M  V30 2446 H 232.388 3.22043 2.63491 0
M  V30 2447 H 231.264 3.95308 3.80819 0
M  V30 2448 H 231.525 2.21611 3.82545 0
M  V30 2449 N 230.584 -0.659388 1.43143 0
M  V30 2450 C 231.494 -1.80167 1.50256 0
M  V30 2451 C 232.51 -1.69571 0.390106 0
M  V30 2452 O 233.686 -1.90849 0.643319 0
M  V30 2453 C 230.751 -3.16409 1.41725 0
M  V30 2454 C 229.812 -3.38848 2.63591 0
M  V30 2455 C 229.045 -4.68591 2.55458 0
M  V30 2456 O 229.268 -5.47532 1.59891 0
M  V30 2457 O 228.202 -4.92614 3.45854 0
M  V30 2458 H 232.028 -1.77121 2.46702 0
M  V30 2459 H 229.613 -0.817092 1.25076 0
M  V30 2460 H 231.495 -3.9768 1.39387 0
M  V30 2461 H 230.17 -3.20059 0.484118 0
M  V30 2462 H 229.077 -2.57366 2.71502 0
M  V30 2463 H 230.41 -3.4004 3.55856 0
M  V30 2464 N 232.062 -1.29571 -0.897171 0
M  V30 2465 C 232.994 -1.10724 -2.00681 0
M  V30 2466 C 234.007 -0.0540026 -1.6271 0
M  V30 2467 O 235.196 -0.298783 -1.75982 0
M  V30 2468 C 232.296 -0.663912 -3.32333 0
M  V30 2469 C 231.469 -1.79622 -3.98816 0
M  V30 2470 C 230.528 -1.34349 -5.0876 0
M  V30 2471 O 229.554 -2.04864 -5.31055 0
M  V30 2472 N 230.756 -0.215764 -5.80099 0
M  V30 2473 H 233.521 -2.06291 -2.17403 0
M  V30 2474 H 231.082 -1.21544 -1.06951 0
M  V30 2475 H 233.074 -0.344295 -4.03233 0
M  V30 2476 H 231.644 0.199375 -3.11964 0
M  V30 2477 H 230.864 -2.28459 -3.21248 0
M  V30 2478 H 232.152 -2.55535 -4.39976 0
M  V30 2479 H 231.55 0.372091 -5.64475 0
M  V30 2480 H 230.107 0.0444707 -6.51785 0
M  V30 2481 N 233.54 1.10788 -1.12088 0
M  V30 2482 C 234.768 1.86461 -0.896651 0
M  V30 2483 C 235.183 1.80492 0.553912 0
M  V30 2484 O 234.54 1.19102 1.38278 0
M  V30 2485 C 234.591 3.35006 -1.35843 0
M  V30 2486 O 234.312 3.40866 -2.75213 0
M  V30 2487 C 235.813 4.27565 -1.1706 0
M  V30 2488 H 233.033 0.589425 -0.320654 0
M  V30 2489 H 235.577 1.40076 -1.48993 0
M  V30 2490 H 233.732 3.7887 -0.808458 0
M  V30 2491 H 234.146 4.33411 -2.9539 0
M  V30 2492 H 235.62 5.30007 -1.54263 0
M  V30 2493 H 236.097 4.3906 -0.110814 0
M  V30 2494 H 236.703 3.89501 -1.70789 0
M  V30 2495 N 235.018 0.912232 1.28515 0
M  V30 2496 C 235.965 0.397954 2.27343 0
M  V30 2497 C 236.935 -0.526766 1.57526 0
M  V30 2498 O 238.12 -0.449292 1.85435 0
M  V30 2499 C 235.26 -0.357263 3.43246 0
M  V30 2500 C 234.373 0.599788 4.27816 0
M  V30 2501 C 233.508 -0.173725 5.30916 0
M  V30 2502 C 232.547 0.777039 6.07148 0
M  V30 2503 N 231.684 0.0371398 7.0209 0
M  V30 2504 H 236.524 1.24577 2.70711 0
M  V30 2505 H 234.061 0.625612 1.33133 0
M  V30 2506 H 236.019 -0.8113 4.09236 0
M  V30 2507 H 234.649 -1.16943 3.00872 0
M  V30 2508 H 233.701 1.17235 3.61884 0
M  V30 2509 H 235.013 1.32704 4.80823 0
M  V30 2510 H 234.167 -0.688394 6.02782 0
M  V30 2511 H 232.906 -0.934041 4.78672 0
M  V30 2512 H 231.911 1.3031 5.34134 0
M  V30 2513 H 233.136 1.53689 6.61481 0
M  V30 2514 H 231.082 -0.705213 6.52198 0
M  V30 2515 H 230.999 0.704249 7.52713 0
M  V30 2516 H 232.267 -0.457383 7.78157 0
M  V30 2517 N 236.496 -1.42363 0.676048 0
M  V30 2518 C 237.406 -2.346 -0.00153389 0
M  V30 2519 C 238.422 -1.5516 -0.787485 0
M  V30 2520 O 239.598 -1.87723 -0.729521 0
M  V30 2521 C 236.663 -3.33705 -0.940298 0
M  V30 2522 C 235.724 -4.29042 -0.148739 0
M  V30 2523 C 234.957 -5.23413 -1.04279 0
M  V30 2524 O 235.18 -5.22749 -2.28232 0
M  V30 2525 O 234.114 -5.99795 -0.502925 0
M  V30 2526 H 237.94 -2.94082 0.758268 0
M  V30 2527 H 235.525 -1.42888 0.436289 0
M  V30 2528 H 237.407 -3.94586 -1.47917 0
M  V30 2529 H 236.082 -2.76695 -1.67993 0
M  V30 2530 H 234.989 -3.71571 0.43427 0
M  V30 2531 H 236.322 -4.89097 0.551805 0
M  V30 2532 N 237.974 -0.419461 -1.51915 0
M  V30 2533 C 238.921 0.400927 -2.27291 0
M  V30 2534 C 239.891 1.03224 -1.30131 0
M  V30 2535 O 241.076 1.05455 -1.59009 0
M  V30 2536 C 238.216 1.50603 -3.10504 0
M  V30 2537 C 237.329 0.89462 -4.22635 0
M  V30 2538 C 236.464 1.97328 -4.93189 0
M  V30 2539 C 235.503 1.33935 -5.97267 0
M  V30 2540 N 234.64 2.3586 -6.61298 0
M  V30 2541 H 239.48 -0.248251 -2.96964 0
M  V30 2542 H 237.017 -0.134266 -1.46486 0
M  V30 2543 H 238.975 2.15783 -3.57062 0
M  V30 2544 H 237.605 2.12509 -2.42981 0
M  V30 2545 H 236.657 0.131583 -3.80172 0
M  V30 2546 H 237.969 0.391641 -4.9726 0
M  V30 2547 H 237.123 2.70211 -5.43204 0
M  V30 2548 H 235.862 2.50994 -4.18155 0
M  V30 2549 H 234.867 0.595896 -5.46561 0
M  V30 2550 H 236.092 0.810252 -6.74249 0
M  V30 2551 H 234.038 2.88639 -5.89087 0
M  V30 2552 H 233.955 1.90403 -7.3163 0
M  V30 2553 H 235.223 3.08282 -7.15949 0
M  V30 2554 N 239.452 1.56882 -0.150215 0
M  V30 2555 C 240.382 2.19935 0.784284 0
M  V30 2556 C 241.363 1.14854 1.25469 0
M  V30 2557 O 242.548 1.43209 1.31168 0
M  V30 2558 C 239.678 2.82349 2.02229 0
M  V30 2559 C 238.632 3.93285 1.68853 0
M  V30 2560 C 237.958 4.42649 2.99944 0
M  V30 2561 C 239.258 5.13904 0.932714 0
M  V30 2562 H 240.952 2.9828 0.258781 0
M  V30 2563 H 238.498 1.43473 0.123029 0
M  V30 2564 H 240.451 3.25126 2.68088 0
M  V30 2565 H 239.175 2.0134 2.57157 0
M  V30 2566 H 237.834 3.5113 1.05371 0
M  V30 2567 H 237.482 3.58458 3.52869 0
M  V30 2568 H 237.182 5.17476 2.78374 0
M  V30 2569 H 238.706 4.88099 3.66868 0
M  V30 2570 H 240.12 5.53506 1.49345 0
M  V30 2571 H 238.517 5.94515 0.81684 0
M  V30 2572 H 239.587 4.84842 -0.0749568 0
M  V30 2573 N 240.93 -0.123565 1.57115 0
M  V30 2574 C 241.878 -1.17082 2.00984 0
M  V30 2575 C 242.872 -1.43136 0.906009 0
M  V30 2576 O 244.078 -1.43152 1.09121 0
M  V30 2577 H 240.453 -0.394653 0.64012 0
M  V30 2578 H 242.424 -0.774292 2.88179 0
M  V30 2579 C 241.173 -2.49057 2.42623 0
M  V30 2580 H 240.496 -2.29846 3.27125 0
M  V30 2581 H 241.936 -3.20906 2.7712 0
M  V30 2582 C 240.395 -3.11305 1.28805 0
M  V30 2583 O 240.925 -3.97171 0.60153 0
M  V30 2584 N 239.131 -2.71111 1.04628 0
M  V30 2585 H 238.678 -2.01382 1.60634 0
M  V30 2586 H 238.636 -3.1309 0.286685 0
M  V30 2587 N 242.408 -1.52605 -0.393616 0
M  V30 2588 C 243.654 -1.67672 -1.14079 0
M  V30 2589 C 243.987 -0.413121 -1.89755 0
M  V30 2590 O 243.262 0.588952 -1.85369 0
M  V30 2591 C 243.545 -2.9088 -2.12276 0
M  V30 2592 C 243.398 -4.27329 -1.40394 0
M  V30 2593 C 244.717 -3.09628 -3.12759 0
M  V30 2594 H 241.836 -0.610168 -0.413356 0
M  V30 2595 H 244.478 -1.85193 -0.424696 0
M  V30 2596 H 242.628 -2.76073 -2.73342 0
M  V30 2597 H 244.3 -4.53894 -0.82327 0
M  V30 2598 H 242.543 -4.2802 -0.705801 0
M  V30 2599 H 243.214 -5.09615 -2.12123 0
M  V30 2600 H 245.69 -3.23436 -2.61779 0
M  V30 2601 H 244.566 -3.97322 -3.78717 0
M  V30 2602 H 244.827 -2.23637 -3.81365 0
M  V30 2603 N 243.887 0.651787 -1.4349 0
M  V30 2604 C 245.134 1.41167 -1.45183 0
M  V30 2605 C 245.462 1.94349 -0.0766601 0
M  V30 2606 O 244.717 1.72804 0.918555 0
M  V30 2607 C 245.016 2.60914 -2.44251 0
M  V30 2608 C 244.682 2.26142 -3.9009 0
M  V30 2609 C 243.344 2.16371 -4.2981 0
M  V30 2610 C 245.696 1.98334 -4.81989 0
M  V30 2611 C 243.024 1.7695 -5.5938 0
M  V30 2612 C 245.376 1.6041 -6.11924 0
M  V30 2613 C 244.04 1.49166 -6.5062 0
M  V30 2614 H 243.31 0.516566 -0.531263 0
M  V30 2615 H 245.957 0.741099 -1.76579 0
M  V30 2616 H 244.262 3.3311 -2.06265 0
M  V30 2617 H 245.959 3.19127 -2.42815 0
M  V30 2618 H 242.549 2.34658 -3.58655 0
M  V30 2619 H 246.733 2.04803 -4.52072 0
M  V30 2620 H 241.989 1.66831 -5.88198 0
M  V30 2621 H 246.163 1.37925 -6.82605 0
M  V30 2622 H 243.79 1.1839 -7.50925 0
M  V30 2623 N 245.365 1.30045 0.890287 0
M  V30 2624 C 246.642 1.09227 1.62262 0
M  V30 2625 C 247.022 -0.360305 2.08002 0
M  V30 2626 O 246.37 -1.35084 1.84295 0
M  V30 2627 C 246.58 2.08835 2.79623 0
M  V30 2628 C 247.928 2.40266 3.50082 0
M  V30 2629 O 248.952 2.07104 2.89804 0
M  V30 2630 O 247.811 2.96967 4.58773 0
M  V30 2631 H 244.905 0.419132 0.712922 0
M  V30 2632 H 247.451 1.41451 0.937529 0
M  V30 2633 H 246.223 3.06633 2.43089 0
M  V30 2634 H 245.846 1.77397 3.55832 0
M  V30 2635 N 246.843 -1.10192 1.12674 0
M  V30 2636 C 247.791 -2.18694 0.792196 0
M  V30 2637 C 248.785 -1.67938 -0.222058 0
M  V30 2638 O 249.991 -1.79822 -0.0800074 0
M  V30 2639 H 246.366 -0.713223 0.238364 0
M  V30 2640 H 248.337 -2.44149 1.71564 0
M  V30 2641 C 247.086 -3.46682 0.265859 0
M  V30 2642 H 246.409 -3.86101 1.03761 0
M  V30 2643 H 247.849 -4.23942 0.0701128 0
M  V30 2644 C 246.308 -3.21506 -1.00675 0
M  V30 2645 O 246.838 -3.43408 -2.08408 0
M  V30 2646 N 245.044 -2.75158 -0.934692 0
M  V30 2647 H 244.591 -2.57535 -0.0578604 0
M  V30 2648 H 244.549 -2.58691 -1.7868 0
M  V30 2649 N 248.321 -0.919034 -1.28029 0
M  V30 2650 C 249.269 -0.401753 -2.29104 0
M  V30 2651 C 250.263 0.509354 -1.61561 0
M  V30 2652 O 251.469 0.390014 -1.75724 0
M  V30 2653 H 247.844 -0.111331 -0.743713 0
M  V30 2654 H 249.815 -1.2672 -2.70156 0
M  V30 2655 C 248.564 0.338148 -3.46052 0
M  V30 2656 H 247.887 -0.353732 -3.98232 0
M  V30 2657 H 249.327 0.664653 -4.18758 0
M  V30 2658 C 247.786 1.54798 -2.99231 0
M  V30 2659 O 248.316 2.64696 -3.02157 0
M  V30 2660 N 246.522 1.3968 -2.54829 0
M  V30 2661 H 246.069 0.502698 -2.52647 0
M  V30 2662 H 246.027 2.20755 -2.23863 0
M  V30 2663 N 249.799 1.42003 -0.683588 0
M  V30 2664 C 251.048 2.00638 -0.206681 0
M  V30 2665 C 251.361 1.5472 1.19671 0
M  V30 2666 O 252.567 2.05833 1.77045 0
M  V30 2667 C 251.023 3.58487 -0.318632 0
M  V30 2668 C 250.631 4.1339 -1.72663 0
M  V30 2669 C 252.375 4.24384 0.0991141 0
M  V30 2670 C 250.282 5.63633 -1.79087 0
M  V30 2671 H 249.212 0.750408 -0.0735107 0
M  V30 2672 H 251.863 1.62624 -0.850048 0
M  V30 2673 H 250.245 3.94047 0.392781 0
M  V30 2674 H 251.419 3.89273 -2.46583 0
M  V30 2675 H 249.734 3.59976 -2.09299 0
M  V30 2676 H 252.331 5.34652 0.0713833 0
M  V30 2677 H 252.674 4.00505 1.13586 0
M  V30 2678 H 253.207 3.93816 -0.561599 0
M  V30 2679 H 249.946 5.92323 -2.80774 0
M  V30 2680 H 249.466 5.89714 -1.09535 0
M  V30 2681 H 251.145 6.28201 -1.5483 0
M  V30 2682 N 251.277 0.427512 1.51691 0
M  V30 2683 C 252.525 -0.141948 2.01601 0
M  V30 2684 C 252.846 -1.44067 1.31414 0
M  V30 2685 O 252.116 -1.90763 0.445658 0
M  V30 2686 H 250.696 -0.0554468 0.744939 0
M  V30 2687 H 253.358 0.567968 1.86441 0
M  V30 2688 H 252.454 -0.324913 3.10404 0
M  V30 2689 N 252.755 -1.56801 0.158532 0
M  V30 2690 C 254.001 -1.96781 -0.490405 0
M  V30 2691 C 254.334 -1.04397 -1.63753 0
M  V30 2692 O 253.609 -0.0885805 -1.94298 0
M  V30 2693 C 253.892 -3.4635 -0.985594 0
M  V30 2694 C 253.745 -4.49512 0.160824 0
M  V30 2695 C 255.064 -3.98697 -1.86355 0
M  V30 2696 H 252.183 -0.715482 -0.176788 0
M  V30 2697 H 254.825 -1.88451 0.242088 0
M  V30 2698 H 252.975 -3.53579 -1.60978 0
M  V30 2699 H 254.647 -4.54353 0.797537 0
M  V30 2700 H 252.89 -4.26013 0.818256 0
M  V30 2701 H 253.561 -5.51531 -0.227569 0
M  V30 2702 H 256.037 -3.94019 -1.33746 0
M  V30 2703 H 254.913 -5.03792 -2.17909 0
M  V30 2704 H 255.174 -3.41744 -2.8047 0
M  V30 2705 N 254.233 0.115231 -1.57178 0
M  V30 2706 C 255.163 1.1423 -2.03651 0
M  V30 2707 C 256.144 1.42967 -0.921655 0
M  V30 2708 O 257.329 1.53343 -1.19162 0
M  V30 2709 C 254.459 2.4675 -2.44401 0
M  V30 2710 C 253.413 2.32467 -3.59365 0
M  V30 2711 C 252.739 3.69984 -3.86026 0
M  V30 2712 C 254.039 1.78203 -4.90959 0
M  V30 2713 H 255.733 0.755749 -2.89705 0
M  V30 2714 H 253.279 0.362093 -1.39373 0
M  V30 2715 H 255.232 3.18854 -2.75517 0
M  V30 2716 H 253.956 2.87302 -1.55322 0
M  V30 2717 H 252.615 1.62811 -3.28463 0
M  V30 2718 H 252.263 4.08028 -2.94147 0
M  V30 2719 H 251.963 3.61279 -4.63412 0
M  V30 2720 H 253.487 4.43587 -4.19599 0
M  V30 2721 H 254.901 2.40128 -5.20587 0
M  V30 2722 H 253.298 1.8031 -5.72371 0
M  V30 2723 H 254.368 0.739876 -4.79222 0
M  V30 2724 N 255.711 1.52812 0.385517 0
M  V30 2725 C 256.939 1.71907 1.15133 0
M  V30 2726 C 257.354 0.439004 1.83625 0
M  V30 2727 O 256.711 -0.586765 1.7281 0
M  V30 2728 C 256.762 2.87099 2.19673 0
M  V30 2729 O 256.483 4.10151 1.53973 0
M  V30 2730 C 257.984 3.17902 3.08955 0
M  V30 2731 H 255.204 0.575479 0.345057 0
M  V30 2732 H 257.748 1.99476 0.45052 0
M  V30 2733 H 255.903 2.61982 2.85384 0
M  V30 2734 H 256.317 4.74514 2.23465 0
M  V30 2735 H 257.791 4.01959 3.7833 0
M  V30 2736 H 258.268 2.3243 3.72657 0
M  V30 2737 H 258.874 3.44871 2.48885 0
M  V30 2738 N 257.189 -0.644168 1.43834 0
M  V30 2739 C 258.137 -1.77793 1.49974 0
M  V30 2740 C 259.131 -1.65253 0.372536 0
M  V30 2741 O 260.337 -1.7149 0.546924 0
M  V30 2742 H 256.712 -0.58675 0.47035 0
M  V30 2743 H 258.683 -1.69736 2.45423 0
M  V30 2744 C 257.432 -3.16087 1.4486 0
M  V30 2745 H 256.755 -3.26378 2.30905 0
M  V30 2746 H 258.195 -3.95349 1.53217 0
M  V30 2747 C 256.654 -3.36484 0.167463 0
M  V30 2748 O 257.184 -3.94298 -0.767609 0
M  V30 2749 N 255.39 -2.90504 0.0747556 0
M  V30 2750 H 254.937 -2.4364 0.836507 0
M  V30 2751 H 254.895 -3.04527 -0.781714 0
M  V30 2752 N 258.668 -1.30515 -0.883378 0
M  V30 2753 C 259.893 -1.22487 -1.67367 0
M  V30 2754 C 260.318 0.208767 -1.86938 0
M  V30 2755 O 259.676 1.15015 -1.40148 0
M  V30 2756 C 259.724 -1.96041 -3.02655 0
M  V30 2757 O 258.828 -1.28859 -3.91751 0
M  V30 2758 H 258.169 -0.423573 -0.511353 0
M  V30 2759 H 260.699 -1.72362 -1.10239 0
M  V30 2760 H 260.709 -2.05124 -3.52687 0
M  V30 2761 H 259.384 -3.00307 -2.8773 0
M  V30 2762 H 257.961 -1.28141 -3.50192 0
M  V30 2763 N 260.146 1.09593 -1.13257 0
M  V30 2764 C 261.557 1.63229 -0.906274 0
M  V30 2765 C 261.908 1.8811 0.557578 0
M  V30 2766 O 261.033 1.62953 1.42391 0
M  V30 2767 C 261.628 2.96535 -1.63867 0
M  V30 2768 C 260.187 3.47003 -1.45828 0
M  V30 2769 C 259.334 2.2145 -1.66898 0
M  V30 2770 H 262.285 0.92978 -1.28611 0
M  V30 2771 H 262.306 3.64411 -1.09476 0
M  V30 2772 H 261.818 2.78394 -2.70404 0
M  V30 2773 H 259.919 3.70272 -0.415848 0
M  V30 2774 H 260.032 4.24551 -2.2202 0
M  V30 2775 H 258.396 2.30022 -1.09371 0
M  V30 2776 H 259.179 2.0583 -2.74752 0
M  V30 2777 N 261.624 0.925811 1.2754 0
M  V30 2778 C 262.852 0.581509 1.9856 0
M  V30 2779 C 263.267 -0.840041 1.69082 0
M  V30 2780 O 262.624 -1.55805 0.950312 0
M  V30 2781 C 262.675 0.795589 3.52637 0
M  V30 2782 O 262.396 2.16121 3.81082 0
M  V30 2783 C 263.897 0.459744 4.4091 0
M  V30 2784 H 261.117 0.220538 0.633722 0
M  V30 2785 H 263.661 1.24232 1.6244 0
M  V30 2786 H 261.816 0.18161 3.86974 0
M  V30 2787 H 262.23 2.2098 4.75676 0
M  V30 2788 H 263.704 0.660244 5.48037 0
M  V30 2789 H 264.181 -0.604625 4.35018 0
M  V30 2790 H 264.787 1.05178 4.12089 0
M  V30 2791 N 263.102 -1.41638 0.69111 0
M  V30 2792 C 264.349 -2.01299 0.220193 0
M  V30 2793 C 264.677 -1.54715 -1.17871 0
M  V30 2794 O 263.932 -0.747193 -1.80874 0
M  V30 2795 C 264.231 -3.56714 0.221277 0
M  V30 2796 C 263.897 -4.22792 1.56709 0
M  V30 2797 C 262.559 -4.40557 1.93554 0
M  V30 2798 C 264.911 -4.59883 2.45268 0
M  V30 2799 C 262.239 -4.92688 3.18552 0
M  V30 2800 C 264.591 -5.13403 3.69595 0
M  V30 2801 C 263.255 -5.29379 4.06589 0
M  V30 2802 H 262.525 -0.736606 0.0805743 0
M  V30 2803 H 265.172 -1.69598 0.889319 0
M  V30 2804 H 263.477 -3.8818 -0.531391 0
M  V30 2805 H 265.174 -4.00678 -0.160547 0
M  V30 2806 H 261.764 -4.09336 1.2705 0
M  V30 2807 H 265.948 -4.45817 2.18084 0
M  V30 2808 H 261.204 -5.03242 3.47214 0
M  V30 2809 H 265.378 -5.41084 4.38407 0
M  V30 2810 H 263.005 -5.69537 5.03519 0
M  V30 2811 N 264.58 -0.43555 -1.51462 0
M  V30 2812 C 265.857 0.191364 -1.94662 0
M  V30 2813 C 266.237 1.60254 -1.37411 0
M  V30 2814 O 265.585 2.2152 -0.560458 0
M  V30 2815 C 265.795 0.17091 -3.48581 0
M  V30 2816 C 267.143 0.377357 -4.2292 0
M  V30 2817 O 268.167 0.249104 -3.55328 0
M  V30 2818 O 267.026 0.63247 -5.42828 0
M  V30 2819 H 264.12 0.130932 -0.816569 0
M  V30 2820 H 266.666 -0.4934 -1.62369 0
M  V30 2821 H 265.438 -0.815738 -3.82703 0
M  V30 2822 H 265.061 0.898659 -3.87311 0
M  V30 2823 N 266.058 1.56714 -0.166846 0
M  V30 2824 C 267.304 1.97813 0.473473 0
M  V30 2825 C 267.659 1.05095 1.61161 0
M  V30 2826 O 266.952 0.0897541 1.9139 0
M  V30 2827 C 267.146 3.42889 1.00806 0
M  V30 2828 C 266.975 4.49635 -0.0767392 0
M  V30 2829 C 265.745 5.02566 -0.524894 0
M  V30 2830 C 267.943 5.06793 -0.875504 0
M  V30 2831 N 265.925 5.9294 -1.59047 0
M  V30 2832 C 267.296 5.93565 -1.79111 0
M  V30 2833 C 269.351 4.89306 -0.921083 0
M  V30 2834 C 268.054 6.64721 -2.74843 0
M  V30 2835 C 270.08 5.61179 -1.86633 0
M  V30 2836 C 269.442 6.47675 -2.76942 0
M  V30 2837 H 265.541 0.769093 0.141489 0
M  V30 2838 H 268.125 1.92874 -0.266031 0
M  V30 2839 H 266.296 3.48382 1.7171 0
M  V30 2840 H 268.028 3.71008 1.61664 0
M  V30 2841 H 264.783 4.73439 -0.123432 0
M  V30 2842 H 265.207 6.42831 -2.12361 0
M  V30 2843 H 269.849 4.22136 -0.23692 0
M  V30 2844 H 267.567 7.31107 -3.44249 0
M  V30 2845 H 271.153 5.49636 -1.90764 0
M  V30 2846 H 270.033 7.02313 -3.48893 0
M  V30 2847 N 267.536 -0.106894 1.57237 0
M  V30 2848 C 268.486 -1.1366 1.9765 0
M  V30 2849 C 269.47 -1.36416 0.853203 0
M  V30 2850 O 270.662 -1.37305 1.11697 0
M  V30 2851 C 267.791 -2.46 2.39455 0
M  V30 2852 C 266.877 -2.26668 3.58445 0
M  V30 2853 N 267.268 -1.77176 4.73754 0
M  V30 2854 C 265.566 -2.57279 3.64312 0
M  V30 2855 C 266.267 -1.71836 5.5574 0
M  V30 2856 N 265.243 -2.16623 4.98573 0
M  V30 2857 H 269.045 -0.74669 2.84256 0
M  V30 2858 H 266.559 -0.314483 1.59326 0
M  V30 2859 H 268.556 -3.2049 2.6663 0
M  V30 2860 H 267.216 -2.85738 1.54219 0
M  V30 2861 H 268.227 -1.46545 4.96734 0
M  V30 2862 H 264.904 -3.00622 2.89711 0
M  V30 2863 H 266.294 -1.34723 6.58255 0
M  V30 2864 N 269.014 -1.53014 -0.377408 0
M  V30 2865 C 270.26 -1.68872 -1.12294 0
M  V30 2866 C 270.593 -0.433224 -1.89306 0
M  V30 2867 O 269.868 0.569258 -1.85983 0
M  V30 2868 C 270.151 -2.93115 -2.09179 0
M  V30 2869 C 270.004 -4.28794 -1.35853 0
M  V30 2870 C 271.323 -3.12928 -3.09458 0
M  V30 2871 H 268.442 -0.614518 -0.406862 0
M  V30 2872 H 271.084 -1.85633 -0.40503 0
M  V30 2873 H 269.234 -2.78956 -2.70399 0
M  V30 2874 H 270.906 -4.54742 -0.775082 0
M  V30 2875 H 269.149 -4.28744 -0.660364 0
M  V30 2876 H 269.82 -5.11837 -2.06706 0
M  V30 2877 H 272.296 -3.26194 -2.58334 0
M  V30 2878 H 271.172 -4.01316 -3.74482 0
M  V30 2879 H 271.433 -2.27669 -3.78971 0
M  V30 2880 N 270.492 0.636531 -1.44174 0
M  V30 2881 C 271.455 1.73063 -1.50273 0
M  V30 2882 C 272.455 1.56113 -0.385397 0
M  V30 2883 O 273.645 1.61707 -0.64781 0
M  V30 2884 C 270.777 3.12096 -1.37145 0
M  V30 2885 H 271.97 1.69031 -2.47727 0
M  V30 2886 H 269.523 0.849706 -1.31186 0
M  V30 2887 H 270.258 3.21728 -0.407636 0
M  V30 2888 H 270.043 3.25805 -2.18159 0
M  V30 2889 H 271.533 3.91846 -1.44382 0
M  V30 2890 N 271.97 1.30982 0.876444 0
M  V30 2891 C 272.918 1.18006 2.00443 0
M  V30 2892 C 273.912 0.0898871 1.69161 0
M  V30 2893 O 275.118 0.251333 1.78237 0
M  V30 2894 H 271.493 0.365196 0.65737 0
M  V30 2895 H 273.464 2.13453 2.0852 0
M  V30 2896 C 272.213 0.897521 3.35916 0
M  V30 2897 H 271.536 1.7285 3.60504 0
M  V30 2898 H 272.976 0.846874 4.15456 0
M  V30 2899 C 271.435 -0.399674 3.34521 0
M  V30 2900 O 271.965 -1.41852 3.7582 0
M  V30 2901 N 270.171 -0.413893 2.87637 0
M  V30 2902 H 269.718 0.41571 2.54224 0
M  V30 2903 H 269.676 -1.28175 2.87086 0
M  V30 2904 N 273.449 -1.08991 1.13837 0
M  V30 2905 C 274.379 -2.17771 0.842507 0
M  V30 2906 C 275.36 -1.6892 -0.20001 0
M  V30 2907 O 276.545 -1.94113 -0.0579731 0
M  V30 2908 C 273.675 -3.4589 0.312644 0
M  V30 2909 C 272.629 -4.08099 1.28992 0
M  V30 2910 C 271.955 -5.31098 0.619623 0
M  V30 2911 C 273.255 -4.50077 2.65005 0
M  V30 2912 H 274.949 -2.42777 1.75213 0
M  V30 2913 H 272.495 -1.16682 0.843875 0
M  V30 2914 H 274.448 -4.21297 0.0933043 0
M  V30 2915 H 273.172 -3.20419 -0.632382 0
M  V30 2916 H 271.831 -3.34717 1.49533 0
M  V30 2917 H 271.479 -5.0191 -0.33102 0
M  V30 2918 H 271.179 -5.73674 1.27167 0
M  V30 2919 H 272.703 -6.09224 0.409669 0
M  V30 2920 H 274.117 -5.16688 2.48407 0
M  V30 2921 H 272.514 -5.03553 3.26427 0
M  V30 2922 H 273.584 -3.62257 3.22332 0
M  V30 2923 N 274.927 -0.932562 -1.27047 0
M  V30 2924 C 275.875 -0.42603 -2.28665 0
M  V30 2925 C 276.869 0.49219 -1.62092 0
M  V30 2926 O 278.075 0.371355 -1.76128 0
M  V30 2927 H 274.45 -0.119213 -0.742491 0
M  V30 2928 H 276.421 -1.29579 -2.68797 0
M  V30 2929 C 275.17 0.301426 -3.46391 0
M  V30 2930 H 274.493 -0.39595 -3.97834 0
M  V30 2931 H 275.933 0.6202 -4.1944 0
M  V30 2932 C 274.392 1.51616 -3.00856 0
M  V30 2933 O 274.922 2.61476 -3.04948 0
M  V30 2934 N 273.128 1.36969 -2.56296 0
M  V30 2935 H 272.675 0.475873 -2.53166 0
M  V30 2936 H 272.633 2.18368 -2.26192 0
M  V30 2937 N 276.405 1.4127 -0.698611 0
M  V30 2938 C 277.337 2.292 0.00399731 0
M  V30 2939 C 278.35 1.44944 0.741279 0
M  V30 2940 O 279.539 1.68416 0.591477 0
M  V30 2941 C 276.639 3.22875 1.02979 0
M  V30 2942 C 275.812 4.35904 0.36151 0
M  V30 2943 C 274.871 5.10134 1.29033 0
M  V30 2944 O 273.897 5.63809 0.781562 0
M  V30 2945 N 275.099 5.17885 2.6225 0
M  V30 2946 H 277.864 2.9014 -0.750921 0
M  V30 2947 H 275.425 1.52455 -0.544882 0
M  V30 2948 H 277.417 3.69404 1.65296 0
M  V30 2949 H 275.987 2.63221 1.68622 0
M  V30 2950 H 275.207 3.91719 -0.441584 0
M  V30 2951 H 276.495 5.08696 -0.103055 0
M  V30 2952 H 275.893 4.7573 3.061 0
M  V30 2953 H 274.45 5.6798 3.19754 0
M  V30 2954 N 277.883 0.443576 1.51229 0
M  V30 2955 C 279.113 -0.119117 2.06256 0
M  V30 2956 C 279.521 -1.36471 1.31043 0
M  V30 2957 O 278.864 -1.80034 0.365151 0
M  V30 2958 C 278.926 -0.500546 3.55998 0
M  V30 2959 C 278.59 0.639125 4.52509 0
M  V30 2960 C 279.587 1.51311 4.97394 0
M  V30 2961 C 277.272 0.821632 4.95535 0
M  V30 2962 C 279.266 2.55425 5.83984 0
M  V30 2963 C 276.953 1.86603 5.81913 0
M  V30 2964 C 277.951 2.73072 6.26036 0
M  V30 2965 O 277.639 3.75718 7.10698 0
M  V30 2966 H 277.371 -0.00857665 0.675946 0
M  V30 2967 H 279.925 0.623288 1.95715 0
M  V30 2968 H 278.155 -1.29575 3.64345 0
M  V30 2969 H 279.844 -0.995116 3.93513 0
M  V30 2970 H 280.61 1.38367 4.64844 0
M  V30 2971 H 276.489 0.158149 4.60729 0
M  V30 2972 H 280.033 3.22949 6.18344 0
M  V30 2973 H 275.93 1.99564 6.13876 0
M  V30 2974 H 276.698 3.72374 7.2889 0
M  V30 2975 N 279.361 -1.56624 0.175154 0
M  V30 2976 C 280.607 -1.9729 -0.469506 0
M  V30 2977 C 280.94 -1.06128 -1.62636 0
M  V30 2978 O 280.215 -0.109183 -1.94193 0
M  V30 2979 C 280.498 -3.47375 -0.948804 0
M  V30 2980 C 280.351 -4.49317 0.208491 0
M  V30 2981 C 281.67 -4.00652 -1.82116 0
M  V30 2982 H 278.789 -0.717317 -0.16919 0
M  V30 2983 H 281.431 -1.88184 0.262062 0
M  V30 2984 H 279.581 -3.55267 -1.57219 0
M  V30 2985 H 281.253 -4.53482 0.845682 0
M  V30 2986 H 279.496 -4.25121 0.863395 0
M  V30 2987 H 280.167 -5.51741 -0.169059 0
M  V30 2988 H 282.643 -3.95416 -1.2956 0
M  V30 2989 H 281.519 -5.06075 -2.12554 0
M  V30 2990 H 281.78 -3.44699 -2.7683 0
M  V30 2991 N 280.839 0.0985539 -1.57292 0
M  V30 2992 C 282.087 0.801092 -1.85545 0
M  V30 2993 C 282.408 1.79438 -0.763353 0
M  V30 2994 O 281.678 1.94763 0.21073 0
M  V30 2995 H 280.258 0.29884 -0.684619 0
M  V30 2996 H 282.92 0.0810064 -1.94732 0
M  V30 2997 H 282.016 1.3338 -2.82163 0
M  V30 2998 N 282.317 1.53212 0.369288 0
M  V30 2999 C 283.247 1.82365 1.45826 0
M  V30 3000 C 284.228 0.676907 1.56051 0
M  V30 3001 O 285.413 0.926401 1.70679 0
M  V30 3002 C 282.543 2.01023 2.83208 0
M  V30 3003 C 281.497 3.1678 2.8781 0
M  V30 3004 C 280.823 3.20724 4.27832 0
M  V30 3005 C 282.123 4.55447 2.55667 0
M  V30 3006 H 283.817 2.73559 1.21678 0
M  V30 3007 H 281.363 1.3163 0.583911 0
M  V30 3008 H 283.316 2.20001 3.59413 0
M  V30 3009 H 282.04 1.06536 3.08736 0
M  V30 3010 H 280.699 2.97616 2.14056 0
M  V30 3011 H 280.347 2.23882 4.50429 0
M  V30 3012 H 280.047 3.98496 4.31827 0
M  V30 3013 H 281.571 3.41881 5.05915 0
M  V30 3014 H 282.985 4.74611 3.21586 0
M  V30 3015 H 281.382 5.35432 2.70984 0
M  V30 3016 H 282.452 4.60812 1.5093 0
M  V30 3017 N 283.795 -0.628877 1.44509 0
M  V30 3018 C 285.211 -0.947305 1.28446 0
M  V30 3019 C 285.411 -2.00275 0.221872 0
M  V30 3020 O 284.467 -2.49447 -0.391471 0
M  V30 3021 C 285.78 -1.40843 2.65676 0
M  V30 3022 C 287.328 -1.52379 2.73404 0
M  V30 3023 C 287.803 -2.01875 4.11109 0
M  V30 3024 N 289.294 -2.09142 4.13296 0
M  V30 3025 C 290.029 -2.48615 5.16699 0
M  V30 3026 N 289.525 -2.87209 6.30462 0
M  V30 3027 N 291.318 -2.48768 5.04054 0
M  V30 3028 H 283.469 0.0690977 2.12288 0
M  V30 3029 H 285.732 -0.0317164 0.947469 0
M  V30 3030 H 285.438 -0.707206 3.44516 0
M  V30 3031 H 285.312 -2.37902 2.92716 0
M  V30 3032 H 287.699 -2.21598 1.9488 0
M  V30 3033 H 287.78 -0.536898 2.50102 0
M  V30 3034 H 287.424 -1.3325 4.90109 0
M  V30 3035 H 287.354 -3.0144 4.31789 0
M  V30 3036 H 289.845 -1.81991 3.31191 0
M  V30 3037 H 290.158 -3.16149 7.05174 0
M  V30 3038 H 288.503 -2.84955 6.33897 0
M  V30 3039 H 291.694 -2.18009 4.14234 0
M  V30 3040 H 291.867 -2.79207 5.84763 0
M  V30 3041 N 285.273 -1.31445 -0.869486 0
M  V30 3042 C 286.503 -1.23942 -1.65294 0
M  V30 3043 C 286.911 0.197561 -1.88166 0
M  V30 3044 O 286.254 1.14019 -1.44033 0
M  V30 3045 C 286.316 -1.91385 -3.04322 0
M  V30 3046 C 285.98 -3.40726 -3.04557 0
M  V30 3047 C 286.977 -4.36464 -2.82481 0
M  V30 3048 C 284.662 -3.82425 -3.25663 0
M  V30 3049 C 286.656 -5.71876 -2.8149 0
M  V30 3050 C 284.343 -5.1795 -3.243 0
M  V30 3051 C 285.341 -6.12486 -3.02241 0
M  V30 3052 O 285.029 -7.45534 -3.00724 0
M  V30 3053 H 284.761 -0.429459 -0.522054 0
M  V30 3054 H 287.315 -1.73873 -1.0935 0
M  V30 3055 H 285.545 -1.36004 -3.61994 0
M  V30 3056 H 287.234 -1.77791 -3.64891 0
M  V30 3057 H 288 -4.05576 -2.65956 0
M  V30 3058 H 283.879 -3.09274 -3.41863 0
M  V30 3059 H 287.423 -6.45638 -2.64191 0
M  V30 3060 H 283.32 -5.48473 -3.40365 0
M  V30 3061 H 284.088 -7.54713 -3.16782 0
M  V30 3062 N 286.751 1.08385 -1.14413 0
M  V30 3063 C 287.699 2.17406 -0.826888 0
M  V30 3064 C 288.693 1.6827 0.195312 0
M  V30 3065 O 289.899 1.79927 0.0513892 0
M  V30 3066 H 286.274 0.70934 -0.249681 0
M  V30 3067 H 288.245 2.41388 -1.75426 0
M  V30 3068 C 286.994 3.46215 -0.320979 0
M  V30 3069 H 286.317 3.84401 -1.0989 0
M  V30 3070 H 287.757 4.23777 -0.137549 0
M  V30 3071 C 286.216 3.23067 0.955472 0
M  V30 3072 O 286.746 3.4668 2.02918 0
M  V30 3073 N 284.952 2.7661 0.890798 0
M  V30 3074 H 284.499 2.57594 0.0168815 0
M  V30 3075 H 284.457 2.61501 1.74542 0
M  V30 3076 N 288.23 0.939286 1.26551 0
M  V30 3077 C 289.162 0.404704 2.25599 0
M  V30 3078 C 290.175 -0.470983 1.55838 0
M  V30 3079 O 291.364 -0.281734 1.76263 0
M  V30 3080 C 288.464 -0.43764 3.36062 0
M  V30 3081 C 287.637 0.421449 4.35365 0
M  V30 3082 C 286.696 -0.36015 5.24966 0
M  V30 3083 O 285.722 0.236167 5.6871 0
M  V30 3084 N 286.924 -1.65715 5.56344 0
M  V30 3085 H 289.689 1.25618 2.72103 0
M  V30 3086 H 287.25 0.807963 1.40298 0
M  V30 3087 H 289.242 -0.967866 3.92956 0
M  V30 3088 H 287.812 -1.18991 2.89067 0
M  V30 3089 H 287.032 1.1329 3.7757 0
M  V30 3090 H 288.32 1.00835 4.98708 0
M  V30 3091 H 287.718 -2.16378 5.22682 0
M  V30 3092 H 286.275 -2.13366 6.15888 0
M  V30 3093 N 289.708 -1.40897 0.706093 0
M  V30 3094 C 290.954 -2.01352 0.241889 0
M  V30 3095 C 291.287 -1.55832 -1.15888 0
M  V30 3096 O 290.562 -0.774145 -1.7843 0
M  V30 3097 C 290.845 -3.58752 0.311311 0
M  V30 3098 C 290.698 -4.1437 1.74978 0
M  V30 3099 C 292.017 -4.38914 -0.322922 0
M  V30 3100 H 289.136 -0.731562 0.0893687 0
M  V30 3101 H 291.778 -1.67504 0.896802 0
M  V30 3102 H 289.928 -3.87718 -0.246302 0
M  V30 3103 H 291.6 -3.96239 2.36205 0
M  V30 3104 H 289.843 -3.69016 2.28057 0
M  V30 3105 H 290.514 -5.23532 1.74981 0
M  V30 3106 H 292.99 -4.15822 0.152089 0
M  V30 3107 H 291.866 -5.48358 -0.243855 0
M  V30 3108 H 292.127 -4.19176 -1.40513 0
M  V30 3109 N 291.186 -0.45159 -1.50991 0
M  V30 3110 C 292.597 0.00818571 -1.86698 0
M  V30 3111 C 292.948 1.40661 -1.3678 0
M  V30 3112 O 292.073 2.0391 -0.724546 0
M  V30 3113 C 292.668 0.0216303 -3.38793 0
M  V30 3114 C 291.227 0.425865 -3.73983 0
M  V30 3115 C 290.374 -0.372163 -2.74791 0
M  V30 3116 H 293.325 -0.666785 -1.44013 0
M  V30 3117 H 293.346 0.828078 -3.7138 0
M  V30 3118 H 292.858 -0.996288 -3.75094 0
M  V30 3119 H 290.959 1.44886 -3.43277 0
M  V30 3120 H 291.072 0.140761 -4.78893 0
M  V30 3121 H 289.436 0.171498 -2.54122 0
M  V30 3122 H 290.219 -1.38922 -3.13935 0
M  V30 3123 N 292.664 1.56529 -0.183458 0
M  V30 3124 C 293.574 2.22144 0.754272 0
M  V30 3125 C 294.59 1.21684 1.24374 0
M  V30 3126 O 295.766 1.54385 1.29333 0
M  V30 3127 C 292.831 2.85884 1.96141 0
M  V30 3128 C 291.892 4.01579 1.51765 0
M  V30 3129 C 291.125 4.6227 2.66725 0
M  V30 3130 O 291.348 4.21865 3.83909 0
M  V30 3131 O 290.282 5.51936 2.40104 0
M  V30 3132 H 294.108 3.02861 0.225527 0
M  V30 3133 H 291.693 1.49331 0.0453032 0
M  V30 3134 H 293.575 3.26253 2.66715 0
M  V30 3135 H 292.25 2.08154 2.47899 0
M  V30 3136 H 291.157 3.65856 0.781049 0
M  V30 3137 H 292.49 4.80938 1.04686 0
M  V30 3138 N 294.142 -0.090211 1.57342 0
M  V30 3139 C 295.389 -0.792807 1.86335 0
M  V30 3140 C 295.717 -1.78494 0.772662 0
M  V30 3141 O 294.972 -1.94305 -0.233258 0
M  V30 3142 C 295.271 -1.55222 3.21933 0
M  V30 3143 C 294.937 -0.701765 4.45406 0
M  V30 3144 C 293.599 -0.467334 4.78925 0
M  V30 3145 C 295.951 -0.11086 5.21082 0
M  V30 3146 C 293.279 0.367785 5.85546 0
M  V30 3147 C 295.631 0.711609 6.28585 0
M  V30 3148 C 294.295 0.956086 6.60617 0
M  V30 3149 H 293.565 -0.290109 0.681849 0
M  V30 3150 H 296.212 -0.0541332 1.91423 0
M  V30 3151 H 294.517 -2.3626 3.12551 0
M  V30 3152 H 296.214 -2.10032 3.41595 0
M  V30 3153 H 292.804 -0.894598 4.1916 0
M  V30 3154 H 296.988 -0.279129 4.95514 0
M  V30 3155 H 292.244 0.566128 6.08773 0
M  V30 3156 H 296.418 1.17632 6.86393 0
M  V30 3157 H 294.045 1.60499 7.43064 0
M  V30 3158 N 295.62 -1.53406 -0.361157 0
M  V30 3159 C 296.567 -1.80156 -1.44265 0
M  V30 3160 C 297.537 -0.646183 -1.53015 0
M  V30 3161 O 298.722 -0.888818 -1.68833 0
M  V30 3162 C 295.862 -2.00116 -2.81154 0
M  V30 3163 C 294.975 -3.27833 -2.81335 0
M  V30 3164 C 294.11 -3.37957 -4.09828 0
M  V30 3165 C 293.149 -4.59689 -4.04168 0
M  V30 3166 N 292.286 -4.66942 -5.24318 0
M  V30 3167 H 297.126 -2.72438 -1.20754 0
M  V30 3168 H 294.663 -1.34954 -0.585296 0
M  V30 3169 H 296.621 -2.09677 -3.60682 0
M  V30 3170 H 295.251 -1.11167 -3.03054 0
M  V30 3171 H 294.303 -3.27204 -1.94014 0
M  V30 3172 H 295.615 -4.17442 -2.73027 0
M  V30 3173 H 294.769 -3.46853 -4.97773 0
M  V30 3174 H 293.508 -2.46372 -4.20894 0
M  V30 3175 H 292.513 -4.50889 -3.14609 0
M  V30 3176 H 293.738 -5.5262 -3.947 0
M  V30 3177 H 291.684 -3.7826 -5.35962 0
M  V30 3178 H 291.601 -5.50462 -5.18197 0
M  V30 3179 H 292.869 -4.80127 -6.14084 0
M  V30 3180 N 297.098 0.621204 -1.44841 0
M  V30 3181 C 298.028 1.74366 -1.55303 0
M  V30 3182 C 299.009 1.65199 -0.405385 0
M  V30 3183 O 300.194 1.83807 -0.626787 0
M  V30 3184 C 297.324 3.12931 -1.50637 0
M  V30 3185 C 296.278 3.36896 -2.63979 0
M  V30 3186 C 295.604 4.75594 -2.44366 0
M  V30 3187 C 296.904 3.28483 -4.06074 0
M  V30 3188 H 298.598 1.65867 -2.49256 0
M  V30 3189 H 296.144 0.796558 -1.19962 0
M  V30 3190 H 298.097 3.9124 -1.56555 0
M  V30 3191 H 296.821 3.22237 -0.532057 0
M  V30 3192 H 295.48 2.60972 -2.57467 0
M  V30 3193 H 295.128 4.81616 -1.45105 0
M  V30 3194 H 294.828 4.92586 -3.20364 0
M  V30 3195 H 296.352 5.5612 -2.52117 0
M  V30 3196 H 297.766 3.96684 -4.13902 0
M  V30 3197 H 296.163 3.57008 -4.82354 0
M  V30 3198 H 297.233 2.26133 -4.28943 0
M  V30 3199 N 298.576 1.31904 0.862503 0
M  V30 3200 C 299.824 1.21776 1.61292 0
M  V30 3201 C 300.145 -0.222413 1.93727 0
M  V30 3202 O 299.415 -1.1451 1.58947 0
M  V30 3203 H 297.995 0.447717 0.597962 0
M  V30 3204 H 300.657 1.65326 1.03215 0
M  V30 3205 H 299.753 1.7948 2.5533 0
M  V30 3206 N 300.054 -1.07777 1.14986 0
M  V30 3207 C 301.331 -1.7699 0.832695 0
M  V30 3208 C 301.711 -2.001 -0.672561 0
M  V30 3209 O 301.059 -1.61598 -1.6155 0
M  V30 3210 C 301.269 -3.08139 1.63863 0
M  V30 3211 C 302.617 -3.8256 1.84208 0
M  V30 3212 O 303.641 -3.17939 1.60603 0
M  V30 3213 O 302.5 -4.98612 2.23714 0
M  V30 3214 H 299.594 -0.768389 0.305791 0
M  V30 3215 H 302.14 -1.14182 1.25541 0
M  V30 3216 H 300.912 -2.86909 2.6608 0
M  V30 3217 H 300.535 -3.78678 1.21197 0
M  V30 3218 N 301.532 -0.945985 -1.26051 0
M  V30 3219 C 302.464 -0.416662 -2.25381 0
M  V30 3220 C 303.477 0.462712 -1.56086 0
M  V30 3221 O 304.666 0.272383 -1.7641 0
M  V30 3222 C 301.766 0.419812 -3.3629 0
M  V30 3223 C 300.939 -0.444531 -4.35135 0
M  V30 3224 C 299.998 0.332305 -5.2515 0
M  V30 3225 O 299.024 -0.266324 -5.68577 0
M  V30 3226 N 300.226 1.62763 -5.57215 0
M  V30 3227 H 302.991 -1.27059 -2.71433 0
M  V30 3228 H 300.552 -0.815392 -1.39868 0
M  V30 3229 H 302.544 0.947013 -3.93464 0
M  V30 3230 H 301.114 1.17456 -2.89694 0
M  V30 3231 H 300.334 -1.15291 -3.76964 0
M  V30 3232 H 301.622 -1.03478 -4.98166 0
M  V30 3233 H 301.02 2.13603 -5.23823 0
M  V30 3234 H 299.577 2.10097 -6.17011 0
M  V30 3235 N 303.011 1.40521 -0.713556 0
M  V30 3236 C 304.236 2.05759 -0.26035 0
M  V30 3237 C 304.661 1.53403 1.08854 0
M  V30 3238 O 304.019 0.668535 1.68524 0
M  V30 3239 C 304.067 3.59745 -0.248122 0
M  V30 3240 O 303.171 4.05123 0.77131 0
M  V30 3241 H 302.512 0.652564 -0.122703 0
M  V30 3242 H 305.042 1.79958 -0.973467 0
M  V30 3243 H 305.052 4.07911 -0.0851129 0
M  V30 3244 H 303.727 3.97218 -1.2325 0
M  V30 3245 H 302.304 3.68422 0.57619 0
M  V30 3246 N 304.489 0.459591 1.5075 0
M  V30 3247 C 305.419 -0.330644 2.31147 0
M  V30 3248 C 306.4 -1.00087 1.37538 0
M  V30 3249 O 307.585 -1.00025 1.66459 0
M  V30 3250 C 304.715 -1.41958 3.16962 0
M  V30 3251 C 303.669 -0.871608 4.19031 0
M  V30 3252 C 302.995 -2.05797 4.9351 0
M  V30 3253 C 304.295 0.109251 5.22186 0
M  V30 3254 H 305.989 0.340336 2.97459 0
M  V30 3255 H 303.535 0.165119 1.4305 0
M  V30 3256 H 305.488 -1.9798 3.71997 0
M  V30 3257 H 304.212 -2.11917 2.48513 0
M  V30 3258 H 302.871 -0.333442 3.6508 0
M  V30 3259 H 302.519 -2.74427 4.21544 0
M  V30 3260 H 302.219 -1.6976 5.62544 0
M  V30 3261 H 303.743 -2.62331 5.51375 0
M  V30 3262 H 305.157 -0.361405 5.7216 0
M  V30 3263 H 303.554 0.383316 5.98875 0
M  V30 3264 H 304.624 1.03887 4.73641 0
M  V30 3265 N 305.967 -1.56429 0.191757 0
M  V30 3266 C 307.195 -2.01867 -0.453586 0
M  V30 3267 C 307.61 -1.07191 -1.5542 0
M  V30 3268 O 306.967 -0.0762108 -1.82341 0
M  V30 3269 C 307.018 -3.47017 -1.013 0
M  V30 3270 O 306.739 -4.38078 0.0437005 0
M  V30 3271 C 308.24 -4.07956 -1.73456 0
M  V30 3272 H 305.46 -0.661211 -0.114199 0
M  V30 3273 H 308.004 -2.02295 0.299483 0
M  V30 3274 H 306.159 -3.47298 -1.71647 0
M  V30 3275 H 306.573 -5.23178 -0.372212 0
M  V30 3276 H 308.047 -5.1138 -2.07833 0
M  V30 3277 H 308.524 -3.51222 -2.63704 0
M  V30 3278 H 309.13 -4.11437 -1.07702 0
M  V30 3279 N 307.445 0.0818655 -1.57387 0
M  V30 3280 C 308.408 1.08265 -2.02018 0
M  V30 3281 C 309.408 1.32183 -0.915664 0
M  V30 3282 O 310.598 1.28073 -1.18081 0
M  V30 3283 C 307.73 2.42871 -2.39221 0
M  V30 3284 H 308.923 0.698204 -2.91659 0
M  V30 3285 H 306.476 0.327303 -1.52835 0
M  V30 3286 H 307.211 2.86167 -1.52575 0
M  V30 3287 H 306.996 2.26855 -3.19811 0
M  V30 3288 H 308.486 3.14826 -2.74362 0
M  V30 3289 N 308.923 1.53595 0.353017 0
M  V30 3290 C 309.853 1.83902 1.43883 0
M  V30 3291 C 310.834 0.693421 1.55324 0
M  V30 3292 O 312.019 0.944452 1.69687 0
M  V30 3293 C 309.149 2.04016 2.8106 0
M  V30 3294 C 308.103 3.19814 2.84434 0
M  V30 3295 C 307.429 3.25244 4.24406 0
M  V30 3296 C 308.729 4.58133 2.50822 0
M  V30 3297 H 310.423 2.74835 1.1877 0
M  V30 3298 H 307.969 1.32242 0.569917 0
M  V30 3299 H 309.922 2.238 3.57059 0
M  V30 3300 H 308.646 1.09804 3.07588 0
M  V30 3301 H 307.305 2.9987 2.10887 0
M  V30 3302 H 306.953 2.28646 4.48029 0
M  V30 3303 H 306.653 4.03054 4.27576 0
M  V30 3304 H 308.177 3.47228 5.0226 0
M  V30 3305 H 309.591 4.77995 3.16534 0
M  V30 3306 H 307.988 5.38276 2.6529 0
M  V30 3307 H 309.058 4.62387 1.46034 0
M  V30 3308 N 310.401 -0.613514 1.45168 0
M  V30 3309 C 311.649 -1.36997 1.48581 0
M  V30 3310 C 311.97 -1.94589 0.126545 0
M  V30 3311 O 311.24 -1.76816 -0.843372 0
M  V30 3312 H 309.82 -0.508558 0.547154 0
M  V30 3313 H 312.482 -0.720853 1.81079 0
M  V30 3314 H 311.578 -2.1924 2.22127 0
M  V30 3315 N 311.879 -1.3236 -0.855495 0
M  V30 3316 C 312.811 -1.17052 -1.97057 0
M  V30 3317 C 313.824 -0.10574 -1.62456 0
M  V30 3318 O 315.013 -0.354619 -1.74942 0
M  V30 3319 C 312.113 -0.769305 -3.30053 0
M  V30 3320 C 311.286 -1.9222 -3.929 0
M  V30 3321 C 310.345 -1.50466 -5.04228 0
M  V30 3322 O 309.371 -2.21655 -5.24269 0
M  V30 3323 N 310.573 -0.400209 -5.79119 0
M  V30 3324 H 313.338 -2.13103 -2.1073 0
M  V30 3325 H 310.899 -1.24885 -1.0303 0
M  V30 3326 H 312.891 -0.472407 -4.01933 0
M  V30 3327 H 311.461 0.100025 -3.1244 0
M  V30 3328 H 310.681 -2.38563 -3.13817 0
M  V30 3329 H 311.969 -2.69403 -4.31624 0
M  V30 3330 H 311.367 0.192319 -5.65373 0
M  V30 3331 H 309.924 -0.162912 -6.51596 0
M  V30 3332 N 313.357 1.07166 -1.15556 0
M  V30 3333 C 314.605 1.79443 -0.929764 0
M  V30 3334 C 314.926 1.87246 0.544414 0
M  V30 3335 O 314.196 1.37473 1.39564 0
M  V30 3336 H 312.776 0.664625 -0.341003 0
M  V30 3337 H 315.438 1.29499 -1.45657 0
M  V30 3338 H 314.534 2.81832 -1.34079 0
M  V30 3339 N 314.835 0.952656 1.25548 0
M  V30 3340 C 316.063 0.623496 1.97282 0
M  V30 3341 C 316.478 -0.803987 1.70826 0
M  V30 3342 O 315.835 -1.53755 0.983147 0
M  V30 3343 C 315.886 0.870209 3.5087 0
M  V30 3344 O 315.607 2.24156 3.76412 0
M  V30 3345 C 317.108 0.553164 4.39835 0
M  V30 3346 H 314.328 0.233931 0.628902 0
M  V30 3347 H 316.872 1.27649 1.59768 0
M  V30 3348 H 315.027 0.263652 3.86502 0
M  V30 3349 H 315.441 2.31021 4.70882 0
M  V30 3350 H 316.915 0.776342 5.46513 0
M  V30 3351 H 317.392 -0.512215 4.36203 0
M  V30 3352 H 317.998 1.13896 4.09766 0
M  V30 3353 N 316.313 -1.40141 0.720998 0
M  V30 3354 C 317.561 -2.0039 0.262323 0
M  V30 3355 C 317.882 -1.57469 -1.15015 0
M  V30 3356 O 317.152 -0.816582 -1.78069 0
M  V30 3357 H 315.732 -0.741063 0.093996 0
M  V30 3358 H 318.394 -1.71398 0.927835 0
M  V30 3359 H 317.49 -3.10658 0.299671 0
M  V30 3360 N 317.792 -0.46758 -1.50504 0
M  V30 3361 C 318.722 0.318381 -2.31319 0
M  V30 3362 C 319.703 0.993564 -1.38066 0
M  V30 3363 O 320.888 0.991411 -1.66987 0
M  V30 3364 C 318.018 1.40275 -3.17711 0
M  V30 3365 C 316.972 0.849373 -4.19487 0
M  V30 3366 C 316.298 2.03177 -4.94594 0
M  V30 3367 C 317.598 -0.136942 -5.2212 0
M  V30 3368 H 319.292 -0.356106 -2.97275 0
M  V30 3369 H 316.838 -0.172703 -1.42961 0
M  V30 3370 H 318.791 1.96004 -3.73042 0
M  V30 3371 H 317.515 2.10596 -2.49634 0
M  V30 3372 H 316.174 0.314076 -3.65252 0
M  V30 3373 H 315.822 2.72187 -4.22993 0
M  V30 3374 H 315.522 1.66774 -5.63436 0
M  V30 3375 H 317.046 2.59403 -5.52759 0
M  V30 3376 H 318.46 0.331056 -5.72343 0
M  V30 3377 H 316.857 -0.41507 -5.98663 0
M  V30 3378 H 317.927 -1.06398 -4.73083 0
M  V30 3379 N 319.27 1.56325 -0.20005 0
M  V30 3380 C 320.516 1.98012 0.438059 0
M  V30 3381 C 320.849 1.08702 1.60927 0
M  V30 3382 O 320.124 0.140064 1.93995 0
M  V30 3383 C 320.407 3.48841 0.893419 0
M  V30 3384 C 320.26 4.48928 -0.279947 0
M  V30 3385 C 321.579 4.03498 1.75719 0
M  V30 3386 H 318.698 0.719918 0.157757 0
M  V30 3387 H 321.34 1.87743 -0.291968 0
M  V30 3388 H 319.49 3.57723 1.51547 0
M  V30 3389 H 321.162 4.52079 -0.91772 0
M  V30 3390 H 319.405 4.23694 -0.930919 0
M  V30 3391 H 320.076 5.5194 0.0812601 0
M  V30 3392 H 322.552 3.97427 1.23253 0
M  V30 3393 H 321.428 5.09393 2.04476 0
M  V30 3394 H 321.689 3.4906 2.71311 0
M  V30 3395 N 320.748 -0.0735177 1.57428 0
M  V30 3396 C 321.996 -0.771472 1.86796 0
M  V30 3397 C 322.317 -1.78201 0.791804 0
M  V30 3398 O 321.587 -1.95074 -0.179718 0
M  V30 3399 H 320.167 -0.28791 0.689287 0
M  V30 3400 H 322.829 -0.0500161 1.94836 0
M  V30 3401 H 321.925 -1.28874 2.8425 0
M  V30 3402 N 322.226 -1.5378 -0.344866 0
M  V30 3403 C 323.156 -1.84662 -1.42906 0
M  V30 3404 C 324.137 -0.701648 -1.54955 0
M  V30 3405 O 325.322 -0.953438 -1.69184 0
M  V30 3406 C 322.452 -2.05503 -2.79974 0
M  V30 3407 C 321.406 -3.21318 -2.82734 0
M  V30 3408 C 320.732 -3.2749 -4.22675 0
M  V30 3409 C 322.032 -4.59456 -2.48389 0
M  V30 3410 H 323.726 -2.75461 -1.17311 0
M  V30 3411 H 321.272 -1.32542 -0.562896 0
M  V30 3412 H 323.225 -2.25691 -3.55867 0
M  V30 3413 H 321.949 -1.11434 -3.07002 0
M  V30 3414 H 320.608 -3.00984 -2.09294 0
M  V30 3415 H 320.256 -2.31019 -4.4681 0
M  V30 3416 H 319.956 -4.05316 -4.25433 0
M  V30 3417 H 321.48 -3.49887 -5.00412 0
M  V30 3418 H 322.894 -4.79667 -3.13995 0
M  V30 3419 H 321.291 -5.39675 -2.62432 0
M  V30 3420 H 322.361 -4.63155 -1.4358 0
M  V30 3421 N 323.704 0.605807 -1.45491 0
M  V30 3422 C 325.115 1.18777 -1.44045 0
M  V30 3423 C 325.466 1.95471 -0.169001 0
M  V30 3424 O 324.591 2.0374 0.729324 0
M  V30 3425 C 325.186 2.16064 -2.60963 0
M  V30 3426 C 323.745 2.69633 -2.62631 0
M  V30 3427 C 322.892 1.45072 -2.36325 0
M  V30 3428 H 325.843 0.395017 -1.53705 0
M  V30 3429 H 325.864 2.9913 -2.35163 0
M  V30 3430 H 325.376 1.60217 -3.53486 0
M  V30 3431 H 323.477 3.29414 -1.74119 0
M  V30 3432 H 323.59 3.13944 -3.61906 0
M  V30 3433 H 321.954 1.74089 -1.85917 0
M  V30 3434 H 322.737 0.910899 -3.30995 0
M  V30 3435 N 325.182 1.32811 0.848464 0
M  V30 3436 C 326.43 1.23479 1.59991 0
M  V30 3437 C 326.751 -0.201853 1.93952 0
M  V30 3438 O 326.021 -1.12818 1.60153 0
M  V30 3439 H 324.601 0.454034 0.593179 0
M  V30 3440 H 327.263 1.66412 1.01455 0
M  V30 3441 H 326.359 1.82178 2.53412 0
M  V30 3442 N 326.66 -1.06551 1.16123 0
M  V30 3443 C 327.937 -1.76097 0.85142 0
M  V30 3444 C 328.317 -2.00802 -0.6513 0
M  V30 3445 O 327.665 -1.63302 -1.59827 0
M  V30 3446 C 327.875 -3.06384 1.67122 0
M  V30 3447 C 329.223 -3.80585 1.88255 0
M  V30 3448 O 330.247 -3.16218 1.63966 0
M  V30 3449 O 329.106 -4.96212 2.2899 0
M  V30 3450 H 326.2 -0.765102 0.313923 0
M  V30 3451 H 328.746 -1.12844 1.26745 0
M  V30 3452 H 327.518 -2.84071 2.69108 0
M  V30 3453 H 327.141 -3.77371 1.25206 0
M  V30 3454 N 328.138 -0.959301 -1.25041 0
M  V30 3455 C 329.385 -0.616611 -1.92884 0
M  V30 3456 C 329.713 0.847036 -1.75087 0
M  V30 3457 O 328.968 1.62374 -1.09239 0
M  V30 3458 C 329.267 -0.927136 -3.45165 0
M  V30 3459 C 328.933 -2.37757 -3.83122 0
M  V30 3460 C 327.595 -2.77402 -3.93194 0
M  V30 3461 C 329.947 -3.31929 -4.01836 0
M  V30 3462 C 327.275 -4.10277 -4.19392 0
M  V30 3463 C 329.627 -4.64423 -4.29528 0
M  V30 3464 C 328.291 -5.03857 -4.37818 0
M  V30 3465 H 327.561 -0.225634 -0.705812 0
M  V30 3466 H 330.208 -1.20921 -1.48493 0
M  V30 3467 H 328.513 -0.252195 -3.90987 0
M  V30 3468 H 330.21 -0.6405 -3.95852 0
M  V30 3469 H 326.8 -2.06013 -3.75841 0
M  V30 3470 H 330.984 -3.02488 -3.93465 0
M  V30 3471 H 326.24 -4.40467 -4.24027 0
M  V30 3472 H 330.414 -5.37369 -4.42953 0
M  V30 3473 H 328.041 -6.06843 -4.57871 0
M  V30 3474 N 329.616 1.39756 -0.72842 0
M  V30 3475 C 330.844 2.04948 -0.283528 0
M  V30 3476 C 331.259 1.54908 1.0793 0
M  V30 3477 O 330.616 0.711135 1.68075 0
M  V30 3478 C 330.667 3.60498 -0.268957 0
M  V30 3479 O 330.388 4.08695 -1.57798 0
M  V30 3480 C 331.889 4.4288 0.192912 0
M  V30 3481 H 329.109 0.659243 -0.125056 0
M  V30 3482 H 331.653 1.78927 -0.990226 0
M  V30 3483 H 329.808 3.85444 0.388801 0
M  V30 3484 H 330.222 5.02977 -1.48709 0
M  V30 3485 H 331.696 5.51791 0.151952 0
M  V30 3486 H 332.173 4.21418 1.23708 0
M  V30 3487 H 332.779 4.23069 -0.435039 0
M  V30 3488 N 331.094 0.475555 1.50254 0
M  V30 3489 C 332.505 0.0215174 1.86688 0
M  V30 3490 C 332.856 -1.38467 1.39001 0
M  V30 3491 O 331.981 -2.02732 0.756894 0
M  V30 3492 C 332.576 0.0322715 3.38785 0
M  V30 3493 C 331.135 -0.366314 3.74613 0
M  V30 3494 C 330.282 0.415832 2.74164 0
M  V30 3495 H 333.233 0.689612 1.42934 0
M  V30 3496 H 333.254 -0.76889 3.7265 0
M  V30 3497 H 332.766 1.05584 3.73462 0
M  V30 3498 H 330.867 -1.39406 3.45538 0
M  V30 3499 H 330.98 -0.064555 4.79057 0
M  V30 3500 H 329.344 -0.131048 2.54363 0
M  V30 3501 H 330.127 1.43899 3.11686 0
M  V30 3502 N 332.573 -1.56217 0.208337 0
M  V30 3503 C 333.536 -2.18455 -0.693557 0
M  V30 3504 C 334.536 -1.14268 -1.13135 0
M  V30 3505 O 335.726 -1.39577 -1.0423 0
M  V30 3506 C 332.858 -2.79727 -1.94848 0
M  V30 3507 H 334.051 -2.99519 -0.15114 0
M  V30 3508 H 331.604 -1.56245 -0.041287 0
M  V30 3509 H 332.339 -2.02497 -2.53309 0
M  V30 3510 H 332.124 -3.56009 -1.64316 0
M  V30 3511 H 333.614 -3.27475 -2.59133 0
M  V30 3512 N 334.051 0.0651679 -1.57465 0
M  V30 3513 C 335.276 0.779605 -1.9219 0
M  V30 3514 C 335.701 1.69988 -0.805333 0
M  V30 3515 O 335.059 1.79685 0.241435 0
M  V30 3516 C 335.107 1.54364 -3.2589 0
M  V30 3517 O 334.211 2.65474 -3.1559 0
M  V30 3518 H 333.552 0.212249 -0.629163 0
M  V30 3519 H 336.082 0.0314294 -2.04576 0
M  V30 3520 H 336.092 1.92146 -3.59922 0
M  V30 3521 H 334.767 0.868457 -4.06732 0
M  V30 3522 H 333.344 2.30501 -2.93128 0
M  V30 3523 N 335.529 1.53961 0.336706 0
M  V30 3524 C 336.945 1.44378 0.680241 0
M  V30 3525 C 337.145 0.606034 1.9217 0
M  V30 3526 O 336.201 0.099688 2.52303 0
M  V30 3527 C 337.514 2.87945 0.8665 0
M  V30 3528 C 339.062 2.97763 0.964682 0
M  V30 3529 C 339.537 4.42453 1.18321 0
M  V30 3530 N 341.028 4.46008 1.25025 0
M  V30 3531 C 341.763 5.55102 1.43697 0
M  V30 3532 N 341.259 6.7419 1.59498 0
M  V30 3533 N 343.052 5.42727 1.463 0
M  V30 3534 H 335.203 2.06918 -0.479455 0
M  V30 3535 H 337.466 0.935634 -0.152619 0
M  V30 3536 H 337.172 3.51691 0.0256937 0
M  V30 3537 H 337.046 3.33293 1.76623 0
M  V30 3538 H 339.433 2.34153 1.796 0
M  V30 3539 H 339.514 2.55766 0.041708 0
M  V30 3540 H 339.158 5.06645 0.356788 0
M  V30 3541 H 339.088 4.82048 2.11985 0
M  V30 3542 H 341.579 3.60196 1.14312 0
M  V30 3543 H 341.892 7.53095 1.734 0
M  V30 3544 H 340.237 6.77123 1.56621 0
M  V30 3545 H 343.428 4.48647 1.33543 0
M  V30 3546 H 343.601 6.27806 1.6051 0
M  V30 3547 N 337.007 -0.598083 1.45811 0
M  V30 3548 C 338.254 -1.35681 1.50323 0
M  V30 3549 C 338.582 -1.9393 0.148739 0
M  V30 3550 O 337.837 -1.76094 -0.853787 0
M  V30 3551 C 338.136 -2.51669 2.53766 0
M  V30 3552 C 337.802 -2.11508 3.98215 0
M  V30 3553 C 336.464 -2.0027 4.37545 0
M  V30 3554 C 338.816 -1.80308 4.89018 0
M  V30 3555 C 336.144 -1.56067 5.65562 0
M  V30 3556 C 338.496 -1.37589 6.17456 0
M  V30 3557 C 337.16 -1.24916 6.55708 0
M  V30 3558 H 336.43 -0.496492 0.550069 0
M  V30 3559 H 339.077 -0.675052 1.79207 0
M  V30 3560 H 337.382 -3.25225 2.18486 0
M  V30 3561 H 339.079 -3.09895 2.54492 0
M  V30 3562 H 335.669 -2.21185 3.67117 0
M  V30 3563 H 339.853 -1.87884 4.59362 0
M  V30 3564 H 335.109 -1.44886 5.93985 0
M  V30 3565 H 339.283 -1.12495 6.87254 0
M  V30 3566 H 336.91 -0.904386 7.54801 0
M  V30 3567 N 338.485 -1.33259 -0.841409 0
M  V30 3568 C 339.734 -1.23921 -1.59143 0
M  V30 3569 C 340.047 0.1941 -1.94635 0
M  V30 3570 O 341.253 0.409474 -2.68394 0
M  V30 3571 C 339.709 -2.17119 -2.87032 0
M  V30 3572 C 339.317 -3.65606 -2.58914 0
M  V30 3573 C 341.061 -2.16648 -3.65053 0
M  V30 3574 C 338.968 -4.50726 -3.82884 0
M  V30 3575 H 337.898 -0.460264 -0.597221 0
M  V30 3576 H 340.549 -1.58307 -0.927959 0
M  V30 3577 H 338.931 -1.75663 -3.54906 0
M  V30 3578 H 340.105 -4.15487 -1.99267 0
M  V30 3579 H 338.42 -3.68341 -1.942 0
M  V30 3580 H 341.017 -2.77474 -4.57069 0
M  V30 3581 H 341.36 -1.16088 -3.99787 0
M  V30 3582 H 341.893 -2.56453 -3.041 0
M  V30 3583 H 338.632 -5.52151 -3.53283 0
M  V30 3584 H 338.152 -4.0559 -4.41879 0
M  V30 3585 H 339.831 -4.64401 -4.50489 0
M  V30 3586 N 339.963 1.05934 -1.16686 0
M  V30 3587 C 341.379 1.30938 -0.912542 0
M  V30 3588 C 341.579 1.96803 0.432533 0
M  V30 3589 O 340.635 2.23693 1.17123 0
M  V30 3590 C 341.948 2.18649 -2.06429 0
M  V30 3591 C 343.496 2.32055 -2.10047 0
M  V30 3592 C 343.971 3.23122 -3.24586 0
M  V30 3593 N 345.462 3.30706 -3.24327 0
M  V30 3594 C 346.197 4.01273 -4.09594 0
M  V30 3595 N 345.693 4.74332 -5.04956 0
M  V30 3596 N 347.486 3.97361 -3.97569 0
M  V30 3597 H 339.637 0.615777 -2.03278 0
M  V30 3598 H 341.9 0.334077 -0.887185 0
M  V30 3599 H 341.606 1.77534 -3.03603 0
M  V30 3600 H 341.48 3.19252 -2.00894 0
M  V30 3601 H 343.867 2.72415 -1.13464 0
M  V30 3602 H 343.948 1.31107 -2.19647 0
M  V30 3603 H 343.592 2.83477 -4.2143 0
M  V30 3604 H 343.522 4.24057 -3.12223 0
M  V30 3605 H 346.013 2.78644 -2.55276 0
M  V30 3606 H 346.326 5.25716 -5.6643 0
M  V30 3607 H 344.671 4.733 -5.08933 0
M  V30 3608 H 347.862 3.39405 -3.22369 0
M  V30 3609 H 348.035 4.52089 -4.64241 0
M  V30 3610 N 341.441 0.965919 1.2453 0
M  V30 3611 C 342.687 0.62776 1.92839 0
M  V30 3612 C 343.02 -0.834694 1.75347 0
M  V30 3613 O 342.295 -1.60031 1.10546 0
M  V30 3614 C 342.578 1.00109 3.45905 0
M  V30 3615 C 342.431 2.52011 3.72573 0
M  V30 3616 C 343.75 0.53435 4.36844 0
M  V30 3617 H 340.869 0.229537 0.700344 0
M  V30 3618 H 343.511 1.2046 1.46933 0
M  V30 3619 H 341.661 0.510238 3.85135 0
M  V30 3620 H 343.333 3.08559 3.42912 0
M  V30 3621 H 341.576 2.95287 3.17786 0
M  V30 3622 H 342.247 2.73183 4.79661 0
M  V30 3623 H 344.723 0.955565 4.04979 0
M  V30 3624 H 343.599 0.824152 5.42678 0
M  V30 3625 H 343.86 -0.565589 4.38467 0
M  V30 3626 N 342.919 -1.39368 0.735821 0
M  V30 3627 C 343.882 -2.2896 0.104874 0
M  V30 3628 C 344.882 -1.46347 -0.666274 0
M  V30 3629 O 346.072 -1.67014 -0.49517 0
M  V30 3630 C 343.204 -3.29857 -0.860656 0
M  V30 3631 H 344.397 -2.86259 0.894205 0
M  V30 3632 H 341.95 -1.48029 0.501704 0
M  V30 3633 H 342.685 -2.77615 -1.67631 0
M  V30 3634 H 342.47 -3.9087 -0.310327 0
M  V30 3635 H 343.96 -3.96893 -1.29867 0
M  V30 3636 N 344.397 -0.483516 -1.5 0
M  V30 3637 C 345.644 0.0671597 -2.02389 0
M  V30 3638 C 345.972 1.38597 -1.36459 0
M  V30 3639 O 345.227 1.89634 -0.483458 0
M  V30 3640 C 345.526 0.286226 -3.56252 0
M  V30 3641 C 345.192 -0.952416 -4.40726 0
M  V30 3642 C 343.854 -1.29199 -4.63531 0
M  V30 3643 C 346.206 -1.77655 -4.89988 0
M  V30 3644 C 343.534 -2.45553 -5.32842 0
M  V30 3645 C 345.886 -2.93147 -5.60578 0
M  V30 3646 C 344.55 -3.27505 -5.81633 0
M  V30 3647 H 343.82 0.0245755 -0.740592 0
M  V30 3648 H 346.467 -0.640124 -1.80485 0
M  V30 3649 H 344.772 1.07587 -3.76739 0
M  V30 3650 H 346.469 0.726473 -3.94365 0
M  V30 3651 H 343.059 -0.677881 -4.23205 0
M  V30 3652 H 347.243 -1.52737 -4.72213 0
M  V30 3653 H 342.499 -2.72431 -5.47349 0
M  V30 3654 H 346.673 -3.57344 -5.97727 0
M  V30 3655 H 344.3 -4.1777 -6.35116 0
M  V30 3656 N 345.875 1.56104 -0.216619 0
M  V30 3657 C 346.805 2.23063 0.690296 0
M  V30 3658 C 347.786 1.20072 1.20485 0
M  V30 3659 O 348.971 1.48643 1.24976 0
M  V30 3660 C 346.101 2.90672 1.90072 0
M  V30 3661 C 345.055 4.00092 1.5202 0
M  V30 3662 C 344.381 4.54972 2.80899 0
M  V30 3663 C 345.681 5.17398 0.71391 0
M  V30 3664 H 347.375 2.99109 0.132038 0
M  V30 3665 H 344.921 1.43866 0.0620664 0
M  V30 3666 H 346.874 3.36204 2.54057 0
M  V30 3667 H 345.598 2.12066 2.48386 0
M  V30 3668 H 344.257 3.55283 0.903839 0
M  V30 3669 H 343.905 3.73102 3.37348 0
M  V30 3670 H 343.605 5.28817 2.56176 0
M  V30 3671 H 345.129 5.0322 3.45836 0
M  V30 3672 H 346.543 5.59342 1.25735 0
M  V30 3673 H 344.94 5.97444 0.563951 0
M  V30 3674 H 346.01 4.84088 -0.280527 0
M  V30 3675 N 347.353 -0.0568162 1.57498 0
M  V30 3676 C 348.769 -0.411933 1.54192 0
M  V30 3677 C 348.969 -1.78287 0.938942 0
M  V30 3678 O 348.025 -2.46483 0.547919 0
M  V30 3679 C 349.338 -0.339244 2.9878 0
M  V30 3680 C 350.886 -0.418348 3.10192 0
M  V30 3681 C 351.361 -0.375407 4.56459 0
M  V30 3682 N 352.852 -0.435038 4.61153 0
M  V30 3683 C 353.587 -0.424265 5.71828 0
M  V30 3684 N 353.083 -0.367418 6.91825 0
M  V30 3685 N 354.876 -0.471938 5.60115 0
M  V30 3686 H 347.027 0.840684 1.95055 0
M  V30 3687 H 349.29 0.316987 0.893433 0
M  V30 3688 H 348.996 0.601742 3.46514 0
M  V30 3689 H 348.87 -1.14371 3.59443 0
M  V30 3690 H 351.257 -1.34976 2.62422 0
M  V30 3691 H 351.338 0.414962 2.52412 0
M  V30 3692 H 350.982 0.552219 5.04889 0
M  V30 3693 H 350.912 -1.22645 5.12119 0
M  V30 3694 H 353.403 -0.482612 3.74806 0
M  V30 3695 H 353.716 -0.363535 7.71944 0
M  V30 3696 H 352.061 -0.333879 6.94198 0
M  V30 3697 H 355.252 -0.514145 4.65268 0
M  V30 3698 H 355.425 -0.460073 6.46365 0
M  V30 3699 N 348.832 -1.54138 -0.328536 0
M  V30 3700 C 350.109 -1.62749 -1.08499 0
M  V30 3701 C 350.489 -0.458198 -2.06067 0
M  V30 3702 O 349.837 0.548046 -2.2183 0
M  V30 3703 C 350.047 -2.99519 -1.79135 0
M  V30 3704 C 351.395 -3.55394 -2.32337 0
M  V30 3705 O 352.419 -3.01792 -1.89209 0
M  V30 3706 O 351.278 -4.49186 -3.11279 0
M  V30 3707 H 348.372 -0.65886 -0.499832 0
M  V30 3708 H 350.918 -1.66484 -0.328826 0
M  V30 3709 H 349.69 -3.76061 -1.08139 0
M  V30 3710 H 349.313 -2.99441 -2.61574 0
M  V30 3711 N 350.31 0.590341 -1.46126 0
M  V30 3712 C 351.273 1.68194 -1.55703 0
M  V30 3713 C 352.273 1.54808 -0.434868 0
M  V30 3714 O 353.463 1.59564 -0.698928 0
M  V30 3715 C 350.595 3.07575 -1.47005 0
M  V30 3716 H 351.788 1.61064 -2.52979 0
M  V30 3717 H 349.341 0.807541 -1.33823 0
M  V30 3718 H 350.076 3.20268 -0.509785 0
M  V30 3719 H 349.861 3.187 -2.28414 0
M  V30 3720 H 351.351 3.87055 -1.56776 0
M  V30 3721 N 351.788 1.33704 0.83433 0
M  V30 3722 C 352.721 1.18675 1.94914 0
M  V30 3723 C 353.699 0.0811145 1.62398 0
M  V30 3724 O 354.883 0.244186 1.86912 0
M  V30 3725 C 352.01 0.821231 3.28593 0
M  V30 3726 C 351.056 1.93501 3.80079 0
M  V30 3727 S 351.889 3.54671 4.01209 0
M  V30 3728 C 353.045 3.20136 5.37833 0
M  V30 3729 H 353.278 2.13043 2.07364 0
M  V30 3730 H 350.811 1.18598 0.988624 0
M  V30 3731 H 352.769 0.617123 4.05835 0
M  V30 3732 H 351.43 -0.103927 3.13928 0
M  V30 3733 H 350.623 1.63273 4.76821 0
M  V30 3734 H 350.225 2.09601 3.09747 0
M  V30 3735 H 352.517 2.71242 6.20833 0
M  V30 3736 H 353.46 4.15975 5.73036 0
M  V30 3737 H 353.868 2.56613 5.02802 0
M  V30 3738 N 353.266 -1.05314 1.17247 0
M  V30 3739 C 354.515 -1.77685 0.954521 0
M  V30 3740 C 354.828 -1.88616 -0.518025 0
M  V30 3741 O 356.034 -2.57714 -0.854144 0
M  V30 3742 C 354.49 -3.19402 1.65863 0
M  V30 3743 C 354.098 -3.16605 3.16963 0
M  V30 3744 C 355.842 -3.96237 1.52303 0
M  V30 3745 C 353.749 -4.53103 3.80068 0
M  V30 3746 H 352.679 -0.666 0.353496 0
M  V30 3747 H 355.33 -1.1805 1.40486 0
M  V30 3748 H 353.712 -3.79355 1.13602 0
M  V30 3749 H 354.886 -2.66176 3.76148 0
M  V30 3750 H 353.201 -2.53268 3.30521 0
M  V30 3751 H 355.798 -4.97157 1.96822 0
M  V30 3752 H 356.141 -4.136 0.473401 0
M  V30 3753 H 356.674 -3.42829 2.01775 0
M  V30 3754 H 353.413 -4.40946 4.85023 0
M  V30 3755 H 352.933 -5.03686 3.2567 0
M  V30 3756 H 354.612 -5.22045 3.82202 0
M  V30 3757 N 354.744 -0.972509 -1.24016 0
M  V30 3758 C 355.691 -0.505969 -2.25186 0
M  V30 3759 C 356.661 0.451009 -1.5986 0
M  V30 3760 O 357.846 0.360307 -1.87367 0
M  V30 3761 C 354.986 0.193089 -3.44559 0
M  V30 3762 C 354.099 -0.803222 -4.24467 0
M  V30 3763 C 353.234 -0.0797793 -5.3114 0
M  V30 3764 C 352.273 -1.06583 -6.02749 0
M  V30 3765 N 351.41 -0.372074 -7.01113 0
M  V30 3766 H 356.25 -1.37351 -2.64459 0
M  V30 3767 H 353.787 -0.688419 -1.29997 0
M  V30 3768 H 355.745 0.615125 -4.1264 0
M  V30 3769 H 354.375 1.02455 -3.06109 0
M  V30 3770 H 353.427 -1.34368 -3.55878 0
M  V30 3771 H 354.739 -1.55494 -4.73944 0
M  V30 3772 H 353.893 0.400015 -6.0538 0
M  V30 3773 H 352.632 0.704597 -4.82583 0
M  V30 3774 H 351.637 -1.55645 -5.27309 0
M  V30 3775 H 352.862 -1.85074 -6.53395 0
M  V30 3776 H 350.808 0.393238 -6.5482 0
M  V30 3777 H 350.725 -1.06258 -7.48495 0
M  V30 3778 H 351.993 0.0855932 -7.79453 0
M  V30 3779 N 356.222 1.38976 -0.743202 0
M  V30 3780 C 357.17 2.32394 -0.0978389 0
M  V30 3781 C 358.164 1.53486 0.716824 0
M  V30 3782 O 359.37 1.69092 0.617088 0
M  V30 3783 H 355.745 0.75189 -0.0128402 0
M  V30 3784 H 357.716 2.84441 -0.901981 0
M  V30 3785 C 356.465 3.38629 0.789036 0
M  V30 3786 H 355.788 3.99432 0.171559 0
M  V30 3787 H 357.228 4.06426 1.20807 0
M  V30 3788 C 355.687 2.76347 1.92702 0
M  V30 3789 O 356.217 2.64836 3.02034 0
M  V30 3790 N 354.423 2.34311 1.71891 0
M  V30 3791 H 353.97 2.43873 0.829675 0
M  V30 3792 H 353.928 1.9298 2.48205 0
M  V30 3793 N 357.7 0.491464 1.49741 0
M  V30 3794 C 358.977 -0.118984 1.95238 0
M  V30 3795 C 359.357 -1.55044 1.43264 0
M  V30 3796 O 358.705 -2.19287 0.642287 0
M  V30 3797 C 358.915 -0.0414187 3.48975 0
M  V30 3798 C 360.263 -0.220133 4.24029 0
M  V30 3799 O 361.287 -0.117055 3.56008 0
M  V30 3800 O 360.146 -0.430567 5.44801 0
M  V30 3801 H 357.24 -0.100536 0.820866 0
M  V30 3802 H 359.786 0.553322 1.60426 0
M  V30 3803 H 358.558 0.957214 3.79412 0
M  V30 3804 H 358.181 -0.754292 3.9038 0
M  V30 3805 N 359.178 -1.55987 0.224894 0
M  V30 3806 C 360.125 -2.20436 -0.68385 0
M  V30 3807 C 361.095 -1.16102 -1.18783 0
M  V30 3808 O 362.28 -1.4447 -1.24632 0
M  V30 3809 C 359.42 -2.89076 -1.88491 0
M  V30 3810 C 358.533 -4.08012 -1.41951 0
M  V30 3811 C 357.668 -4.64426 -2.5784 0
M  V30 3812 C 356.707 -5.75656 -2.08053 0
M  V30 3813 N 355.844 -6.26347 -3.17227 0
M  V30 3814 H 360.684 -2.97727 -0.12754 0
M  V30 3815 H 358.221 -1.47011 -0.0511978 0
M  V30 3816 H 360.179 -3.27059 -2.59014 0
M  V30 3817 H 358.809 -2.14298 -2.41405 0
M  V30 3818 H 357.861 -3.75492 -0.609095 0
M  V30 3819 H 359.173 -4.88375 -1.01447 0
M  V30 3820 H 358.327 -5.04869 -3.3644 0
M  V30 3821 H 357.066 -3.83233 -3.01635 0
M  V30 3822 H 356.071 -5.34712 -1.27916 0
M  V30 3823 H 357.296 -6.58686 -1.65255 0
M  V30 3824 H 355.242 -5.48067 -3.60497 0
M  V30 3825 H 355.159 -7.01843 -2.80986 0
M  V30 3826 H 356.427 -6.71447 -3.95953 0
M  V30 3827 N 360.656 0.0484629 -1.57525 0
M  V30 3828 C 361.933 0.777447 -1.79486 0
M  V30 3829 C 362.313 1.94597 -0.818251 0
M  V30 3830 O 361.661 2.28047 0.143767 0
M  V30 3831 C 361.871 1.22864 -3.26658 0
M  V30 3832 C 363.219 1.65251 -3.91123 0
M  V30 3833 O 364.243 1.32372 -3.3069 0
M  V30 3834 O 363.102 2.26207 -4.97486 0
M  V30 3835 H 360.196 0.374357 -0.737419 0
M  V30 3836 H 362.742 0.0267359 -1.69679 0
M  V30 3837 H 361.514 0.393589 -3.89316 0
M  V30 3838 H 361.137 2.03996 -3.41279 0
M  V30 3839 N 362.134 1.5431 0.320358 0
M  V30 3840 C 363.359 1.76954 1.08175 0
M  V30 3841 C 363.784 0.518193 1.80821 0
M  V30 3842 O 363.142 -0.530411 1.73368 0
M  V30 3843 C 363.19 2.96451 2.05303 0
M  V30 3844 O 362.294 2.68221 3.13259 0
M  V30 3845 H 361.635 0.586275 0.311733 0
M  V30 3846 H 364.165 2.01342 0.363676 0
M  V30 3847 H 364.175 3.23887 2.48116 0
M  V30 3848 H 362.85 3.87196 1.51829 0
M  V30 3849 H 361.427 2.51744 2.75099 0
M  V30 3850 N 363.613 -0.582584 1.46437 0
M  V30 3851 C 364.862 -1.337 1.5102 0
M  V30 3852 C 365.175 -1.94891 0.166359 0
M  V30 3853 O 366.381 -2.71351 0.0899954 0
M  V30 3854 C 364.837 -2.42315 2.66104 0
M  V30 3855 C 364.445 -1.87427 4.06909 0
M  V30 3856 C 366.189 -3.19099 2.79958 0
M  V30 3857 C 364.096 -2.93672 5.13333 0
M  V30 3858 H 363.026 -0.502619 0.562041 0
M  V30 3859 H 365.677 -0.621701 1.72647 0
M  V30 3860 H 364.059 -3.16645 2.37807 0
M  V30 3861 H 365.233 -1.19639 4.44998 0
M  V30 3862 H 363.548 -1.2331 3.97723 0
M  V30 3863 H 366.145 -3.9839 3.56636 0
M  V30 3864 H 366.488 -3.71695 1.87479 0
M  V30 3865 H 367.021 -2.51875 3.07902 0
M  V30 3866 H 363.76 -2.45962 6.07604 0
M  V30 3867 H 363.28 -3.59948 4.79789 0
M  V30 3868 H 364.959 -3.5762 5.39182 0
M  V30 3869 N 365.091 -1.34144 -0.827227 0
M  V30 3870 C 366.368 -1.16844 -1.56865 0
M  V30 3871 C 366.748 0.260654 -2.09485 0
M  V30 3872 O 366.096 1.26138 -1.9053 0
M  V30 3873 C 366.306 -2.21939 -2.6934 0
M  V30 3874 C 367.654 -2.56695 -3.3822 0
M  V30 3875 O 368.678 -2.20695 -2.79593 0
M  V30 3876 O 367.537 -3.18518 -4.44082 0
M  V30 3877 H 364.631 -0.452669 -0.692112 0
M  V30 3878 H 367.177 -1.45763 -0.868973 0
M  V30 3879 H 365.949 -3.17882 -2.28182 0
M  V30 3880 H 365.572 -1.94172 -3.46962 0
M  V30 3881 N 366.569 1.04691 -1.17803 0
M  V30 3882 C 367.499 2.14494 -0.92275 0
M  V30 3883 C 368.48 1.69546 0.137179 0
M  V30 3884 O 369.665 1.94195 -0.0141108 0
M  V30 3885 C 366.795 3.44491 -0.440803 0
M  V30 3886 C 365.749 4.03031 -1.4405 0
M  V30 3887 C 365.075 5.28432 -0.81631 0
M  V30 3888 C 366.375 4.39932 -2.81527 0
M  V30 3889 H 368.069 2.36107 -1.84103 0
M  V30 3890 H 365.615 1.1347 -0.886599 0
M  V30 3891 H 367.568 4.2066 -0.249602 0
M  V30 3892 H 366.292 3.22546 0.513025 0
M  V30 3893 H 364.951 3.28937 -1.61853 0
M  V30 3894 H 364.599 5.02792 0.144511 0
M  V30 3895 H 364.299 5.68559 -1.48371 0
M  V30 3896 H 365.823 6.07284 -0.635496 0
M  V30 3897 H 367.237 5.07113 -2.67412 0
M  V30 3898 H 365.634 4.9109 -3.44892 0
M  V30 3899 H 366.704 3.50045 -3.35554 0
M  V30 3900 N 368.047 0.979072 1.23499 0
M  V30 3901 C 369.296 0.642751 1.91185 0
M  V30 3902 C 369.609 -0.827253 1.77245 0
M  V30 3903 O 370.815 -1.27458 2.39722 0
M  V30 3904 C 369.271 1.09901 3.42709 0
M  V30 3905 C 368.879 2.59327 3.65313 0
M  V30 3906 C 370.623 0.836371 4.16179 0
M  V30 3907 C 368.53 2.98627 5.10467 0
M  V30 3908 H 367.46 0.236698 0.715884 0
M  V30 3909 H 370.111 1.1868 1.39955 0
M  V30 3910 H 368.493 0.48319 3.93041 0
M  V30 3911 H 369.667 3.26136 3.25533 0
M  V30 3912 H 367.982 2.83323 3.05151 0
M  V30 3913 H 370.579 1.10586 5.23139 0
M  V30 3914 H 370.922 -0.227509 4.15678 0
M  V30 3915 H 371.455 1.41371 3.71832 0
M  V30 3916 H 368.194 4.04133 5.16098 0
M  V30 3917 H 367.714 2.3651 5.51201 0
M  V30 3918 H 369.393 2.89159 5.78788 0
M  V30 3919 N 369.525 -1.3858 0.750561 0
M  V30 3920 C 370.435 -2.34278 0.122825 0
M  V30 3921 C 371.451 -1.59116 -0.704131 0
M  V30 3922 O 372.627 -1.91326 -0.628987 0
M  V30 3923 C 369.692 -3.38221 -0.762086 0
M  V30 3924 C 368.753 -4.29227 0.078896 0
M  V30 3925 C 367.986 -5.28205 -0.763874 0
M  V30 3926 O 368.209 -5.34112 -2.00201 0
M  V30 3927 O 367.143 -6.01618 -0.18428 0
M  V30 3928 H 370.969 -2.89649 0.913088 0
M  V30 3929 H 368.554 -1.40374 0.511417 0
M  V30 3930 H 370.436 -4.01872 -1.26793 0
M  V30 3931 H 369.111 -2.85211 -1.5309 0
M  V30 3932 H 368.018 -3.68747 0.630621 0
M  V30 3933 H 369.351 -4.85484 0.810289 0
M  V30 3934 N 371.003 -0.499398 -1.49478 0
M  V30 3935 C 372.25 0.0456899 -2.02448 0
M  V30 3936 C 372.578 1.37142 -1.37921 0
M  V30 3937 O 371.833 1.89111 -0.503544 0
M  V30 3938 C 372.132 0.248424 -3.56536 0
M  V30 3939 C 371.798 -0.999107 -4.39692 0
M  V30 3940 C 370.46 -1.34108 -4.62135 0
M  V30 3941 C 372.812 -1.82842 -4.88076 0
M  V30 3942 C 370.14 -2.51191 -5.30208 0
M  V30 3943 C 372.492 -2.99076 -5.57437 0
M  V30 3944 C 371.156 -3.33655 -5.78127 0
M  V30 3945 H 370.426 0.0167191 -0.740811 0
M  V30 3946 H 373.073 -0.65923 -1.79795 0
M  V30 3947 H 371.378 1.03586 -3.77859 0
M  V30 3948 H 373.075 0.684605 -3.95113 0
M  V30 3949 H 369.665 -0.722729 -4.22463 0
M  V30 3950 H 373.849 -1.57737 -4.70566 0
M  V30 3951 H 369.105 -2.78221 -5.44429 0
M  V30 3952 H 373.279 -3.63664 -5.93904 0
M  V30 3953 H 370.906 -4.24483 -6.30649 0
M  V30 3954 N 372.481 1.55866 -0.233164 0
M  V30 3955 C 373.728 1.98603 0.395374 0
M  V30 3956 C 374.056 1.12105 1.58942 0
M  V30 3957 O 373.311 0.168656 1.94972 0
M  V30 3958 C 373.61 3.46856 0.861724 0
M  V30 3959 C 373.276 4.50348 -0.223066 0
M  V30 3960 C 371.938 4.78371 -0.521038 0
M  V30 3961 C 374.29 5.12355 -0.956124 0
M  V30 3962 C 371.618 5.6568 -1.55638 0
M  V30 3963 C 373.97 6.00786 -1.98089 0
M  V30 3964 C 372.634 6.27148 -2.28565 0
M  V30 3965 H 371.904 0.726739 0.144677 0
M  V30 3966 H 374.551 1.88491 -0.338114 0
M  V30 3967 H 372.856 3.5423 1.67418 0
M  V30 3968 H 374.553 3.77302 1.35809 0
M  V30 3969 H 371.143 4.28596 0.0193234 0
M  V30 3970 H 375.327 4.90765 -0.739166 0
M  V30 3971 H 370.583 5.84365 -1.798 0
M  V30 3972 H 374.757 6.4788 -2.55391 0
M  V30 3973 H 372.384 6.94597 -3.08932 0
M  V30 3974 N 373.959 -0.0401083 1.57549 0
M  V30 3975 C 374.909 -1.05175 2.02292 0
M  V30 3976 C 375.893 -1.32674 0.910294 0
M  V30 3977 O 377.085 -1.32444 1.17421 0
M  V30 3978 C 374.214 -2.35622 2.49674 0
M  V30 3979 C 373.3 -2.11261 3.67736 0
M  V30 3980 N 373.691 -1.56923 4.80842 0
M  V30 3981 C 371.989 -2.41596 3.74897 0
M  V30 3982 C 372.69 -1.48111 5.62528 0
M  V30 3983 N 371.666 -1.95282 5.07312 0
M  V30 3984 H 375.468 -0.625455 2.87168 0
M  V30 3985 H 372.982 -0.246624 1.60516 0
M  V30 3986 H 374.979 -3.08893 2.79983 0
M  V30 3987 H 373.639 -2.7894 1.662 0
M  V30 3988 H 374.65 -1.25345 5.02503 0
M  V30 3989 H 371.327 -2.88064 3.02201 0
M  V30 3990 H 372.717 -1.06683 6.63377 0
M  V30 3991 N 375.437 -1.54477 -0.31217 0
M  V30 3992 C 376.686 -1.72438 -1.04633 0
M  V30 3993 C 376.999 -0.511163 -1.88803 0
M  V30 3994 O 378.205 -0.572341 -2.65399 0
M  V30 3995 C 376.661 -3.05043 -1.9099 0
M  V30 3996 C 376.269 -4.33806 -1.11877 0
M  V30 3997 C 378.013 -3.32364 -2.64073 0
M  V30 3998 C 375.92 -5.57467 -1.97445 0
M  V30 3999 H 374.85 -0.642647 -0.394361 0
M  V30 4000 H 377.501 -1.80966 -0.303929 0
M  V30 4001 H 375.883 -2.90451 -2.69173 0
M  V30 4002 H 377.057 -4.59199 -0.383843 0
M  V30 4003 H 375.372 -4.13336 -0.504252 0
M  V30 4004 H 377.969 -4.21951 -3.28423 0
M  V30 4005 H 378.312 -2.50745 -3.32314 0
M  V30 4006 H 378.845 -3.47875 -1.92944 0
M  V30 4007 H 375.584 -6.41722 -1.33692 0
M  V30 4008 H 375.104 -5.36277 -2.6864 0
M  V30 4009 H 376.783 -5.94303 -2.5576 0
M  V30 4010 N 376.915 0.57481 -1.46744 0
M  V30 4011 C 377.845 1.69337 -1.60771 0
M  V30 4012 C 378.826 1.63825 -0.457736 0
M  V30 4013 O 380.011 1.8172 -0.684947 0
M  V30 4014 C 377.141 3.0798 -1.60517 0
M  V30 4015 C 376.095 3.28327 -2.74564 0
M  V30 4016 C 375.421 4.67578 -2.59373 0
M  V30 4017 C 376.721 3.15398 -4.16319 0
M  V30 4018 H 378.415 1.57853 -2.54407 0
M  V30 4019 H 375.961 0.75799 -1.22436 0
M  V30 4020 H 377.914 3.86061 -1.68923 0
M  V30 4021 H 376.638 3.20381 -0.634305 0
M  V30 4022 H 375.297 2.52649 -2.65639 0
M  V30 4023 H 374.945 4.76755 -1.60353 0
M  V30 4024 H 374.645 4.82144 -3.35873 0
M  V30 4025 H 376.169 5.47817 -2.69682 0
M  V30 4026 H 377.583 3.83315 -4.26313 0
M  V30 4027 H 375.98 3.41482 -4.93468 0
M  V30 4028 H 377.05 2.12372 -4.3592 0
M  V30 4029 N 378.394 1.34581 0.820102 0
M  V30 4030 C 379.342 1.26401 1.95258 0
M  V30 4031 C 380.336 0.161553 1.68628 0
M  V30 4032 O 381.542 0.326703 1.7701 0
M  V30 4033 H 377.917 0.392749 0.64129 0
M  V30 4034 H 379.888 2.22105 1.99279 0
M  V30 4035 C 378.637 1.03919 3.31807 0
M  V30 4036 H 377.96 1.87984 3.52848 0
M  V30 4037 H 379.4 1.02232 4.11491 0
M  V30 4038 C 377.859 -0.257433 3.35915 0
M  V30 4039 O 378.389 -1.25784 3.81499 0
M  V30 4040 N 376.595 -0.291524 2.89134 0
M  V30 4041 H 376.142 0.523161 2.52232 0
M  V30 4042 H 376.1 -1.15883 2.92264 0
M  V30 4043 N 379.872 -1.04064 1.18357 0
M  V30 4044 C 380.82 -2.14187 0.907007 0
M  V30 4045 C 381.814 -1.68879 -0.132725 0
M  V30 4046 O 383.02 -1.79993 0.0154248 0
M  V30 4047 H 379.395 -0.699585 0.275835 0
M  V30 4048 H 381.366 -2.34711 1.84264 0
M  V30 4049 C 380.115 -3.44785 0.449254 0
M  V30 4050 H 379.438 -3.80058 1.24081 0
M  V30 4051 H 380.878 -4.22974 0.294737 0
M  V30 4052 C 379.337 -3.26391 -0.834909 0
M  V30 4053 O 379.867 -3.53973 -1.89911 0
M  V30 4054 N 378.073 -2.79726 -0.787523 0
M  V30 4055 H 377.62 -2.5748 0.0787347 0
M  V30 4056 H 377.578 -2.67798 -1.64716 0
M  V30 4057 N 381.35 -0.985608 -1.22978 0
M  V30 4058 C 382.596 -0.65836 -1.91816 0
M  V30 4059 C 382.929 0.806692 -1.76653 0
M  V30 4060 O 382.204 1.58252 -1.13078 0
M  V30 4061 C 382.487 -1.056 -3.44268 0
M  V30 4062 C 382.34 -2.57906 -3.68516 0
M  V30 4063 C 383.659 -0.603781 -4.35939 0
M  V30 4064 H 380.778 -0.24065 -0.696604 0
M  V30 4065 H 383.42 -1.22783 -1.44998 0
M  V30 4066 H 381.57 -0.571445 -3.84274 0
M  V30 4067 H 383.242 -3.13976 -3.3796 0
M  V30 4068 H 381.485 -3.00305 -3.13048 0
M  V30 4069 H 382.156 -2.80779 -4.75255 0
M  V30 4070 H 384.632 -1.01987 -4.03408 0
M  V30 4071 H 383.508 -0.910383 -5.41298 0
M  V30 4072 H 383.769 0.495761 -4.39312 0
M  V30 4073 N 382.828 1.3818 -0.7579 0
M  V30 4074 C 383.791 2.28764 -0.141286 0
M  V30 4075 C 384.791 1.47388 0.642907 0
M  V30 4076 O 385.981 1.67781 0.468536 0
M  V30 4077 C 383.113 3.31184 0.808069 0
M  V30 4078 H 384.306 2.848 -0.939633 0
M  V30 4079 H 381.859 1.47212 -0.525191 0
M  V30 4080 H 382.594 2.80247 1.63193 0
M  V30 4081 H 382.379 3.91314 0.248104 0
M  V30 4082 H 383.869 3.98909 1.23536 0
M  V30 4083 N 384.306 0.507319 1.49211 0
M  V30 4084 C 385.239 -0.314509 2.26022 0
M  V30 4085 C 386.217 -0.964849 1.30879 0
M  V30 4086 O 387.401 -0.993707 1.6018 0
M  V30 4087 C 384.528 -1.44346 3.06402 0
M  V30 4088 C 383.574 -0.90685 4.16748 0
M  V30 4089 S 384.407 0.207392 5.35098 0
M  V30 4090 C 385.563 -0.924573 6.19033 0
M  V30 4091 H 385.796 0.337416 2.95379 0
M  V30 4092 H 383.329 0.292718 1.516 0
M  V30 4093 H 385.287 -2.09029 3.53295 0
M  V30 4094 H 383.948 -2.06702 2.36502 0
M  V30 4095 H 383.141 -1.75309 4.72528 0
M  V30 4096 H 382.743 -0.33712 3.72478 0
M  V30 4097 H 385.035 -1.82839 6.52362 0
M  V30 4098 H 385.978 -0.405248 7.06939 0
M  V30 4099 H 386.386 -1.19476 5.51712 0
M  V30 4100 N 385.784 -1.5574 0.241426 0
M  V30 4101 C 387.03 -1.99104 -0.385406 0
M  V30 4102 C 387.363 -1.1293 -1.57988 0
M  V30 4103 O 386.638 -0.191449 -1.93555 0
M  V30 4104 C 386.921 -3.51087 -0.800616 0
M  V30 4105 C 386.774 -4.48028 0.398874 0
M  V30 4106 C 388.093 -4.08015 -1.64959 0
M  V30 4107 H 385.212 -0.723848 -0.138614 0
M  V30 4108 H 387.854 -1.86903 0.341642 0
M  V30 4109 H 386.004 -3.61615 -1.4201 0
M  V30 4110 H 387.676 -4.49487 1.03726 0
M  V30 4111 H 385.919 -4.21077 1.04293 0
M  V30 4112 H 386.59 -5.51962 0.0651056 0
M  V30 4113 H 389.066 -4.00555 -1.12672 0
M  V30 4114 H 387.942 -5.14635 -1.90898 0
M  V30 4115 H 388.203 -3.56131 -2.61961 0
M  V30 4116 N 387.262 0.0317525 -1.57568 0
M  V30 4117 C 388.678 0.38735 -1.54828 0
M  V30 4118 C 388.878 1.7677 -0.967187 0
M  V30 4119 O 387.934 2.45581 -0.587063 0
M  V30 4120 C 389.247 0.291667 -2.99282 0
M  V30 4121 C 390.795 0.368946 -3.10818 0
M  V30 4122 C 391.27 0.302741 -4.56998 0
M  V30 4123 N 392.761 0.361617 -4.61786 0
M  V30 4124 C 393.496 0.333238 -5.72431 0
M  V30 4125 N 392.992 0.257308 -6.92322 0
M  V30 4126 N 394.785 0.382769 -5.60795 0
M  V30 4127 H 386.936 -0.871609 -1.93692 0
M  V30 4128 H 389.199 -0.331161 -0.888277 0
M  V30 4129 H 388.905 -0.656794 -3.45513 0
M  V30 4130 H 388.779 1.08638 -3.61217 0
M  V30 4131 H 391.166 1.30784 -2.64536 0
M  V30 4132 H 391.247 -0.455066 -2.5172 0
M  V30 4133 H 390.891 -0.632473 -5.03947 0
M  V30 4134 H 390.821 1.14482 -5.14005 0
M  V30 4135 H 393.312 0.422923 -3.75526 0
M  V30 4136 H 393.625 0.24068 -7.72425 0
M  V30 4137 H 391.97 0.223396 -6.94641 0
M  V30 4138 H 395.161 0.44006 -4.66027 0
M  V30 4139 H 395.334 0.357184 -6.47015 0
M  V30 4140 N 388.74 1.54641 0.303973 0
M  V30 4141 C 389.988 1.73437 1.0375 0
M  V30 4142 C 390.309 0.521449 1.87899 0
M  V30 4143 O 389.579 -0.46432 1.90318 0
M  V30 4144 H 388.159 0.639518 0.386039 0
M  V30 4145 H 390.821 1.91988 0.335675 0
M  V30 4146 H 389.917 2.62235 1.69231 0
M  V30 4147 N 390.218 -0.567019 1.47046 0
M  V30 4148 C 391.443 -1.3551 1.57009 0
M  V30 4149 C 391.868 -1.86841 0.217259 0
M  V30 4150 O 391.226 -1.62435 -0.805268 0
M  V30 4151 C 391.274 -2.50777 2.5912 0
M  V30 4152 O 390.378 -3.52706 2.13711 0
M  V30 4153 H 389.719 -0.402919 0.52778 0
M  V30 4154 H 392.249 -0.686241 1.92748 0
M  V30 4155 H 392.259 -2.97481 2.79229 0
M  V30 4156 H 390.934 -2.12771 3.57353 0
M  V30 4157 H 389.511 -3.12374 2.03659 0
M  V30 4158 N 391.696 -1.35014 -0.812953 0
M  V30 4159 C 392.924 -1.31031 -1.6012 0
M  V30 4160 C 393.339 0.113558 -1.88458 0
M  V30 4161 O 392.696 1.06363 -1.48301 0
M  V30 4162 C 392.747 -2.10872 -2.93624 0
M  V30 4163 O 392.468 -3.47706 -2.66518 0
M  V30 4164 C 393.969 -2.14401 -3.88004 0
M  V30 4165 H 391.189 -0.45037 -0.497401 0
M  V30 4166 H 393.733 -1.77775 -1.01076 0
M  V30 4167 H 391.888 -1.67744 -3.492 0
M  V30 4168 H 392.302 -3.89097 -3.51715 0
M  V30 4169 H 393.776 -2.74669 -4.78812 0
M  V30 4170 H 394.253 -1.14105 -4.24119 0
M  V30 4171 H 394.859 -2.57662 -3.38364 0
M  V30 4172 N 393.175 1.03435 -1.18907 0
M  V30 4173 C 394.591 1.28973 -0.940111 0
M  V30 4174 C 394.791 1.97676 0.390691 0
M  V30 4175 O 393.847 2.26127 1.12352 0
M  V30 4176 C 395.16 2.14221 -2.11021 0
M  V30 4177 C 396.708 2.27547 -2.14922 0
M  V30 4178 C 397.183 3.16164 -3.31367 0
M  V30 4179 N 398.674 3.23752 -3.31269 0
M  V30 4180 C 399.409 3.92495 -4.18014 0
M  V30 4181 N 398.905 4.63515 -5.14904 0
M  V30 4182 N 400.698 3.88838 -4.05908 0
M  V30 4183 H 392.849 0.57252 -2.04538 0
M  V30 4184 H 395.112 0.315184 -0.894071 0
M  V30 4185 H 394.818 1.71054 -3.073 0
M  V30 4186 H 394.692 3.14919 -2.0762 0
M  V30 4187 H 397.079 2.69947 -1.19217 0
M  V30 4188 H 397.16 1.26418 -2.22378 0
M  V30 4189 H 396.804 2.74474 -4.27348 0
M  V30 4190 H 396.734 4.17339 -3.21148 0
M  V30 4191 H 399.225 2.73167 -2.61129 0
M  V30 4192 H 399.538 5.13583 -5.77453 0
M  V30 4193 H 397.883 4.62398 -5.18857 0
M  V30 4194 H 401.074 3.32491 -3.29495 0
M  V30 4195 H 401.247 4.4214 -4.73726 0
M  V30 4196 N 394.653 0.992116 1.22453 0
M  V30 4197 C 395.881 0.685944 1.95198 0
M  V30 4198 C 396.296 -0.749233 1.73297 0
M  V30 4199 O 395.653 -1.50549 1.03156 0
M  V30 4200 C 395.704 0.981395 3.47924 0
M  V30 4201 O 395.425 2.36018 3.6909 0
M  V30 4202 C 396.926 0.692815 4.37853 0
M  V30 4203 H 394.146 0.253821 0.621141 0
M  V30 4204 H 396.69 1.32668 1.55626 0
M  V30 4205 H 394.845 0.386481 3.85467 0
M  V30 4206 H 395.259 2.45884 4.63294 0
M  V30 4207 H 396.733 0.949818 5.43767 0
M  V30 4208 H 397.21 -0.373181 4.37612 0
M  V30 4209 H 397.816 1.26874 4.05935 0
M  V30 4210 N 396.131 -1.37776 0.765217 0
M  V30 4211 C 397.377 -2.00145 0.327072 0
M  V30 4212 C 397.71 -1.60607 -1.09175 0
M  V30 4213 O 396.985 -0.849127 -1.74986 0
M  V30 4214 C 397.268 -3.57109 0.46319 0
M  V30 4215 C 397.121 -4.06576 1.92395 0
M  V30 4216 C 398.44 -4.39888 -0.136473 0
M  V30 4217 H 395.559 -0.727113 0.120316 0
M  V30 4218 H 398.201 -1.63549 0.967039 0
M  V30 4219 H 396.351 -3.88414 -0.0816358 0
M  V30 4220 H 398.023 -3.85864 2.52798 0
M  V30 4221 H 396.266 -3.59011 2.43503 0
M  V30 4222 H 396.937 -5.15639 1.97028 0
M  V30 4223 H 399.413 -4.14803 0.328317 0
M  V30 4224 H 398.289 -5.48899 -0.0110582 0
M  V30 4225 H 398.55 -4.24758 -1.22608 0
M  V30 4226 N 397.609 -0.515225 -1.4894 0
M  V30 4227 C 398.519 0.259774 -2.33157 0
M  V30 4228 C 399.535 0.953501 -1.45548 0
M  V30 4229 O 400.711 0.931735 -1.78552 0
M  V30 4230 C 397.776 1.30193 -3.21326 0
M  V30 4231 C 396.837 0.620129 -4.24797 0
M  V30 4232 C 396.07 1.61263 -5.08753 0
M  V30 4233 O 396.293 2.84389 -4.94448 0
M  V30 4234 O 395.227 1.16013 -5.90614 0
M  V30 4235 H 399.053 -0.429932 -3.00641 0
M  V30 4236 H 396.638 -0.276346 -1.46822 0
M  V30 4237 H 398.52 1.90455 -3.75905 0
M  V30 4238 H 397.195 1.97431 -2.56521 0
M  V30 4239 H 396.102 -0.0226019 -3.74093 0
M  V30 4240 H 397.435 -0.0100493 -4.92199 0
M  V30 4241 N 399.087 1.5561 -0.249682 0
M  V30 4242 C 399.997 2.25143 0.659375 0
M  V30 4243 C 401.013 1.2685 1.19101 0
M  V30 4244 O 402.189 1.59732 1.22669 0
M  V30 4245 C 399.254 2.93945 1.8384 0
M  V30 4246 C 398.315 4.07655 1.34596 0
M  V30 4247 C 397.548 4.73167 2.46878 0
M  V30 4248 O 397.771 4.37768 3.65671 0
M  V30 4249 O 396.705 5.61623 2.16478 0
M  V30 4250 H 400.531 3.03545 0.0968698 0
M  V30 4251 H 398.116 1.49389 -0.018074 0
M  V30 4252 H 399.998 3.37271 2.52638 0
M  V30 4253 H 398.673 2.18481 2.38847 0
M  V30 4254 H 397.58 3.68839 0.625174 0
M  V30 4255 H 398.913 4.84946 0.841941 0
M  V30 4256 N 400.565 -0.0233959 1.57583 0
M  V30 4257 C 401.512 -1.02224 2.06927 0
M  V30 4258 C 402.482 -1.35575 0.959617 0
M  V30 4259 O 403.667 -1.45815 1.23055 0
M  V30 4260 C 400.807 -2.31636 2.5581 0
M  V30 4261 C 399.92 -2.04394 3.80588 0
M  V30 4262 C 399.055 -3.27717 4.18061 0
M  V30 4263 C 398.094 -2.96056 5.3574 0
M  V30 4264 N 397.231 -4.11847 5.68618 0
M  V30 4265 H 402.071 -0.594504 2.9201 0
M  V30 4266 H 399.608 -0.281921 1.44373 0
M  V30 4267 H 401.566 -3.07258 2.82221 0
M  V30 4268 H 400.196 -2.72122 1.73636 0
M  V30 4269 H 399.248 -1.19244 3.61227 0
M  V30 4270 H 400.56 -1.77042 4.66323 0
M  V30 4271 H 399.714 -4.11702 4.4563 0
M  V30 4272 H 398.453 -3.58188 3.30988 0
M  V30 4273 H 397.458 -2.10474 5.07918 0
M  V30 4274 H 398.683 -2.66857 6.24471 0
M  V30 4275 H 396.629 -4.42258 4.84504 0
M  V30 4276 H 396.546 -3.87938 6.48876 0
M  V30 4277 H 397.814 -4.96689 6.00766 0
M  V30 4278 N 402.043 -1.548 -0.295768 0
M  V30 4279 C 403.268 -1.78653 -1.05346 0
M  V30 4280 C 403.693 -0.546894 -1.79974 0
M  V30 4281 O 403.051 0.502763 -1.7419 0
M  V30 4282 C 403.099 -2.99679 -2.00561 0
M  V30 4283 O 402.203 -2.7317 -3.08953 0
M  V30 4284 H 401.544 -0.59116 -0.302367 0
M  V30 4285 H 404.074 -2.01895 -0.331598 0
M  V30 4286 H 404.084 -3.27793 -2.42932 0
M  V30 4287 H 402.759 -3.89562 -1.4565 0
M  V30 4288 H 401.336 -2.56089 -2.71059 0
M  V30 4289 N 403.521 0.559213 -1.47345 0
M  V30 4290 C 404.798 1.31997 -1.44348 0
M  V30 4291 C 405.178 2.1064 -0.139358 0
M  V30 4292 O 404.526 2.1091 0.879153 0
M  V30 4293 C 404.736 2.22618 -2.68779 0
M  V30 4294 C 406.084 2.83701 -3.1591 0
M  V30 4295 O 407.108 2.32921 -2.69493 0
M  V30 4296 O 405.967 3.75993 -3.966 0
M  V30 4297 H 403.061 0.594251 -0.575147 0
M  V30 4298 H 405.607 0.578282 -1.59543 0
M  V30 4299 H 404.379 1.64093 -3.55231 0
M  V30 4300 H 404.002 3.04085 -2.5616 0
M  V30 4301 N 404.999 1.35443 0.805782 0
M  V30 4302 C 405.929 1.31095 1.93226 0
M  V30 4303 C 406.91 0.185244 1.69088 0
M  V30 4304 O 408.095 0.380332 1.90439 0
M  V30 4305 C 405.225 1.08299 3.29983 0
M  V30 4306 C 404.179 2.17519 3.68605 0
M  V30 4307 C 403.505 1.79887 5.03532 0
M  V30 4308 C 404.805 3.5949 3.78898 0
M  V30 4309 H 406.499 2.25352 1.97122 0
M  V30 4310 H 404.045 1.0848 0.946996 0
M  V30 4311 H 405.998 1.03897 4.08391 0
M  V30 4312 H 404.722 0.104885 3.26432 0
M  V30 4313 H 403.381 2.2102 2.92482 0
M  V30 4314 H 403.029 0.80693 4.96485 0
M  V30 4315 H 402.729 2.53001 5.30344 0
M  V30 4316 H 404.253 1.77011 5.84379 0
M  V30 4317 H 405.667 3.58307 4.47536 0
M  V30 4318 H 404.064 4.31371 4.1718 0
M  V30 4319 H 405.134 3.95584 2.80431 0
M  V30 4320 N 406.477 -1.02803 1.19454 0
M  V30 4321 C 407.705 -1.79841 1.02297 0
M  V30 4322 C 408.12 -1.83879 -0.428259 0
M  V30 4323 O 407.477 -1.28345 -1.29745 0
M  V30 4324 C 407.528 -3.24852 1.58598 0
M  V30 4325 O 407.249 -3.21097 2.98041 0
M  V30 4326 C 408.75 -4.18485 1.46236 0
M  V30 4327 H 405.97 -0.565936 0.360496 0
M  V30 4328 H 408.514 -1.2948 1.58288 0
M  V30 4329 H 406.669 -3.72401 1.06753 0
M  V30 4330 H 407.083 -4.12033 3.24545 0
M  V30 4331 H 408.557 -5.18121 1.90407 0
M  V30 4332 H 409.034 -4.37254 0.41301 0
M  V30 4333 H 409.64 -3.76811 1.97215 0
M  V30 4334 N 407.956 -0.998596 -1.21925 0
M  V30 4335 C 408.888 -0.511879 -2.23411 0
M  V30 4336 C 409.901 0.396094 -1.57908 0
M  V30 4337 O 411.09 0.197316 -1.77406 0
M  V30 4338 C 408.19 0.276802 -3.37768 0
M  V30 4339 C 407.363 -0.628687 -4.32858 0
M  V30 4340 C 406.422 0.109272 -5.26087 0
M  V30 4341 O 405.448 -0.507237 -5.66935 0
M  V30 4342 N 406.65 1.38983 -5.63617 0
M  V30 4343 H 409.415 -1.38457 -2.658 0
M  V30 4344 H 406.976 -0.873981 -1.36283 0
M  V30 4345 H 408.968 0.77928 -3.97126 0
M  V30 4346 H 407.538 1.05063 -2.94415 0
M  V30 4347 H 406.758 -1.31175 -3.71735 0
M  V30 4348 H 408.046 -1.24514 -4.93329 0
M  V30 4349 H 407.444 1.91194 -5.32411 0
M  V30 4350 H 406.001 1.83739 -6.25367 0
M  V30 4351 N 409.434 1.37368 -0.772513 0
M  V30 4352 C 410.664 2.03647 -0.348082 0
M  V30 4353 C 411.072 1.58392 1.03482 0
M  V30 4354 O 410.415 0.760921 1.672 0
M  V30 4355 C 410.477 3.58131 -0.313404 0
M  V30 4356 C 410.141 4.2652 -1.64102 0
M  V30 4357 C 411.138 4.50587 -2.5936 0
M  V30 4358 C 408.823 4.64335 -1.91567 0
M  V30 4359 C 410.817 5.11526 -3.80289 0
M  V30 4360 C 408.504 5.24996 -3.12766 0
M  V30 4361 C 409.502 5.48529 -4.06946 0
M  V30 4362 O 409.19 6.07921 -5.26011 0
M  V30 4363 H 408.922 0.660538 -0.143753 0
M  V30 4364 H 411.476 1.76669 -1.04772 0
M  V30 4365 H 409.706 3.84159 0.442617 0
M  V30 4366 H 411.395 4.05813 0.0840613 0
M  V30 4367 H 412.161 4.21784 -2.39423 0
M  V30 4368 H 408.04 4.45353 -1.19088 0
M  V30 4369 H 411.584 5.29811 -4.53813 0
M  V30 4370 H 407.481 5.53223 -3.32588 0
M  V30 4371 H 408.249 6.26398 -5.26847 0
M  V30 4372 N 410.912 0.523116 1.48665 0
M  V30 4373 C 412.14 -0.0096312 2.06898 0
M  V30 4374 C 412.555 -1.28784 1.38059 0
M  V30 4375 O 411.912 -1.76453 0.465893 0
M  V30 4376 C 411.963 -0.244386 3.60673 0
M  V30 4377 O 411.684 0.983172 4.26925 0
M  V30 4378 C 413.185 -0.818289 4.35682 0
M  V30 4379 H 410.405 0.0304161 0.67031 0
M  V30 4380 H 412.949 0.726799 1.91149 0
M  V30 4381 H 411.104 -0.930847 3.76051 0
M  V30 4382 H 411.518 0.759653 5.1897 0
M  V30 4383 H 412.992 -0.93201 5.44075 0
M  V30 4384 H 413.469 -1.82153 3.99646 0
M  V30 4385 H 414.075 -0.168609 4.24966 0
M  V30 4386 N 412.39 -1.55475 0.257931 0
M  V30 4387 C 413.615 -2.04064 -0.370488 0
M  V30 4388 C 414.04 -1.13565 -1.49948 0
M  V30 4389 O 413.398 -0.130781 -1.80828 0
M  V30 4390 C 413.446 -3.50554 -0.845237 0
M  V30 4391 O 412.55 -3.63173 -1.95394 0
M  V30 4392 H 411.891 -0.659257 -0.0792243 0
M  V30 4393 H 414.421 -2.00903 0.387212 0
M  V30 4394 H 414.431 -3.91588 -1.14555 0
M  V30 4395 H 413.106 -4.15896 -0.0191259 0
M  V30 4396 H 411.683 -3.34039 -1.65748 0
M  V30 4397 N 413.868 0.0150385 -1.57593 0
M  V30 4398 C 415.108 0.70768 -1.91758 0
M  V30 4399 C 415.472 1.71764 -0.857974 0
M  V30 4400 O 416.673 2.45956 -1.0844 0
M  V30 4401 C 414.944 1.34736 -3.3103 0
M  V30 4402 S 416.503 2.06721 -3.87056 0
M  V30 4403 H 413.321 0.234119 -0.671349 0
M  V30 4404 H 415.923 -0.0380373 -1.95463 0
M  V30 4405 H 414.627 0.59926 -4.06001 0
M  V30 4406 H 414.158 2.13133 -3.30663 0
M  V30 4407 H 416.173 3.34047 -3.66915 0
M  V30 4408 N 415.346 1.54954 0.287554 0
M  V30 4409 C 416.279 1.81737 1.3801 0
M  V30 4410 C 417.257 0.669412 1.48181 0
M  V30 4411 O 418.441 0.910839 1.65033 0
M  V30 4412 C 415.568 1.96606 2.75796 0
M  V30 4413 C 414.614 3.19098 2.82982 0
M  V30 4414 S 415.447 4.7683 2.43707 0
M  V30 4415 C 416.603 4.94653 3.83496 0
M  V30 4416 H 416.836 2.74122 1.15085 0
M  V30 4417 H 414.369 1.46538 0.486403 0
M  V30 4418 H 416.327 2.05858 3.55152 0
M  V30 4419 H 414.988 1.05136 2.95982 0
M  V30 4420 H 414.181 3.26344 3.84077 0
M  V30 4421 H 413.783 3.08361 2.11635 0
M  V30 4422 H 416.075 4.79502 4.78628 0
M  V30 4423 H 417.018 5.96728 3.8121 0
M  V30 4424 H 417.426 4.2272 3.74123 0
M  V30 4425 N 416.824 -0.551391 1.4764 0
M  V30 4426 C 418.064 -1.31901 1.56145 0
M  V30 4427 C 418.428 -1.90724 0.221013 0
M  V30 4428 O 419.629 -2.6819 0.180945 0
M  V30 4429 C 417.9 -2.39517 2.65267 0
M  V30 4430 S 419.459 -3.26289 2.93395 0
M  V30 4431 H 416.277 -0.448965 0.551318 0
M  V30 4432 H 418.879 -0.630599 1.85051 0
M  V30 4433 H 417.583 -1.94747 3.6125 0
M  V30 4434 H 417.114 -3.13092 2.38195 0
M  V30 4435 H 419.129 -4.39122 2.31055 0
M  V30 4436 N 418.302 -1.35869 -0.798587 0
M  V30 4437 C 419.232 -1.32118 -1.92528 0
M  V30 4438 C 420.213 -0.194209 -1.68988 0
M  V30 4439 O 421.398 -0.390426 -1.90235 0
M  V30 4440 C 418.528 -1.10047 -3.29404 0
M  V30 4441 C 417.482 -2.19471 -3.67446 0
M  V30 4442 C 416.808 -1.82555 -5.02571 0
M  V30 4443 C 418.108 -3.61495 -3.76987 0
M  V30 4444 H 419.802 -2.26394 -1.95924 0
M  V30 4445 H 417.348 -1.08981 -0.94123 0
M  V30 4446 H 419.301 -1.06061 -4.07835 0
M  V30 4447 H 418.025 -0.122195 -3.26371 0
M  V30 4448 H 416.684 -2.22568 -2.91306 0
M  V30 4449 H 416.332 -0.833249 -4.9605 0
M  V30 4450 H 416.032 -2.5581 -5.28995 0
M  V30 4451 H 417.556 -1.80108 -5.83432 0
M  V30 4452 H 418.97 -3.60676 -4.4563 0
M  V30 4453 H 417.367 -4.33577 -4.14887 0
M  V30 4454 H 418.437 -3.97065 -2.78329 0
M  V30 4455 N 419.78 1.02168 -1.19998 0
M  V30 4456 C 420.69 2.14069 -0.959774 0
M  V30 4457 C 421.706 1.73804 0.082655 0
M  V30 4458 O 422.882 2.01133 -0.103633 0
M  V30 4459 C 419.947 3.42936 -0.509459 0
M  V30 4460 C 419.008 3.97474 -1.62213 0
M  V30 4461 C 418.241 5.2019 -1.19321 0
M  V30 4462 O 418.464 5.70369 -0.0597726 0
M  V30 4463 O 417.398 5.67749 -1.99863 0
M  V30 4464 H 421.224 2.37199 -1.89658 0
M  V30 4465 H 418.809 1.12469 -0.983411 0
M  V30 4466 H 420.691 4.20551 -0.267322 0
M  V30 4467 H 419.366 3.21234 0.398821 0
M  V30 4468 H 418.273 3.21161 -1.9185 0
M  V30 4469 H 419.606 4.23555 -2.50723 0
M  V30 4470 N 421.258 1.00505 1.21394 0
M  V30 4471 C 422.205 0.565496 2.23765 0
M  V30 4472 C 423.175 -0.408466 1.60999 0
M  V30 4473 O 424.36 -0.310503 1.88257 0
M  V30 4474 C 421.5 -0.101667 3.4495 0
M  V30 4475 C 420.613 0.915479 4.22188 0
M  V30 4476 C 419.748 0.220574 5.30742 0
M  V30 4477 C 418.787 1.22527 5.99711 0
M  V30 4478 N 417.924 0.557831 6.9988 0
M  V30 4479 H 422.764 1.44314 2.60725 0
M  V30 4480 H 420.301 0.722643 1.28126 0
M  V30 4481 H 422.259 -0.505504 4.14126 0
M  V30 4482 H 420.889 -0.94303 3.08718 0
M  V30 4483 H 419.941 1.43756 3.52191 0
M  V30 4484 H 421.253 1.68005 4.69655 0
M  V30 4485 H 420.407 -0.239368 6.06228 0
M  V30 4486 H 419.146 -0.576401 4.84282 0
M  V30 4487 H 418.151 1.69571 5.22997 0
M  V30 4488 H 419.376 2.02332 6.48258 0
M  V30 4489 H 417.322 -0.219486 6.55633 0
M  V30 4490 H 417.239 1.26065 7.45415 0
M  V30 4491 H 418.507 0.121095 7.79406 0
M  V30 4492 N 422.737 -1.36956 0.779787 0
M  V30 4493 C 423.985 -1.99097 0.347079 0
M  V30 4494 C 424.306 -1.62206 -1.08232 0
M  V30 4495 O 423.576 -0.891373 -1.74446 0
M  V30 4496 H 422.156 -0.736409 0.125342 0
M  V30 4497 H 424.818 -1.67308 0.999696 0
M  V30 4498 H 423.914 -3.09107 0.431162 0
M  V30 4499 N 424.215 -0.530993 -1.48385 0
M  V30 4500 C 425.464 0.00474348 -2.01699 0
M  V30 4501 C 425.777 1.35227 -1.41325 0
M  V30 4502 O 426.983 1.97643 -1.86144 0
M  V30 4503 C 425.439 0.0588473 -3.59852 0
M  V30 4504 C 425.047 -1.28385 -4.2921 0
M  V30 4505 C 426.791 0.543358 -4.21008 0
M  V30 4506 C 424.698 -1.19028 -5.79298 0
M  V30 4507 H 423.628 0.00554317 -0.75398 0
M  V30 4508 H 426.279 -0.674924 -1.70637 0
M  V30 4509 H 424.661 0.803612 -3.8776 0
M  V30 4510 H 425.835 -2.04426 -4.12973 0
M  V30 4511 H 424.15 -1.70418 -3.7993 0
M  V30 4512 H 426.747 0.631351 -5.3096 0
M  V30 4513 H 427.09 1.54937 -3.86394 0
M  V30 4514 H 427.623 -0.145754 -3.97533 0
M  V30 4515 H 424.362 -2.17147 -6.18488 0
M  V30 4516 H 423.882 -0.471246 -5.97946 0
M  V30 4517 H 425.561 -0.881365 -6.40969 0
M  V30 4518 N 425.693 1.55336 -0.266172 0
M  V30 4519 C 426.923 2.03506 0.356239 0
M  V30 4520 C 427.331 1.14426 1.50676 0
M  V30 4521 O 426.674 0.155043 1.83045 0
M  V30 4522 C 426.736 3.47848 0.90785 0
M  V30 4523 C 426.4 4.56861 -0.112888 0
M  V30 4524 C 427.397 5.11528 -0.929264 0
M  V30 4525 C 425.082 5.01704 -0.244546 0
M  V30 4526 C 427.076 6.09549 -1.86357 0
M  V30 4527 C 424.763 5.99553 -1.18234 0
M  V30 4528 C 425.761 6.53356 -1.99036 0
M  V30 4529 O 425.449 7.49293 -2.91231 0
M  V30 4530 H 425.181 0.670444 0.08649 0
M  V30 4531 H 427.735 2.01598 -0.39337 0
M  V30 4532 H 425.965 3.46967 1.70737 0
M  V30 4533 H 427.654 3.79407 1.44239 0
M  V30 4534 H 428.42 4.77701 -0.838237 0
M  V30 4535 H 424.299 4.59477 0.374359 0
M  V30 4536 H 427.843 6.51469 -2.49467 0
M  V30 4537 H 423.74 6.32799 -1.27421 0
M  V30 4538 H 424.508 7.66978 -2.8581 0
M  V30 4539 N 427.171 -0.0066808 1.57599 0
M  V30 4540 C 428.401 -0.703066 1.94269 0
M  V30 4541 C 428.809 -1.68206 0.866222 0
M  V30 4542 O 428.152 -1.82966 -0.164087 0
M  V30 4543 C 428.214 -1.49616 3.26887 0
M  V30 4544 C 427.878 -0.679494 4.5192 0
M  V30 4545 C 428.875 0.0299508 5.19891 0
M  V30 4546 C 426.56 -0.627433 4.98366 0
M  V30 4547 C 428.554 0.780514 6.32603 0
M  V30 4548 C 426.241 0.126861 6.10968 0
M  V30 4549 C 427.239 0.829574 6.77943 0
M  V30 4550 O 426.927 1.57157 7.88389 0
M  V30 4551 H 426.659 -0.201217 0.645359 0
M  V30 4552 H 429.213 0.0385326 2.05364 0
M  V30 4553 H 427.443 -2.28209 3.12182 0
M  V30 4554 H 429.132 -2.07726 3.48719 0
M  V30 4555 H 429.898 -0.00115963 4.85 0
M  V30 4556 H 425.777 -1.16392 4.46065 0
M  V30 4557 H 429.321 1.32954 6.84813 0
M  V30 4558 H 425.218 0.159815 6.45302 0
M  V30 4559 H 425.986 1.48758 8.04868 0
M  V30 4560 N 428.649 -1.55105 -0.279332 0
M  V30 4561 C 429.879 -1.7917 -1.02867 0
M  V30 4562 C 430.287 -0.56204 -1.80659 0
M  V30 4563 O 429.63 0.478266 -1.77365 0
M  V30 4564 C 429.692 -2.96061 -2.03932 0
M  V30 4565 C 429.356 -4.33341 -1.45137 0
M  V30 4566 C 430.353 -5.12565 -0.870266 0
M  V30 4567 C 428.038 -4.79987 -1.48048 0
M  V30 4568 C 430.032 -6.36565 -0.326097 0
M  V30 4569 C 427.719 -6.03944 -0.932443 0
M  V30 4570 C 428.717 -6.8207 -0.356247 0
M  V30 4571 O 428.405 -8.03691 0.183412 0
M  V30 4572 H 428.137 -0.600796 -0.309872 0
M  V30 4573 H 430.691 -2.02932 -0.317468 0
M  V30 4574 H 428.921 -2.67975 -2.78794 0
M  V30 4575 H 430.61 -3.07506 -2.64943 0
M  V30 4576 H 431.376 -4.77661 -0.840521 0
M  V30 4577 H 427.255 -4.1919 -1.91835 0
M  V30 4578 H 430.799 -6.97489 0.124286 0
M  V30 4579 H 426.696 -6.3833 -0.959407 0
M  V30 4580 H 427.464 -8.18468 0.0721681 0
M  V30 4581 N 430.127 0.543554 -1.4793 0
M  V30 4582 C 431.075 1.67039 -1.61866 0
M  V30 4583 C 432.069 1.62294 -0.48549 0
M  V30 4584 O 433.275 1.67315 -0.66376 0
M  V30 4585 H 429.65 0.552954 -0.509652 0
M  V30 4586 H 431.621 1.52426 -2.56533 0
M  V30 4587 C 430.37 3.05357 -1.6629 0
M  V30 4588 H 429.693 3.09696 -2.5284 0
M  V30 4589 H 431.133 3.83855 -1.80088 0
M  V30 4590 C 429.592 3.34531 -0.398861 0
M  V30 4591 O 430.122 3.98649 0.494162 0
M  V30 4592 N 428.328 2.89299 -0.2747 0
M  V30 4593 H 427.875 2.37298 -1.00236 0
M  V30 4594 H 427.833 3.09188 0.570075 0
M  V30 4595 N 431.605 1.3629 0.791371 0
M  V30 4596 C 432.833 1.33562 1.58016 0
M  V30 4597 C 433.248 -0.0835616 1.88615 0
M  V30 4598 O 432.605 -1.0399 1.49974 0
M  V30 4599 C 432.656 2.15517 2.90232 0
M  V30 4600 O 432.377 3.51902 2.60953 0
M  V30 4601 C 433.878 2.20546 3.84544 0
M  V30 4602 H 431.098 0.458226 0.490173 0
M  V30 4603 H 433.642 1.79361 0.982345 0
M  V30 4604 H 431.797 1.73278 3.46487 0
M  V30 4605 H 432.211 3.94644 3.4548 0
M  V30 4606 H 433.685 2.82252 4.74382 0
M  V30 4607 H 434.162 1.20838 4.2225 0
M  V30 4608 H 434.768 2.63013 3.34222 0
M  V30 4609 N 433.083 -1.0153 1.20538 0
M  V30 4610 C 434.313 -1.78487 1.04048 0
M  V30 4611 C 434.721 -1.84631 -0.413292 0
M  V30 4612 O 434.064 -1.29919 -1.29872 0
M  V30 4613 C 434.126 -3.24367 1.55003 0
M  V30 4614 C 433.79 -3.41827 3.0332 0
M  V30 4615 C 434.787 -3.30941 4.00966 0
M  V30 4616 C 432.472 -3.67602 3.42307 0
M  V30 4617 C 434.466 -3.45577 5.35589 0
M  V30 4618 C 432.153 -3.81881 4.77085 0
M  V30 4619 C 433.151 -3.70874 5.73534 0
M  V30 4620 O 432.839 -3.84714 7.05868 0
M  V30 4621 H 432.571 -0.568108 0.366373 0
M  V30 4622 H 435.125 -1.28677 1.60098 0
M  V30 4623 H 433.355 -3.75266 0.933397 0
M  V30 4624 H 435.044 -3.82963 1.34514 0
M  V30 4625 H 435.81 -3.10964 3.72191 0
M  V30 4626 H 431.689 -3.75256 2.67776 0
M  V30 4627 H 435.233 -3.36902 6.10854 0
M  V30 4628 H 431.13 -4.01359 5.0555 0
M  V30 4629 H 431.898 -4.01724 7.13134 0
M  V30 4630 N 434.561 -1.01147 -1.20859 0
M  V30 4631 C 435.471 -0.58686 -2.27141 0
M  V30 4632 C 436.487 0.373198 -1.69951 0
M  V30 4633 O 437.663 0.235423 -2.00019 0
M  V30 4634 C 434.728 0.0733602 -3.46622 0
M  V30 4635 C 433.789 -0.931995 -4.19061 0
M  V30 4636 C 433.022 -0.303186 -5.32838 0
M  V30 4637 O 433.245 0.898395 -5.63281 0
M  V30 4638 O 432.179 -1.01735 -5.9324 0
M  V30 4639 H 436.005 -1.47155 -2.65667 0
M  V30 4640 H 433.59 -0.780689 -1.2738 0
M  V30 4641 H 435.472 0.442333 -4.19072 0
M  V30 4642 H 434.147 0.932329 -3.09983 0
M  V30 4643 H 433.054 -1.35224 -3.48805 0
M  V30 4644 H 434.387 -1.76076 -4.59628 0
M  V30 4645 N 436.039 1.36541 -0.78704 0
M  V30 4646 C 436.987 2.31965 -0.171724 0
M  V30 4647 C 437.981 1.55689 0.667631 0
M  V30 4648 O 439.187 1.70969 0.562981 0
M  V30 4649 H 435.562 0.751101 -0.0367545 0
M  V30 4650 H 437.533 2.81428 -0.992017 0
M  V30 4651 C 436.282 3.40968 0.680904 0
M  V30 4652 H 435.605 3.99775 0.0443961 0
M  V30 4653 H 437.045 4.10063 1.07815 0
M  V30 4654 C 435.504 2.82338 1.83813 0
M  V30 4655 O 436.034 2.74311 2.93456 0
M  V30 4656 N 434.24 2.39661 1.6435 0
M  V30 4657 H 433.787 2.46389 0.751668 0
M  V30 4658 H 433.745 2.00779 2.4194 0
M  V30 4659 N 437.518 0.538854 1.48102 0
M  V30 4660 C 438.466 -0.232325 2.31437 0
M  V30 4661 C 439.46 -0.927004 1.41785 0
M  V30 4662 O 440.666 -0.850378 1.58646 0
M  V30 4663 H 437.041 -0.0937916 0.746128 0
M  V30 4664 H 439.012 0.489986 2.9435 0
M  V30 4665 C 437.761 -1.26074 3.24038 0
M  V30 4666 H 437.084 -0.735609 3.92974 0
M  V30 4667 H 438.524 -1.77157 3.85216 0
M  V30 4668 C 436.983 -2.29902 2.46265 0
M  V30 4669 O 437.513 -3.36502 2.19384 0
M  V30 4670 N 435.719 -2.03348 2.07601 0
M  V30 4671 H 435.266 -1.16675 2.29662 0
M  V30 4672 H 435.224 -2.73038 1.55877 0
M  V30 4673 N 438.996 -1.55193 0.274407 0
M  V30 4674 C 439.928 -2.1989 -0.646595 0
M  V30 4675 C 440.941 -1.1834 -1.11801 0
M  V30 4676 O 442.13 -1.4507 -1.04004 0
M  V30 4677 C 439.23 -2.8104 -1.89393 0
M  V30 4678 C 438.403 -4.08274 -1.56943 0
M  V30 4679 C 437.462 -4.53478 -2.66916 0
M  V30 4680 O 436.488 -5.19267 -2.33132 0
M  V30 4681 N 437.69 -4.2356 -3.9696 0
M  V30 4682 H 440.455 -2.99556 -0.0928686 0
M  V30 4683 H 438.016 -1.61618 0.0954783 0
M  V30 4684 H 440.008 -3.08226 -2.62257 0
M  V30 4685 H 438.578 -2.05372 -2.35672 0
M  V30 4686 H 437.798 -3.88384 -0.674655 0
M  V30 4687 H 439.086 -4.91173 -1.32764 0
M  V30 4688 H 438.484 -3.70799 -4.27229 0
M  V30 4689 H 437.041 -4.55518 -4.66205 0
M  V30 4690 N 440.474 -0.00167713 -1.576 0
M  V30 4691 C 441.723 0.682021 -1.89819 0
M  V30 4692 C 442.036 1.74844 -0.876871 0
M  V30 4693 O 443.242 2.48688 -1.08934 0
M  V30 4694 C 441.698 1.26425 -3.36964 0
M  V30 4695 C 441.306 0.232568 -4.47396 0
M  V30 4696 C 443.05 1.92604 -3.78291 0
M  V30 4697 C 440.957 0.824882 -5.85619 0
M  V30 4698 H 439.887 0.258499 -0.708304 0
M  V30 4699 H 442.538 -0.0624957 -1.83394 0
M  V30 4700 H 440.92 2.05949 -3.38232 0
M  V30 4701 H 442.094 -0.5382 -4.57646 0
M  V30 4702 H 440.409 -0.32888 -4.15099 0
M  V30 4703 H 443.006 2.37827 -4.78897 0
M  V30 4704 H 443.349 2.75732 -3.11894 0
M  V30 4705 H 443.882 1.19812 -3.79328 0
M  V30 4706 H 440.621 0.0323542 -6.55492 0
M  V30 4707 H 440.141 1.56477 -5.79029 0
M  V30 4708 H 441.82 1.32301 -6.33329 0
M  V30 4709 N 441.952 1.55251 0.271103 0
M  V30 4710 C 442.9 1.89054 1.35504 0
M  V30 4711 C 443.894 0.767064 1.51038 0
M  V30 4712 O 445.1 0.951429 1.528 0
M  V30 4713 H 441.475 0.600072 0.45323 0
M  V30 4714 H 443.446 2.79598 1.04247 0
M  V30 4715 C 442.195 2.18068 2.70817 0
M  V30 4716 H 441.518 3.04005 2.59656 0
M  V30 4717 H 442.958 2.4564 3.45597 0
M  V30 4718 C 441.417 0.988901 3.2206 0
M  V30 4719 O 441.947 0.224501 4.01072 0
M  V30 4720 N 440.153 0.786085 2.79766 0
M  V30 4721 H 439.7 1.40937 2.15626 0
M  V30 4722 H 439.658 -0.00969349 3.14399 0
M  V30 4723 N 443.43 -0.535701 1.48216 0
M  V30 4724 C 444.393 -1.623 1.61838 0
M  V30 4725 C 445.393 -1.53087 0.492024 0
M  V30 4726 O 446.583 -1.5686 0.757668 0
M  V30 4727 C 443.715 -3.01907 1.58319 0
M  V30 4728 H 444.908 -1.51564 2.58783 0
M  V30 4729 H 442.461 -0.757317 1.36727 0
M  V30 4730 H 443.196 -3.18155 0.628299 0
M  V30 4731 H 442.981 -3.10003 2.40085 0
M  V30 4732 H 444.471 -3.80969 1.71033 0
M  V30 4733 N 444.908 -1.36708 -0.784132 0
M  V30 4734 C 446.157 -1.30559 -1.53744 0
M  V30 4735 C 446.47 0.111374 -1.95283 0
M  V30 4736 O 447.676 0.29527 -2.6989 0
M  V30 4737 C 446.132 -2.29098 -2.77565 0
M  V30 4738 C 445.74 -3.76258 -2.43174 0
M  V30 4739 C 447.484 -2.31936 -3.55536 0
M  V30 4740 C 445.391 -4.6656 -3.63422 0
M  V30 4741 H 444.321 -0.48518 -0.577162 0
M  V30 4742 H 446.972 -1.62101 -0.859981 0
M  V30 4743 H 445.354 -1.90557 -3.47137 0
M  V30 4744 H 446.528 -4.23565 -1.81465 0
M  V30 4745 H 444.843 -3.76246 -1.78403 0
M  V30 4746 H 447.44 -2.9661 -4.44889 0
M  V30 4747 H 447.783 -1.3294 -3.94503 0
M  V30 4748 H 448.316 -2.6912 -2.92949 0
M  V30 4749 H 445.055 -5.66638 -3.29547 0
M  V30 4750 H 444.575 -4.23966 -4.24279 0
M  V30 4751 H 446.254 -4.8309 -4.30387 0
M  V30 4752 N 446.386 1.0089 -1.21074 0
M  V30 4753 C 447.663 1.71834 -0.934469 0
M  V30 4754 C 448.043 2.0368 0.554753 0
M  V30 4755 O 447.391 1.70742 1.51854 0
M  V30 4756 C 447.601 2.98061 -1.8155 0
M  V30 4757 C 448.949 3.7117 -2.06199 0
M  V30 4758 O 449.973 3.08034 -1.78867 0
M  V30 4759 O 448.832 4.84721 -2.52404 0
M  V30 4760 H 445.926 0.749253 -0.35007 0
M  V30 4761 H 448.472 1.06668 -1.31985 0
M  V30 4762 H 447.244 2.70908 -2.82355 0
M  V30 4763 H 446.867 3.70968 -1.43068 0
M  V30 4764 N 447.864 1.01787 1.20321 0
M  V30 4765 C 448.797 0.533882 2.21867 0
M  V30 4766 C 449.775 -0.419361 1.57099 0
M  V30 4767 O 450.959 -0.339062 1.85426 0
M  V30 4768 C 448.086 -0.222899 3.37966 0
M  V30 4769 C 447.132 0.680091 4.21043 0
M  V30 4770 S 447.965 2.14997 4.90445 0
M  V30 4771 C 449.121 1.40339 6.09964 0
M  V30 4772 H 449.354 1.39429 2.62577 0
M  V30 4773 H 446.887 0.826867 1.30393 0
M  V30 4774 H 448.845 -0.653425 4.05266 0
M  V30 4775 H 447.506 -1.0589 2.95713 0
M  V30 4776 H 446.699 0.0964704 5.03908 0
M  V30 4777 H 446.301 1.04845 3.59004 0
M  V30 4778 H 448.593 0.68407 6.74038 0
M  V30 4779 H 449.536 2.20823 6.72787 0
M  V30 4780 H 449.944 0.905716 5.57187 0
M  V30 4781 N 449.342 -1.36122 0.79427 0
M  V30 4782 C 450.29 -2.31871 0.184023 0
M  V30 4783 C 451.284 -1.56041 -0.659365 0
M  V30 4784 O 452.49 -1.71266 -0.553906 0
M  V30 4785 H 448.865 -0.750896 0.0407373 0
M  V30 4786 H 450.836 -2.80898 1.00693 0
M  V30 4787 C 449.585 -3.41324 -0.662813 0
M  V30 4788 H 448.908 -3.99793 -0.0231944 0
M  V30 4789 H 450.348 -4.10629 -1.05639 0
M  V30 4790 C 448.807 -2.83308 -1.82313 0
M  V30 4791 O 449.337 -2.75863 -2.91997 0
M  V30 4792 N 447.543 -2.40529 -1.63077 0
M  V30 4793 H 447.09 -2.46785 -0.738591 0
M  V30 4794 H 447.048 -2.02059 -2.40872 0
M  V30 4795 N 450.82 -0.546701 -1.47814 0
M  V30 4796 C 451.767 0.206854 -2.29871 0
M  V30 4797 C 452.737 0.918235 -1.38411 0
M  V30 4798 O 453.922 0.915991 -1.67375 0
M  V30 4799 C 451.062 1.23746 -3.22151 0
M  V30 4800 C 450.175 0.533216 -4.28697 0
M  V30 4801 C 449.31 1.5482 -5.08138 0
M  V30 4802 C 448.349 0.828347 -6.06469 0
M  V30 4803 N 447.486 1.78966 -6.78908 0
M  V30 4804 H 452.326 -0.499037 -2.93792 0
M  V30 4805 H 449.863 -0.25793 -1.44821 0
M  V30 4806 H 451.821 1.84746 -3.74065 0
M  V30 4807 H 450.451 1.91151 -2.60117 0
M  V30 4808 H 449.503 -0.191089 -3.7992 0
M  V30 4809 H 450.815 -0.0311987 -4.9879 0
M  V30 4810 H 449.969 2.23202 -5.6415 0
M  V30 4811 H 448.708 2.14652 -4.37922 0
M  V30 4812 H 447.713 0.130539 -5.49645 0
M  V30 4813 H 448.938 0.235907 -6.7869 0
M  V30 4814 H 446.884 2.37675 -6.1143 0
M  V30 4815 H 446.801 1.27712 -7.45135 0
M  V30 4816 H 448.069 2.46496 -7.395 0
M  V30 4817 N 452.299 1.55045 -0.282633 0
M  V30 4818 C 453.209 2.26491 0.61147 0
M  V30 4819 C 454.225 1.29348 1.16384 0
M  V30 4820 O 455.401 1.62298 1.19253 0
M  V30 4821 C 452.466 2.97779 1.77563 0
M  V30 4822 C 451.527 4.10418 1.25919 0
M  V30 4823 C 450.76 4.78297 2.36786 0
M  V30 4824 O 450.983 4.45426 3.56303 0
M  V30 4825 O 449.917 5.66089 2.04517 0
M  V30 4826 H 453.743 3.03683 0.0324615 0
M  V30 4827 H 451.328 1.49317 -0.0497576 0
M  V30 4828 H 453.21 3.42554 2.45427 0
M  V30 4829 H 451.885 2.23498 2.34159 0
M  V30 4830 H 450.792 3.70082 0.546797 0
M  V30 4831 H 452.125 4.86622 0.738887 0
M  V30 4832 N 453.777 0.010035 1.57597 0
M  V30 4833 C 454.725 -0.996272 2.10184 0
M  V30 4834 C 455.719 -1.34942 1.02406 0
M  V30 4835 O 456.925 -1.33389 1.20861 0
M  V30 4836 H 453.3 -0.338982 0.671264 0
M  V30 4837 H 455.271 -0.527272 2.93705 0
M  V30 4838 C 454.02 -2.27599 2.62857 0
M  V30 4839 H 453.343 -2.01295 3.45428 0
M  V30 4840 H 454.783 -2.96265 3.0332 0
M  V30 4841 C 453.242 -2.99269 1.54725 0
M  V30 4842 O 453.772 -3.90644 0.93597 0
M  V30 4843 N 451.978 -2.61269 1.27228 0
M  V30 4844 H 451.525 -1.87043 1.77123 0
M  V30 4845 H 451.483 -3.09534 0.550999 0
M  V30 4846 N 455.255 -1.55392 -0.262866 0
M  V30 4847 C 456.185 -1.91978 -1.32917 0
M  V30 4848 C 457.166 -0.7828 -1.51017 0
M  V30 4849 O 458.351 -1.04178 -1.63892 0
M  V30 4850 C 455.481 -2.20055 -2.68687 0
M  V30 4851 C 454.435 -3.35854 -2.65304 0
M  V30 4852 C 453.761 -3.49435 -4.04721 0
M  V30 4853 C 455.061 -4.71977 -2.23685 0
M  V30 4854 H 456.755 -2.81292 -1.02544 0
M  V30 4855 H 454.301 -1.3534 -0.491846 0
M  V30 4856 H 456.254 -2.44237 -3.43404 0
M  V30 4857 H 454.978 -1.27551 -3.00663 0
M  V30 4858 H 453.637 -3.11655 -1.93045 0
M  V30 4859 H 453.285 -2.54379 -4.33936 0
M  V30 4860 H 452.985 -4.27297 -4.0335 0
M  V30 4861 H 454.509 -3.7592 -4.81161 0
M  V30 4862 H 455.923 -4.95637 -2.88127 0
M  V30 4863 H 454.32 -5.52828 -2.33456 0
M  V30 4864 H 455.39 -4.70115 -1.18827 0
M  V30 4865 N 456.733 0.527833 -1.48498 0
M  V30 4866 C 458.01 1.28905 -1.47115 0
M  V30 4867 C 458.39 2.10297 -0.184007 0
M  V30 4868 O 457.738 2.12728 0.834218 0
M  V30 4869 C 457.948 2.16866 -2.73441 0
M  V30 4870 C 459.296 2.76936 -3.21857 0
M  V30 4871 O 460.32 2.27152 -2.74373 0
M  V30 4872 O 459.179 3.67496 -4.04486 0
M  V30 4873 H 456.273 0.581918 -0.587623 0
M  V30 4874 H 458.819 0.544311 -1.60734 0
M  V30 4875 H 457.591 1.56521 -3.58632 0
M  V30 4876 H 457.214 2.98583 -2.62553 0
M  V30 4877 N 458.211 1.37122 0.776871 0
M  V30 4878 C 459.459 1.31787 1.53221 0
M  V30 4879 C 459.78 -0.0987589 1.9475 0
M  V30 4880 O 459.05 -1.0417 1.65908 0
M  V30 4881 H 457.63 0.484839 0.568278 0
M  V30 4882 H 460.292 1.71556 0.924917 0
M  V30 4883 H 459.388 1.95355 2.43398 0
M  V30 4884 N 459.689 -1.00246 1.21608 0
M  V30 4885 C 460.637 -2.11193 0.97469 0
M  V30 4886 C 461.631 -1.69216 -0.0789303 0
M  V30 4887 O 462.837 -1.79853 0.0726806 0
M  V30 4888 H 459.212 -0.690455 0.297953 0
M  V30 4889 H 461.183 -2.2873 1.91638 0
M  V30 4890 C 459.932 -3.43182 0.558717 0
M  V30 4891 H 459.255 -3.75918 1.3611 0
M  V30 4892 H 460.695 -4.21823 0.429154 0
M  V30 4893 C 459.154 -3.28882 -0.730648 0
M  V30 4894 O 459.684 -3.59835 -1.78554 0
M  V30 4895 N 457.89 -2.8209 -0.698131 0
M  V30 4896 H 457.437 -2.57099 0.16061 0
M  V30 4897 H 457.395 -2.72903 -1.56113 0
M  V30 4898 N 461.167 -1.02423 -1.1978 0
M  V30 4899 C 462.077 -0.610919 -2.26506 0
M  V30 4900 C 463.093 0.355152 -1.70337 0
M  V30 4901 O 464.269 0.214195 -2.00258 0
M  V30 4902 C 461.334 0.0365921 -3.46681 0
M  V30 4903 C 460.395 -0.976389 -4.18049 0
M  V30 4904 C 459.628 -0.359683 -5.32487 0
M  V30 4905 O 459.851 0.838601 -5.64202 0
M  V30 4906 O 458.785 -1.08022 -5.92127 0
M  V30 4907 H 462.611 -1.49965 -2.64091 0
M  V30 4908 H 460.196 -0.794156 -1.26545 0
M  V30 4909 H 462.078 0.39786 -4.19518 0
M  V30 4910 H 460.753 0.899398 -3.10954 0
M  V30 4911 H 459.66 -1.38916 -3.47352 0
M  V30 4912 H 460.993 -1.80941 -4.57735 0
M  V30 4913 N 462.645 1.35699 -0.801477 0
M  V30 4914 C 463.894 1.98165 -0.375979 0
M  V30 4915 C 464.207 1.64306 1.06127 0
M  V30 4916 O 465.413 2.20097 1.58964 0
M  V30 4917 C 463.869 3.54497 -0.621305 0
M  V30 4918 C 463.477 3.9727 -2.07076 0
M  V30 4919 C 465.221 4.23697 -0.26091 0
M  V30 4920 C 463.128 5.46427 -2.26211 0
M  V30 4921 H 462.058 0.741478 -0.136844 0
M  V30 4922 H 464.709 1.54834 -0.984814 0
M  V30 4923 H 463.091 3.95958 0.0574112 0
M  V30 4924 H 464.265 3.66974 -2.78687 0
M  V30 4925 H 462.58 3.40943 -2.39054 0
M  V30 4926 H 465.177 5.33334 -0.381994 0
M  V30 4927 H 465.52 4.0869 0.792344 0
M  V30 4928 H 466.053 3.87639 -0.893339 0
M  V30 4929 H 462.792 5.66396 -3.29963 0
M  V30 4930 H 462.312 5.78309 -1.59119 0
M  V30 4931 H 463.991 6.12819 -2.07513 0
M  V30 4932 N 464.123 0.554532 1.47522 0
M  V30 4933 C 465.07 -0.19466 2.29978 0
M  V30 4934 C 466.04 -0.910882 1.38896 0
M  V30 4935 O 467.225 -0.907102 1.67858 0
M  V30 4936 C 464.365 -1.22035 3.22802 0
M  V30 4937 C 463.478 -0.510474 4.28973 0
M  V30 4938 C 462.613 -1.52123 5.08952 0
M  V30 4939 C 461.652 -0.796173 6.069 0
M  V30 4940 N 460.789 -1.75363 6.79847 0
M  V30 4941 H 465.629 0.51461 2.93523 0
M  V30 4942 H 463.166 0.265607 1.44682 0
M  V30 4943 H 465.124 -1.8276 3.7504 0
M  V30 4944 H 463.754 -1.89769 2.61127 0
M  V30 4945 H 462.806 0.211234 3.79813 0
M  V30 4946 H 464.118 0.0576503 4.98767 0
M  V30 4947 H 463.272 -2.20207 5.65326 0
M  V30 4948 H 462.011 -2.12327 4.39054 0
M  V30 4949 H 461.016 -0.101388 5.49707 0
M  V30 4950 H 462.241 -0.199911 6.78806 0
M  V30 4951 H 460.187 -2.3443 6.12682 0
M  V30 4952 H 460.104 -1.23759 7.45801 0
M  V30 4953 H 461.372 -2.4257 7.40797 0
M  V30 4954 N 465.601 -1.54893 0.290851 0
M  V30 4955 C 466.829 -2.04343 -0.324288 0
M  V30 4956 C 467.244 -1.16859 -1.48289 0
M  V30 4957 O 466.601 -0.192018 -1.81487 0
M  V30 4958 C 466.652 -3.52756 -0.79026 0
M  V30 4959 O 466.373 -4.36913 0.322213 0
M  V30 4960 C 467.874 -4.18161 -1.4716 0
M  V30 4961 H 465.094 -0.667135 -0.0719173 0
M  V30 4962 H 467.638 -1.99981 0.427529 0
M  V30 4963 H 465.793 -3.57511 -1.49213 0
M  V30 4964 H 466.207 -5.24486 -0.0387372 0
M  V30 4965 H 467.681 -5.23562 -1.7489 0
M  V30 4966 H 468.158 -3.67282 -2.40834 0
M  V30 4967 H 468.764 -4.17454 -0.813178 0
M  V30 4968 N 467.08 -0.0183926 -1.57589 0
M  V30 4969 C 468.31 0.67207 -1.95363 0
M  V30 4970 C 468.718 1.66807 -0.892872 0
M  V30 4971 O 468.061 1.83204 0.134958 0
M  V30 4972 C 468.123 1.44397 -3.29226 0
M  V30 4973 C 467.787 0.607511 -4.52944 0
M  V30 4974 C 468.784 -0.112657 -5.19778 0
M  V30 4975 C 466.469 0.548068 -4.99301 0
M  V30 4976 C 468.463 -0.881057 -6.31281 0
M  V30 4977 C 466.15 -0.224044 -6.10689 0
M  V30 4978 C 467.148 -0.937323 -6.76538 0
M  V30 4979 O 466.836 -1.6968 -7.85789 0
M  V30 4980 H 466.568 0.190925 -0.648478 0
M  V30 4981 H 469.122 -0.0711994 -2.05277 0
M  V30 4982 H 467.352 2.23214 -3.15773 0
M  V30 4983 H 469.041 2.02152 -3.51979 0
M  V30 4984 H 469.807 -0.0759998 -4.8494 0
M  V30 4985 H 465.686 1.09281 -4.4786 0
M  V30 4986 H 469.23 -1.43832 -6.82611 0
M  V30 4987 H 465.127 -0.262457 -6.44966 0
M  V30 4988 H 465.895 -1.61544 -8.024 0
M  V30 4989 N 468.558 1.5553 0.254621 0
M  V30 4990 C 469.505 1.89666 1.31512 0
M  V30 4991 C 470.475 0.750057 1.482 0
M  V30 4992 O 471.66 1.00301 1.62309 0
M  V30 4993 C 468.8 2.19009 2.667 0
M  V30 4994 C 467.913 3.46435 2.58083 0
M  V30 4995 C 467.048 3.65386 3.85573 0
M  V30 4996 C 466.087 4.8644 3.71541 0
M  V30 4997 N 465.224 5.01952 4.90906 0
M  V30 4998 H 470.064 2.80109 1.017 0
M  V30 4999 H 467.601 1.38666 0.490938 0
M  V30 5000 H 469.559 2.34025 3.45381 0
M  V30 5001 H 468.189 1.31779 2.94676 0
M  V30 5002 H 467.241 3.39792 1.71013 0
M  V30 5003 H 468.553 4.35258 2.43622 0
M  V30 5004 H 467.707 3.80319 4.72697 0
M  V30 5005 H 466.446 2.74781 4.02922 0
M  V30 5006 H 465.451 4.71491 2.82801 0
M  V30 5007 H 466.676 5.78497 3.55694 0
M  V30 5008 H 464.622 4.14283 5.08631 0
M  V30 5009 H 464.539 5.84851 4.79046 0
M  V30 5010 H 465.807 5.21289 5.7955 0
M  V30 5011 N 470.036 -0.519951 1.48776 0
M  V30 5012 C 471.266 -1.29783 1.60748 0
M  V30 5013 C 471.674 -1.87253 0.27072 0
M  V30 5014 O 471.017 -1.67628 -0.751438 0
M  V30 5015 C 471.079 -2.47984 2.60277 0
M  V30 5016 C 470.743 -2.11526 4.051 0
M  V30 5017 C 471.74 -1.66608 4.92481 0
M  V30 5018 C 469.425 -2.21742 4.50706 0
M  V30 5019 C 471.419 -1.32384 6.23501 0
M  V30 5020 C 469.106 -1.87129 5.81744 0
M  V30 5021 C 470.104 -1.42523 6.67964 0
M  V30 5022 O 469.792 -1.0837 7.96562 0
M  V30 5023 H 469.524 -0.400562 0.544542 0
M  V30 5024 H 472.078 -0.632879 1.95407 0
M  V30 5025 H 470.308 -3.17493 2.2076 0
M  V30 5026 H 471.997 -3.10036 2.61978 0
M  V30 5027 H 472.763 -1.58178 4.58481 0
M  V30 5028 H 468.642 -2.55415 3.83776 0
M  V30 5029 H 472.186 -0.974949 6.90754 0
M  V30 5030 H 468.083 -1.95204 6.15277 0
M  V30 5031 H 468.851 -1.21681 8.09405 0
M  V30 5032 N 471.514 -1.37532 -0.769588 0
M  V30 5033 C 472.462 -1.33561 -1.90432 0
M  V30 5034 C 473.456 -0.224027 -1.67912 0
M  V30 5035 O 474.662 -0.392174 -1.75676 0
M  V30 5036 H 471.037 -0.416279 -0.626271 0
M  V30 5037 H 473.008 -2.29348 -1.90899 0
M  V30 5038 C 471.757 -1.16162 -3.27722 0
M  V30 5039 H 471.08 -2.00951 -3.45628 0
M  V30 5040 H 472.52 -1.17434 -4.07413 0
M  V30 5041 C 470.979 0.132583 -3.36639 0
M  V30 5042 O 471.509 1.11539 -3.85904 0
M  V30 5043 N 469.715 0.184013 -2.90017 0
M  V30 5044 H 469.262 -0.616415 -2.50116 0
M  V30 5045 H 469.22 1.04956 -2.96364 0
M  V30 5046 N 472.992 0.995999 -1.22138 0
M  V30 5047 C 473.939 2.08551 -0.988687 0
M  V30 5048 C 474.909 1.65864 0.0885021 0
M  V30 5049 O 476.094 1.90704 -0.0604589 0
M  V30 5050 C 473.234 3.40374 -0.569191 0
M  V30 5051 C 472.347 3.96421 -1.71681 0
M  V30 5052 C 471.482 5.1639 -1.2456 0
M  V30 5053 C 470.521 5.64567 -2.36497 0
M  V30 5054 N 469.658 6.75777 -1.90445 0
M  V30 5055 H 474.498 2.2779 -1.92135 0
M  V30 5056 H 472.035 1.1168 -0.957388 0
M  V30 5057 H 473.993 4.16068 -0.307166 0
M  V30 5058 H 472.623 3.21145 0.326462 0
M  V30 5059 H 471.675 3.17628 -2.09324 0
M  V30 5060 H 472.987 4.2816 -2.55891 0
M  V30 5061 H 472.141 5.99362 -0.940774 0
M  V30 5062 H 470.88 4.86266 -0.373662 0
M  V30 5063 H 469.885 4.80185 -2.67772 0
M  V30 5064 H 471.11 5.96716 -3.24202 0
M  V30 5065 H 469.056 6.47443 -1.05609 0
M  V30 5066 H 468.973 7.06818 -2.68223 0
M  V30 5067 H 470.241 7.62262 -1.63022 0
M  V30 5068 N 474.47 1.03057 1.19235 0
M  V30 5069 C 475.698 0.747697 1.92917 0
M  V30 5070 C 476.113 -0.69372 1.75593 0
M  V30 5071 O 475.47 -1.47191 1.07894 0
M  V30 5072 C 475.521 1.09159 3.44625 0
M  V30 5073 O 475.242 2.47641 3.61394 0
M  V30 5074 C 476.743 0.831763 4.35427 0
M  V30 5075 H 473.963 0.273453 0.612751 0
M  V30 5076 H 476.507 1.37552 1.51327 0
M  V30 5077 H 474.662 0.508919 3.84043 0
M  V30 5078 H 475.076 2.60499 4.55237 0
M  V30 5079 H 476.55 1.12233 5.4047 0
M  V30 5080 H 477.027 -0.233769 4.38577 0
M  V30 5081 H 477.633 1.39725 4.01693 0
M  V30 5082 N 475.948 -1.35272 0.808662 0
M  V30 5083 C 476.878 -2.32315 0.234981 0
M  V30 5084 C 477.859 -1.57572 -0.64071 0
M  V30 5085 O 479.044 -1.8563 -0.570551 0
M  V30 5086 C 476.174 -3.41801 -0.615601 0
M  V30 5087 C 475.128 -4.27694 0.161767 0
M  V30 5088 C 474.454 -5.28519 -0.810649 0
M  V30 5089 C 475.754 -5.04231 1.36193 0
M  V30 5090 H 477.448 -2.80543 1.04575 0
M  V30 5091 H 474.994 -1.3488 0.504315 0
M  V30 5092 H 476.947 -4.08693 -1.02702 0
M  V30 5093 H 475.671 -2.92186 -1.45928 0
M  V30 5094 H 474.33 -3.62384 0.554382 0
M  V30 5095 H 473.978 -4.75171 -1.64988 0
M  V30 5096 H 473.678 -5.8686 -0.294822 0
M  V30 5097 H 475.202 -5.98283 -1.22023 0
M  V30 5098 H 476.616 -5.64058 1.02528 0
M  V30 5099 H 475.013 -5.72077 1.81239 0
M  V30 5100 H 476.083 -4.34753 2.14751 0
M  V30 5101 N 477.426 -0.562348 -1.47226 0
M  V30 5102 C 478.651 -0.0432632 -2.07355 0
M  V30 5103 C 479.076 1.24332 -1.41149 0
M  V30 5104 O 478.434 1.74603 -0.488226 0
M  V30 5105 C 478.482 0.130288 -3.60365 0
M  V30 5106 O 477.586 1.19166 -3.94808 0
M  V30 5107 H 476.927 -0.0536334 -0.66183 0
M  V30 5108 H 479.457 -0.779495 -1.89169 0
M  V30 5109 H 479.467 0.342881 -4.06557 0
M  V30 5110 H 478.142 -0.809389 -4.07948 0
M  V30 5111 H 476.719 0.959153 -3.60354 0
M  V30 5112 N 478.904 1.54736 -0.299062 0
M  V30 5113 C 480.153 1.99279 0.311549 0
M  V30 5114 C 480.466 1.19107 1.55154 0
M  V30 5115 O 481.672 1.53908 2.23662 0
M  V30 5116 C 480.128 3.54768 0.605632 0
M  V30 5117 C 479.736 4.43746 -0.615914 0
M  V30 5118 C 481.48 4.07841 1.17754 0
M  V30 5119 C 479.387 5.90663 -0.29509 0
M  V30 5120 H 478.317 0.744359 0.120187 0
M  V30 5121 H 480.968 1.78919 -0.407464 0
M  V30 5122 H 479.35 3.71021 1.38419 0
M  V30 5123 H 480.524 4.39267 -1.39218 0
M  V30 5124 H 478.839 4.01434 -1.10633 0
M  V30 5125 H 481.436 5.15174 1.43179 0
M  V30 5126 H 481.779 3.58324 2.11918 0
M  V30 5127 H 482.312 3.95123 0.460739 0
M  V30 5128 H 479.051 6.44325 -1.20524 0
M  V30 5129 H 478.571 5.98155 0.44394 0
M  V30 5130 H 480.25 6.46916 0.104048 0
M  V30 5131 N 480.382 0.0267497 1.57577 0
M  V30 5132 C 481.33 -0.973923 2.11229 0
M  V30 5133 C 482.324 -1.33849 1.03831 0
M  V30 5134 O 483.53 -1.321 1.22269 0
M  V30 5135 H 479.905 -0.331844 0.674821 0
M  V30 5136 H 481.876 -0.496092 2.94247 0
M  V30 5137 C 480.625 -2.24798 2.65257 0
M  V30 5138 H 479.948 -1.9762 3.47543 0
M  V30 5139 H 481.388 -2.93031 3.06445 0
M  V30 5140 C 479.847 -2.97611 1.57891 0
M  V30 5141 O 480.377 -3.89629 0.97735 0
M  V30 5142 N 478.583 -2.59905 1.29992 0
M  V30 5143 H 478.13 -1.85154 1.79097 0
M  V30 5144 H 478.088 -3.08932 0.583798 0
M  V30 5145 N 481.861 -1.55662 -0.24637 0
M  V30 5146 C 482.811 -1.86753 -1.30795 0
M  V30 5147 C 483.795 -0.728445 -1.43466 0
M  V30 5148 O 484.987 -0.99038 -1.46699 0
M  V30 5149 C 482.116 -2.16618 -2.66329 0
M  V30 5150 C 481.202 -3.36855 -2.57661 0
M  V30 5151 N 481.593 -4.56111 -2.18624 0
M  V30 5152 C 479.891 -3.39976 -2.88673 0
M  V30 5153 C 480.592 -5.38247 -2.20601 0
M  V30 5154 N 479.568 -4.77322 -2.60124 0
M  V30 5155 H 483.37 -2.76486 -0.996642 0
M  V30 5156 H 480.884 -1.55896 -0.454994 0
M  V30 5157 H 482.881 -2.37057 -3.42942 0
M  V30 5158 H 481.541 -1.28185 -2.98327 0
M  V30 5159 H 482.552 -4.81726 -1.9016 0
M  V30 5160 H 479.229 -2.61815 -3.25206 0
M  V30 5161 H 480.619 -6.43657 -1.92756 0
M  V30 5162 N 483.339 0.512053 -1.4905 0
M  V30 5163 C 484.585 1.26874 -1.58212 0
M  V30 5164 C 484.918 1.9241 -0.263073 0
M  V30 5165 O 484.193 1.80181 0.732476 0
M  V30 5166 C 484.476 2.34428 -2.73341 0
M  V30 5167 C 484.329 1.73466 -4.15006 0
M  V30 5168 C 485.648 3.36073 -2.84154 0
M  V30 5169 H 482.767 0.459924 -0.575881 0
M  V30 5170 H 485.409 0.568587 -1.81293 0
M  V30 5171 H 483.559 2.94146 -2.53792 0
M  V30 5172 H 485.231 1.17661 -4.46042 0
M  V30 5173 H 483.474 1.03921 -4.21168 0
M  V30 5174 H 484.145 2.51426 -4.91415 0
M  V30 5175 H 486.621 2.86332 -3.01916 0
M  V30 5176 H 485.497 4.08703 -3.66406 0
M  V30 5177 H 485.758 3.97725 -1.93048 0
M  V30 5178 N 484.817 1.37938 0.762283 0
M  V30 5179 C 485.765 1.34569 1.89721 0
M  V30 5180 C 486.759 0.232929 1.67791 0
M  V30 5181 O 487.965 0.401485 1.75465 0
M  V30 5182 H 484.34 0.419594 0.624055 0
M  V30 5183 H 486.311 2.30357 1.8968 0
M  V30 5184 C 485.06 1.17898 3.27101 0
M  V30 5185 H 484.383 2.02781 3.44558 0
M  V30 5186 H 485.823 1.19593 4.06784 0
M  V30 5187 C 484.282 -0.114728 3.36705 0
M  V30 5188 O 484.812 -1.0949 3.8649 0
M  V30 5189 N 483.018 -0.16863 2.9011 0
M  V30 5190 H 482.565 0.62967 2.49786 0
M  V30 5191 H 482.523 -1.03383 2.96916 0
M  V30 5192 O 486.334 -0.902626 1.33921 0
M  V30 5193 H 487.025 -1.53762 1.178 0
M  V30 END ATOM
M  V30 BEGIN BOND
M  V30 END BOND
M  V30 END CTAB
M  END
$$$$
