2761
  -OEChem-10051719183D

 56 59  0     0  0  0  0  0  0999 V2000
   -1.4228    0.4419   -0.0148 N   0  0  0  0  0  0  0  0  0  0  0  0
    1.1795    1.6947    0.1172 N   0  0  0  0  0  0  0  0  0  0  0  0
   -0.2439   -0.2971    0.4533 C   0  0  0  0  0  0  0  0  0  0  0  0
   -1.2801    1.8731    0.2794 C   0  0  0  0  0  0  0  0  0  0  0  0
   -2.6430   -0.0925    0.5865 C   0  0  0  0  0  0  0  0  0  0  0  0
    1.0362    0.2633   -0.1762 C   0  0  0  0  0  0  0  0  0  0  0  0
    0.0001    2.4343   -0.3489 C   0  0  0  0  0  0  0  0  0  0  0  0
    2.3990    2.2286   -0.4861 C   0  0  0  0  0  0  0  0  0  0  0  0
   -3.8658    0.7545    0.2663 C   0  0  0  0  0  0  0  0  0  0  0  0
   -2.8642   -1.5586    0.2446 C   0  0  0  0  0  0  0  0  0  0  0  0
    3.6211    1.5312    0.0338 C   0  0  0  0  0  0  0  0  0  0  0  0
   -4.2038    1.7873    1.1171 C   0  0  0  0  0  0  0  0  0  0  0  0
   -3.5302   -2.3616    1.1482 C   0  0  0  0  0  0  0  0  0  0  0  0
   -4.6008    0.4646   -0.8652 C   0  0  0  0  0  0  0  0  0  0  0  0
   -2.3918   -2.0419   -0.9586 C   0  0  0  0  0  0  0  0  0  0  0  0
   -5.3250    2.5636    0.8239 C   0  0  0  0  0  0  0  0  0  0  0  0
   -3.7326   -3.7057    0.8350 C   0  0  0  0  0  0  0  0  0  0  0  0
   -5.7220    1.2410   -1.1586 C   0  0  0  0  0  0  0  0  0  0  0  0
   -2.5942   -3.3860   -1.2718 C   0  0  0  0  0  0  0  0  0  0  0  0
    4.4797    0.8651   -0.7545 C   0  0  0  0  0  0  0  0  0  0  0  0
   -6.0841    2.2904   -0.3140 C   0  0  0  0  0  0  0  0  0  0  0  0
   -3.2646   -4.2179   -0.3750 C   0  0  0  0  0  0  0  0  0  0  0  0
    5.6994    0.1803   -0.2947 C   0  0  0  0  0  0  0  0  0  0  0  0
    5.8213   -0.1663    1.0419 C   0  0  0  0  0  0  0  0  0  0  0  0
    6.7032   -0.1057   -1.2066 C   0  0  0  0  0  0  0  0  0  0  0  0
    6.9765   -0.8155    1.4775 C   0  0  0  0  0  0  0  0  0  0  0  0
    7.8583   -0.7551   -0.7710 C   0  0  0  0  0  0  0  0  0  0  0  0
    7.9949   -1.1099    0.5711 C   0  0  0  0  0  0  0  0  0  0  0  0
   -0.2676   -1.3620    0.2071 H   0  0  0  0  0  0  0  0  0  0  0  0
   -0.1603   -0.2339    1.5478 H   0  0  0  0  0  0  0  0  0  0  0  0
   -1.2644    2.0621    1.3612 H   0  0  0  0  0  0  0  0  0  0  0  0
   -2.0843    2.4638   -0.1696 H   0  0  0  0  0  0  0  0  0  0  0  0
   -2.5152   -0.0599    1.6811 H   0  0  0  0  0  0  0  0  0  0  0  0
    1.8688   -0.3127    0.2435 H   0  0  0  0  0  0  0  0  0  0  0  0
    1.0233    0.0822   -1.2599 H   0  0  0  0  0  0  0  0  0  0  0  0
   -0.0786    2.3952   -1.4441 H   0  0  0  0  0  0  0  0  0  0  0  0
    0.0897    3.4903   -0.0659 H   0  0  0  0  0  0  0  0  0  0  0  0
    2.4985    3.2910   -0.2298 H   0  0  0  0  0  0  0  0  0  0  0  0
    2.3520    2.1713   -1.5818 H   0  0  0  0  0  0  0  0  0  0  0  0
    3.7912    1.6302    1.1021 H   0  0  0  0  0  0  0  0  0  0  0  0
   -3.6315    2.0033    2.0141 H   0  0  0  0  0  0  0  0  0  0  0  0
   -3.8995   -1.9715    2.0919 H   0  0  0  0  0  0  0  0  0  0  0  0
   -4.3434   -0.3240   -1.5619 H   0  0  0  0  0  0  0  0  0  0  0  0
   -1.8917   -1.4176   -1.6927 H   0  0  0  0  0  0  0  0  0  0  0  0
   -5.6086    3.3789    1.4830 H   0  0  0  0  0  0  0  0  0  0  0  0
   -4.2554   -4.3532    1.5330 H   0  0  0  0  0  0  0  0  0  0  0  0
   -6.3103    1.0323   -2.0474 H   0  0  0  0  0  0  0  0  0  0  0  0
   -2.2359   -3.7837   -2.2169 H   0  0  0  0  0  0  0  0  0  0  0  0
    4.2879    0.8191   -1.8243 H   0  0  0  0  0  0  0  0  0  0  0  0
   -6.9567    2.8952   -0.5428 H   0  0  0  0  0  0  0  0  0  0  0  0
   -3.4237   -5.2640   -0.6197 H   0  0  0  0  0  0  0  0  0  0  0  0
    5.0456    0.0224    1.7772 H   0  0  0  0  0  0  0  0  0  0  0  0
    6.6122    0.1653   -2.2551 H   0  0  0  0  0  0  0  0  0  0  0  0
    7.0813   -1.0968    2.5213 H   0  0  0  0  0  0  0  0  0  0  0  0
    8.6515   -0.9844   -1.4766 H   0  0  0  0  0  0  0  0  0  0  0  0
    8.8937   -1.6166    0.9100 H   0  0  0  0  0  0  0  0  0  0  0  0
  1  3  1  0  0  0  0
  1  4  1  0  0  0  0
  1  5  1  0  0  0  0
  2  6  1  0  0  0  0
  2  7  1  0  0  0  0
  2  8  1  0  0  0  0
  3  6  1  0  0  0  0
  3 29  1  0  0  0  0
  3 30  1  0  0  0  0
  4  7  1  0  0  0  0
  4 31  1  0  0  0  0
  4 32  1  0  0  0  0
  5  9  1  0  0  0  0
  5 10  1  0  0  0  0
  5 33  1  0  0  0  0
  6 34  1  0  0  0  0
  6 35  1  0  0  0  0
  7 36  1  0  0  0  0
  7 37  1  0  0  0  0
  8 11  1  0  0  0  0
  8 38  1  0  0  0  0
  8 39  1  0  0  0  0
  9 12  2  0  0  0  0
  9 14  1  0  0  0  0
 10 13  2  0  0  0  0
 10 15  1  0  0  0  0
 11 20  2  0  0  0  0
 11 40  1  0  0  0  0
 12 16  1  0  0  0  0
 12 41  1  0  0  0  0
 13 17  1  0  0  0  0
 13 42  1  0  0  0  0
 14 18  2  0  0  0  0
 14 43  1  0  0  0  0
 15 19  2  0  0  0  0
 15 44  1  0  0  0  0
 16 21  2  0  0  0  0
 16 45  1  0  0  0  0
 17 22  2  0  0  0  0
 17 46  1  0  0  0  0
 18 21  1  0  0  0  0
 18 47  1  0  0  0  0
 19 22  1  0  0  0  0
 19 48  1  0  0  0  0
 20 23  1  0  0  0  0
 20 49  1  0  0  0  0
 21 50  1  0  0  0  0
 22 51  1  0  0  0  0
 23 24  2  0  0  0  0
 23 25  1  0  0  0  0
 24 26  1  0  0  0  0
 24 52  1  0  0  0  0
 25 27  2  0  0  0  0
 25 53  1  0  0  0  0
 26 28  2  0  0  0  0
 26 54  1  0  0  0  0
 27 28  1  0  0  0  0
 27 55  1  0  0  0  0
 28 56  1  0  0  0  0
M  END
> <DATABASE_ID>
DB00568

> <DATABASE_NAME>
drugbank

> <ORIGINAL_SOURCE>
PUBCHEM

> <ORIGINAL_SOURCE_URL>
https://pubchem.ncbi.nlm.nih.gov/rest/pug/compound/inchikey/DERZBLKQOCDDDZ-UHFFFAOYSA-N/SDF?record_type=3d

> <SMILES>
C(C=CC1=CC=CC=C1)N1CCN(CC1)C(C1=CC=CC=C1)C1=CC=CC=C1

> <INCHI_IDENTIFIER>
InChI=1S/C26H28N2/c1-4-11-23(12-5-1)13-10-18-27-19-21-28(22-20-27)26(24-14-6-2-7-15-24)25-16-8-3-9-17-25/h1-17,26H,18-22H2

> <INCHI_KEY>
DERZBLKQOCDDDZ-UHFFFAOYSA-N

> <FORMULA>
C26H28N2

> <MOLECULAR_WEIGHT>
368.5139

> <EXACT_MASS>
368.225248906

> <JCHEM_ACCEPTOR_COUNT>
2

> <JCHEM_AVERAGE_POLARIZABILITY>
43.96337681178743

> <JCHEM_BIOAVAILABILITY>
1

> <JCHEM_DONOR_COUNT>
0

> <JCHEM_FORMAL_CHARGE>
0

> <JCHEM_GHOSE_FILTER>
0

> <JCHEM_IUPAC>
1-(diphenylmethyl)-4-(3-phenylprop-2-en-1-yl)piperazine

> <ALOGPS_LOGP>
5.19

> <JCHEM_LOGP>
5.88039114

> <ALOGPS_LOGS>
-5.33

> <JCHEM_MDDR_LIKE_RULE>
1

> <JCHEM_NUMBER_OF_RINGS>
4

> <JCHEM_PHYSIOLOGICAL_CHARGE>
1

> <JCHEM_PKA_STRONGEST_BASIC>
8.398543592576612

> <JCHEM_POLAR_SURFACE_AREA>
6.48

> <JCHEM_REFRACTIVITY>
119.86480000000005

> <JCHEM_ROTATABLE_BOND_COUNT>
6

> <JCHEM_RULE_OF_FIVE>
0

> <ALOGPS_SOLUBILITY>
1.72e-03 g/l

> <JCHEM_TRADITIONAL_IUPAC>
cinnarizine

> <JCHEM_VEBER_RULE>
1

> <DRUGBANK_ID>
DB00568

> <SECONDARY_ACCESSION_NUMBERS>
APRD00332

> <DRUG_GROUPS>
approved; investigational

> <GENERIC_NAME>
Cinnarizine

> <SYNONYMS>
1-(Diphenylmethyl)-4-(3-phenyl-2-propenyl)piperazine; 1-Benzhydryl-4-cinnamylpiperazin; 1-Cinnamyl-4-(diphenylmethyl)piperazine; Cinarizina; Cinnarizine; Cinnarizinum

> <INTERNATIONAL_BRANDS>
Cinazyn; Cinnageron; Folcodal; Sepan; Stugeron; Stugeron Forte; Toliman

> <SALTS>
Cinnarizine hydrochloride

$$$$