drugbank_target|P02919 Penicillin-binding protein 1B (DB00274; DB00303; DB00430; DB00438; DB00689; DB01327; DB01328; DB01329; DB01331; DB01332; DB01414; DB01415; DB01598; DB04570; DB06211; DB11367)
 OpenBabel12092119333D

  0  0  0     0  0            999 V3000
M  V30 BEGIN CTAB
M  V30 COUNTS 13277 13414 0 0 0
M  V30 BEGIN ATOM
M  V30 1 H -0.908 1.98254 -0.117106 0
M  V30 2 N 0 1.576 0 0
M  V30 3 C 0.933 2.03868 1.02534 0
M  V30 4 C 1.911 0.928543 1.3348 0
M  V30 5 O 3.095 1.19667 1.45644 0
M  V30 6 C 0.222 2.43627 2.35294 0
M  V30 7 C -0.732 3.65373 2.2001 0
M  V30 8 S 0.101 5.13292 1.52614 0
M  V30 9 C 1.257 5.56322 2.86805 0
M  V30 10 H 1.49 2.90518 0.631377 0
M  V30 11 H -0.977 1.52953 0.210867 0
M  V30 12 H 0.981 2.67203 3.11629 0
M  V30 13 H -0.358 1.57376 2.7183 0
M  V30 14 H -1.165 3.90944 3.18086 0
M  V30 15 H -1.563 3.418 1.51819 0
M  V30 16 H 0.729 5.58782 3.83104 0
M  V30 17 H 1.672 6.56266 2.65933 0
M  V30 18 H 2.08 4.83886 2.90714 0
M  V30 19 N 1.4781 -0.272755 1.55222 0
M  V30 20 C 2.4411 -1.32041 1.87344 0
M  V30 21 C 3.4411 -1.42342 0.74803 0
M  V30 22 O 4.6311 -1.41488 1.0162 0
M  V30 23 C 1.7631 -2.70173 2.07893 0
M  V30 24 H 2.9561 -1.04789 2.80997 0
M  V30 25 H 0.5091 -0.51083 1.47717 0
M  V30 26 H 1.2441 -3.02605 1.16622 0
M  V30 27 H 1.0291 -2.64082 2.89833 0
M  V30 28 H 2.5191 -3.45869 2.34017 0
M  V30 29 N 2.9562 -1.48159 -0.537278 0
M  V30 30 C 4.2042 -1.55497 -1.29094 0
M  V30 31 C 4.5252 -0.227454 -1.93669 0
M  V30 32 O 3.7952 0.750386 -1.80959 0
M  V30 33 H 2.3752 -0.572832 -0.47945 0
M  V30 34 H 5.0372 -1.84579 -0.625818 0
M  V30 35 H 4.1332 -2.33216 -2.07405 0
M  V30 36 N 4.4343 0.785586 -1.36625 0
M  V30 37 C 5.3823 1.91978 -1.31329 0
M  V30 38 C 6.3763 1.68162 -0.204416 0
M  V30 39 O 7.5823 1.76122 -0.371645 0
M  V30 40 H 3.9573 0.631087 -0.408942 0
M  V30 41 H 5.9283 1.93562 -2.27104 0
M  V30 42 C 4.6773 3.29055 -1.12329 0
M  V30 43 H 4.0003 3.4795 -1.96903 0
M  V30 44 H 5.4403 4.08756 -1.12671 0
M  V30 45 C 3.8993 3.36461 0.171861 0
M  V30 46 O 4.4293 3.84576 1.16035 0
M  V30 47 N 2.6353 2.89782 0.217846 0
M  V30 48 H 2.1823 2.50819 -0.587183 0
M  V30 49 H 2.1403 2.95119 1.08408 0
M  V30 50 N 5.9124 1.20967 1.01018 0
M  V30 51 C 7.1894 0.93264 1.71934 0
M  V30 52 C 7.5694 -0.55692 2.03621 0
M  V30 53 O 6.9174 -1.52035 1.7058 0
M  V30 54 C 7.1274 1.81233 2.98254 0
M  V30 55 C 8.4754 2.05804 3.71389 0
M  V30 56 O 9.4994 1.78539 3.08225 0
M  V30 57 O 8.3584 2.51888 4.84989 0
M  V30 58 H 5.4524 0.349272 0.749625 0
M  V30 59 H 7.9984 1.31871 1.06808 0
M  V30 60 H 6.7704 2.82067 2.71208 0
M  V30 61 H 6.3934 1.42674 3.7112 0
M  V30 62 N 7.3905 -1.2043 1.01659 0
M  V30 63 C 8.8065 -1.41852 0.731442 0
M  V30 64 C 9.0065 -1.89358 -0.688898 0
M  V30 65 O 8.0625 -2.06247 -1.45666 0
M  V30 66 C 9.3755 -2.44019 1.75714 0
M  V30 67 C 10.9235 -2.57785 1.77527 0
M  V30 68 C 11.3985 -3.63194 2.79023 0
M  V30 69 N 12.8895 -3.70678 2.77763 0
M  V30 70 C 13.6245 -4.51897 3.52954 0
M  V30 71 N 13.1205 -5.36921 4.37821 0
M  V30 72 N 14.9135 -4.4643 3.41551 0
M  V30 73 H 7.0645 -0.879093 1.93354 0
M  V30 74 H 9.3275 -0.448425 0.835236 0
M  V30 75 H 9.0335 -2.1611 2.77469 0
M  V30 76 H 8.9075 -3.43007 1.56927 0
M  V30 77 H 11.2945 -2.85023 0.764569 0
M  V30 78 H 11.3755 -1.58992 2.00387 0
M  V30 79 H 11.0195 -3.36699 3.80258 0
M  V30 80 H 10.9495 -4.61609 2.53425 0
M  V30 81 H 13.4405 -3.09944 2.16201 0
M  V30 82 H 13.7535 -5.95981 4.91962 0
M  V30 83 H 12.0985 -5.36424 4.41899 0
M  V30 84 H 15.2895 -3.79042 2.74672 0
M  V30 85 H 15.4625 -5.09491 4.00404 0
M  V30 86 N 8.8686 -0.792821 -1.36206 0
M  V30 87 C 9.7786 -0.194808 -2.3379 0
M  V30 88 C 10.7946 0.654869 -1.61206 0
M  V30 89 O 11.9706 0.569856 -1.9317 0
M  V30 90 C 9.0356 0.657721 -3.40404 0
M  V30 91 C 8.0966 -0.210849 -4.28782 0
M  V30 92 C 7.3296 0.601086 -5.30304 0
M  V30 93 O 7.5526 1.83682 -5.40016 0
M  V30 94 O 6.4866 -0.000808277 -6.019 0
M  V30 95 H 10.3126 -1.00172 -2.86704 0
M  V30 96 H 7.8976 -0.554341 -1.38735 0
M  V30 97 H 9.7796 1.14375 -4.05581 0
M  V30 98 H 8.4546 1.44247 -2.89784 0
M  V30 99 H 7.3616 -0.743714 -3.66633 0
M  V30 100 H 8.6946 -0.959195 -4.82763 0
M  V30 101 N 10.3467 1.47872 -0.545128 0
M  V30 102 C 11.7577 1.86384 -0.108581 0
M  V30 103 C 12.1087 1.45309 1.31832 0
M  V30 104 O 11.2337 0.850641 1.9898 0
M  V30 105 C 11.8287 3.38265 -0.190274 0
M  V30 106 C 10.3877 3.75914 0.191164 0
M  V30 107 C 9.5347 2.71926 -0.543273 0
M  V30 108 H 12.4857 1.39561 -0.755537 0
M  V30 109 H 12.5067 3.75831 0.594217 0
M  V30 110 H 12.0187 3.6813 -1.2289 0
M  V30 111 H 10.1197 3.51665 1.23136 0
M  V30 112 H 10.2327 4.78836 -0.158987 0
M  V30 113 H 8.5967 2.54697 0.0122495 0
M  V30 114 H 9.3797 3.04634 -1.58282 0
M  V30 115 N 11.8248 0.280983 1.55075 0
M  V30 116 C 13.0738 -0.334784 1.98902 0
M  V30 117 C 13.3868 -1.56534 1.17288 0
M  V30 118 O 14.5928 -2.25443 1.51287 0
M  V30 119 C 13.0488 -0.646994 3.54037 0
M  V30 120 C 12.6568 0.564085 4.44435 0
M  V30 121 C 14.4008 -1.22506 4.06439 0
M  V30 122 C 12.3078 0.226137 5.90967 0
M  V30 123 H 11.2378 -0.128866 0.742906 0
M  V30 124 H 13.8888 0.386556 1.79382 0
M  V30 125 H 12.2708 -1.42739 3.6938 0
M  V30 126 H 13.4448 1.34082 4.40861 0
M  V30 127 H 11.7598 1.0594 4.02698 0
M  V30 128 H 14.3568 -1.49182 5.13468 0
M  V30 129 H 14.6998 -2.16085 3.55827 0
M  V30 130 H 15.2328 -0.50682 3.94558 0
M  V30 131 H 11.9718 1.12996 6.45687 0
M  V30 132 H 11.4918 -0.513717 5.97596 0
M  V30 133 H 13.1708 -0.179539 6.46751 0
M  V30 134 N 13.3029 -1.57598 0.00835791 0
M  V30 135 C 14.5509 -1.90551 -0.6734 0
M  V30 136 C 14.8719 -0.883301 -1.73847 0
M  V30 137 O 14.1419 0.0781442 -1.95744 0
M  V30 138 H 12.7219 -0.703312 -0.251717 0
M  V30 139 H 15.3839 -1.94833 0.0512592 0
M  V30 140 H 14.4799 -2.9056 -1.13935 0
M  V30 141 N 14.781 0.264519 -1.55364 0
M  V30 142 C 16.197 0.61215 -1.47394 0
M  V30 143 C 16.397 1.89134 -0.695018 0
M  V30 144 O 15.453 2.51563 -0.217275 0
M  V30 145 C 16.766 0.731235 -2.91674 0
M  V30 146 C 18.314 0.82473 -3.01939 0
M  V30 147 C 18.789 0.975522 -4.4749 0
M  V30 148 N 20.28 1.04083 -4.51354 0
M  V30 149 C 21.015 1.17646 -5.61201 0
M  V30 150 N 20.511 1.27874 -6.80896 0
M  V30 151 N 22.304 1.20823 -5.48961 0
M  V30 152 H 14.455 -0.575456 -2.04456 0
M  V30 153 H 16.718 -0.196099 -0.927496 0
M  V30 154 H 16.424 -0.138392 -3.51428 0
M  V30 155 H 16.298 1.60883 -3.41169 0
M  V30 156 H 18.685 1.68482 -2.42276 0
M  V30 157 H 18.766 -0.0776479 -2.55682 0
M  V30 158 H 18.41 0.120058 -5.07758 0
M  V30 159 H 18.34 1.89268 -4.91412 0
M  V30 160 H 20.831 0.973846 -3.65136 0
M  V30 161 H 21.144 1.38081 -7.60364 0
M  V30 162 H 19.489 1.24863 -6.83692 0
M  V30 163 H 22.68 1.12469 -4.54388 0
M  V30 164 H 22.853 1.31049 -6.3461 0
M  V30 165 N 16.2591 1.48442 0.529413 0
M  V30 166 C 17.2061 1.63007 1.63394 0
M  V30 167 C 18.1761 0.47212 1.59249 0
M  V30 168 O 19.3611 0.695673 1.77666 0
M  V30 169 C 16.5011 1.6763 3.01653 0
M  V30 170 C 15.6141 2.94535 3.16027 0
M  V30 171 C 14.7491 2.90316 4.44849 0
M  V30 172 C 13.7881 4.11923 4.52754 0
M  V30 173 N 12.9251 4.05777 5.72965 0
M  V30 174 H 17.7651 2.5733 1.50285 0
M  V30 175 H 15.3021 1.27613 0.731656 0
M  V30 176 H 17.2601 1.68292 3.81751 0
M  V30 177 H 15.8901 0.76797 3.13532 0
M  V30 178 H 14.9421 3.03615 2.29177 0
M  V30 179 H 16.2541 3.84512 3.17729 0
M  V30 180 H 15.4081 2.89382 5.33238 0
M  V30 181 H 14.1471 1.98068 4.45668 0
M  V30 182 H 13.1521 4.13131 3.62771 0
M  V30 183 H 14.3771 5.0533 4.53672 0
M  V30 184 H 12.3231 3.16351 5.74681 0
M  V30 185 H 12.2401 4.8946 5.76164 0
M  V30 186 H 13.5081 4.08904 6.6364 0
M  V30 187 N 17.7372 -0.778329 1.37039 0
M  V30 188 C 18.9852 -1.53361 1.31623 0
M  V30 189 C 19.3062 -1.94739 -0.100831 0
M  V30 190 O 18.5762 -1.65797 -1.04347 0
M  V30 191 H 17.1562 -0.568794 0.484234 0
M  V30 192 H 19.8182 -0.926742 1.71457 0
M  V30 193 H 18.9142 -2.43606 1.95096 0
M  V30 194 N 19.2153 -1.21501 -1.00376 0
M  V30 195 C 20.1623 -0.975387 -2.09177 0
M  V30 196 C 21.1323 0.0990615 -1.65804 0
M  V30 197 O 22.3173 -0.0483147 -1.90739 0
M  V30 198 C 19.4573 -0.547507 -3.40729 0
M  V30 199 C 18.5703 -1.69153 -3.97506 0
M  V30 200 C 17.7053 -1.2127 -5.17172 0
M  V30 201 C 16.7443 -2.32897 -5.66061 0
M  V30 202 N 15.8813 -1.86138 -6.76976 0
M  V30 203 H 20.7213 -1.9068 -2.29009 0
M  V30 204 H 18.2583 -0.950257 -1.12288 0
M  V30 205 H 20.2163 -0.280667 -4.16255 0
M  V30 206 H 18.8463 0.346904 -3.20931 0
M  V30 207 H 17.8983 -2.07298 -3.18954 0
M  V30 208 H 19.2103 -2.5316 -4.29781 0
M  V30 209 H 18.3643 -0.902591 -5.99948 0
M  V30 210 H 17.1033 -0.342692 -4.86495 0
M  V30 211 H 16.1083 -2.64709 -4.81881 0
M  V30 212 H 17.3333 -3.20396 -5.98768 0
M  V30 213 H 15.2793 -1.01484 -6.48103 0
M  V30 214 H 15.1963 -2.63717 -7.08512 0
M  V30 215 H 16.4643 -1.58165 -7.63285 0
M  V30 216 N 20.6934 1.19889 -1.02296 0
M  V30 217 C 22.1044 1.71124 -0.746568 0
M  V30 218 C 22.4554 1.81939 0.734335 0
M  V30 219 O 21.5804 1.48639 1.57275 0
M  V30 220 C 22.1754 3.10804 -1.34857 0
M  V30 221 C 20.7344 3.59323 -1.1209 0
M  V30 222 C 19.8814 2.3635 -1.45031 0
M  V30 223 H 22.8324 1.04813 -1.19163 0
M  V30 224 H 22.8534 3.73186 -0.742437 0
M  V30 225 H 22.3654 3.029 -2.42638 0
M  V30 226 H 20.4664 3.7255 -0.0610337 0
M  V30 227 H 20.5794 4.4378 -1.80544 0
M  V30 228 H 18.9434 2.39399 -0.869487 0
M  V30 229 H 19.7264 2.31081 -2.53883 0
M  V30 230 N 22.1715 0.800033 1.35784 0
M  V30 231 C 23.3995 0.389606 2.03199 0
M  V30 232 C 23.8145 -0.997375 1.60306 0
M  V30 233 O 23.1715 -1.64154 0.797481 0
M  V30 234 C 23.2225 0.455855 3.58614 0
M  V30 235 O 22.9435 1.78815 3.99946 0
M  V30 236 C 24.4445 0.0374032 4.43284 0
M  V30 237 H 21.6645 0.159132 0.651857 0
M  V30 238 H 24.2085 1.08183 1.73541 0
M  V30 239 H 22.3635 -0.188057 3.86943 0
M  V30 240 H 22.7775 1.74636 4.94573 0
M  V30 241 H 24.2515 0.134882 5.51835 0
M  V30 242 H 24.7285 -1.01651 4.27275 0
M  V30 243 H 25.3345 0.654215 4.20238 0
M  V30 244 N 23.6496 -1.47581 0.552962 0
M  V30 245 C 25.0656 -1.5818 0.212424 0
M  V30 246 C 25.2656 -1.55213 -1.28496 0
M  V30 247 O 24.3216 -1.45329 -2.06484 0
M  V30 248 C 25.6346 -2.88865 0.835318 0
M  V30 249 C 27.1826 -3.0244 0.806156 0
M  V30 250 C 27.6576 -4.35819 1.40804 0
M  V30 251 N 29.1486 -4.42444 1.37103 0
M  V30 252 C 29.8836 -5.44202 1.80641 0
M  V30 253 N 29.3796 -6.52795 2.32015 0
M  V30 254 N 31.1726 -5.35222 1.71738 0
M  V30 255 H 23.3236 -1.47753 1.52587 0
M  V30 256 H 25.5866 -0.702941 0.636064 0
M  V30 257 H 25.2926 -2.9676 1.88749 0
M  V30 258 H 25.1666 -3.7579 0.325848 0
M  V30 259 H 27.5536 -2.94144 -0.237317 0
M  V30 260 H 27.6346 -2.17068 1.35334 0
M  V30 261 H 27.2786 -4.44871 2.45056 0
M  V30 262 H 27.2086 -5.19916 0.836338 0
M  V30 263 H 29.6996 -3.6456 0.995202 0
M  V30 264 H 30.0126 -7.26609 2.63171 0
M  V30 265 H 28.3576 -6.53696 2.36023 0
M  V30 266 H 31.5486 -4.49284 1.31382 0
M  V30 267 H 31.7216 -6.14389 2.05987 0
M  V30 268 N 25.1277 -0.289203 -1.54924 0
M  V30 269 C 26.5387 0.205791 -1.85562 0
M  V30 270 C 26.8897 1.54351 -1.2112 0
M  V30 271 O 26.0147 2.10435 -0.504601 0
M  V30 272 C 26.6097 0.380177 -3.3666 0
M  V30 273 C 25.1687 0.819395 -3.67373 0
M  V30 274 C 24.3157 -0.079159 -2.77187 0
M  V30 275 H 27.2667 -0.510577 -1.50262 0
M  V30 276 H 27.2877 1.21659 -3.60526 0
M  V30 277 H 26.7997 -0.593589 -3.83534 0
M  V30 278 H 24.9007 1.80413 -3.26009 0
M  V30 279 H 25.0137 0.646957 -4.74712 0
M  V30 280 H 23.3777 0.439565 -2.50878 0
M  V30 281 H 24.1607 -1.04906 -3.26878 0
M  V30 282 N 26.6058 1.57591 -0.0167156 0
M  V30 283 C 27.8518 1.91567 0.665582 0
M  V30 284 C 28.1848 0.892298 1.72487 0
M  V30 285 O 27.4598 -0.0867127 1.94307 0
M  V30 286 C 27.7428 3.36069 1.29342 0
M  V30 287 C 27.5958 4.49135 0.244541 0
M  V30 288 C 28.9148 3.803 2.21495 0
M  V30 289 H 26.0338 0.69666 0.240488 0
M  V30 290 H 28.6758 1.89866 -0.0714356 0
M  V30 291 H 26.8258 3.3765 1.92158 0
M  V30 292 H 28.4978 4.59689 -0.385228 0
M  V30 293 H 26.7408 4.3165 -0.431379 0
M  V30 294 H 27.4118 5.47242 0.723207 0
M  V30 295 H 29.8878 3.80377 1.68678 0
M  V30 296 H 28.7638 4.82127 2.62382 0
M  V30 297 H 29.0248 3.15104 3.101 0
M  V30 298 N 28.0839 -0.256276 1.55502 0
M  V30 299 C 29.0309 -1.31714 1.89526 0
M  V30 300 C 30.0009 -1.4828 0.748479 0
M  V30 301 O 31.1859 -1.62416 1.00128 0
M  V30 302 C 28.3259 -2.66933 2.18725 0
M  V30 303 C 27.4389 -2.58452 3.4616 0
M  V30 304 C 26.5739 -3.85961 3.64976 0
M  V30 305 C 25.6129 -3.72059 4.86044 0
M  V30 306 N 24.7499 -4.9144 5.01429 0
M  V30 307 H 29.5899 -1.01998 2.80001 0
M  V30 308 H 27.1269 -0.492413 1.38613 0
M  V30 309 H 29.0849 -3.4563 2.33657 0
M  V30 310 H 27.7149 -2.94816 1.31466 0
M  V30 311 H 26.7669 -1.71374 3.3961 0
M  V30 312 H 28.0789 -2.44085 4.34999 0
M  V30 313 H 27.2329 -4.73101 3.79816 0
M  V30 314 H 25.9719 -4.03215 2.74353 0
M  V30 315 H 24.9769 -2.83302 4.7119 0
M  V30 316 H 26.2019 -3.56309 5.78118 0
M  V30 317 H 24.1479 -5.09072 4.13741 0
M  V30 318 H 24.0649 -4.79668 5.84341 0
M  V30 319 H 25.3329 -5.80104 5.20672 0
M  V30 320 N 29.562 -1.4872 -0.521534 0
M  V30 321 C 30.494 -1.59968 -1.64143 0
M  V30 322 C 31.507 -0.483463 -1.55456 0
M  V30 323 O 32.696 -0.75467 -1.61762 0
M  V30 324 C 29.796 -1.52127 -3.02838 0
M  V30 325 C 28.969 -2.78932 -3.36921 0
M  V30 326 C 28.028 -2.64428 -4.54933 0
M  V30 327 O 27.054 -3.38331 -4.57735 0
M  V30 328 N 28.256 -1.74606 -5.53618 0
M  V30 329 H 31.021 -2.56548 -1.54929 0
M  V30 330 H 28.582 -1.45551 -0.708988 0
M  V30 331 H 30.574 -1.40106 -3.79674 0
M  V30 332 H 29.144 -0.634868 -3.06085 0
M  V30 333 H 28.364 -3.05455 -2.4918 0
M  V30 334 H 29.652 -3.63041 -3.56481 0
M  V30 335 H 29.05 -1.13782 -5.54139 0
M  V30 336 H 27.607 -1.6852 -6.29638 0
M  V30 337 N 31.0401 0.771051 -1.3745 0
M  V30 338 C 31.9871 1.88435 -1.3327 0
M  V30 339 C 32.9571 1.64914 -0.198136 0
M  V30 340 O 34.1421 1.86821 -0.387606 0
M  V30 341 C 31.2821 3.25509 -1.14622 0
M  V30 342 C 30.3951 3.60979 -2.37314 0
M  V30 343 C 29.5301 4.87265 -2.11533 0
M  V30 344 C 28.5691 5.15469 -3.30088 0
M  V30 345 N 27.7061 6.32944 -3.03853 0
M  V30 346 H 32.5461 1.91344 -2.28455 0
M  V30 347 H 30.0831 0.935466 -1.13523 0
M  V30 348 H 32.0411 4.04582 -1.01831 0
M  V30 349 H 30.6711 3.21974 -0.230837 0
M  V30 350 H 29.7231 2.76885 -2.60842 0
M  V30 351 H 31.0351 3.77759 -3.25729 0
M  V30 352 H 30.1891 5.74244 -1.95777 0
M  V30 353 H 28.9281 4.7259 -1.20457 0
M  V30 354 H 27.9331 4.26966 -3.46382 0
M  V30 355 H 29.1581 5.32052 -4.22016 0
M  V30 356 H 27.1041 6.19625 -2.15407 0
M  V30 357 H 27.0211 6.50143 -3.85812 0
M  V30 358 H 28.2891 7.22857 -2.91716 0
M  V30 359 N 32.5182 1.22032 0.997298 0
M  V30 360 C 33.7642 1.04376 1.73878 0
M  V30 361 C 34.0972 -0.420716 1.89588 0
M  V30 362 O 33.3722 -1.31202 1.43583 0
M  V30 363 C 33.6552 1.75047 3.14691 0
M  V30 364 C 33.5082 3.29062 3.06656 0
M  V30 365 C 34.8272 1.49928 4.13775 0
M  V30 366 H 31.9462 0.380578 0.631133 0
M  V30 367 H 34.5882 1.50312 1.16217 0
M  V30 368 H 32.7382 1.35996 3.63919 0
M  V30 369 H 34.4102 3.7753 2.65083 0
M  V30 370 H 32.6532 3.58967 2.43568 0
M  V30 371 H 33.3242 3.73683 4.06282 0
M  V30 372 H 35.8002 1.83842 3.73285 0
M  V30 373 H 34.6762 2.01878 5.10428 0
M  V30 374 H 34.9372 0.430929 4.39995 0
M  V30 375 N 33.9963 -1.19345 1.0293 0
M  V30 376 C 35.2213 -1.93538 0.745511 0
M  V30 377 C 35.6463 -1.75007 -0.689511 0
M  V30 378 O 35.0043 -1.05265 -1.47611 0
M  V30 379 C 35.0523 -3.43336 1.10239 0
M  V30 380 O 34.1563 -4.11806 0.221289 0
M  V30 381 H 33.4973 -0.604193 0.275404 0
M  V30 382 H 36.0273 -1.5141 1.37609 0
M  V30 383 H 36.0373 -3.94004 1.05947 0
M  V30 384 H 34.7123 -3.56146 2.14786 0
M  V30 385 H 33.2893 -3.715 0.322842 0
M  V30 386 N 35.4744 -0.807222 -1.35358 0
M  V30 387 C 36.8904 -0.491038 -1.51858 0
M  V30 388 C 37.0904 0.987648 -1.75635 0
M  V30 389 O 36.1464 1.77265 -1.79815 0
M  V30 390 C 37.4594 -1.33695 -2.69344 0
M  V30 391 C 39.0074 -1.33246 -2.83222 0
M  V30 392 C 39.4824 -2.1625 -4.03733 0
M  V30 393 N 40.9734 -2.1379 -4.10911 0
M  V30 394 C 41.7084 -2.74772 -5.03277 0
M  V30 395 N 41.2044 -3.44684 -6.0097 0
M  V30 396 N 42.9974 -2.6441 -4.96028 0
M  V30 397 H 35.1484 -1.76485 -1.18181 0
M  V30 398 H 37.4114 -0.751199 -0.578276 0
M  V30 399 H 37.1174 -2.38634 -2.58354 0
M  V30 400 H 36.9914 -0.990618 -3.6396 0
M  V30 401 H 39.3784 -0.290911 -2.93663 0
M  V30 402 H 39.4594 -1.71866 -1.89461 0
M  V30 403 H 39.1034 -3.20445 -3.94052 0
M  V30 404 H 39.0334 -1.74989 -4.96675 0
M  V30 405 H 41.5244 -1.62923 -3.40976 0
M  V30 406 H 41.8374 -3.88501 -6.68047 0
M  V30 407 H 40.1824 -3.48788 -6.01142 0
M  V30 408 H 43.3734 -2.0938 -4.18662 0
M  V30 409 H 43.5464 -3.12225 -5.6782 0
M  V30 410 N 36.9525 1.47285 -0.560781 0
M  V30 411 C 38.3685 1.58065 -0.22081 0
M  V30 412 C 38.5685 1.55892 1.27671 0
M  V30 413 O 37.6245 1.46422 2.0571 0
M  V30 414 C 38.9375 2.88418 -0.850625 0
M  V30 415 C 40.4855 3.02009 -0.822184 0
M  V30 416 C 40.9605 4.35066 -1.43113 0
M  V30 417 N 42.4515 4.41711 -1.39448 0
M  V30 418 C 43.1865 5.43237 -1.83525 0
M  V30 419 N 42.6825 6.51555 -2.35474 0
M  V30 420 N 44.4755 5.34304 -1.74574 0
M  V30 421 H 36.6265 1.46941 -1.53369 0
M  V30 422 H 38.8895 0.699558 -0.639783 0
M  V30 423 H 38.5955 2.95755 -1.9032 0
M  V30 424 H 38.4695 3.75612 -0.345773 0
M  V30 425 H 40.8565 2.94266 0.221714 0
M  V30 426 H 40.9375 2.16347 -1.36483 0
M  V30 427 H 40.5815 4.43565 -2.47412 0
M  V30 428 H 40.5115 5.19465 -0.863899 0
M  V30 429 H 43.0025 3.64027 -1.01452 0
M  V30 430 H 43.3155 7.25203 -2.67021 0
M  V30 431 H 41.6605 6.52435 -2.39487 0
M  V30 432 H 44.8515 4.48581 -1.33763 0
M  V30 433 H 45.0245 6.13288 -2.09242 0
M  V30 434 N 38.4306 0.297415 1.54768 0
M  V30 435 C 39.8466 -0.0560823 1.59501 0
M  V30 436 C 40.0466 -1.52725 1.31444 0
M  V30 437 O 39.1026 -2.27947 1.08611 0
M  V30 438 C 40.4156 0.338631 2.98787 0
M  V30 439 C 41.9636 0.287097 3.11681 0
M  V30 440 C 42.4386 0.656579 4.53269 0
M  V30 441 N 43.9296 0.608977 4.59179 0
M  V30 442 C 44.6646 0.867385 5.66802 0
M  V30 443 N 44.1606 1.19157 6.82476 0
M  V30 444 N 45.9536 0.794687 5.56454 0
M  V30 445 H 38.1046 1.25624 1.71267 0
M  V30 446 H 40.3676 0.509057 0.799728 0
M  V30 447 H 40.0736 1.36263 3.2423 0
M  V30 448 H 39.9476 -0.309508 3.75928 0
M  V30 449 H 42.3346 -0.727649 2.85988 0
M  V30 450 H 42.4156 0.969809 2.36703 0
M  V30 451 H 42.0596 1.66912 4.7969 0
M  V30 452 H 41.9896 -0.0481649 5.26578 0
M  V30 453 H 44.4806 0.369198 3.76092 0
M  V30 454 H 44.7936 1.37482 7.60473 0
M  V30 455 H 43.1386 1.22958 6.84037 0
M  V30 456 H 46.3296 0.541098 4.64962 0
M  V30 457 H 46.5026 0.999445 6.40246 0
M  V30 458 N 39.9087 -1.5758 0.0250728 0
M  V30 459 C 41.1387 -1.95646 -0.663783 0
M  V30 460 C 41.5467 -0.899935 -1.66427 0
M  V30 461 O 40.8897 0.127191 -1.83259 0
M  V30 462 C 40.9517 -3.29835 -1.43 0
M  V30 463 C 40.6157 -4.53197 -0.588305 0
M  V30 464 C 41.6127 -5.19726 0.13469 0
M  V30 465 C 39.2977 -4.99529 -0.526897 0
M  V30 466 C 41.2917 -6.30902 0.90781 0
M  V30 467 C 38.9787 -6.10589 0.24993 0
M  V30 468 C 39.9767 -6.76134 0.965994 0
M  V30 469 O 39.6647 -7.85062 1.7301 0
M  V30 470 H 39.3967 -0.649282 -0.188174 0
M  V30 471 H 41.9507 -2.05245 0.0799006 0
M  V30 472 H 40.1807 -3.16716 -2.21873 0
M  V30 473 H 41.8697 -3.52833 -2.00658 0
M  V30 474 H 42.6357 -4.84904 0.0965562 0
M  V30 475 H 38.5147 -4.48319 -1.07381 0
M  V30 476 H 42.0587 -6.81995 1.46724 0
M  V30 477 H 37.9557 -6.44849 0.289795 0
M  V30 478 H 38.7237 -8.01708 1.64944 0
M  V30 479 N 41.3868 0.248026 -1.55636 0
M  V30 480 C 42.2968 1.32859 -1.93354 0
M  V30 481 C 43.3128 1.52719 -0.833838 0
M  V30 482 O 44.4888 1.66363 -1.13513 0
M  V30 483 C 41.5538 2.66337 -2.21958 0
M  V30 484 C 40.6148 2.55008 -3.45354 0
M  V30 485 C 39.8478 3.82121 -3.72584 0
M  V30 486 O 40.0708 4.83951 -3.01907 0
M  V30 487 O 39.0048 3.80822 -4.6611 0
M  V30 488 H 42.8308 1.03862 -2.85388 0
M  V30 489 H 40.4158 0.448686 -1.42503 0
M  V30 490 H 42.2978 3.45216 -2.4167 0
M  V30 491 H 40.9728 2.95068 -1.33103 0
M  V30 492 H 39.8798 1.7442 -3.30951 0
M  V30 493 H 41.2128 2.31222 -4.34508 0
M  V30 494 N 42.8649 1.48995 0.513639 0
M  V30 495 C 44.1419 1.48338 1.27495 0
M  V30 496 C 44.5219 0.204065 2.10111 0
M  V30 497 O 43.8699 -0.813881 2.13514 0
M  V30 498 C 44.0799 2.75498 2.14247 0
M  V30 499 C 45.4279 3.24484 2.73852 0
M  V30 500 O 46.4519 2.76528 2.24523 0
M  V30 501 O 45.3109 4.07974 3.6362 0
M  V30 502 H 42.4049 0.593149 0.576284 0
M  V30 503 H 44.9509 1.61246 0.528948 0
M  V30 504 H 43.7229 3.60109 1.53092 0
M  V30 505 H 43.3459 2.6539 2.96064 0
M  V30 506 N 44.343 -0.763751 1.37857 0
M  V30 507 C 45.62 -1.51244 1.24035 0
M  V30 508 C 46 -2.10472 -0.162649 0
M  V30 509 O 45.348 -1.96206 -1.17112 0
M  V30 510 C 45.558 -2.58694 2.34261 0
M  V30 511 C 46.906 -3.25878 2.72193 0
M  V30 512 O 47.93 -2.68993 2.33497 0
M  V30 513 O 46.789 -4.2874 3.38887 0
M  V30 514 H 43.883 -0.670243 0.484462 0
M  V30 515 H 46.429 -0.800031 1.49658 0
M  V30 516 H 45.201 -2.13105 3.2818 0
M  V30 517 H 44.824 -3.37527 2.10146 0
M  V30 518 N 45.8211 -1.22559 -0.990812 0
M  V30 519 C 47.0981 -0.959875 -1.70428 0
M  V30 520 C 47.4781 0.524455 -2.04481 0
M  V30 521 O 46.8261 1.49302 -1.72977 0
M  V30 522 C 47.0361 -1.85955 -2.95333 0
M  V30 523 C 48.3841 -2.11687 -3.68068 0
M  V30 524 O 49.4081 -1.8342 -3.05345 0
M  V30 525 O 48.2671 -2.59572 -4.80921 0
M  V30 526 H 45.3611 -0.361154 -0.743974 0
M  V30 527 H 47.9071 -1.33554 -1.04697 0
M  V30 528 H 46.6791 -2.86346 -2.66687 0
M  V30 529 H 46.3021 -1.4856 -3.68803 0
M  V30 530 N 47.2992 1.18797 -1.03562 0
M  V30 531 C 48.5762 1.84469 -0.650434 0
M  V30 532 C 48.9562 1.92319 0.870433 0
M  V30 533 O 48.3042 1.44528 1.76986 0
M  V30 534 C 48.5142 3.2306 -1.32036 0
M  V30 535 C 49.8622 3.9915 -1.44792 0
M  V30 536 O 50.8862 3.32481 -1.27806 0
M  V30 537 O 49.7452 5.18587 -1.72423 0
M  V30 538 H 46.8392 0.795251 -0.226946 0
M  V30 539 H 49.3852 1.26231 -1.13419 0
M  V30 540 H 48.1572 3.1222 -2.3587 0
M  V30 541 H 47.7802 3.88949 -0.8249 0
M  V30 542 N 48.7773 0.814389 1.34928 0
M  V30 543 C 50.0073 0.41054 2.0248 0
M  V30 544 C 50.4153 -0.985625 1.61499 0
M  V30 545 O 49.7583 -1.64781 0.811976 0
M  V30 546 C 49.8203 0.423384 3.56998 0
M  V30 547 C 49.4843 1.77141 4.21272 0
M  V30 548 C 50.4813 2.73093 4.42398 0
M  V30 549 C 48.1663 2.05755 4.58225 0
M  V30 550 C 50.1603 3.95838 4.9959 0
M  V30 551 C 47.8473 3.28762 5.1513 0
M  V30 552 C 48.8453 4.23621 5.35755 0
M  V30 553 O 48.5333 5.44456 5.91458 0
M  V30 554 H 48.2653 0.163997 0.655806 0
M  V30 555 H 50.8193 1.10155 1.73364 0
M  V30 556 H 49.0493 -0.324276 3.85338 0
M  V30 557 H 50.7383 0.0407683 4.0588 0
M  V30 558 H 51.5043 2.5228 4.14222 0
M  V30 559 H 47.3833 1.32727 4.4148 0
M  V30 560 H 50.9273 4.69891 5.15605 0
M  V30 561 H 46.8243 3.49443 5.42734 0
M  V30 562 H 47.5923 5.4586 6.09901 0
M  V30 563 N 50.2554 -1.46986 0.568584 0
M  V30 564 C 51.5324 -1.95592 -0.0174074 0
M  V30 565 C 51.9124 -1.51124 -1.47393 0
M  V30 566 O 51.2604 -0.755329 -2.15655 0
M  V30 567 C 51.4704 -3.48719 0.139913 0
M  V30 568 C 52.8184 -4.246 0.000426376 0
M  V30 569 O 53.8424 -3.56135 0.0680316 0
M  V30 570 O 52.7014 -5.46302 -0.146988 0
M  V30 571 H 49.7954 -0.82498 -0.0577599 0
M  V30 572 H 52.3414 -1.57335 0.635909 0
M  V30 573 H 51.1134 -3.73927 1.15301 0
M  V30 574 H 50.7364 -3.93771 -0.550491 0
M  V30 575 N 51.7335 -0.305618 -1.54608 0
M  V30 576 C 53.0105 0.355652 -1.92339 0
M  V30 577 C 53.3905 1.71324 -1.23335 0
M  V30 578 O 52.7385 2.25473 -0.370702 0
M  V30 579 C 52.9485 0.46572 -3.45879 0
M  V30 580 C 54.2965 0.734426 -4.182 0
M  V30 581 O 55.3205 0.54935 -3.51938 0
M  V30 582 O 54.1795 1.09024 -5.35515 0
M  V30 583 H 51.2735 0.199666 -0.802535 0
M  V30 584 H 53.8195 -0.354017 -1.65966 0
M  V30 585 H 52.5915 -0.488461 -3.88239 0
M  V30 586 H 52.2145 1.22367 -3.78301 0
M  V30 587 N 53.2116 1.57565 -0.0334293 0
M  V30 588 C 54.4416 1.95996 0.653398 0
M  V30 589 C 54.8496 0.908749 1.65947 0
M  V30 590 O 54.1926 -0.117471 1.83324 0
M  V30 591 C 54.2546 3.30589 1.41249 0
M  V30 592 C 53.9186 4.53503 0.564263 0
M  V30 593 C 54.9156 5.19647 -0.16225 0
M  V30 594 C 52.6006 4.99801 0.500398 0
M  V30 595 C 54.5946 6.30412 -0.941255 0
M  V30 596 C 52.2816 6.10448 -0.282308 0
M  V30 597 C 53.2796 6.75612 -1.00184 0
M  V30 598 O 52.9676 7.84134 -1.77171 0
M  V30 599 H 52.6996 0.65027 0.184728 0
M  V30 600 H 55.2536 2.05199 -0.0907841 0
M  V30 601 H 53.4836 3.17888 2.20191 0
M  V30 602 H 55.1726 3.53892 1.98784 0
M  V30 603 H 55.9386 4.84846 -0.12227 0
M  V30 604 H 51.8176 4.48883 1.05002 0
M  V30 605 H 55.3616 6.81208 -1.50339 0
M  V30 606 H 51.2586 6.44686 -0.323989 0
M  V30 607 H 52.0266 8.00822 -1.69194 0
M  V30 608 N 54.6897 -0.239769 1.55765 0
M  V30 609 C 55.9667 -0.990056 1.68693 0
M  V30 610 C 56.3467 -2.03107 0.5754 0
M  V30 611 O 55.6947 -2.24604 -0.42017 0
M  V30 612 C 55.9047 -1.61696 3.09282 0
M  V30 613 C 57.2527 -2.11613 3.6811 0
M  V30 614 O 58.2767 -1.71624 3.12127 0
M  V30 615 O 57.1357 -2.85057 4.66267 0
M  V30 616 H 54.2297 -0.461299 0.686391 0
M  V30 617 H 56.7757 -0.232991 1.68093 0
M  V30 618 H 55.5477 -0.864357 3.81634 0
M  V30 619 H 55.1707 -2.44005 3.13923 0
M  V30 620 N 56.1678 -1.49265 -0.50573 0
M  V30 621 C 57.4448 -1.49012 -1.26707 0
M  V30 622 C 57.8248 -0.215205 -2.1 0
M  V30 623 O 57.1728 0.802547 -2.13943 0
M  V30 624 C 57.3828 -2.7663 -2.12783 0
M  V30 625 C 58.7308 -3.25932 -2.72127 0
M  V30 626 O 59.7548 -2.77715 -2.23054 0
M  V30 627 O 58.6138 -4.09897 -3.61451 0
M  V30 628 H 55.7078 -0.596197 -0.57313 0
M  V30 629 H 58.2538 -1.61524 -0.52039 0
M  V30 630 H 57.0258 -3.60916 -1.5118 0
M  V30 631 H 56.6488 -2.66956 -2.94653 0
M  V30 632 N 57.6459 0.756429 -1.3826 0
M  V30 633 C 58.8759 1.54341 -1.3734 0
M  V30 634 C 59.2839 1.89159 0.0393917 0
M  V30 635 O 58.6269 1.5307 1.01565 0
M  V30 636 C 58.6889 2.87238 -2.16182 0
M  V30 637 C 58.3529 2.74973 -3.65019 0
M  V30 638 C 59.3499 2.44962 -4.58574 0
M  V30 639 C 57.0349 2.92515 -4.08338 0
M  V30 640 C 59.0289 2.32642 -5.93428 0
M  V30 641 C 56.7159 2.79815 -5.43274 0
M  V30 642 C 57.7139 2.49921 -6.35632 0
M  V30 643 O 57.4019 2.37275 -7.68086 0
M  V30 644 H 57.1339 0.484281 -0.471643 0
M  V30 645 H 59.6879 0.944152 -1.82414 0
M  V30 646 H 57.9179 3.49342 -1.65822 0
M  V30 647 H 59.6069 3.48731 -2.07705 0
M  V30 648 H 60.3729 2.31081 -4.26412 0
M  V30 649 H 56.2519 3.14781 -3.368 0
M  V30 650 H 59.7959 2.0923 -6.65484 0
M  V30 651 H 55.6929 2.93269 -5.75034 0
M  V30 652 H 56.4609 2.52509 -7.78577 0
M  V30 653 N 59.124 1.23083 0.984299 0
M  V30 654 C 60.034 1.02515 2.11016 0
M  V30 655 C 61.05 -0.0291702 1.73976 0
M  V30 656 O 62.226 0.165434 2.00719 0
M  V30 657 C 59.291 0.614673 3.41208 0
M  V30 658 C 58.352 1.74359 3.92297 0
M  V30 659 C 57.585 1.35261 5.16275 0
M  V30 660 O 57.808 0.235136 5.69915 0
M  V30 661 O 56.742 2.17227 5.61334 0
M  V30 662 H 60.568 1.96862 2.31255 0
M  V30 663 H 58.153 1.01753 1.09392 0
M  V30 664 H 60.035 0.396518 4.1953 0
M  V30 665 H 58.71 -0.299851 3.22308 0
M  V30 666 H 57.617 2.01635 3.1511 0
M  V30 667 H 58.95 2.63629 4.15645 0
M  V30 668 N 60.6021 -1.18246 1.0419 0
M  V30 669 C 61.8791 -1.84121 0.660208 0
M  V30 670 C 62.2591 -1.92778 -0.860221 0
M  V30 671 O 61.6071 -1.45464 -1.76217 0
M  V30 672 C 61.8171 -3.22355 1.33747 0
M  V30 673 C 63.1651 -3.98376 1.46906 0
M  V30 674 O 64.1891 -3.31799 1.29568 0
M  V30 675 O 63.0481 -5.17665 1.75171 0
M  V30 676 H 60.1421 -0.794036 0.231161 0
M  V30 677 H 62.6881 -1.25628 1.14087 0
M  V30 678 H 61.4601 -3.10964 2.37522 0
M  V30 679 H 61.0831 -3.88506 0.845515 0
M  V30 680 N 62.0802 -0.821533 -1.34494 0
M  V30 681 C 62.9902 -0.244355 -2.33324 0
M  V30 682 C 64.0062 0.620527 -1.62559 0
M  V30 683 O 65.1822 0.528754 -1.94335 0
M  V30 684 C 62.2472 0.585368 -3.41723 0
M  V30 685 C 61.3082 -0.301752 -4.28238 0
M  V30 686 C 60.5412 0.488466 -5.3146 0
M  V30 687 O 60.7642 1.72186 -5.4379 0
M  V30 688 O 59.6982 -0.12848 -6.01763 0
M  V30 689 H 63.5242 -1.06231 -2.84515 0
M  V30 690 H 61.1092 -0.583645 -1.37528 0
M  V30 691 H 62.9912 1.05747 -4.07916 0
M  V30 692 H 61.6662 1.38068 -2.92778 0
M  V30 693 H 60.5732 -0.821315 -3.64973 0
M  V30 694 H 61.9062 -1.06138 -4.8062 0
M  V30 695 N 63.5583 1.46682 -0.576371 0
M  V30 696 C 64.4683 2.34032 0.163141 0
M  V30 697 C 65.4843 1.49367 0.892501 0
M  V30 698 O 66.6603 1.82252 0.857106 0
M  V30 699 C 63.7253 3.26435 1.16795 0
M  V30 700 C 62.7863 4.26998 0.443944 0
M  V30 701 C 62.0193 5.14986 1.40088 0
M  V30 702 O 62.2423 5.05785 2.637 0
M  V30 703 O 61.1763 5.94906 0.914917 0
M  V30 704 H 65.0023 2.98607 -0.55388 0
M  V30 705 H 62.5873 1.45554 -0.336821 0
M  V30 706 H 64.4693 3.83459 1.74748 0
M  V30 707 H 63.1443 2.64465 1.86655 0
M  V30 708 H 62.0513 3.7368 -0.177271 0
M  V30 709 H 63.3843 4.91736 -0.213566 0
M  V30 710 N 65.0364 0.313813 1.54444 0
M  V30 711 C 66.4474 -0.176243 1.85866 0
M  V30 712 C 66.7984 -1.52405 1.23561 0
M  V30 713 O 65.9234 -2.09605 0.538016 0
M  V30 714 C 66.5184 -0.32657 3.37222 0
M  V30 715 C 65.0774 -0.760846 3.6863 0
M  V30 716 C 64.2244 0.123247 2.77026 0
M  V30 717 H 67.1754 0.534418 1.49431 0
M  V30 718 H 67.1964 -1.15908 3.62416 0
M  V30 719 H 66.7084 0.654531 3.82541 0
M  V30 720 H 64.8094 -1.75204 3.28838 0
M  V30 721 H 64.9224 -0.571353 4.75681 0
M  V30 722 H 63.2864 -0.399597 2.51546 0
M  V30 723 H 64.0694 1.10094 3.25168 0
M  V30 724 N 66.5145 -1.57545 0.0417849 0
M  V30 725 C 67.4475 -2.06514 -0.970928 0
M  V30 726 C 68.4255 -0.963607 -1.30971 0
M  V30 727 O 69.6095 -1.23486 -1.4242 0
M  V30 728 C 66.7365 -2.4978 -2.28752 0
M  V30 729 C 65.7825 -3.71078 -2.10246 0
M  V30 730 S 66.6155 -5.17158 -1.38952 0
M  V30 731 C 67.7715 -5.6373 -2.71954 0
M  V30 732 H 68.0045 -2.9209 -0.554129 0
M  V30 733 H 65.5375 -1.53459 -0.17024 0
M  V30 734 H 67.4955 -2.75371 -3.04435 0
M  V30 735 H 66.1565 -1.64527 -2.67562 0
M  V30 736 H 65.3495 -3.9924 -3.07609 0
M  V30 737 H 64.9515 -3.45705 -1.42704 0
M  V30 738 H 67.2435 -5.68743 -3.68154 0
M  V30 739 H 68.1865 -6.63086 -2.4844 0
M  V30 740 H 68.5945 -4.91424 -2.77782 0
M  V30 741 N 67.9926 0.231505 -1.5589 0
M  V30 742 C 69.4036 0.799327 -1.68724 0
M  V30 743 C 69.7546 1.85398 -0.642022 0
M  V30 744 O 68.8796 2.1539 0.208784 0
M  V30 745 C 69.4746 1.45664 -3.05888 0
M  V30 746 C 68.0336 1.97197 -3.20609 0
M  V30 747 C 67.1806 0.828552 -2.64632 0
M  V30 748 H 70.1316 0.00702616 -1.58698 0
M  V30 749 H 70.1526 2.32517 -3.01191 0
M  V30 750 H 69.6646 0.688808 -3.81939 0
M  V30 751 H 67.7656 2.76813 -2.4941 0
M  V30 752 H 67.8786 2.15878 -4.27707 0
M  V30 753 H 66.2426 1.23321 -2.22854 0
M  V30 754 H 67.0256 0.0735544 -3.43221 0
M  V30 755 N 69.4707 1.49531 0.497807 0
M  V30 756 C 70.8867 1.36365 0.829266 0
M  V30 757 C 71.0867 0.399184 1.97506 0
M  V30 758 O 70.1427 -0.167977 2.51941 0
M  V30 759 C 71.4557 2.77153 1.16647 0
M  V30 760 C 73.0037 2.85877 1.27449 0
M  V30 761 C 73.4787 4.2744 1.64497 0
M  V30 762 N 74.9697 4.30265 1.7154 0
M  V30 763 C 75.7047 5.3677 2.01656 0
M  V30 764 N 75.2007 6.53516 2.29976 0
M  V30 765 N 76.9937 5.24189 2.02934 0
M  V30 766 H 69.1447 2.10831 -0.257703 0
M  V30 767 H 71.4077 0.946534 -0.0527091 0
M  V30 768 H 71.1137 3.49442 0.397872 0
M  V30 769 H 70.9877 3.12722 2.10915 0
M  V30 770 H 73.3747 2.13824 2.0338 0
M  V30 771 H 73.4557 2.53887 0.312244 0
M  V30 772 H 73.0997 5.00021 0.891151 0
M  V30 773 H 73.0297 4.56896 2.61827 0
M  V30 774 H 75.5207 3.4607 1.51802 0
M  V30 775 H 75.8337 7.30506 2.52153 0
M  V30 776 H 74.1787 6.56737 2.27425 0
M  V30 777 H 77.3697 4.31988 1.80289 0
M  V30 778 H 77.5427 6.07286 2.26071 0
M  V30 779 N 70.9488 -0.749086 1.3866 0
M  V30 780 C 71.8958 -1.86291 1.36251 0
M  V30 781 C 72.8658 -1.64578 0.224347 0
M  V30 782 O 74.0508 -1.86181 0.417279 0
M  V30 783 C 71.1908 -3.23644 1.19786 0
M  V30 784 C 70.3038 -3.57158 2.43027 0
M  V30 785 C 69.4388 -4.83838 2.19258 0
M  V30 786 C 68.4778 -5.10152 3.38247 0
M  V30 787 N 67.6148 -6.28029 3.13884 0
M  V30 788 H 72.4548 -1.87685 2.3147 0
M  V30 789 H 69.9918 -0.917287 1.14997 0
M  V30 790 H 71.9498 -4.0291 1.08254 0
M  V30 791 H 70.5798 -3.21566 0.282031 0
M  V30 792 H 69.6318 -2.72701 2.65214 0
M  V30 793 H 70.9438 -3.7253 3.31697 0
M  V30 794 H 70.0978 -5.71057 2.04888 0
M  V30 795 H 68.8368 -4.70614 1.2796 0
M  V30 796 H 67.8418 -4.21401 3.53131 0
M  V30 797 H 69.0668 -5.25271 4.30427 0
M  V30 798 H 67.0128 -6.1612 2.25238 0
M  V30 799 H 66.9298 -6.43922 3.96106 0
M  V30 800 H 68.1978 -7.18124 3.03179 0
M  V30 801 N 72.4269 -1.23603 -0.977757 0
M  V30 802 C 73.6749 -1.06759 -1.71601 0
M  V30 803 C 73.9959 0.395929 -1.90938 0
M  V30 804 O 73.2659 1.28356 -1.47992 0
M  V30 805 H 71.8459 -0.392062 -0.635843 0
M  V30 806 H 74.5079 -1.55362 -1.1768 0
M  V30 807 H 73.6039 -1.55763 -2.70452 0
M  V30 808 N 73.905 1.17692 -1.04816 0
M  V30 809 C 74.852 2.21581 -0.645797 0
M  V30 810 C 75.822 1.62367 0.350159 0
M  V30 811 O 77.007 1.89254 0.242433 0
M  V30 812 C 74.147 3.45092 -0.0227568 0
M  V30 813 C 73.26 4.18613 -1.06709 0
M  V30 814 C 72.395 5.29602 -0.411767 0
M  V30 815 C 71.434 5.94904 -1.44067 0
M  V30 816 N 70.571 6.97414 -0.809781 0
M  V30 817 H 75.411 2.55353 -1.5362 0
M  V30 818 H 72.948 1.25438 -0.768364 0
M  V30 819 H 74.906 4.15679 0.35588 0
M  V30 820 H 73.536 3.11917 0.831122 0
M  V30 821 H 72.588 3.46779 -1.5636 0
M  V30 822 H 73.9 4.63293 -1.84827 0
M  V30 823 H 73.054 6.06696 0.0206623 0
M  V30 824 H 71.793 4.86045 0.401438 0
M  V30 825 H 70.798 5.16544 -1.88316 0
M  V30 826 H 72.023 6.40542 -2.25571 0
M  V30 827 H 69.969 6.55998 -0.0170186 0
M  V30 828 H 69.886 7.40386 -1.52856 0
M  V30 829 H 71.154 7.78463 -0.401999 0
M  V30 830 N 75.3831 0.828654 1.34056 0
M  V30 831 C 76.6311 0.41863 1.97717 0
M  V30 832 C 76.9521 -1.02314 1.66002 0
M  V30 833 O 76.2221 -1.71119 0.953683 0
M  V30 834 H 74.8021 0.151809 0.731412 0
M  V30 835 H 77.4641 1.05936 1.63596 0
M  V30 836 H 76.5601 0.542318 3.07352 0
M  V30 837 N 76.8612 -1.46375 0.584142 0
M  V30 838 C 77.8082 -2.30323 -0.148286 0
M  V30 839 C 78.7782 -1.40703 -0.882713 0
M  V30 840 O 79.9632 -1.69651 -0.873099 0
M  V30 841 C 77.1032 -3.25196 -1.15507 0
M  V30 842 C 76.2162 -4.29915 -0.423943 0
M  V30 843 C 75.3512 -5.11914 -1.41838 0
M  V30 844 C 74.3902 -6.08381 -0.673736 0
M  V30 845 N 73.5272 -6.83242 -1.6163 0
M  V30 846 H 78.3672 -2.92427 0.573644 0
M  V30 847 H 75.9042 -1.44118 0.294703 0
M  V30 848 H 77.8622 -3.78646 -1.75166 0
M  V30 849 H 76.4922 -2.64898 -1.8447 0
M  V30 850 H 75.5442 -3.7931 0.287714 0
M  V30 851 H 76.8562 -4.98549 0.158128 0
M  V30 852 H 76.0102 -5.69648 -2.08773 0
M  V30 853 H 74.7492 -4.43243 -2.03438 0
M  V30 854 H 73.7542 -5.49799 0.00938483 0
M  V30 855 H 74.9792 -6.79071 -0.0631082 0
M  V30 856 H 72.9252 -6.1728 -2.22038 0
M  V30 857 H 72.8422 -7.48144 -1.08707 0
M  V30 858 H 74.1102 -7.45534 -2.27596 0
M  V30 859 N 78.3393 -0.321999 -1.54275 0
M  V30 860 C 79.5873 0.280489 -2.00144 0
M  V30 861 C 79.9083 1.52777 -1.21178 0
M  V30 862 O 79.1783 1.9338 -0.313187 0
M  V30 863 H 77.7583 0.106632 -0.73935 0
M  V30 864 H 80.4203 -0.438184 -1.8991 0
M  V30 865 H 79.5163 0.537972 -3.07428 0
M  V30 866 N 79.8174 1.5752 -0.0501392 0
M  V30 867 C 80.7644 2.1147 0.924603 0
M  V30 868 C 81.7344 1.02182 1.30951 0
M  V30 869 O 82.9194 1.29723 1.39916 0
M  V30 870 C 80.0594 2.66337 2.19451 0
M  V30 871 C 79.1724 3.89708 1.86418 0
M  V30 872 C 78.3074 4.32893 3.07859 0
M  V30 873 C 77.3464 5.48967 2.70742 0
M  V30 874 N 76.4834 5.87211 3.84874 0
M  V30 875 H 81.3234 2.94465 0.457639 0
M  V30 876 H 78.8604 1.45531 0.214266 0
M  V30 877 H 80.8184 2.96247 2.93758 0
M  V30 878 H 79.4484 1.86141 2.63726 0
M  V30 879 H 78.5004 3.66396 1.02264 0
M  V30 880 H 79.8124 4.74074 1.55096 0
M  V30 881 H 78.9664 4.6435 3.90466 0
M  V30 882 H 77.7054 3.47336 3.42358 0
M  V30 883 H 76.7104 5.17183 1.86551 0
M  V30 884 H 77.9354 6.3624 2.37436 0
M  V30 885 H 75.8814 5.04607 4.19175 0
M  V30 886 H 75.7984 6.66266 3.57247 0
M  V30 887 H 77.0664 6.23282 4.68123 0
M  V30 888 N 81.2955 -0.223234 1.56011 0
M  V30 889 C 82.5435 -0.946003 1.78592 0
M  V30 890 C 82.8645 -1.84936 0.618349 0
M  V30 891 O 82.1345 -1.92473 -0.364833 0
M  V30 892 H 80.7145 -0.352298 0.658707 0
M  V30 893 H 83.3765 -0.235494 1.93472 0
M  V30 894 H 82.4725 -1.55381 2.70672 0
M  V30 895 N 82.7736 -1.49793 -0.48987 0
M  V30 896 C 84.1896 -1.36803 -0.822022 0
M  V30 897 C 84.3896 -0.409652 -1.97292 0
M  V30 898 O 83.4456 0.154614 -2.52026 0
M  V30 899 C 84.7586 -2.77768 -1.15175 0
M  V30 900 C 86.3066 -2.86549 -1.25931 0
M  V30 901 C 86.7816 -4.28306 -1.62228 0
M  V30 902 N 88.2726 -4.31169 -1.69256 0
M  V30 903 C 89.0076 -5.37832 -1.98807 0
M  V30 904 N 88.5036 -6.54726 -2.26507 0
M  V30 905 N 90.2966 -5.25258 -2.00152 0
M  V30 906 H 82.4476 -2.10691 0.268881 0
M  V30 907 H 84.7106 -0.946241 0.057728 0
M  V30 908 H 84.4166 -3.49648 -0.379335 0
M  V30 909 H 84.2906 -3.13836 -2.09253 0
M  V30 910 H 86.6776 -2.14899 -2.02243 0
M  V30 911 H 86.7586 -2.54049 -0.298776 0
M  V30 912 H 86.4026 -5.00486 -0.864622 0
M  V30 913 H 86.3326 -4.58279 -2.594 0
M  V30 914 H 88.8236 -3.4687 -1.49965 0
M  V30 915 H 89.1366 -7.31833 -2.48276 0
M  V30 916 H 87.4816 -6.57933 -2.23939 0
M  V30 917 H 90.6726 -4.32938 -1.77996 0
M  V30 918 H 90.8456 -6.08476 -2.22848 0
M  V30 919 N 84.2517 0.741722 -1.39055 0
M  V30 920 C 85.1987 1.85566 -1.37237 0
M  V30 921 C 86.1687 1.64457 -0.233072 0
M  V30 922 O 87.3537 1.85957 -0.427147 0
M  V30 923 C 84.4937 3.23004 -1.215 0
M  V30 924 C 83.6067 3.55864 -2.44918 0
M  V30 925 C 82.7417 4.82669 -2.21821 0
M  V30 926 C 81.7807 5.08351 -3.40948 0
M  V30 927 N 80.9177 6.26356 -3.17211 0
M  V30 928 H 85.7577 1.86455 -2.32462 0
M  V30 929 H 83.2947 0.911176 -1.15482 0
M  V30 930 H 85.2527 4.02331 -1.10389 0
M  V30 931 H 83.8827 3.21411 -0.29908 0
M  V30 932 H 82.9347 2.7129 -2.66657 0
M  V30 933 H 84.2467 3.70765 -3.33668 0
M  V30 934 H 83.4007 5.69962 -2.07914 0
M  V30 935 H 82.1397 4.69929 -1.30454 0
M  V30 936 H 81.1447 4.19522 -3.55361 0
M  V30 937 H 82.3697 5.22981 -4.33207 0
M  V30 938 H 80.3157 6.14917 -2.28502 0
M  V30 939 H 80.2327 6.41813 -3.99515 0
M  V30 940 H 81.5007 7.16506 -3.06984 0
M  V30 941 N 85.7298 1.2412 0.971189 0
M  V30 942 C 87.1408 1.07236 1.52831 0
M  V30 943 C 87.4918 -0.357352 1.92918 0
M  V30 944 O 86.6168 -1.24528 1.76979 0
M  V30 945 C 87.2118 1.94043 2.77728 0
M  V30 946 C 85.7708 1.81394 3.29808 0
M  V30 947 C 84.9178 1.89189 2.02738 0
M  V30 948 H 87.8688 1.37648 0.789864 0
M  V30 949 H 87.8898 1.47066 3.5093 0
M  V30 950 H 87.4018 2.98093 2.4852 0
M  V30 951 H 85.5028 0.801634 3.63874 0
M  V30 952 H 85.6158 2.65294 3.98944 0
M  V30 953 H 83.9798 1.32877 2.17292 0
M  V30 954 H 84.7628 2.94812 1.759 0
M  V30 955 N 87.2079 -1.17134 1.05439 0
M  V30 956 C 88.6239 -1.39454 0.776201 0
M  V30 957 C 88.8239 -1.91454 -0.628307 0
M  V30 958 O 87.8799 -2.10777 -1.39031 0
M  V30 959 C 89.1929 -2.38305 1.83388 0
M  V30 960 C 90.7409 -2.52006 1.85639 0
M  V30 961 C 91.2159 -3.54133 2.90437 0
M  V30 962 N 92.7069 -3.61653 2.89415 0
M  V30 963 C 93.4419 -4.4044 3.67152 0
M  V30 964 N 92.9379 -5.22721 4.54681 0
M  V30 965 N 94.7309 -4.35337 3.55581 0
M  V30 966 H 86.8819 -0.817134 1.96053 0
M  V30 967 H 89.1449 -0.421626 0.849079 0
M  V30 968 H 88.8509 -2.07173 2.84204 0
M  V30 969 H 88.7249 -3.37841 1.67761 0
M  V30 970 H 91.1119 -2.82447 0.85486 0
M  V30 971 H 91.1929 -1.52537 2.05344 0
M  V30 972 H 90.8369 -3.24431 3.90777 0
M  V30 973 H 90.7669 -4.53313 2.67983 0
M  V30 974 H 93.2579 -3.02909 2.25952 0
M  V30 975 H 93.5709 -5.80027 5.10674 0
M  V30 976 H 91.9159 -5.22093 4.58741 0
M  V30 977 H 95.1069 -3.70112 2.86592 0
M  V30 978 H 95.2799 -4.96494 4.1641 0
M  V30 979 N 88.686 -0.835752 -1.33615 0
M  V30 980 C 89.934 -0.429109 -1.97492 0
M  V30 981 C 90.255 1.01433 -1.66543 0
M  V30 982 O 89.525 1.70611 -0.962744 0
M  V30 983 H 88.105 -0.155686 -0.730596 0
M  V30 984 H 90.767 -1.06802 -1.63031 0
M  V30 985 H 89.863 -0.55861 -3.0706 0
M  V30 986 N 90.1641 1.46063 -0.591896 0
M  V30 987 C 91.1111 2.30399 0.136069 0
M  V30 988 C 92.0811 1.41169 0.875238 0
M  V30 989 O 93.2661 1.70112 0.86409 0
M  V30 990 C 90.4061 3.25804 1.13781 0
M  V30 991 C 89.5191 4.30134 0.401137 0
M  V30 992 C 88.6541 5.12659 1.39121 0
M  V30 993 C 87.6931 6.0873 0.641462 0
M  V30 994 N 86.8301 6.8409 1.58004 0
M  V30 995 H 91.6701 2.92118 -0.589144 0
M  V30 996 H 89.2071 1.43959 -0.302342 0
M  V30 997 H 91.1651 3.79569 1.73156 0
M  V30 998 H 89.7951 2.65872 1.83062 0
M  V30 999 H 88.8471 3.79152 -0.307826 0
M  V30 1000 H 90.1591 4.98458 -0.184565 0
M  V30 1001 H 89.3131 5.70747 2.05749 0
M  V30 1002 H 88.0521 4.44316 2.01084 0
M  V30 1003 H 87.0571 5.49786 -0.0385419 0
M  V30 1004 H 88.2821 6.79095 0.0270945 0
M  V30 1005 H 86.2281 6.18449 2.18761 0
M  V30 1006 H 86.1451 7.48709 1.04738 0
M  V30 1007 H 87.4131 7.4673 2.23639 0
M  V30 1008 N 91.6422 0.330177 1.54103 0
M  V30 1009 C 93.0582 -0.0222371 1.59585 0
M  V30 1010 C 93.2582 -1.49902 1.34654 0
M  V30 1011 O 92.3142 -2.25592 1.13421 0
M  V30 1012 C 93.6272 0.401932 2.98002 0
M  V30 1013 C 95.1752 0.353145 3.11001 0
M  V30 1014 C 95.6502 0.752576 4.51775 0
M  V30 1015 N 97.1412 0.706239 4.57784 0
M  V30 1016 C 97.8762 0.987417 5.64834 0
M  V30 1017 N 97.3722 1.33607 6.79795 0
M  V30 1018 N 99.1652 0.91254 5.54643 0
M  V30 1019 H 91.3162 1.29228 1.68564 0
M  V30 1020 H 93.5792 0.525906 0.78875 0
M  V30 1021 H 93.2852 1.4311 3.21267 0
M  V30 1022 H 93.1592 -0.229699 3.765 0
M  V30 1023 H 95.5462 -0.666822 2.87467 0
M  V30 1024 H 95.6272 1.0198 2.34593 0
M  V30 1025 H 95.2712 1.77049 4.76042 0
M  V30 1026 H 95.2012 0.0635409 5.26562 0
M  V30 1027 H 97.6922 0.44889 3.75224 0
M  V30 1028 H 98.0052 1.53582 7.57385 0
M  V30 1029 H 96.3502 1.37439 6.81275 0
M  V30 1030 H 99.5412 0.639601 4.6371 0
M  V30 1031 H 99.7142 1.13503 6.37982 0
M  V30 1032 N 93.1203 -1.57491 0.0584922 0
M  V30 1033 C 94.3683 -1.92597 -0.612436 0
M  V30 1034 C 94.6893 -0.938162 -1.70949 0
M  V30 1035 O 93.9593 0.0158301 -1.95894 0
M  V30 1036 H 92.5393 -0.710964 -0.229214 0
M  V30 1037 H 95.2013 -1.94571 0.113218 0
M  V30 1038 H 94.2973 -2.94038 -1.04633 0
M  V30 1039 N 94.5984 0.214957 -1.56127 0
M  V30 1040 C 95.8444 0.935325 -1.80619 0
M  V30 1041 C 96.1994 1.81706 -0.632507 0
M  V30 1042 O 95.4924 1.87931 0.373182 0
M  V30 1043 C 95.6864 1.80314 -3.0858 0
M  V30 1044 C 95.5154 1.00691 -4.38282 0
M  V30 1045 C 94.2854 0.699211 -5.00439 0
M  V30 1046 C 96.4834 0.369057 -5.12974 0
M  V30 1047 N 94.4654 -0.117734 -6.13787 0
M  V30 1048 C 95.8364 -0.310981 -6.1922 0
M  V30 1049 C 97.8914 0.282759 -4.97096 0
M  V30 1050 C 96.5944 -1.06907 -7.11311 0
M  V30 1051 C 98.6204 -0.461881 -5.89594 0
M  V30 1052 C 97.9824 -1.13044 -6.9527 0
M  V30 1053 H 94.0814 0.322307 -0.71249 0
M  V30 1054 H 96.6654 0.205649 -1.93611 0
M  V30 1055 H 94.8364 2.50458 -2.96859 0
M  V30 1056 H 96.5684 2.46148 -3.21237 0
M  V30 1057 H 93.3234 1.01884 -4.62511 0
M  V30 1058 H 93.7474 -0.515235 -6.75037 0
M  V30 1059 H 98.3894 0.785292 -4.15443 0
M  V30 1060 H 96.1074 -1.5831 -7.92442 0
M  V30 1061 H 99.6934 -0.529746 -5.79383 0
M  V30 1062 H 98.5734 -1.69742 -7.65609 0
M  V30 1063 N 96.0765 1.50051 0.48192 0
M  V30 1064 C 97.0065 1.71046 1.58951 0
M  V30 1065 C 97.9875 0.559288 1.60642 0
M  V30 1066 O 99.1725 0.797243 1.77081 0
M  V30 1067 C 96.3025 1.79462 2.97339 0
M  V30 1068 C 95.2565 2.94558 3.10515 0
M  V30 1069 C 94.5825 2.88105 4.50444 0
M  V30 1070 C 95.8825 4.35227 2.88747 0
M  V30 1071 H 97.5765 2.6378 1.41635 0
M  V30 1072 H 95.1225 1.26936 0.679942 0
M  V30 1073 H 97.0755 1.92734 3.74742 0
M  V30 1074 H 95.7995 0.833412 3.15788 0
M  V30 1075 H 94.4585 2.80918 2.35543 0
M  V30 1076 H 94.1065 1.89853 4.65795 0
M  V30 1077 H 93.8065 3.65366 4.60197 0
M  V30 1078 H 95.3305 3.03412 5.29881 0
M  V30 1079 H 96.7445 4.49449 3.55905 0
M  V30 1080 H 95.1415 5.13856 3.09955 0
M  V30 1081 H 96.2115 4.48347 1.84696 0
M  V30 1082 N 97.5546 -0.734337 1.39446 0
M  V30 1083 C 98.8006 -1.49505 1.37913 0
M  V30 1084 C 99.1556 -1.92384 -0.0248416 0
M  V30 1085 O 98.4486 -1.6395 -0.991506 0
M  V30 1086 C 98.6426 -2.74711 2.28623 0
M  V30 1087 C 98.4716 -2.44075 3.777 0
M  V30 1088 C 97.2416 -2.36338 4.46623 0
M  V30 1089 C 99.4396 -2.09574 4.69663 0
M  V30 1090 N 97.4216 -1.9818 5.81032 0
M  V30 1091 C 98.7926 -1.81865 5.92727 0
M  V30 1092 C 100.848 -1.96048 4.57678 0
M  V30 1093 C 99.5506 -1.41992 7.05146 0
M  V30 1094 C 101.577 -1.57579 5.7002 0
M  V30 1095 C 100.939 -1.30754 6.92158 0
M  V30 1096 H 97.0376 -0.545896 0.55993 0
M  V30 1097 H 99.6216 -0.853373 1.75002 0
M  V30 1098 H 97.7926 -3.36657 1.93692 0
M  V30 1099 H 99.5246 -3.40916 2.18078 0
M  V30 1100 H 96.2796 -2.53456 4.00071 0
M  V30 1101 H 96.7036 -1.81691 6.52163 0
M  V30 1102 H 101.346 -2.15455 3.63784 0
M  V30 1103 H 99.0636 -1.21327 7.9894 0
M  V30 1104 H 102.65 -1.47718 5.62735 0
M  V30 1105 H 101.53 -1.01432 7.77612 0
M  V30 1106 N 99.0327 -1.24633 -0.964593 0
M  V30 1107 C 99.9627 -1.06611 -2.07741 0
M  V30 1108 C 100.944 0.0218666 -1.70086 0
M  V30 1109 O 102.129 -0.145793 -1.93652 0
M  V30 1110 C 99.2587 -0.673444 -3.40708 0
M  V30 1111 C 98.2127 -1.71054 -3.92332 0
M  V30 1112 C 97.5387 -1.17285 -5.21678 0
M  V30 1113 C 98.8387 -3.10718 -4.19824 0
M  V30 1114 H 100.533 -1.99693 -2.23076 0
M  V30 1115 H 98.0787 -0.96152 -1.07195 0
M  V30 1116 H 100.032 -0.534345 -4.17998 0
M  V30 1117 H 98.7557 0.293073 -3.25282 0
M  V30 1118 H 97.4147 -1.83791 -3.17201 0
M  V30 1119 H 97.0627 -0.196847 -5.02615 0
M  V30 1120 H 96.7627 -1.86592 -5.57187 0
M  V30 1121 H 98.2867 -1.04593 -6.01575 0
M  V30 1122 H 99.7007 -3.01192 -4.87808 0
M  V30 1123 H 98.0977 -3.77406 -4.66567 0
M  V30 1124 H 99.1677 -3.58524 -3.26479 0
M  V30 1125 N 100.511 1.16574 -1.06058 0
M  V30 1126 C 101.441 2.23057 -0.690488 0
M  V30 1127 C 102.422 1.67141 0.315901 0
M  V30 1128 O 103.607 1.93253 0.191556 0
M  V30 1129 C 100.737 3.47222 -0.073625 0
M  V30 1130 C 99.6908 4.16016 -1.00573 0
M  V30 1131 C 99.0168 5.34104 -0.252289 0
M  V30 1132 C 100.317 4.67264 -2.33371 0
M  V30 1133 H 102.011 2.54271 -1.58072 0
M  V30 1134 H 99.5568 1.22218 -0.76149 0
M  V30 1135 H 101.51 4.20939 0.19714 0
M  V30 1136 H 100.234 3.15302 0.85161 0
M  V30 1137 H 98.8928 3.44223 -1.2612 0
M  V30 1138 H 98.5408 4.98437 0.675988 0
M  V30 1139 H 98.2408 5.81072 -0.873455 0
M  V30 1140 H 99.7648 6.10599 0.0109857 0
M  V30 1141 H 101.179 5.32573 -2.12223 0
M  V30 1142 H 99.5758 5.24843 -2.90963 0
M  V30 1143 H 100.646 3.83602 -2.96611 0
M  V30 1144 N 101.989 0.842826 1.3317 0
M  V30 1145 C 102.919 0.294028 2.31641 0
M  V30 1146 C 103.9 -0.600401 1.59151 0
M  V30 1147 O 105.085 -0.523124 1.87022 0
M  V30 1148 C 102.215 -0.528416 3.43257 0
M  V30 1149 C 101.169 0.27056 4.27144 0
M  V30 1150 C 100.495 -0.675881 5.30411 0
M  V30 1151 C 101.795 1.48981 5.00602 0
M  V30 1152 H 103.489 1.11681 2.77791 0
M  V30 1153 H 101.035 0.538478 1.33553 0
M  V30 1154 H 102.988 -0.922674 4.11175 0
M  V30 1155 H 101.712 -1.38445 2.95805 0
M  V30 1156 H 100.371 0.646427 3.60856 0
M  V30 1157 H 100.019 -1.52842 4.79216 0
M  V30 1158 H 99.7189 -0.145374 5.8742 0
M  V30 1159 H 101.243 -1.06757 6.01195 0
M  V30 1160 H 102.657 1.16849 5.61266 0
M  V30 1161 H 101.054 1.95739 5.6728 0
M  V30 1162 H 102.124 2.25746 4.29147 0
M  V30 1163 N 103.467 -1.45747 0.599634 0
M  V30 1164 C 104.414 -2.30467 -0.123849 0
M  V30 1165 C 105.384 -1.41632 -0.86774 0
M  V30 1166 O 106.569 -1.70568 -0.855056 0
M  V30 1167 C 103.709 -3.26402 -1.12051 0
M  V30 1168 C 102.822 -4.3034 -0.37832 0
M  V30 1169 C 101.957 -5.13389 -1.364 0
M  V30 1170 C 100.996 -6.09061 -0.609171 0
M  V30 1171 N 100.133 -6.84918 -1.54374 0
M  V30 1172 H 104.973 -2.91802 0.604627 0
M  V30 1173 H 102.51 -1.43797 0.309972 0
M  V30 1174 H 104.468 -3.80482 -1.7114 0
M  V30 1175 H 103.098 -2.66839 -1.8165 0
M  V30 1176 H 102.15 -3.78984 0.327929 0
M  V30 1177 H 103.462 -4.98354 0.210997 0
M  V30 1178 H 102.616 -5.7183 -2.02719 0
M  V30 1179 H 101.355 -4.45376 -1.98725 0
M  V30 1180 H 100.36 -5.49758 0.0676979 0
M  V30 1181 H 101.585 -6.79099 0.00891991 0
M  V30 1182 H 99.531 -6.19601 -2.15478 0
M  V30 1183 H 99.448 -7.49254 -1.00766 0
M  V30 1184 H 100.716 -7.47906 -2.19676 0
M  V30 1185 N 104.945 -0.338344 -1.53925 0
M  V30 1186 C 105.875 0.51328 -2.27789 0
M  V30 1187 C 106.856 1.107 -1.29149 0
M  V30 1188 O 108.041 1.12937 -1.57984 0
M  V30 1189 C 105.171 1.66697 -3.04679 0
M  V30 1190 C 104.125 1.20183 -4.1078 0
M  V30 1191 C 103.451 2.44363 -4.75595 0
M  V30 1192 C 104.751 0.30605 -5.21403 0
M  V30 1193 H 106.445 -0.102883 -2.99223 0
M  V30 1194 H 103.991 -0.0509219 -1.4391 0
M  V30 1195 H 105.944 2.26915 -3.55088 0
M  V30 1196 H 104.668 2.30995 -2.30887 0
M  V30 1197 H 103.327 0.622499 -3.61276 0
M  V30 1198 H 102.975 3.07057 -3.98403 0
M  V30 1199 H 102.675 2.13925 -5.47275 0
M  V30 1200 H 104.199 3.05317 -5.28786 0
M  V30 1201 H 105.613 0.814929 -5.67478 0
M  V30 1202 H 104.01 0.0937929 -6.00027 0
M  V30 1203 H 105.08 -0.65921 -4.80398 0
M  V30 1204 N 106.423 1.57458 -0.0668435 0
M  V30 1205 C 107.386 2.11323 0.887422 0
M  V30 1206 C 108.386 1.03618 1.22964 0
M  V30 1207 O 109.576 1.29626 1.16373 0
M  V30 1208 C 106.708 2.61048 2.19242 0
M  V30 1209 H 107.901 2.96942 0.420194 0
M  V30 1210 H 105.454 1.55239 0.181793 0
M  V30 1211 H 106.189 1.78868 2.70512 0
M  V30 1212 H 105.974 3.39769 1.95702 0
M  V30 1213 H 107.464 3.02814 2.87565 0
M  V30 1214 N 107.901 -0.206675 1.56239 0
M  V30 1215 C 109.15 -0.926964 1.79138 0
M  V30 1216 C 109.463 -1.84901 0.638043 0
M  V30 1217 O 110.669 -2.60906 0.751033 0
M  V30 1218 C 109.125 -1.6986 3.17294 0
M  V30 1219 C 108.733 -0.821956 4.40395 0
M  V30 1220 C 110.477 -2.40922 3.4951 0
M  V30 1221 C 108.384 -1.59179 5.69575 0
M  V30 1222 H 107.314 -0.349864 0.667915 0
M  V30 1223 H 109.965 -0.180487 1.8261 0
M  V30 1224 H 108.347 -2.48853 3.08039 0
M  V30 1225 H 109.521 -0.0715019 4.60745 0
M  V30 1226 H 107.836 -0.222741 4.15804 0
M  V30 1227 H 110.433 -2.99047 4.43255 0
M  V30 1228 H 110.776 -3.14542 2.72707 0
M  V30 1229 H 111.309 -1.68905 3.60161 0
M  V30 1230 H 108.048 -0.898589 6.49312 0
M  V30 1231 H 107.568 -2.31648 5.53262 0
M  V30 1232 H 109.247 -2.14862 6.10281 0
M  V30 1233 N 109.379 -1.50304 -0.473955 0
M  V30 1234 C 110.625 -1.61389 -1.22806 0
M  V30 1235 C 110.958 -0.311955 -1.91678 0
M  V30 1236 O 110.233 0.686384 -1.81986 0
M  V30 1237 C 110.516 -2.79219 -2.27396 0
M  V30 1238 C 110.369 -4.19286 -1.62848 0
M  V30 1239 C 111.688 -2.92614 -3.28732 0
M  V30 1240 H 108.807 -0.587399 -0.445119 0
M  V30 1241 H 111.449 -1.82681 -0.522265 0
M  V30 1242 H 109.599 -2.61195 -2.87592 0
M  V30 1243 H 111.271 -4.48892 -1.06271 0
M  V30 1244 H 109.514 -4.23677 -0.931693 0
M  V30 1245 H 110.185 -4.97655 -2.38838 0
M  V30 1246 H 112.661 -3.09105 -2.78556 0
M  V30 1247 H 111.537 -3.76688 -3.99246 0
M  V30 1248 H 111.798 -2.03107 -3.92683 0
M  V30 1249 N 110.857 0.726932 -1.39834 0
M  V30 1250 C 112.104 1.48664 -1.37496 0
M  V30 1251 C 112.432 1.94482 0.0264678 0
M  V30 1252 O 111.687 1.67692 1.00886 0
M  V30 1253 C 111.986 2.73495 -2.30077 0
M  V30 1254 C 111.652 2.46502 -3.77555 0
M  V30 1255 C 110.314 2.3885 -4.17737 0
M  V30 1256 C 112.666 2.23604 -4.70798 0
M  V30 1257 C 109.994 2.06352 -5.49214 0
M  V30 1258 C 112.346 1.92622 -6.02561 0
M  V30 1259 C 111.01 1.83444 -6.41798 0
M  V30 1260 H 110.28 0.544001 -0.503135 0
M  V30 1261 H 112.927 0.833657 -1.72402 0
M  V30 1262 H 111.232 3.43575 -1.88317 0
M  V30 1263 H 112.929 3.31549 -2.25558 0
M  V30 1264 H 109.519 2.5334 -3.45712 0
M  V30 1265 H 113.703 2.28479 -4.40581 0
M  V30 1266 H 108.959 1.97776 -5.78528 0
M  V30 1267 H 113.133 1.73914 -6.74334 0
M  V30 1268 H 110.76 1.58029 -7.43593 0
M  V30 1269 N 112.336 1.25143 0.95797 0
M  V30 1270 C 113.299 1.05321 2.03569 0
M  V30 1271 C 114.299 0.007152 1.60798 0
M  V30 1272 O 115.489 0.24903 1.72411 0
M  V30 1273 C 112.621 0.598394 3.35607 0
M  V30 1274 H 113.814 2.00986 2.22586 0
M  V30 1275 H 111.367 1.07502 1.13459 0
M  V30 1276 H 112.102 -0.361014 3.22284 0
M  V30 1277 H 111.887 1.35351 3.67998 0
M  V30 1278 H 113.377 0.48104 4.1482 0
M  V30 1279 N 113.814 -1.1601 1.06675 0
M  V30 1280 C 115.06 -1.86909 0.786945 0
M  V30 1281 C 115.393 -1.81717 -0.685018 0
M  V30 1282 O 114.668 -1.23551 -1.50218 0
M  V30 1283 C 114.951 -3.36313 1.28707 0
M  V30 1284 C 114.804 -3.50175 2.82308 0
M  V30 1285 C 116.123 -4.3084 0.898071 0
M  V30 1286 H 113.242 -0.678677 0.287343 0
M  V30 1287 H 115.884 -1.36336 1.32334 0
M  V30 1288 H 114.034 -3.79513 0.830768 0
M  V30 1289 H 115.706 -3.15886 3.36175 0
M  V30 1290 H 113.949 -2.91959 3.20847 0
M  V30 1291 H 114.62 -4.55116 3.12368 0
M  V30 1292 H 117.096 -3.95561 1.29114 0
M  V30 1293 H 115.972 -5.33876 1.27543 0
M  V30 1294 H 116.233 -4.41662 -0.196651 0
M  V30 1295 N 115.292 -0.849877 -1.32721 0
M  V30 1296 C 116.222 -0.306308 -2.31482 0
M  V30 1297 C 117.203 0.591952 -1.59468 0
M  V30 1298 O 118.388 0.513199 -1.87296 0
M  V30 1299 C 115.518 0.510204 -3.43532 0
M  V30 1300 C 114.472 -0.293209 -4.26994 0
M  V30 1301 C 113.798 0.647743 -5.30762 0
M  V30 1302 C 115.098 -1.51634 -4.99804 0
M  V30 1303 H 116.792 -1.13153 -2.77195 0
M  V30 1304 H 114.338 -0.545553 -1.33266 0
M  V30 1305 H 116.291 0.900856 -4.11658 0
M  V30 1306 H 115.015 1.36874 -2.96535 0
M  V30 1307 H 113.674 -0.665555 -3.60508 0
M  V30 1308 H 113.322 1.50299 -4.8002 0
M  V30 1309 H 113.022 0.11422 -5.87489 0
M  V30 1310 H 114.546 1.03567 -6.01753 0
M  V30 1311 H 115.96 -1.19824 -5.60638 0
M  V30 1312 H 114.357 -1.98745 -5.66234 0
M  V30 1313 H 115.427 -2.28018 -4.27943 0
M  V30 1314 N 116.77 1.45427 -0.607355 0
M  V30 1315 C 118.019 2.01452 -0.100036 0
M  V30 1316 C 118.332 1.48159 1.27704 0
M  V30 1317 O 119.538 1.96159 1.87707 0
M  V30 1318 C 117.994 3.59672 -0.128158 0
M  V30 1319 C 117.602 4.21962 -1.50507 0
M  V30 1320 C 119.346 4.23262 0.323932 0
M  V30 1321 C 117.253 5.72333 -1.48959 0
M  V30 1322 H 116.183 0.75325 -0.0336299 0
M  V30 1323 H 118.834 1.66901 -0.76265 0
M  V30 1324 H 117.216 3.91411 0.601105 0
M  V30 1325 H 118.39 4.01796 -2.25602 0
M  V30 1326 H 116.705 3.70565 -1.89923 0
M  V30 1327 H 119.302 5.33522 0.354691 0
M  V30 1328 H 119.645 3.93921 1.34656 0
M  V30 1329 H 120.178 3.96239 -0.352056 0
M  V30 1330 H 116.917 6.06373 -2.48981 0
M  V30 1331 H 116.437 5.94691 -0.781214 0
M  V30 1332 H 118.116 6.35525 -1.21313 0
M  V30 1333 N 118.248 0.346503 1.53744 0
M  V30 1334 C 119.211 -0.496439 2.23759 0
M  V30 1335 C 120.211 -1.0252 1.2388 0
M  V30 1336 O 121.401 -0.913974 1.48297 0
M  V30 1337 C 118.533 -1.69187 2.95954 0
M  V30 1338 H 119.726 0.115952 2.99676 0
M  V30 1339 H 117.279 0.0978939 1.55993 0
M  V30 1340 H 118.014 -2.34288 2.24231 0
M  V30 1341 H 117.799 -1.31989 3.69217 0
M  V30 1342 H 119.289 -2.28969 3.49232 0
M  V30 1343 N 119.726 -1.57421 0.075193 0
M  V30 1344 C 120.975 -1.92794 -0.592731 0
M  V30 1345 C 121.288 -0.957478 -1.70563 0
M  V30 1346 O 122.494 -1.20417 -2.43335 0
M  V30 1347 C 120.95 -3.42495 -1.10569 0
M  V30 1348 C 120.558 -4.47994 -0.0236121 0
M  V30 1349 C 122.302 -3.86864 -1.74748 0
M  V30 1350 C 120.209 -5.88829 -0.550803 0
M  V30 1351 H 119.139 -0.719591 -0.225177 0
M  V30 1352 H 121.79 -1.82902 0.147978 0
M  V30 1353 H 120.172 -3.47471 -1.89947 0
M  V30 1354 H 121.346 -4.54637 0.751099 0
M  V30 1355 H 119.661 -4.13113 0.522159 0
M  V30 1356 H 122.258 -4.8947 -2.15229 0
M  V30 1357 H 122.601 -3.24417 -2.60882 0
M  V30 1358 H 123.134 -3.84504 -1.01986 0
M  V30 1359 H 119.873 -6.54929 0.273457 0
M  V30 1360 H 119.393 -5.85698 -1.29296 0
M  V30 1361 H 121.072 -6.38811 -1.02613 0
M  V30 1362 N 121.204 0.198386 -1.56346 0
M  V30 1363 C 122.434 0.934215 -1.84271 0
M  V30 1364 C 122.842 1.77496 -0.655125 0
M  V30 1365 O 122.185 1.7961 0.385488 0
M  V30 1366 C 122.247 1.88278 -3.06254 0
M  V30 1367 C 121.911 1.22431 -4.40295 0
M  V30 1368 C 122.908 0.602839 -5.16393 0
M  V30 1369 C 120.593 1.22915 -4.87029 0
M  V30 1370 C 122.587 -0.0050083 -6.374 0
M  V30 1371 C 120.274 0.617465 -6.07973 0
M  V30 1372 C 121.272 0.00146341 -6.83 0
M  V30 1373 O 120.96 -0.600642 -8.01653 0
M  V30 1374 H 120.692 0.278245 -0.616081 0
M  V30 1375 H 123.246 0.211626 -2.04307 0
M  V30 1376 H 121.476 2.64498 -2.82095 0
M  V30 1377 H 123.165 2.48612 -3.20853 0
M  V30 1378 H 123.931 0.591265 -4.81382 0
M  V30 1379 H 119.81 1.69801 -4.28589 0
M  V30 1380 H 123.354 -0.48643 -6.95902 0
M  V30 1381 H 119.251 0.62653 -6.42452 0
M  V30 1382 H 120.019 -0.497225 -8.16988 0
M  V30 1383 N 122.682 1.50554 0.465978 0
M  V30 1384 C 123.93 1.61479 1.21528 0
M  V30 1385 C 124.251 0.319596 1.92363 0
M  V30 1386 O 123.521 -0.663194 1.84333 0
M  V30 1387 H 122.101 0.595055 0.451573 0
M  V30 1388 H 124.763 1.87355 0.53704 0
M  V30 1389 H 123.859 2.42846 1.96042 0
M  V30 1390 N 124.16 -0.719506 1.40217 0
M  V30 1391 C 125.406 -1.48152 1.38488 0
M  V30 1392 C 125.739 -1.94195 -0.0141867 0
M  V30 1393 O 125.014 -1.67884 -0.982096 0
M  V30 1394 C 125.297 -2.71035 2.37091 0
M  V30 1395 C 125.15 -2.30912 3.86005 0
M  V30 1396 C 126.469 -3.73182 2.33288 0
M  V30 1397 H 123.588 -0.537395 0.504357 0
M  V30 1398 H 126.23 -0.821472 1.71324 0
M  V30 1399 H 124.38 -3.27352 2.0922 0
M  V30 1400 H 126.052 -1.80107 4.24687 0
M  V30 1401 H 124.295 -1.62958 4.02029 0
M  V30 1402 H 124.966 -3.18978 4.50508 0
M  V30 1403 H 127.442 -3.26485 2.57966 0
M  V30 1404 H 126.318 -4.56806 3.04334 0
M  V30 1405 H 126.579 -4.21202 1.34317 0
M  V30 1406 N 125.638 -1.25649 -0.95132 0
M  V30 1407 C 126.868 -1.13179 -1.72841 0
M  V30 1408 C 127.276 0.316827 -1.86528 0
M  V30 1409 O 126.619 1.22948 -1.3649 0
M  V30 1410 C 126.681 -1.71644 -3.15878 0
M  V30 1411 C 126.345 -3.20667 -3.25609 0
M  V30 1412 C 127.342 -4.17616 -3.09666 0
M  V30 1413 C 125.027 -3.6094 -3.49324 0
M  V30 1414 C 127.021 -5.52817 -3.17289 0
M  V30 1415 C 124.708 -4.96278 -3.56584 0
M  V30 1416 C 125.706 -5.92025 -3.40581 0
M  V30 1417 O 125.394 -7.24899 -3.47528 0
M  V30 1418 H 125.126 -0.395389 -0.54831 0
M  V30 1419 H 127.68 -1.66566 -1.20187 0
M  V30 1420 H 125.91 -1.12707 -3.69911 0
M  V30 1421 H 127.599 -1.54225 -3.75459 0
M  V30 1422 H 128.365 -3.87842 -2.91211 0
M  V30 1423 H 124.244 -2.86907 -3.6084 0
M  V30 1424 H 127.788 -6.2753 -3.04716 0
M  V30 1425 H 123.685 -5.25716 -3.74556 0
M  V30 1426 H 124.453 -7.33039 -3.64138 0
M  V30 1427 N 127.117 1.15442 -1.07289 0
M  V30 1428 C 128.047 2.22312 -0.714107 0
M  V30 1429 C 129.028 1.67467 0.298155 0
M  V30 1430 O 130.213 1.93445 0.171048 0
M  V30 1431 C 127.343 3.47124 -0.110448 0
M  V30 1432 C 126.297 4.14926 -1.04979 0
M  V30 1433 C 125.623 5.33807 -0.308924 0
M  V30 1434 C 126.923 4.64762 -2.38314 0
M  V30 1435 H 128.617 2.5258 -1.6076 0
M  V30 1436 H 126.163 1.21404 -0.77441 0
M  V30 1437 H 128.116 4.21124 0.152482 0
M  V30 1438 H 126.84 3.16187 0.81812 0
M  V30 1439 H 125.499 3.42866 -1.29764 0
M  V30 1440 H 125.147 4.99126 0.623084 0
M  V30 1441 H 124.847 5.80113 -0.935036 0
M  V30 1442 H 126.371 6.10576 -0.0537771 0
M  V30 1443 H 127.785 5.30292 -2.1786 0
M  V30 1444 H 126.182 5.21728 -2.96514 0
M  V30 1445 H 127.252 3.80434 -3.00663 0
M  V30 1446 N 128.595 0.856903 1.32268 0
M  V30 1447 C 129.872 0.382583 1.91822 0
M  V30 1448 C 130.252 -1.13407 1.78051 0
M  V30 1449 O 129.6 -1.95673 1.18001 0
M  V30 1450 C 129.81 0.849446 3.38505 0
M  V30 1451 C 131.158 0.867936 4.15634 0
M  V30 1452 O 132.182 0.794232 3.47232 0
M  V30 1453 O 131.041 0.972286 5.37781 0
M  V30 1454 H 128.135 0.112014 0.819379 0
M  V30 1455 H 130.681 0.943952 1.41024 0
M  V30 1456 H 129.453 1.89267 3.42482 0
M  V30 1457 H 129.076 0.265652 3.96712 0
M  V30 1458 N 130.073 -1.45103 0.615059 0
M  V30 1459 C 131.005 -2.28786 -0.13762 0
M  V30 1460 C 132.018 -1.40376 -0.824525 0
M  V30 1461 O 133.207 -1.64681 -0.688662 0
M  V30 1462 C 130.307 -3.16322 -1.21628 0
M  V30 1463 C 129.48 -4.33054 -0.615039 0
M  V30 1464 C 128.539 -5.01743 -1.58556 0
M  V30 1465 O 127.565 -5.58293 -1.10895 0
M  V30 1466 N 128.767 -5.01714 -2.91998 0
M  V30 1467 H 131.532 -2.94025 0.580483 0
M  V30 1468 H 129.093 -1.55373 0.45507 0
M  V30 1469 H 131.085 -3.59139 -1.86552 0
M  V30 1470 H 129.655 -2.52943 -1.83681 0
M  V30 1471 H 128.875 -3.93627 0.21245 0
M  V30 1472 H 130.163 -5.08431 -0.193704 0
M  V30 1473 H 129.561 -4.57075 -3.33316 0
M  V30 1474 H 128.118 -5.48371 -3.52325 0
M  V30 1475 N 131.551 -0.354651 -1.53558 0
M  V30 1476 C 132.498 0.496968 -2.25386 0
M  V30 1477 C 133.468 1.0865 -1.25636 0
M  V30 1478 O 134.653 1.12104 -1.54394 0
M  V30 1479 C 131.793 1.63637 -3.03837 0
M  V30 1480 C 130.906 1.07307 -4.18461 0
M  V30 1481 C 130.041 2.18068 -4.84376 0
M  V30 1482 C 129.08 1.59147 -5.91049 0
M  V30 1483 N 128.217 2.63695 -6.50699 0
M  V30 1484 H 133.057 -0.122075 -2.9775 0
M  V30 1485 H 130.594 -0.0720154 -1.46924 0
M  V30 1486 H 132.552 2.30734 -3.47589 0
M  V30 1487 H 131.182 2.22623 -2.33749 0
M  V30 1488 H 130.234 0.292708 -3.79272 0
M  V30 1489 H 131.546 0.602193 -4.95152 0
M  V30 1490 H 130.7 2.93007 -5.31255 0
M  V30 1491 H 129.439 2.68504 -4.07133 0
M  V30 1492 H 128.444 0.827175 -5.43542 0
M  V30 1493 H 129.669 1.09549 -6.70206 0
M  V30 1494 H 127.615 3.13365 -5.76315 0
M  V30 1495 H 127.532 2.21263 -7.22896 0
M  V30 1496 H 128.8 3.3837 -7.02229 0
M  V30 1497 N 133.029 1.57378 -0.0835403 0
M  V30 1498 C 134.278 1.93106 0.582498 0
M  V30 1499 C 134.591 0.96651 1.70053 0
M  V30 1500 O 135.797 1.21705 2.42693 0
M  V30 1501 C 134.253 3.43076 1.08751 0
M  V30 1502 C 133.861 4.48 -0.000146404 0
M  V30 1503 C 135.605 3.87785 1.72694 0
M  V30 1504 C 133.512 5.89113 0.519568 0
M  V30 1505 H 132.442 0.720775 0.221358 0
M  V30 1506 H 135.093 1.82821 -0.157675 0
M  V30 1507 H 133.475 3.48474 1.88101 0
M  V30 1508 H 134.649 4.54233 -0.775199 0
M  V30 1509 H 132.964 4.1283 -0.54406 0
M  V30 1510 H 135.561 4.90604 2.1263 0
M  V30 1511 H 135.904 3.25796 2.59158 0
M  V30 1512 H 136.437 3.8504 0.999457 0
M  V30 1513 H 133.176 6.54775 -0.308186 0
M  V30 1514 H 132.696 5.86376 1.26188 0
M  V30 1515 H 134.375 6.39346 0.992237 0
M  V30 1516 N 134.507 -0.190092 1.56449 0
M  V30 1517 C 135.923 -0.54113 1.50146 0
M  V30 1518 C 136.123 -1.85603 0.784465 0
M  V30 1519 O 135.179 -2.5024 0.337051 0
M  V30 1520 C 136.492 -0.591241 2.9483 0
M  V30 1521 C 138.04 -0.679732 3.0553 0
M  V30 1522 C 138.515 -0.760908 4.51635 0
M  V30 1523 N 140.006 -0.824302 4.55806 0
M  V30 1524 C 140.741 -0.907365 5.66175 0
M  V30 1525 N 140.237 -0.952422 6.86222 0
M  V30 1526 N 142.03 -0.94494 5.541 0
M  V30 1527 H 134.181 0.67235 2.01478 0
M  V30 1528 H 136.444 0.240127 0.917084 0
M  V30 1529 H 136.15 0.305905 3.50367 0
M  V30 1530 H 136.024 -1.44422 3.48457 0
M  V30 1531 H 138.411 -1.56731 2.50039 0
M  V30 1532 H 138.492 0.199549 2.5502 0
M  V30 1533 H 138.136 0.122336 5.07753 0
M  V30 1534 H 138.066 -1.65606 4.99882 0
M  V30 1535 H 140.557 -0.798526 3.69367 0
M  V30 1536 H 140.87 -1.01645 7.66086 0
M  V30 1537 H 139.215 -0.921014 6.8887 0
M  V30 1538 H 142.406 -0.906612 4.59236 0
M  V30 1539 H 142.579 -1.00622 6.4014 0
M  V30 1540 N 135.985 -1.50799 -0.457987 0
M  V30 1541 C 137.21 -1.66496 -1.23668 0
M  V30 1542 C 137.635 -0.353288 -1.84752 0
M  V30 1543 O 136.993 0.684346 -1.67888 0
M  V30 1544 C 137.041 -2.76763 -2.3116 0
M  V30 1545 O 136.145 -2.38928 -3.36136 0
M  V30 1546 H 135.486 -0.555828 -0.363252 0
M  V30 1547 H 138.016 -1.9725 -0.543474 0
M  V30 1548 H 138.026 -3.00232 -2.76269 0
M  V30 1549 H 136.701 -3.71954 -1.86073 0
M  V30 1550 H 135.278 -2.25953 -2.96647 0
M  V30 1551 N 137.463 0.71206 -1.40597 0
M  V30 1552 C 138.879 1.02058 -1.22704 0
M  V30 1553 C 139.079 2.01228 -0.104729 0
M  V30 1554 O 138.135 2.4674 0.53624 0
M  V30 1555 C 139.448 1.56094 -2.57012 0
M  V30 1556 C 140.996 1.6806 -2.64054 0
M  V30 1557 C 141.471 2.25501 -3.9864 0
M  V30 1558 N 142.962 2.32882 -4.004 0
M  V30 1559 C 143.697 2.78317 -5.01325 0
M  V30 1560 N 143.193 3.23478 -6.12645 0
M  V30 1561 N 144.986 2.77733 -4.88693 0
M  V30 1562 H 137.137 0.0547896 -2.12329 0
M  V30 1563 H 139.4 0.0869027 -0.944008 0
M  V30 1564 H 139.106 0.906865 -3.39807 0
M  V30 1565 H 138.98 2.54564 -2.78347 0
M  V30 1566 H 141.367 2.32583 -1.81629 0
M  V30 1567 H 141.448 0.681802 -2.46546 0
M  V30 1568 H 141.092 1.61598 -4.81506 0
M  V30 1569 H 141.022 3.26102 -4.13479 0
M  V30 1570 H 143.513 2.00991 -3.20017 0
M  V30 1571 H 143.826 3.56725 -6.85542 0
M  V30 1572 H 142.171 3.21429 -6.16205 0
M  V30 1573 H 145.362 2.4179 -4.00818 0
M  V30 1574 H 145.535 3.12826 -5.67489 0
M  V30 1575 N 138.941 1.26152 0.944643 0
M  V30 1576 C 140.19 1.10883 1.68487 0
M  V30 1577 C 140.503 -0.348153 1.92477 0
M  V30 1578 O 141.709 -0.621459 2.64292 0
M  V30 1579 C 140.165 1.93624 3.03377 0
M  V30 1580 C 139.773 3.43875 2.87148 0
M  V30 1581 C 141.517 1.86954 3.81115 0
M  V30 1582 C 139.424 4.18875 4.1749 0
M  V30 1583 H 138.354 0.41135 0.631907 0
M  V30 1584 H 141.005 1.50433 1.05082 0
M  V30 1585 H 139.387 1.46904 3.67743 0
M  V30 1586 H 140.561 3.98338 2.31653 0
M  V30 1587 H 138.876 3.51744 2.22856 0
M  V30 1588 H 141.473 2.40275 4.77673 0
M  V30 1589 H 141.816 0.839518 4.07747 0
M  V30 1590 H 142.349 2.31477 3.23517 0
M  V30 1591 H 139.088 5.22332 3.96043 0
M  V30 1592 H 138.608 3.69193 4.72712 0
M  V30 1593 H 140.287 4.27134 4.85968 0
M  V30 1594 N 140.419 -1.14872 1.07899 0
M  V30 1595 C 141.696 -1.81928 0.71845 0
M  V30 1596 C 142.076 -1.95417 -0.798455 0
M  V30 1597 O 141.424 -1.50997 -1.715 0
M  V30 1598 C 141.634 -3.17937 1.43935 0
M  V30 1599 C 142.982 -3.93501 1.59506 0
M  V30 1600 O 144.006 -3.27509 1.40058 0
M  V30 1601 O 142.865 -5.1183 1.91551 0
M  V30 1602 H 139.959 -0.78628 0.256305 0
M  V30 1603 H 142.505 -1.21934 1.18026 0
M  V30 1604 H 141.277 -3.0325 2.47295 0
M  V30 1605 H 140.9 -3.85619 0.968687 0
M  V30 1606 N 141.898 -0.863906 -1.31812 0
M  V30 1607 C 143.146 -0.470904 -1.96537 0
M  V30 1608 C 143.467 0.978771 -1.68657 0
M  V30 1609 O 142.737 1.6853 -0.998717 0
M  V30 1610 H 141.317 -0.171148 -0.72713 0
M  V30 1611 H 143.979 -1.10236 -1.60729 0
M  V30 1612 H 143.075 -0.623616 -3.05806 0
M  V30 1613 N 143.376 1.44774 -0.622745 0
M  V30 1614 C 144.323 2.30635 0.0871679 0
M  V30 1615 C 145.293 1.42994 0.845097 0
M  V30 1616 O 146.478 1.71907 0.827812 0
M  V30 1617 C 143.618 3.28144 1.06844 0
M  V30 1618 C 142.731 4.30888 0.309809 0
M  V30 1619 C 141.866 5.15494 1.28215 0
M  V30 1620 C 140.905 6.09953 0.512198 0
M  V30 1621 N 140.042 6.87287 1.43458 0
M  V30 1622 H 144.882 2.90803 -0.650974 0
M  V30 1623 H 142.419 1.43286 -0.33281 0
M  V30 1624 H 144.377 3.83157 1.65066 0
M  V30 1625 H 143.007 2.69695 1.77382 0
M  V30 1626 H 142.059 3.78414 -0.388181 0
M  V30 1627 H 143.371 4.97955 -0.290254 0
M  V30 1628 H 142.525 5.74983 1.93596 0
M  V30 1629 H 141.264 4.48481 1.91614 0
M  V30 1630 H 140.269 5.49581 -0.155151 0
M  V30 1631 H 141.494 6.78999 -0.116958 0
M  V30 1632 H 139.44 6.2295 2.05594 0
M  V30 1633 H 139.357 7.50763 0.888335 0
M  V30 1634 H 140.625 7.51306 2.07749 0
M  V30 1635 N 144.854 0.36279 1.53368 0
M  V30 1636 C 146.1 -0.228113 2.01513 0
M  V30 1637 C 146.433 -1.48648 1.2497 0
M  V30 1638 O 145.708 -1.91459 0.342616 0
M  V30 1639 C 145.991 -0.522884 3.56284 0
M  V30 1640 C 145.844 0.74892 4.43521 0
M  V30 1641 C 147.163 -1.32461 4.19693 0
M  V30 1642 H 144.282 -0.0814343 0.732487 0
M  V30 1643 H 146.924 0.48713 1.83649 0
M  V30 1644 H 145.074 -1.1322 3.71636 0
M  V30 1645 H 146.746 1.38648 4.39971 0
M  V30 1646 H 144.989 1.36986 4.11603 0
M  V30 1647 H 145.66 0.497667 5.49752 0
M  V30 1648 H 148.136 -0.809203 4.08156 0
M  V30 1649 H 147.012 -1.49961 5.28018 0
M  V30 1650 H 147.273 -2.33232 3.75573 0
M  V30 1651 N 146.332 -1.57332 0.0918853 0
M  V30 1652 C 147.578 -1.95328 -0.567313 0
M  V30 1653 C 147.933 -0.972866 -1.65991 0
M  V30 1654 O 147.226 0.00166256 -1.916 0
M  V30 1655 C 147.42 -3.37689 -1.17051 0
M  V30 1656 C 147.249 -4.49489 -0.137875 0
M  V30 1657 C 146.019 -5.04498 0.284515 0
M  V30 1658 C 148.217 -5.10393 0.63271 0
M  V30 1659 N 146.199 -5.99853 1.30576 0
M  V30 1660 C 147.57 -6.01435 1.50587 0
M  V30 1661 C 149.625 -4.93143 0.68658 0
M  V30 1662 C 148.328 -6.77077 2.42815 0
M  V30 1663 C 150.354 -5.69445 1.59645 0
M  V30 1664 C 149.716 -6.60151 2.45725 0
M  V30 1665 H 145.815 -0.761467 -0.178023 0
M  V30 1666 H 148.399 -1.93924 0.173706 0
M  V30 1667 H 146.57 -3.39793 -1.88136 0
M  V30 1668 H 148.302 -3.62872 -1.79181 0
M  V30 1669 H 145.057 -4.73489 -0.102593 0
M  V30 1670 H 145.481 -6.52231 1.81449 0
M  V30 1671 H 150.123 -4.22785 0.035244 0
M  V30 1672 H 147.841 -7.46699 3.08975 0
M  V30 1673 H 151.427 -5.58112 1.64323 0
M  V30 1674 H 150.307 -7.18159 3.14987 0
M  V30 1675 N 147.81 0.181792 -1.56548 0
M  V30 1676 C 148.742 1.24956 -1.92142 0
M  V30 1677 C 149.755 1.41022 -0.813422 0
M  V30 1678 O 150.944 1.41212 -1.09186 0
M  V30 1679 C 148.044 2.61981 -2.14987 0
M  V30 1680 C 147.217 2.6735 -3.46183 0
M  V30 1681 C 146.276 3.85664 -3.5798 0
M  V30 1682 O 145.302 3.72148 -4.30691 0
M  V30 1683 N 146.504 5.01683 -2.92053 0
M  V30 1684 H 149.269 0.947329 -2.84334 0
M  V30 1685 H 146.83 0.371629 -1.57577 0
M  V30 1686 H 148.822 3.3958 -2.20154 0
M  V30 1687 H 147.392 2.84637 -1.2923 0
M  V30 1688 H 146.612 1.75925 -3.52766 0
M  V30 1689 H 147.9 2.67939 -4.32534 0
M  V30 1690 H 147.298 5.15564 -2.32832 0
M  V30 1691 H 145.855 5.77181 -3.0283 0
M  V30 1692 N 149.288 1.51039 0.449983 0
M  V30 1693 C 150.218 1.74379 1.55288 0
M  V30 1694 C 151.199 0.593236 1.5942 0
M  V30 1695 O 152.384 0.834625 1.7535 0
M  V30 1696 C 149.514 1.85728 2.93466 0
M  V30 1697 C 148.468 3.01078 3.04197 0
M  V30 1698 C 147.794 2.97595 4.44231 0
M  V30 1699 C 149.094 4.41254 2.7945 0
M  V30 1700 H 150.788 2.66725 1.36008 0
M  V30 1701 H 148.334 1.2835 0.652864 0
M  V30 1702 H 150.287 2.0064 3.70569 0
M  V30 1703 H 149.011 0.900207 3.13949 0
M  V30 1704 H 147.67 2.85851 2.29531 0
M  V30 1705 H 147.318 1.99691 4.61663 0
M  V30 1706 H 147.018 3.75046 4.52343 0
M  V30 1707 H 148.542 3.14583 5.23326 0
M  V30 1708 H 149.956 4.56897 3.46292 0
M  V30 1709 H 148.353 5.20315 2.98985 0
M  V30 1710 H 149.423 4.52164 1.75144 0
M  V30 1711 N 150.766 -0.704594 1.40972 0
M  V30 1712 C 152.177 -1.28418 1.3552 0
M  V30 1713 C 152.528 -1.96171 0.0339434 0
M  V30 1714 O 151.653 -1.98231 -0.867944 0
M  V30 1715 C 152.248 -2.33528 2.45459 0
M  V30 1716 C 150.807 -2.87085 2.43433 0
M  V30 1717 C 149.954 -1.61007 2.2577 0
M  V30 1718 H 152.905 -0.499963 1.50619 0
M  V30 1719 H 152.926 -3.14619 2.13998 0
M  V30 1720 H 152.438 -1.84187 3.41609 0
M  V30 1721 H 150.539 -3.40626 1.51013 0
M  V30 1722 H 150.652 -3.3813 3.39419 0
M  V30 1723 H 149.016 -1.86482 1.73483 0
M  V30 1724 H 149.799 -1.13675 3.23933 0
M  V30 1725 N 152.244 -1.26651 -0.937939 0
M  V30 1726 C 153.207 -1.08546 -2.01867 0
M  V30 1727 C 154.207 -0.0327327 -1.60767 0
M  V30 1728 O 155.397 -0.276427 -1.71993 0
M  V30 1729 C 152.529 -0.651711 -3.34613 0
M  V30 1730 H 153.722 -2.04502 -2.1936 0
M  V30 1731 H 151.275 -1.09294 -1.11734 0
M  V30 1732 H 152.01 0.309696 -3.22818 0
M  V30 1733 H 151.795 -1.41189 -3.65798 0
M  V30 1734 H 153.285 -0.546973 -4.14002 0
M  V30 1735 N 153.722 1.14298 -1.08507 0
M  V30 1736 C 154.685 2.17607 -0.719711 0
M  V30 1737 C 155.685 1.58907 0.245997 0
M  V30 1738 O 156.875 1.74181 0.0254081 0
M  V30 1739 C 154.007 3.40842 -0.0627695 0
M  V30 1740 H 155.2 2.51443 -1.63452 0
M  V30 1741 H 152.753 1.28963 -0.88307 0
M  V30 1742 H 153.488 3.12587 0.863716 0
M  V30 1743 H 153.273 3.84713 -0.757504 0
M  V30 1744 H 154.763 4.17221 0.177786 0
M  V30 1745 N 155.201 0.870884 1.31352 0
M  V30 1746 C 156.447 0.482987 1.96965 0
M  V30 1747 C 156.78 -0.962462 1.68672 0
M  V30 1748 O 156.055 -1.6779 0.98371 0
M  V30 1749 C 156.338 0.741752 3.52378 0
M  V30 1750 C 156.191 2.2368 3.9024 0
M  V30 1751 C 157.51 0.208838 4.39604 0
M  V30 1752 H 154.629 0.176955 0.715441 0
M  V30 1753 H 157.271 1.09229 1.55464 0
M  V30 1754 H 155.421 0.223149 3.87859 0
M  V30 1755 H 157.093 2.82273 3.64856 0
M  V30 1756 H 155.336 2.70901 3.38814 0
M  V30 1757 H 156.007 2.3685 4.98604 0
M  V30 1758 H 158.483 0.652529 4.10952 0
M  V30 1759 H 157.359 0.419336 5.47296 0
M  V30 1760 H 157.62 -0.889275 4.33064 0
M  V30 1761 N 156.679 -1.44442 0.630414 0
M  V30 1762 C 157.909 -2.06115 0.141465 0
M  V30 1763 C 158.317 -1.47179 -1.1889 0
M  V30 1764 O 157.66 -0.588873 -1.74006 0
M  V30 1765 C 157.722 -3.59467 -0.0484355 0
M  V30 1766 C 157.386 -4.40864 1.20366 0
M  V30 1767 C 158.383 -4.74391 2.12719 0
M  V30 1768 C 156.068 -4.8125 1.43887 0
M  V30 1769 C 158.062 -5.47186 3.26904 0
M  V30 1770 C 155.749 -5.53795 2.5837 0
M  V30 1771 C 156.747 -5.86682 3.49705 0
M  V30 1772 O 156.435 -6.57749 4.62191 0
M  V30 1773 H 156.167 -0.671648 0.0765792 0
M  V30 1774 H 158.721 -1.86312 0.864695 0
M  V30 1775 H 156.951 -3.77758 -0.826803 0
M  V30 1776 H 158.64 -4.02909 -0.491849 0
M  V30 1777 H 159.406 -4.43728 1.95781 0
M  V30 1778 H 155.285 -4.55073 0.736853 0
M  V30 1779 H 158.829 -5.72773 3.98217 0
M  V30 1780 H 154.726 -5.83872 2.75251 0
M  V30 1781 H 155.494 -6.76217 4.61164 0
M  V30 1782 N 158.157 -0.370918 -1.53173 0
M  V30 1783 C 159.405 0.216673 -2.00935 0
M  V30 1784 C 159.726 1.48845 -1.25977 0
M  V30 1785 O 158.996 1.92286 -0.374551 0
M  V30 1786 H 157.576 0.0830565 -0.742368 0
M  V30 1787 H 160.238 -0.49838 -1.8842 0
M  V30 1788 H 159.334 0.439893 -3.08984 0
M  V30 1789 N 159.635 1.57281 -0.100228 0
M  V30 1790 C 161.051 1.57527 0.256416 0
M  V30 1791 C 161.251 1.11173 1.68056 0
M  V30 1792 O 160.307 0.79053 2.39806 0
M  V30 1793 C 161.62 3.00673 0.0401747 0
M  V30 1794 C 163.168 3.12815 0.107528 0
M  V30 1795 C 163.643 4.57929 -0.0807834 0
M  V30 1796 N 165.134 4.63193 -0.0261207 0
M  V30 1797 C 165.869 5.73212 -0.146999 0
M  V30 1798 N 165.365 6.92047 -0.322999 0
M  V30 1799 N 167.158 5.62031 -0.0879044 0
M  V30 1800 H 159.309 1.85718 -1.03065 0
M  V30 1801 H 161.572 0.857446 -0.404339 0
M  V30 1802 H 161.278 3.38804 -0.943649 0
M  V30 1803 H 161.152 3.69042 0.780262 0
M  V30 1804 H 163.539 2.74554 1.08186 0
M  V30 1805 H 163.62 2.47028 -0.664134 0
M  V30 1806 H 163.264 4.96886 -1.05201 0
M  V30 1807 H 163.194 5.21783 0.710635 0
M  V30 1808 H 165.685 3.77748 0.107161 0
M  V30 1809 H 165.998 7.7173 -0.406608 0
M  V30 1810 H 164.343 6.94074 -0.358733 0
M  V30 1811 H 167.534 4.68075 0.048498 0
M  V30 1812 H 167.707 6.47734 -0.185557 0
M  V30 1813 N 161.113 -0.173488 1.56642 0
M  V30 1814 C 162.046 -1.24353 1.91342 0
M  V30 1815 C 163.024 -1.4289 0.775965 0
M  V30 1816 O 164.208 -1.57932 1.02907 0
M  V30 1817 C 161.335 -2.60683 2.16245 0
M  V30 1818 C 160.381 -2.58894 3.38934 0
M  V30 1819 S 161.214 -2.0819 4.93373 0
M  V30 1820 C 162.37 -3.46302 5.21369 0
M  V30 1821 H 162.603 -0.947345 2.81803 0
M  V30 1822 H 160.136 -0.377958 1.49703 0
M  V30 1823 H 162.094 -3.39149 2.31275 0
M  V30 1824 H 160.755 -2.87502 1.26496 0
M  V30 1825 H 159.948 -3.59188 3.53553 0
M  V30 1826 H 159.55 -1.88522 3.2301 0
M  V30 1827 H 161.842 -4.42287 5.13214 0
M  V30 1828 H 162.785 -3.3656 6.23003 0
M  V30 1829 H 163.193 -3.42214 4.48943 0
M  V30 1830 N 162.591 -1.51276 -0.441967 0
M  V30 1831 C 163.837 -1.63958 -1.19355 0
M  V30 1832 C 164.17 -0.352543 -1.90973 0
M  V30 1833 O 163.445 0.647627 -1.83401 0
M  V30 1834 C 163.728 -2.83979 -2.21422 0
M  V30 1835 C 163.581 -4.22646 -1.53918 0
M  V30 1836 C 164.9 -2.99521 -3.22451 0
M  V30 1837 H 162.019 -0.596709 -0.432559 0
M  V30 1838 H 164.661 -1.83748 -0.483398 0
M  V30 1839 H 162.811 -2.67237 -2.81987 0
M  V30 1840 H 164.483 -4.51045 -0.967256 0
M  V30 1841 H 162.726 -4.25558 -0.841615 0
M  V30 1842 H 163.397 -5.02609 -2.28229 0
M  V30 1843 H 165.873 -3.14944 -2.71937 0
M  V30 1844 H 164.749 -3.85072 -3.91166 0
M  V30 1845 H 165.01 -2.11391 -3.88287 0
M  V30 1846 N 164.069 0.697108 -1.41344 0
M  V30 1847 C 165.017 1.83237 -1.43272 0
M  V30 1848 C 166.011 1.66522 -0.310947 0
M  V30 1849 O 167.217 1.73402 -0.482899 0
M  V30 1850 H 163.592 0.603802 -0.448249 0
M  V30 1851 H 165.563 1.78727 -2.38954 0
M  V30 1852 C 164.312 3.21245 -1.33029 0
M  V30 1853 H 163.635 3.34723 -2.18633 0
M  V30 1854 H 165.075 4.00763 -1.38439 0
M  V30 1855 C 163.534 3.36873 -0.0424635 0
M  V30 1856 O 164.064 3.91177 0.913421 0
M  V30 1857 N 162.27 2.90581 0.0331145 0
M  V30 1858 H 161.817 2.46577 -0.745506 0
M  V30 1859 H 161.775 3.01416 0.894199 0
M  V30 1860 N 165.547 1.27147 0.931209 0
M  V30 1861 C 166.477 1.12081 2.04842 0
M  V30 1862 C 167.458 0.0232364 1.70084 0
M  V30 1863 O 168.643 0.197085 1.93197 0
M  V30 1864 C 165.773 0.76354 3.38803 0
M  V30 1865 C 164.727 1.81396 3.87659 0
M  V30 1866 C 164.053 1.31075 5.18385 0
M  V30 1867 C 165.353 3.21739 4.11438 0
M  V30 1868 H 167.047 2.05537 2.17703 0
M  V30 1869 H 164.593 0.989603 1.04608 0
M  V30 1870 H 166.546 0.644982 4.16435 0
M  V30 1871 H 165.27 -0.206727 3.25945 0
M  V30 1872 H 163.929 1.92136 3.12217 0
M  V30 1873 H 163.577 0.330037 5.01916 0
M  V30 1874 H 163.277 2.013 5.52044 0
M  V30 1875 H 164.801 1.20506 5.98591 0
M  V30 1876 H 166.215 3.14019 4.79651 0
M  V30 1877 H 164.612 3.89644 4.56397 0
M  V30 1878 H 165.682 3.67054 3.16859 0
M  V30 1879 N 167.025 -1.13721 1.09112 0
M  V30 1880 C 167.935 -2.22638 0.73957 0
M  V30 1881 C 168.951 -1.72091 -0.257068 0
M  V30 1882 O 170.127 -2.01155 -0.0992154 0
M  V30 1883 C 167.192 -3.46322 0.16191 0
M  V30 1884 C 166.253 -4.11775 1.21408 0
M  V30 1885 C 165.486 -5.29555 0.663891 0
M  V30 1886 O 165.709 -5.68077 -0.514274 0
M  V30 1887 O 164.643 -5.84973 1.41738 0
M  V30 1888 H 168.469 -2.55074 1.64836 0
M  V30 1889 H 166.054 -1.21791 0.865289 0
M  V30 1890 H 167.936 -4.21107 -0.157073 0
M  V30 1891 H 166.611 -3.15593 -0.719932 0
M  V30 1892 H 165.518 -3.3883 1.58571 0
M  V30 1893 H 166.851 -4.46627 2.06845 0
M  V30 1894 N 168.503 -0.877838 -1.30888 0
M  V30 1895 C 169.914 -0.544193 -1.78593 0
M  V30 1896 C 170.265 0.939301 -1.72254 0
M  V30 1897 O 169.39 1.7337 -1.29505 0
M  V30 1898 C 169.985 -0.98105 -3.24285 0
M  V30 1899 C 168.544 -0.698935 -3.69854 0
M  V30 1900 C 167.691 -1.168 -2.51502 0
M  V30 1901 H 170.642 -1.06278 -1.17859 0
M  V30 1902 H 170.663 -0.307009 -3.79259 0
M  V30 1903 H 170.175 -2.06079 -3.28866 0
M  V30 1904 H 168.276 0.369112 -3.70767 0
M  V30 1905 H 168.389 -1.28148 -4.61644 0
M  V30 1906 H 166.753 -0.587535 -2.47831 0
M  V30 1907 H 167.536 -2.25533 -2.58824 0
M  V30 1908 N 169.982 1.44106 -0.638065 0
M  V30 1909 C 171.259 1.95453 -0.0759321 0
M  V30 1910 C 171.639 1.57984 1.40015 0
M  V30 1911 O 170.987 0.857361 2.11806 0
M  V30 1912 C 171.197 3.47655 -0.306132 0
M  V30 1913 C 172.545 4.24114 -0.203008 0
M  V30 1914 O 173.569 3.55405 -0.237871 0
M  V30 1915 O 172.428 5.46381 -0.113827 0
M  V30 1916 H 169.522 0.826797 0.0183332 0
M  V30 1917 H 172.068 1.54122 -0.710251 0
M  V30 1918 H 170.84 3.68 -1.3301 0
M  V30 1919 H 170.463 3.95949 0.361991 0
M  V30 1920 N 171.46 0.379036 1.52974 0
M  V30 1921 C 172.393 -0.504932 2.22544 0
M  V30 1922 C 173.371 -1.0723 1.22231 0
M  V30 1923 O 174.555 -1.12589 1.51182 0
M  V30 1924 C 171.682 -1.69794 2.93066 0
M  V30 1925 C 170.728 -1.25678 4.07563 0
M  V30 1926 S 171.561 -0.246852 5.34931 0
M  V30 1927 C 172.717 -1.44588 6.08971 0
M  V30 1928 H 172.95 0.0858666 2.97176 0
M  V30 1929 H 170.483 0.163183 1.53535 0
M  V30 1930 H 172.441 -2.38219 3.34308 0
M  V30 1931 H 171.102 -2.26002 2.18133 0
M  V30 1932 H 170.295 -2.14725 4.5597 0
M  V30 1933 H 169.897 -0.651584 3.6828 0
M  V30 1934 H 172.189 -2.37469 6.34519 0
M  V30 1935 H 173.132 -1.00292 7.00962 0
M  V30 1936 H 173.54 -1.65804 5.39601 0
M  V30 1937 N 172.938 -1.57226 0.108567 0
M  V30 1938 C 174.166 -1.99179 -0.559954 0
M  V30 1939 C 174.581 -0.988022 -1.60884 0
M  V30 1940 O 173.938 0.0205512 -1.82488 0
M  V30 1941 C 173.989 -3.41159 -1.19552 0
M  V30 1942 O 173.71 -4.37694 -0.188577 0
M  V30 1943 C 175.211 -3.98188 -1.94837 0
M  V30 1944 H 172.431 -0.654228 -0.149088 0
M  V30 1945 H 174.975 -2.03598 0.19183 0
M  V30 1946 H 173.13 -3.37711 -1.89815 0
M  V30 1947 H 173.544 -5.20469 -0.649014 0
M  V30 1948 H 175.018 -4.99644 -2.34648 0
M  V30 1949 H 175.495 -3.3675 -2.81951 0
M  V30 1950 H 176.101 -4.0515 -1.2936 0
M  V30 1951 N 174.416 0.165178 -1.56732 0
M  V30 1952 C 175.665 0.879143 -1.81532 0
M  V30 1953 C 175.978 1.83144 -0.686842 0
M  V30 1954 O 177.184 2.58823 -0.819944 0
M  V30 1955 C 175.64 1.61388 -3.21686 0
M  V30 1956 C 175.248 0.704904 -4.4242 0
M  V30 1957 C 176.992 2.3157 -3.55774 0
M  V30 1958 C 174.899 1.44022 -5.73595 0
M  V30 1959 H 173.829 0.332033 -0.676957 0
M  V30 1960 H 176.48 0.132008 -1.83025 0
M  V30 1961 H 174.862 2.40599 -3.14529 0
M  V30 1962 H 176.036 -0.0506815 -4.60772 0
M  V30 1963 H 174.351 0.112419 -4.16248 0
M  V30 1964 H 176.948 2.8719 -4.51028 0
M  V30 1965 H 177.291 3.07201 -2.8095 0
M  V30 1966 H 177.824 1.59297 -3.64513 0
M  V30 1967 H 174.563 0.72612 -6.51466 0
M  V30 1968 H 174.083 2.16898 -5.5921 0
M  V30 1969 H 175.762 1.98606 -6.15764 0
M  V30 1970 N 175.894 1.51508 0.433938 0
M  V30 1971 C 177.119 1.68443 1.21003 0
M  V30 1972 C 177.544 0.382636 1.84167 0
M  V30 1973 O 176.902 -0.65755 1.68956 0
M  V30 1974 C 176.95 2.80405 2.26727 0
M  V30 1975 O 176.054 2.44245 3.32292 0
M  V30 1976 H 175.395 0.561536 0.354363 0
M  V30 1977 H 177.925 1.9809 0.512024 0
M  V30 1978 H 177.935 3.0459 2.71457 0
M  V30 1979 H 176.61 3.74867 1.80132 0
M  V30 1980 H 175.187 2.30644 2.93015 0
M  V30 1981 N 177.372 -0.689602 1.41712 0
M  V30 1982 C 178.319 -1.80345 1.44029 0
M  V30 1983 C 179.289 -1.63478 0.293948 0
M  V30 1984 O 180.474 -1.84244 0.495869 0
M  V30 1985 C 177.614 -3.18272 1.33405 0
M  V30 1986 C 176.727 -3.46529 2.57956 0
M  V30 1987 C 175.862 -4.74103 2.39582 0
M  V30 1988 C 174.901 -4.95347 3.5958 0
M  V30 1989 N 174.038 -6.14151 3.40239 0
M  V30 1990 H 178.878 -1.77698 2.39222 0
M  V30 1991 H 176.415 -0.867688 1.18784 0
M  V30 1992 H 178.373 -3.97956 1.25246 0
M  V30 1993 H 177.003 -3.2008 0.418164 0
M  V30 1994 H 176.055 -2.61207 2.76542 0
M  V30 1995 H 177.367 -3.58126 3.47199 0
M  V30 1996 H 176.521 -5.61853 2.28924 0
M  V30 1997 H 175.26 -4.64763 1.47805 0
M  V30 1998 H 174.265 -4.06044 3.70686 0
M  V30 1999 H 175.49 -5.06542 4.52318 0
M  V30 2000 H 173.436 -6.06013 2.51167 0
M  V30 2001 H 173.353 -6.26543 4.23061 0
M  V30 2002 H 174.621 -7.04619 3.33365 0
M  V30 2003 N 178.85 -1.27639 -0.924453 0
M  V30 2004 C 179.798 -1.10485 -2.04685 0
M  V30 2005 C 180.792 -0.0270421 -1.69378 0
M  V30 2006 O 181.998 -0.185008 -1.79047 0
M  V30 2007 H 178.373 -0.340546 -0.670472 0
M  V30 2008 H 180.344 -2.05566 -2.16298 0
M  V30 2009 C 179.093 -0.772229 -3.39016 0
M  V30 2010 H 178.416 -1.59351 -3.66671 0
M  V30 2011 H 179.856 -0.692097 -4.18313 0
M  V30 2012 C 178.315 0.523554 -3.32807 0
M  V30 2013 O 178.845 1.55702 -3.70297 0
M  V30 2014 N 177.051 0.520363 -2.85903 0
M  V30 2015 H 176.598 -0.32107 -2.55591 0
M  V30 2016 H 176.556 1.38742 -2.82131 0
M  V30 2017 N 180.328 1.1314 -1.09713 0
M  V30 2018 C 181.238 2.22242 -0.751367 0
M  V30 2019 C 182.254 1.72224 0.247938 0
M  V30 2020 O 183.43 2.01205 0.0885463 0
M  V30 2021 C 180.495 3.46231 -0.180274 0
M  V30 2022 C 179.556 4.11125 -1.2359 0
M  V30 2023 C 178.789 5.29195 -0.691966 0
M  V30 2024 O 179.012 5.68342 0.48414 0
M  V30 2025 O 177.946 5.84214 -1.44838 0
M  V30 2026 H 181.772 2.54197 -1.66186 0
M  V30 2027 H 179.357 1.21331 -0.871735 0
M  V30 2028 H 181.239 4.21185 0.134739 0
M  V30 2029 H 179.914 3.1597 0.703185 0
M  V30 2030 H 178.821 3.37985 -1.60366 0
M  V30 2031 H 180.154 4.45524 -2.09211 0
M  V30 2032 N 181.806 0.884767 1.30421 0
M  V30 2033 C 182.739 0.295999 2.26272 0
M  V30 2034 C 183.717 -0.58332 1.51777 0
M  V30 2035 O 184.901 -0.53346 1.80794 0
M  V30 2036 C 182.028 -0.57944 3.33707 0
M  V30 2037 C 181.074 0.230525 4.25877 0
M  V30 2038 S 181.907 1.61867 5.1045 0
M  V30 2039 C 183.063 0.749756 6.21393 0
M  V30 2040 H 183.296 1.10848 2.75862 0
M  V30 2041 H 180.829 0.684178 1.38414 0
M  V30 2042 H 182.787 -1.07879 3.96071 0
M  V30 2043 H 181.448 -1.36601 2.82841 0
M  V30 2044 H 180.641 -0.437542 5.02097 0
M  V30 2045 H 180.243 0.662493 3.68086 0
M  V30 2046 H 182.535 -0.0333547 6.77492 0
M  V30 2047 H 183.478 1.48356 6.92384 0
M  V30 2048 H 183.886 0.310751 5.63644 0
M  V30 2049 N 183.284 -1.43765 0.645699 0
M  V30 2050 C 184.53 -2.02197 0.156271 0
M  V30 2051 C 184.863 -1.50776 -1.22393 0
M  V30 2052 O 184.138 -0.697771 -1.81553 0
M  V30 2053 C 184.421 -3.59749 0.158872 0
M  V30 2054 C 184.274 -4.21419 1.57245 0
M  V30 2055 C 185.593 -4.37149 -0.50879 0
M  V30 2056 H 182.712 -0.734694 0.0582602 0
M  V30 2057 H 185.354 -1.71157 0.824951 0
M  V30 2058 H 183.504 -3.86325 -0.410525 0
M  V30 2059 H 185.176 -4.059 2.19186 0
M  V30 2060 H 183.419 -3.78356 2.122 0
M  V30 2061 H 184.09 -5.30482 1.52619 0
M  V30 2062 H 186.566 -4.16093 -0.024412 0
M  V30 2063 H 185.442 -5.4683 -0.476213 0
M  V30 2064 H 185.703 -4.12839 -1.58165 0
M  V30 2065 N 184.763 -0.387143 -1.52771 0
M  V30 2066 C 185.71 0.449048 -2.26389 0
M  V30 2067 C 186.68 1.05961 -1.27912 0
M  V30 2068 O 187.865 1.08804 -1.56737 0
M  V30 2069 C 185.005 1.57155 -3.0724 0
M  V30 2070 C 184.118 0.984066 -4.20643 0
M  V30 2071 C 183.253 2.07745 -4.88892 0
M  V30 2072 C 182.292 1.46574 -5.94292 0
M  V30 2073 N 181.429 2.49834 -6.56146 0
M  V30 2074 H 186.269 -0.185205 -2.97424 0
M  V30 2075 H 183.806 -0.103164 -1.46738 0
M  V30 2076 H 185.764 2.23309 -3.52405 0
M  V30 2077 H 184.394 2.17615 -2.38419 0
M  V30 2078 H 183.446 0.212193 -3.79808 0
M  V30 2079 H 184.758 0.497029 -4.96318 0
M  V30 2080 H 183.912 2.81673 -5.3735 0
M  V30 2081 H 182.651 2.59807 -4.12737 0
M  V30 2082 H 181.656 0.711696 -5.45174 0
M  V30 2083 H 182.881 0.953088 -6.72379 0
M  V30 2084 H 180.827 3.0107 -5.82832 0
M  V30 2085 H 180.744 2.05879 -7.27427 0
M  V30 2086 H 182.012 3.23399 -7.09249 0
M  V30 2087 N 186.241 1.57166 -0.116904 0
M  V30 2088 C 187.171 2.18222 0.830759 0
M  V30 2089 C 188.152 1.12167 1.27877 0
M  V30 2090 O 189.337 1.40394 1.34176 0
M  V30 2091 C 186.467 2.77996 2.08172 0
M  V30 2092 C 185.421 3.89614 1.77157 0
M  V30 2093 C 184.747 4.36187 3.09265 0
M  V30 2094 C 186.047 5.1181 1.04151 0
M  V30 2095 H 187.741 2.97664 0.321992 0
M  V30 2096 H 185.287 1.4318 0.153434 0
M  V30 2097 H 187.24 3.19366 2.74924 0
M  V30 2098 H 185.964 1.9584 2.6137 0
M  V30 2099 H 184.623 3.48816 1.12796 0
M  V30 2100 H 184.271 3.50893 3.60393 0
M  V30 2101 H 183.971 5.11455 2.89288 0
M  V30 2102 H 185.495 4.80207 3.77139 0
M  V30 2103 H 186.909 5.50214 1.61052 0
M  V30 2104 H 185.306 5.92648 0.942762 0
M  V30 2105 H 186.376 4.84892 0.0279022 0
M  V30 2106 N 187.719 -0.156864 1.56817 0
M  V30 2107 C 188.649 -1.19589 2.00551 0
M  V30 2108 C 189.63 -1.4536 0.883426 0
M  V30 2109 O 190.815 -1.56449 1.15054 0
M  V30 2110 C 187.945 -2.53143 2.37773 0
M  V30 2111 C 186.899 -2.41913 3.53075 0
M  V30 2112 C 186.225 -3.80088 3.76081 0
M  V30 2113 C 187.525 -1.91157 4.86062 0
M  V30 2114 H 189.219 -0.832293 2.87599 0
M  V30 2115 H 186.765 -0.398918 1.38364 0
M  V30 2116 H 188.718 -3.26047 2.66967 0
M  V30 2117 H 187.442 -2.91319 1.4765 0
M  V30 2118 H 186.101 -1.71462 3.24031 0
M  V30 2119 H 185.749 -4.15683 2.83225 0
M  V30 2120 H 185.449 -3.73439 4.53671 0
M  V30 2121 H 186.973 -4.54556 4.0769 0
M  V30 2122 H 188.387 -2.53846 5.14038 0
M  V30 2123 H 186.784 -1.95422 5.67389 0
M  V30 2124 H 187.854 -0.866673 4.77092 0
M  V30 2125 N 189.197 -1.51736 -0.425897 0
M  V30 2126 C 190.107 -1.76738 -1.54275 0
M  V30 2127 C 191.123 -0.65211 -1.61318 0
M  V30 2128 O 192.299 -0.935654 -1.78346 0
M  V30 2129 C 189.364 -1.89755 -2.90162 0
M  V30 2130 C 188.425 -3.13633 -2.93143 0
M  V30 2131 C 187.658 -3.2602 -4.22548 0
M  V30 2132 O 187.881 -2.44067 -5.15546 0
M  V30 2133 O 186.815 -4.19071 -4.32046 0
M  V30 2134 H 190.641 -2.71502 -1.36089 0
M  V30 2135 H 188.226 -1.36376 -0.610069 0
M  V30 2136 H 190.108 -2.00236 -3.70788 0
M  V30 2137 H 188.783 -0.981785 -3.08452 0
M  V30 2138 H 187.69 -3.08622 -2.11431 0
M  V30 2139 H 189.023 -4.04936 -2.798 0
M  V30 2140 N 190.675 0.682077 -1.42076 0
M  V30 2141 C 191.638 1.77756 -1.44691 0
M  V30 2142 C 192.638 1.5726 -0.335535 0
M  V30 2143 O 193.828 1.63686 -0.596037 0
M  V30 2144 C 190.96 3.16301 -1.27146 0
M  V30 2145 H 192.153 1.76826 -2.42224 0
M  V30 2146 H 189.706 0.891012 -1.28416 0
M  V30 2147 H 190.441 3.22862 -0.305075 0
M  V30 2148 H 190.226 3.32581 -2.07683 0
M  V30 2149 H 191.716 3.96241 -1.31843 0
M  V30 2150 N 192.153 1.28127 0.917671 0
M  V30 2151 C 193.381 1.17892 1.70026 0
M  V30 2152 C 193.796 -0.262958 1.8696 0
M  V30 2153 O 193.153 -1.17811 1.3938 0
M  V30 2154 C 193.204 1.86872 3.09453 0
M  V30 2155 O 192.925 3.25428 2.93306 0
M  V30 2156 C 194.426 1.8289 4.03815 0
M  V30 2157 H 191.646 0.40942 0.531617 0
M  V30 2158 H 194.19 1.69181 1.14883 0
M  V30 2159 H 192.345 1.39464 3.61426 0
M  V30 2160 H 192.759 3.59918 3.81523 0
M  V30 2161 H 194.233 2.35751 4.99125 0
M  V30 2162 H 194.71 0.800412 4.31845 0
M  V30 2163 H 195.316 2.29959 3.57769 0
M  V30 2164 N 193.631 -1.12557 1.10312 0
M  V30 2165 C 194.563 -2.17971 0.708625 0
M  V30 2166 C 195.576 -1.60806 -0.254027 0
M  V30 2167 O 196.765 -1.78458 -0.0386891 0
M  V30 2168 C 193.865 -3.38891 0.0248198 0
M  V30 2169 C 193.038 -4.25548 1.01132 0
M  V30 2170 C 192.097 -5.24972 0.35924 0
M  V30 2171 O 191.123 -5.60174 1.00965 0
M  V30 2172 N 192.325 -5.73747 -0.882847 0
M  V30 2173 H 195.09 -2.52427 1.61557 0
M  V30 2174 H 192.651 -1.27967 0.991771 0
M  V30 2175 H 194.643 -4.02485 -0.422852 0
M  V30 2176 H 193.213 -3.02596 -0.784514 0
M  V30 2177 H 192.433 -3.58589 1.6373 0
M  V30 2178 H 193.721 -4.80294 1.67914 0
M  V30 2179 H 193.119 -5.4731 -1.43065 0
M  V30 2180 H 191.676 -6.39234 -1.27369 0
M  V30 2181 N 195.109 -0.891671 -1.2995 0
M  V30 2182 C 196.339 -0.527893 -1.99742 0
M  V30 2183 C 196.747 0.88979 -1.66971 0
M  V30 2184 O 196.09 1.59766 -0.906667 0
M  V30 2185 C 196.152 -0.630804 -3.53922 0
M  V30 2186 C 195.816 -2.01401 -4.10228 0
M  V30 2187 C 196.813 -2.98422 -4.25724 0
M  V30 2188 C 194.498 -2.32121 -4.45449 0
M  V30 2189 C 196.492 -4.24293 -4.75662 0
M  V30 2190 C 194.179 -3.58237 -4.95086 0
M  V30 2191 C 195.177 -4.54137 -5.10146 0
M  V30 2192 O 194.865 -5.78014 -5.58708 0
M  V30 2193 H 194.597 -0.201953 -0.645129 0
M  V30 2194 H 197.151 -1.20076 -1.66646 0
M  V30 2195 H 195.381 0.0990616 -3.86573 0
M  V30 2196 H 197.07 -0.277338 -4.04951 0
M  V30 2197 H 197.836 -2.76001 -3.98809 0
M  V30 2198 H 193.715 -1.5824 -4.32991 0
M  V30 2199 H 197.259 -4.99153 -4.87332 0
M  V30 2200 H 193.156 -3.80491 -5.21437 0
M  V30 2201 H 193.924 -5.8049 -5.77039 0
M  V30 2202 N 196.587 1.43421 -0.653314 0
M  V30 2203 C 198.003 1.56341 -0.320886 0
M  V30 2204 C 198.203 1.63696 1.17499 0
M  V30 2205 O 197.259 1.59208 1.95982 0
M  V30 2206 C 198.572 2.82424 -1.03233 0
M  V30 2207 C 200.12 2.96168 -1.01259 0
M  V30 2208 C 200.595 4.25084 -1.70492 0
M  V30 2209 N 202.086 4.31948 -1.67257 0
M  V30 2210 C 202.821 5.30466 -2.17701 0
M  V30 2211 N 202.317 6.35261 -2.76434 0
M  V30 2212 N 204.11 5.2212 -2.082 0
M  V30 2213 H 196.261 1.3689 -1.62403 0
M  V30 2214 H 198.524 0.657455 -0.682977 0
M  V30 2215 H 198.23 2.83053 -2.08744 0
M  V30 2216 H 198.104 3.72653 -0.583948 0
M  V30 2217 H 200.491 2.9508 0.0341235 0
M  V30 2218 H 200.572 2.07229 -1.49966 0
M  V30 2219 H 200.216 4.26932 -2.7512 0
M  V30 2220 H 200.146 5.1292 -1.19251 0
M  V30 2221 H 202.637 3.56838 -1.24398 0
M  V30 2222 H 202.95 7.06754 -3.12601 0
M  V30 2223 H 201.295 6.35884 -2.80495 0
M  V30 2224 H 204.486 4.39166 -1.62021 0
M  V30 2225 H 204.659 5.98739 -2.47822 0
M  V30 2226 N 198.065 0.39524 1.52563 0
M  V30 2227 C 198.997 -0.472201 2.24283 0
M  V30 2228 C 200.01 -1.02178 1.26742 0
M  V30 2229 O 201.199 -0.923097 1.52778 0
M  V30 2230 C 198.299 -1.66775 2.95024 0
M  V30 2231 C 197.472 -1.2445 4.19322 0
M  V30 2232 C 196.531 -2.30539 4.7301 0
M  V30 2233 O 195.557 -1.91702 5.35947 0
M  V30 2234 N 196.759 -3.6253 4.53379 0
M  V30 2235 H 199.524 0.142282 2.99362 0
M  V30 2236 H 197.085 0.2219 1.60372 0
M  V30 2237 H 199.077 -2.37283 3.27839 0
M  V30 2238 H 197.647 -2.18845 2.23217 0
M  V30 2239 H 196.867 -0.368069 3.92478 0
M  V30 2240 H 198.155 -0.938457 5.0007 0
M  V30 2241 H 197.553 -3.96841 4.03154 0
M  V30 2242 H 196.11 -4.29055 4.90668 0
M  V30 2243 N 199.544 -1.57102 0.125237 0
M  V30 2244 C 200.79 -1.95697 -0.532035 0
M  V30 2245 C 201.123 -1.009 -1.6593 0
M  V30 2246 O 200.398 -0.047347 -1.94442 0
M  V30 2247 C 200.681 -3.44181 -1.05884 0
M  V30 2248 C 200.534 -4.49752 0.0654392 0
M  V30 2249 C 201.853 -3.94655 -1.9477 0
M  V30 2250 H 198.972 -0.711571 -0.191925 0
M  V30 2251 H 201.614 -1.88923 0.20206 0
M  V30 2252 H 199.764 -3.50085 -1.68442 0
M  V30 2253 H 201.436 -4.55943 0.700982 0
M  V30 2254 H 199.679 -4.27653 0.727709 0
M  V30 2255 H 200.35 -5.50924 -0.344505 0
M  V30 2256 H 202.826 -3.91094 -1.42074 0
M  V30 2257 H 201.702 -4.99057 -2.28546 0
M  V30 2258 H 201.963 -3.35718 -2.87656 0
M  V30 2259 N 201.022 0.148545 -1.56898 0
M  V30 2260 C 202.247 0.880385 -1.87787 0
M  V30 2261 C 202.672 1.74018 -0.714093 0
M  V30 2262 O 202.03 1.78153 0.336343 0
M  V30 2263 C 202.078 1.71422 -3.17249 0
M  V30 2264 O 201.182 2.8183 -3.01074 0
M  V30 2265 H 200.523 0.245301 -0.617028 0
M  V30 2266 H 203.053 0.139826 -2.04122 0
M  V30 2267 H 203.063 2.10954 -3.49231 0
M  V30 2268 H 201.738 1.08284 -4.01556 0
M  V30 2269 H 200.315 2.45715 -2.80497 0
M  V30 2270 N 202.5 1.5196 0.417844 0
M  V30 2271 C 203.447 1.74678 1.50852 0
M  V30 2272 C 204.417 0.588947 1.55308 0
M  V30 2273 O 205.602 0.825544 1.72016 0
M  V30 2274 C 202.742 1.89544 2.88387 0
M  V30 2275 C 201.855 3.17166 2.93309 0
M  V30 2276 C 200.99 3.22513 4.22088 0
M  V30 2277 C 200.029 4.44372 4.20951 0
M  V30 2278 N 199.166 4.47161 5.41287 0
M  V30 2279 H 204.006 2.67768 1.30783 0
M  V30 2280 H 201.543 1.32689 0.63498 0
M  V30 2281 H 203.501 1.96146 3.68216 0
M  V30 2282 H 202.131 0.998424 3.06971 0
M  V30 2283 H 201.183 3.19778 2.06024 0
M  V30 2284 H 202.495 4.07021 2.88332 0
M  V30 2285 H 201.649 3.28139 5.10303 0
M  V30 2286 H 200.388 2.30581 4.29748 0
M  V30 2287 H 199.393 4.38902 3.31127 0
M  V30 2288 H 200.618 5.3759 4.14938 0
M  V30 2289 H 198.564 3.58108 5.49632 0
M  V30 2290 H 198.481 5.3085 5.3827 0
M  V30 2291 H 199.749 4.57005 6.3148 0
M  V30 2292 N 203.978 -0.674533 1.42435 0
M  V30 2293 C 204.911 -1.79924 1.40366 0
M  V30 2294 C 205.889 -1.60378 0.267899 0
M  V30 2295 O 207.073 -1.82847 0.458159 0
M  V30 2296 C 204.2 -3.16927 1.19478 0
M  V30 2297 C 203.246 -3.55221 2.36051 0
M  V30 2298 S 204.079 -3.5762 3.98583 0
M  V30 2299 C 205.235 -4.97315 3.80038 0
M  V30 2300 H 205.468 -1.81405 2.35541 0
M  V30 2301 H 203.001 -0.845221 1.29211 0
M  V30 2302 H 204.959 -3.96007 1.08114 0
M  V30 2303 H 203.62 -3.13031 0.258883 0
M  V30 2304 H 202.813 -4.54804 2.17185 0
M  V30 2305 H 202.415 -2.83502 2.43932 0
M  V30 2306 H 204.707 -5.85401 3.41045 0
M  V30 2307 H 205.65 -5.21228 4.79298 0
M  V30 2308 H 206.058 -4.69845 3.12899 0
M  V30 2309 N 205.456 -1.28612 -0.910864 0
M  V30 2310 C 206.684 -1.18792 -1.69399 0
M  V30 2311 C 207.099 0.253039 -1.87097 0
M  V30 2312 O 206.456 1.17071 -1.40003 0
M  V30 2313 C 206.507 -1.88511 -3.08457 0
M  V30 2314 O 206.228 -3.26979 -2.91576 0
M  V30 2315 C 207.729 -1.85029 -4.02839 0
M  V30 2316 H 204.949 -0.412233 -0.529438 0
M  V30 2317 H 207.493 -1.69788 -1.13984 0
M  V30 2318 H 205.648 -1.41379 -3.60681 0
M  V30 2319 H 206.062 -3.61936 -3.79608 0
M  V30 2320 H 207.536 -2.38395 -4.97867 0
M  V30 2321 H 208.013 -0.823303 -4.31414 0
M  V30 2322 H 208.619 -2.31853 -3.56545 0
M  V30 2323 N 206.934 1.1197 -1.10907 0
M  V30 2324 C 208.35 1.35591 -0.841852 0
M  V30 2325 C 208.55 1.94233 0.536246 0
M  V30 2326 O 207.606 2.1717 1.28816 0
M  V30 2327 C 208.919 2.29284 -1.94549 0
M  V30 2328 C 210.467 2.42862 -1.97451 0
M  V30 2329 C 210.942 3.39873 -3.07002 0
M  V30 2330 N 212.433 3.47433 -3.06341 0
M  V30 2331 C 213.168 4.22421 -3.87748 0
M  V30 2332 N 212.664 5.00432 -4.79103 0
M  V30 2333 N 214.457 4.17876 -3.75946 0
M  V30 2334 H 206.608 0.722664 -1.99728 0
M  V30 2335 H 208.871 0.380635 -0.868229 0
M  V30 2336 H 208.577 1.93378 -2.93765 0
M  V30 2337 H 208.451 3.29452 -1.83688 0
M  V30 2338 H 210.838 2.78046 -0.988645 0
M  V30 2339 H 210.919 1.42566 -2.12388 0
M  V30 2340 H 210.563 3.05417 -4.05811 0
M  V30 2341 H 210.493 4.40011 -2.89306 0
M  V30 2342 H 212.984 2.91784 -2.40147 0
M  V30 2343 H 213.297 5.55002 -5.37766 0
M  V30 2344 H 211.642 4.99612 -4.83128 0
M  V30 2345 H 214.833 3.56016 -3.03924 0
M  V30 2346 H 215.006 4.76061 -4.39624 0
M  V30 2347 N 208.412 0.89855 1.29475 0
M  V30 2348 C 209.823 0.572537 1.77705 0
M  V30 2349 C 210.174 -0.911778 1.73727 0
M  V30 2350 O 209.299 -1.71288 1.32247 0
M  V30 2351 C 209.894 1.03252 3.22683 0
M  V30 2352 C 208.453 0.757687 3.68695 0
M  V30 2353 C 207.6 1.20787 2.49612 0
M  V30 2354 H 210.551 1.08139 1.16153 0
M  V30 2355 H 210.572 0.367307 3.78723 0
M  V30 2356 H 210.084 2.11285 3.25546 0
M  V30 2357 H 208.185 -0.310079 3.71308 0
M  V30 2358 H 208.298 1.35476 4.59547 0
M  V30 2359 H 206.662 0.626888 2.46865 0
M  V30 2360 H 207.445 2.29622 2.55203 0
M  V30 2361 N 209.89 -1.43072 0.660911 0
M  V30 2362 C 211.138 -2.01323 0.177094 0
M  V30 2363 C 211.459 -1.5245 -1.2159 0
M  V30 2364 O 210.729 -0.740322 -1.81373 0
M  V30 2365 H 209.309 -0.744382 0.0624804 0
M  V30 2366 H 211.971 -1.75179 0.854305 0
M  V30 2367 H 211.067 -3.11649 0.167641 0
M  V30 2368 N 211.368 -0.403325 -1.52352 0
M  V30 2369 C 212.278 0.432009 -2.30588 0
M  V30 2370 C 213.294 1.05884 -1.38075 0
M  V30 2371 O 214.47 1.06161 -1.71148 0
M  V30 2372 C 211.535 1.53669 -3.10784 0
M  V30 2373 C 210.596 0.933525 -4.19027 0
M  V30 2374 C 209.829 1.98557 -4.9539 0
M  V30 2375 O 210.052 3.20283 -4.71991 0
M  V30 2376 O 208.986 1.59504 -5.80381 0
M  V30 2377 H 212.812 -0.205739 -3.03002 0
M  V30 2378 H 210.397 -0.166675 -1.48467 0
M  V30 2379 H 212.279 2.17814 -3.60742 0
M  V30 2380 H 210.954 2.15915 -2.41169 0
M  V30 2381 H 209.861 0.254954 -3.7323 0
M  V30 2382 H 211.194 0.35508 -4.90918 0
M  V30 2383 N 212.846 1.57033 -0.133567 0
M  V30 2384 C 214.093 1.95686 0.520877 0
M  V30 2385 C 214.421 1.0177 1.6575 0
M  V30 2386 O 213.676 0.0443195 1.9565 0
M  V30 2387 C 213.975 3.40674 1.08057 0
M  V30 2388 C 213.641 4.50855 0.0637899 0
M  V30 2389 C 212.303 4.80716 -0.215757 0
M  V30 2390 C 214.655 5.17398 -0.62835 0
M  V30 2391 C 211.983 5.74433 -1.19348 0
M  V30 2392 C 214.335 6.12167 -1.5948 0
M  V30 2393 C 212.999 6.40414 -1.88218 0
M  V30 2394 H 212.269 0.716067 0.190602 0
M  V30 2395 H 214.916 1.9026 -0.217556 0
M  V30 2396 H 213.221 3.42865 1.89606 0
M  V30 2397 H 214.918 3.67902 1.59529 0
M  V30 2398 H 211.508 4.27605 0.291855 0
M  V30 2399 H 215.692 4.94472 -0.425562 0
M  V30 2400 H 210.948 5.94616 -1.42272 0
M  V30 2401 H 215.122 6.6281 -2.13671 0
M  V30 2402 H 212.749 7.12838 -2.64133 0
M  V30 2403 N 214.325 -0.140222 1.56975 0
M  V30 2404 C 215.553 -0.866437 1.87884 0
M  V30 2405 C 215.968 -1.74428 0.722517 0
M  V30 2406 O 215.325 -1.79891 -0.30749 0
M  V30 2407 C 215.376 -1.71753 3.18093 0
M  V30 2408 O 215.097 -0.875056 4.29272 0
M  V30 2409 C 216.598 -2.55074 3.62563 0
M  V30 2410 H 213.818 -0.25019 0.622612 0
M  V30 2411 H 216.362 -0.130977 2.0408 0
M  V30 2412 H 214.517 -2.40598 3.03631 0
M  V30 2413 H 214.931 -1.46002 5.03769 0
M  V30 2414 H 216.405 -3.10356 4.5649 0
M  V30 2415 H 216.882 -3.31434 2.88181 0
M  V30 2416 H 217.488 -1.91509 3.79743 0
M  V30 2417 N 215.803 -1.52179 -0.40978 0
M  V30 2418 C 217.049 -1.66453 -1.15851 0
M  V30 2419 C 217.382 -0.392972 -1.90182 0
M  V30 2420 O 216.657 0.608579 -1.84734 0
M  V30 2421 C 216.94 -2.88612 -2.15349 0
M  V30 2422 C 216.793 -4.25815 -1.44918 0
M  V30 2423 C 218.112 -3.06294 -3.16026 0
M  V30 2424 H 215.231 -0.60575 -0.419805 0
M  V30 2425 H 217.873 -1.84732 -0.444314 0
M  V30 2426 H 216.023 -2.73158 -2.76255 0
M  V30 2427 H 217.695 -4.52995 -0.871365 0
M  V30 2428 H 215.938 -4.27247 -0.751159 0
M  V30 2429 H 216.609 -5.07337 -2.17516 0
M  V30 2430 H 219.085 -3.20641 -2.65195 0
M  V30 2431 H 217.961 -3.93283 -3.8291 0
M  V30 2432 H 218.222 -2.19579 -3.83715 0
M  V30 2433 N 217.281 0.66697 -1.42791 0
M  V30 2434 C 218.213 1.7925 -1.42836 0
M  V30 2435 C 219.226 1.59496 -0.326333 0
M  V30 2436 O 220.415 1.6847 -0.589916 0
M  V30 2437 C 217.515 3.16476 -1.21229 0
M  V30 2438 C 216.688 3.63011 -2.44013 0
M  V30 2439 C 215.747 4.78993 -2.17834 0
M  V30 2440 O 214.773 4.89137 -2.91091 0
M  V30 2441 N 215.975 5.68248 -1.18635 0
M  V30 2442 H 218.74 1.79695 -2.39854 0
M  V30 2443 H 216.301 0.850338 -1.37771 0
M  V30 2444 H 218.293 3.91734 -1.01621 0
M  V30 2445 H 216.863 3.10884 -0.32706 0
M  V30 2446 H 216.083 2.78346 -2.79137 0
M  V30 2447 H 217.371 3.90845 -3.25757 0
M  V30 2448 H 216.769 5.62712 -0.580615 0
M  V30 2449 H 215.326 6.43285 -1.05013 0
M  V30 2450 N 218.759 1.29093 0.90403 0
M  V30 2451 C 219.722 1.1386 1.98919 0
M  V30 2452 C 220.722 0.0753457 1.60623 0
M  V30 2453 O 221.912 0.321931 1.71199 0
M  V30 2454 C 219.044 0.740198 3.32767 0
M  V30 2455 H 220.237 2.10246 2.13861 0
M  V30 2456 H 217.79 1.12218 1.08797 0
M  V30 2457 H 218.525 -0.223997 3.23525 0
M  V30 2458 H 218.31 1.50838 3.61926 0
M  V30 2459 H 219.8 0.656546 4.12407 0
M  V30 2460 N 220.237 -1.11381 1.11499 0
M  V30 2461 C 221.185 -2.19522 0.768956 0
M  V30 2462 C 222.179 -1.67693 -0.239857 0
M  V30 2463 O 223.385 -1.79727 -0.0990755 0
M  V30 2464 H 219.76 -0.715711 0.230786 0
M  V30 2465 H 221.731 -2.45954 1.68964 0
M  V30 2466 C 220.48 -3.46945 0.229073 0
M  V30 2467 H 219.803 -3.8718 0.996596 0
M  V30 2468 H 221.243 -4.23993 0.0251441 0
M  V30 2469 C 219.702 -3.2042 -1.04079 0
M  V30 2470 O 220.232 -3.41178 -2.12038 0
M  V30 2471 N 218.438 -2.74151 -0.963823 0
M  V30 2472 H 217.985 -2.57459 -0.0851722 0
M  V30 2473 H 217.943 -2.56781 -1.81414 0
M  V30 2474 N 221.715 -0.905404 -1.28997 0
M  V30 2475 C 222.94 -0.549175 -1.99997 0
M  V30 2476 C 223.365 0.860276 -1.67275 0
M  V30 2477 O 222.723 1.57355 -0.900502 0
M  V30 2478 C 222.771 -0.755185 -3.52604 0
M  V30 2479 O 221.875 0.189692 -4.11964 0
M  V30 2480 H 221.216 -0.213899 -0.628604 0
M  V30 2481 H 223.746 -1.21856 -1.64354 0
M  V30 2482 H 223.756 -0.662045 -4.02593 0
M  V30 2483 H 222.431 -1.78271 -3.75755 0
M  V30 2484 H 221.008 0.0485257 -3.72868 0
M  V30 2485 N 223.193 1.4272 -0.668489 0
M  V30 2486 C 224.442 2.00846 -0.185389 0
M  V30 2487 C 224.755 1.53442 1.21305 0
M  V30 2488 O 225.961 2.03944 1.79218 0
M  V30 2489 C 224.417 3.58805 -0.280591 0
M  V30 2490 C 224.025 4.15198 -1.68268 0
M  V30 2491 C 225.769 4.24255 0.14412 0
M  V30 2492 C 223.676 5.655 -1.73099 0
M  V30 2493 H 222.606 0.751145 -0.0655475 0
M  V30 2494 H 225.257 1.63516 -0.832752 0
M  V30 2495 H 223.639 3.93608 0.434553 0
M  V30 2496 H 224.813 3.91866 -2.42441 0
M  V30 2497 H 223.128 3.62176 -2.05469 0
M  V30 2498 H 225.725 5.34547 0.128086 0
M  V30 2499 H 226.068 3.99277 1.17827 0
M  V30 2500 H 226.601 3.94389 -0.519798 0
M  V30 2501 H 223.34 5.95268 -2.74475 0
M  V30 2502 H 222.86 5.90842 -1.03274 0
M  V30 2503 H 224.539 6.29808 -1.48158 0
M  V30 2504 N 224.671 0.411399 1.52136 0
M  V30 2505 C 225.581 -0.419774 2.30814 0
M  V30 2506 C 226.597 -1.0515 1.38634 0
M  V30 2507 O 227.773 -1.05252 1.71709 0
M  V30 2508 C 224.838 -1.52019 3.11594 0
M  V30 2509 C 223.899 -0.91129 4.19516 0
M  V30 2510 C 223.132 -1.95927 4.96436 0
M  V30 2511 O 223.355 -3.17775 4.73683 0
M  V30 2512 O 222.289 -1.56423 5.81219 0
M  V30 2513 H 226.115 0.221805 3.02889 0
M  V30 2514 H 223.7 0.174547 1.48377 0
M  V30 2515 H 225.582 -2.15898 3.61892 0
M  V30 2516 H 224.257 -2.14633 2.42311 0
M  V30 2517 H 223.164 -0.235157 3.7336 0
M  V30 2518 H 224.497 -0.32904 4.91099 0
M  V30 2519 N 226.149 -1.5696 0.141893 0
M  V30 2520 C 227.082 -2.12271 -0.837627 0
M  V30 2521 C 228.06 -1.04495 -1.24578 0
M  V30 2522 O 229.244 -1.32293 -1.34278 0
M  V30 2523 C 226.371 -2.63822 -2.12404 0
M  V30 2524 C 225.417 -3.83698 -1.86221 0
M  V30 2525 S 226.25 -5.24948 -1.05781 0
M  V30 2526 C 227.406 -5.79884 -2.35552 0
M  V30 2527 H 227.639 -2.95023 -0.367249 0
M  V30 2528 H 225.172 -1.54231 -0.0723014 0
M  V30 2529 H 227.13 -2.94175 -2.86307 0
M  V30 2530 H 225.791 -1.8121 -2.56557 0
M  V30 2531 H 224.984 -4.17995 -2.81596 0
M  V30 2532 H 224.586 -3.5408 -1.20429 0
M  V30 2533 H 226.878 -5.91005 -3.31239 0
M  V30 2534 H 227.821 -6.77544 -2.05767 0
M  V30 2535 H 228.229 -5.08095 -2.45967 0
M  V30 2536 N 227.627 0.131896 -1.57047 0
M  V30 2537 C 228.876 0.84044 -1.83356 0
M  V30 2538 C 229.189 1.81646 -0.725535 0
M  V30 2539 O 230.395 2.57025 -0.874659 0
M  V30 2540 C 228.851 1.54528 -3.25037 0
M  V30 2541 C 228.459 0.610902 -4.43815 0
M  V30 2542 C 230.203 2.23972 -3.60606 0
M  V30 2543 C 228.11 1.31823 -5.76521 0
M  V30 2544 H 227.04 0.317599 -0.683847 0
M  V30 2545 H 229.691 0.0931561 -1.83263 0
M  V30 2546 H 228.073 2.33873 -3.19561 0
M  V30 2547 H 229.247 -0.148407 -4.60561 0
M  V30 2548 H 227.562 0.0241016 -4.16393 0
M  V30 2549 H 230.159 2.77558 -4.57018 0
M  V30 2550 H 230.502 3.01173 -2.87403 0
M  V30 2551 H 231.035 1.51529 -3.6781 0
M  V30 2552 H 227.774 0.587771 -6.52859 0
M  V30 2553 H 227.294 2.04987 -5.63685 0
M  V30 2554 H 228.973 1.855 -6.19838 0
M  V30 2555 N 229.106 1.52395 0.401703 0
M  V30 2556 C 230.522 1.41363 0.740864 0
M  V30 2557 C 230.722 0.523982 1.94568 0
M  V30 2558 O 229.778 -0.00741204 2.52499 0
M  V30 2559 C 231.091 2.84011 0.987847 0
M  V30 2560 C 232.639 2.93404 1.09011 0
M  V30 2561 C 233.114 4.37036 1.3698 0
M  V30 2562 N 234.605 4.40304 1.43829 0
M  V30 2563 C 235.34 5.48508 1.67112 0
M  V30 2564 N 234.836 6.66819 1.87949 0
M  V30 2565 N 236.629 5.36034 1.69187 0
M  V30 2566 H 228.78 2.08765 -0.391262 0
M  V30 2567 H 231.043 0.941265 -0.112798 0
M  V30 2568 H 230.749 3.51265 0.174835 0
M  V30 2569 H 230.623 3.25502 1.906 0
M  V30 2570 H 233.01 2.26325 1.8937 0
M  V30 2571 H 233.091 2.55359 0.15015 0
M  V30 2572 H 232.735 5.04676 0.571353 0
M  V30 2573 H 232.665 4.72623 2.3224 0
M  V30 2574 H 235.156 3.55024 1.29486 0
M  V30 2575 H 235.469 7.45063 2.05185 0
M  V30 2576 H 233.814 6.6987 1.85199 0
M  V30 2577 H 237.005 4.42579 1.52451 0
M  V30 2578 H 237.178 6.20434 1.86993 0
M  V30 2579 N 230.584 -0.659388 1.43143 0
M  V30 2580 C 232 -0.974337 1.26407 0
M  V30 2581 C 232.2 -2.007 0.179341 0
M  V30 2582 O 231.256 -2.4856 -0.444295 0
M  V30 2583 C 232.569 -1.46447 2.62628 0
M  V30 2584 C 234.117 -1.58144 2.7011 0
M  V30 2585 C 234.592 -2.1055 4.06734 0
M  V30 2586 N 236.083 -2.17861 4.08767 0
M  V30 2587 C 236.818 -2.59519 5.1131 0
M  V30 2588 N 236.314 -3.00518 6.24228 0
M  V30 2589 N 238.107 -2.59404 4.98664 0
M  V30 2590 H 230.258 0.0240528 2.12386 0
M  V30 2591 H 232.521 -0.0518065 0.946583 0
M  V30 2592 H 232.227 -0.780123 3.42939 0
M  V30 2593 H 232.101 -2.44058 2.87603 0
M  V30 2594 H 234.488 -2.25682 1.90136 0
M  V30 2595 H 234.569 -0.589828 2.48907 0
M  V30 2596 H 234.213 -1.43616 4.87172 0
M  V30 2597 H 234.143 -3.10531 4.25298 0
M  V30 2598 H 236.634 -1.88975 3.27257 0
M  V30 2599 H 236.947 -3.31036 6.98309 0
M  V30 2600 H 235.292 -2.98337 6.2771 0
M  V30 2601 H 238.483 -2.26747 4.09516 0
M  V30 2602 H 238.656 -2.91548 5.78709 0
M  V30 2603 N 232.062 -1.29571 -0.897171 0
M  V30 2604 C 233.473 -1.15964 -1.46319 0
M  V30 2605 C 233.824 0.244267 -1.94674 0
M  V30 2606 O 232.949 1.13998 -1.83939 0
M  V30 2607 C 233.544 -2.09906 -2.65942 0
M  V30 2608 C 232.103 -2.00314 -3.18671 0
M  V30 2609 C 231.25 -2.00687 -1.91363 0
M  V30 2610 H 234.201 -1.42019 -0.708268 0
M  V30 2611 H 234.222 -1.67276 -3.41759 0
M  V30 2612 H 233.734 -3.12075 -2.30718 0
M  V30 2613 H 231.835 -1.01242 -3.58582 0
M  V30 2614 H 231.948 -2.88102 -3.82798 0
M  V30 2615 H 230.312 -1.45319 -2.09175 0
M  V30 2616 H 231.095 -3.04566 -1.58413 0
M  V30 2617 N 233.54 1.10788 -1.12088 0
M  V30 2618 C 234.787 1.82671 -0.873931 0
M  V30 2619 C 235.115 1.85004 0.600311 0
M  V30 2620 O 234.37 1.30365 1.45957 0
M  V30 2621 C 234.669 3.29294 -1.38926 0
M  V30 2622 C 234.335 3.47113 -2.87791 0
M  V30 2623 C 232.997 3.51684 -3.28439 0
M  V30 2624 C 235.349 3.52808 -3.83635 0
M  V30 2625 C 232.677 3.59513 -4.63646 0
M  V30 2626 C 235.029 3.62169 -5.18668 0
M  V30 2627 C 233.693 3.65003 -5.58864 0
M  V30 2628 H 232.963 0.668441 -0.319794 0
M  V30 2629 H 235.61 1.30613 -1.40045 0
M  V30 2630 H 233.915 3.83894 -0.783122 0
M  V30 2631 H 235.612 3.83416 -1.17443 0
M  V30 2632 H 232.202 3.4423 -2.5535 0
M  V30 2633 H 236.386 3.4853 -3.53328 0
M  V30 2634 H 231.642 3.59987 -4.94185 0
M  V30 2635 H 235.816 3.6552 -5.92763 0
M  V30 2636 H 233.443 3.70822 -6.63623 0
M  V30 2637 N 235.018 0.912232 1.28515 0
M  V30 2638 C 236.295 0.463597 1.90027 0
M  V30 2639 C 236.675 -1.05753 1.82701 0
M  V30 2640 O 236.023 -1.90492 1.26194 0
M  V30 2641 C 236.233 0.992253 3.34597 0
M  V30 2642 C 237.581 1.04344 4.11579 0
M  V30 2643 O 238.605 0.94079 3.43551 0
M  V30 2644 O 237.464 1.1995 5.33174 0
M  V30 2645 H 234.558 0.146666 0.813891 0
M  V30 2646 H 237.104 1.00292 1.36893 0
M  V30 2647 H 235.876 2.03623 3.34146 0
M  V30 2648 H 235.499 0.433672 3.95228 0
M  V30 2649 N 236.496 -1.42363 0.676048 0
M  V30 2650 C 237.743 -2.01522 0.19883 0
M  V30 2651 C 238.071 -1.53456 -1.19505 0
M  V30 2652 O 237.326 -0.727967 -1.81657 0
M  V30 2653 C 237.625 -3.56929 0.183431 0
M  V30 2654 C 237.291 -4.24431 1.52215 0
M  V30 2655 C 235.953 -4.42585 1.8887 0
M  V30 2656 C 238.305 -4.62459 2.40377 0
M  V30 2657 C 235.633 -4.96039 3.13309 0
M  V30 2658 C 237.985 -5.17294 3.64129 0
M  V30 2659 C 236.649 -5.33661 4.00951 0
M  V30 2660 H 235.919 -0.737419 0.0727571 0
M  V30 2661 H 238.566 -1.70531 0.871281 0
M  V30 2662 H 236.871 -3.87594 -0.572532 0
M  V30 2663 H 238.568 -4.00486 -0.203035 0
M  V30 2664 H 235.158 -4.10661 1.22701 0
M  V30 2665 H 239.342 -4.48105 2.13343 0
M  V30 2666 H 234.598 -5.06896 3.41857 0
M  V30 2667 H 238.772 -5.45704 4.32644 0
M  V30 2668 H 236.399 -5.74845 4.9745 0
M  V30 2669 N 237.974 -0.419461 -1.51915 0
M  V30 2670 C 239.385 0.0477853 -1.86639 0
M  V30 2671 C 239.736 1.43531 -1.33766 0
M  V30 2672 O 238.861 2.05401 -0.68113 0
M  V30 2673 C 239.456 0.0934885 -3.38671 0
M  V30 2674 C 238.015 0.505097 -3.72996 0
M  V30 2675 C 237.162 -0.313792 -2.75519 0
M  V30 2676 H 240.113 -0.636088 -1.45395 0
M  V30 2677 H 240.134 0.906667 -3.6954 0
M  V30 2678 H 239.646 -0.916501 -3.77123 0
M  V30 2679 H 237.747 1.52135 -3.40126 0
M  V30 2680 H 237.86 0.242309 -4.78487 0
M  V30 2681 H 236.224 0.225363 -2.53701 0
M  V30 2682 H 237.007 -1.32232 -3.16812 0
M  V30 2683 N 239.452 1.56882 -0.150215 0
M  V30 2684 C 240.729 1.87844 0.545327 0
M  V30 2685 C 241.109 1.0567 1.82749 0
M  V30 2686 O 240.457 0.144442 2.28043 0
M  V30 2687 C 240.667 3.39526 0.80767 0
M  V30 2688 C 242.015 4.08814 1.14703 0
M  V30 2689 O 243.039 3.44723 0.896917 0
M  V30 2690 O 241.898 5.22004 1.61784 0
M  V30 2691 H 238.992 0.778677 0.278553 0
M  V30 2692 H 241.538 1.68666 -0.187068 0
M  V30 2693 H 240.31 3.91173 -0.0996096 0
M  V30 2694 H 239.933 3.64243 1.59413 0
M  V30 2695 N 240.93 -0.123565 1.57115 0
M  V30 2696 C 242.155 -0.850398 1.89164 0
M  V30 2697 C 242.58 -1.7286 0.741688 0
M  V30 2698 O 241.938 -1.78665 -0.307958 0
M  V30 2699 C 241.986 -1.66353 3.19936 0
M  V30 2700 O 241.09 -2.77004 3.0552 0
M  V30 2701 H 240.431 -0.235454 0.620852 0
M  V30 2702 H 242.961 -0.107335 2.04318 0
M  V30 2703 H 242.971 -2.05372 3.52543 0
M  V30 2704 H 241.646 -1.01881 4.03228 0
M  V30 2705 H 240.223 -2.41221 2.84371 0
M  V30 2706 N 242.408 -1.52605 -0.393616 0
M  V30 2707 C 243.355 -1.77055 -1.48054 0
M  V30 2708 C 244.325 -0.61358 -1.54352 0
M  V30 2709 O 245.51 -0.852806 -1.70681 0
M  V30 2710 C 242.65 -1.94108 -2.85335 0
M  V30 2711 C 241.763 -3.21792 -2.88226 0
M  V30 2712 C 240.898 -3.29188 -4.16904 0
M  V30 2713 C 239.937 -4.51013 -4.13828 0
M  V30 2714 N 239.074 -4.55716 -5.34105 0
M  V30 2715 H 243.914 -2.69815 -1.26506 0
M  V30 2716 H 241.451 -1.33683 -0.61379 0
M  V30 2717 H 243.409 -2.01979 -3.65049 0
M  V30 2718 H 242.039 -1.04713 -3.05344 0
M  V30 2719 H 241.091 -3.23015 -2.00911 0
M  V30 2720 H 242.403 -4.11557 -2.8182 0
M  V30 2721 H 241.557 -3.36216 -5.05018 0
M  V30 2722 H 240.296 -2.37389 -4.26026 0
M  V30 2723 H 239.301 -4.44115 -3.24102 0
M  V30 2724 H 240.526 -5.44123 -4.06333 0
M  V30 2725 H 238.472 -3.66807 -5.43865 0
M  V30 2726 H 238.389 -5.39346 -5.29756 0
M  V30 2727 H 239.657 -4.66993 -6.2413 0
M  V30 2728 N 243.887 0.651787 -1.4349 0
M  V30 2729 C 244.797 1.79368 -1.5121 0
M  V30 2730 C 245.813 1.69361 -0.399093 0
M  V30 2731 O 246.989 1.90505 -0.653431 0
M  V30 2732 C 244.054 3.15653 -1.43401 0
M  V30 2733 C 243.115 3.37446 -2.65384 0
M  V30 2734 C 242.348 4.67229 -2.57939 0
M  V30 2735 O 242.571 5.46676 -1.62792 0
M  V30 2736 O 241.505 4.90773 -3.48462 0
M  V30 2737 H 245.331 1.7581 -2.47638 0
M  V30 2738 H 242.916 0.810447 -1.25507 0
M  V30 2739 H 244.798 3.96935 -1.41494 0
M  V30 2740 H 243.473 3.19798 -0.501085 0
M  V30 2741 H 242.38 2.55923 -2.72863 0
M  V30 2742 H 243.713 3.38148 -3.57654 0
M  V30 2743 N 245.365 1.30045 0.890287 0
M  V30 2744 C 246.613 1.18327 1.63839 0
M  V30 2745 C 246.934 -0.263455 1.93212 0
M  V30 2746 O 246.204 -1.17856 1.56482 0
M  V30 2747 H 244.784 0.434933 0.607324 0
M  V30 2748 H 247.446 1.631 1.06698 0
M  V30 2749 H 246.542 1.74024 2.59079 0
M  V30 2750 N 246.843 -1.10192 1.12674 0
M  V30 2751 C 247.775 -2.16418 0.754701 0
M  V30 2752 C 248.788 -1.61309 -0.21986 0
M  V30 2753 O 249.977 -1.785 -0.000826841 0
M  V30 2754 C 247.077 -3.38762 0.096698 0
M  V30 2755 C 246.25 -4.23307 1.10136 0
M  V30 2756 C 245.309 -5.24092 0.470513 0
M  V30 2757 O 244.335 -5.57906 1.12824 0
M  V30 2758 N 245.537 -5.75491 -0.760948 0
M  V30 2759 H 248.302 -2.48943 1.66875 0
M  V30 2760 H 245.863 -1.25834 1.01869 0
M  V30 2761 H 247.855 -4.03291 -0.337384 0
M  V30 2762 H 246.425 -3.04192 -0.720153 0
M  V30 2763 H 245.645 -3.55036 1.71299 0
M  V30 2764 H 246.933 -4.76624 1.78064 0
M  V30 2765 H 246.331 -5.50222 -1.31424 0
M  V30 2766 H 244.888 -6.41792 -1.13781 0
M  V30 2767 N 248.321 -0.919034 -1.28029 0
M  V30 2768 C 249.567 -0.555757 -1.95036 0
M  V30 2769 C 249.9 0.899198 -1.72128 0
M  V30 2770 O 249.175 1.64023 -1.04531 0
M  V30 2771 C 249.458 -0.872024 -3.49382 0
M  V30 2772 C 249.311 -2.3801 -3.81669 0
M  V30 2773 C 250.63 -0.37185 -4.38526 0
M  V30 2774 H 247.749 -0.203386 -0.708381 0
M  V30 2775 H 250.391 -1.14924 -1.51303 0
M  V30 2776 H 248.541 -0.366946 -3.86763 0
M  V30 2777 H 250.213 -2.9562 -3.54128 0
M  V30 2778 H 248.456 -2.83289 -3.28526 0
M  V30 2779 H 249.127 -2.55192 -4.8947 0
M  V30 2780 H 251.603 -0.804602 -4.08247 0
M  V30 2781 H 250.479 -0.622173 -5.45362 0
M  V30 2782 H 250.74 0.727934 -4.36066 0
M  V30 2783 N 249.799 1.42003 -0.683588 0
M  V30 2784 C 251.215 1.55625 -0.353976 0
M  V30 2785 C 251.415 1.66151 1.14 0
M  V30 2786 O 250.471 1.63329 1.92561 0
M  V30 2787 C 251.784 2.80171 -1.092 0
M  V30 2788 C 253.332 2.93954 -1.07518 0
M  V30 2789 C 253.807 4.21372 -1.79471 0
M  V30 2790 N 255.298 4.28303 -1.76381 0
M  V30 2791 C 256.033 5.25729 -2.28904 0
M  V30 2792 N 255.529 6.29254 -2.89846 0
M  V30 2793 N 257.322 5.17586 -2.19228 0
M  V30 2794 H 249.473 1.33415 -1.6527 0
M  V30 2795 H 251.736 0.64282 -0.696769 0
M  V30 2796 H 251.442 2.78561 -2.14701 0
M  V30 2797 H 251.316 3.7133 -0.662862 0
M  V30 2798 H 253.703 2.95086 -0.028475 0
M  V30 2799 H 253.784 2.04002 -1.54328 0
M  V30 2800 H 253.428 4.21001 -2.84114 0
M  V30 2801 H 253.358 5.10275 -1.30104 0
M  V30 2802 H 255.849 3.54119 -1.31939 0
M  V30 2803 H 256.162 6.99964 -3.27522 0
M  V30 2804 H 254.507 6.29791 -2.93919 0
M  V30 2805 H 257.698 4.35631 -1.71299 0
M  V30 2806 H 257.871 5.93348 -2.60466 0
M  V30 2807 N 251.277 0.427512 1.51691 0
M  V30 2808 C 252.24 -0.377132 2.26076 0
M  V30 2809 C 253.24 -0.958089 1.29141 0
M  V30 2810 O 254.43 -0.83408 1.52934 0
M  V30 2811 C 251.562 -1.53262 3.04506 0
M  V30 2812 H 252.755 0.27464 2.9864 0
M  V30 2813 H 250.308 0.180445 1.55255 0
M  V30 2814 H 251.043 -2.22072 2.36335 0
M  V30 2815 H 250.828 -1.12232 3.75694 0
M  V30 2816 H 252.318 -2.10135 3.60878 0
M  V30 2817 N 252.755 -1.56801 0.158532 0
M  V30 2818 C 254.171 -1.5837 -0.197774 0
M  V30 2819 C 254.371 -1.17334 -1.63814 0
M  V30 2820 O 253.427 -0.878988 -2.36707 0
M  V30 2821 C 254.74 -3.00615 0.0714459 0
M  V30 2822 C 256.288 -3.12999 0.00864533 0
M  V30 2823 C 256.763 -4.57313 0.250685 0
M  V30 2824 N 258.254 -4.62777 0.198014 0
M  V30 2825 C 258.989 -5.72271 0.359642 0
M  V30 2826 N 258.485 -6.90371 0.579625 0
M  V30 2827 N 260.278 -5.61318 0.296438 0
M  V30 2828 H 252.429 -1.81765 1.09887 0
M  V30 2829 H 254.692 -0.841849 0.435884 0
M  V30 2830 H 254.398 -3.35068 1.06874 0
M  V30 2831 H 254.272 -3.71683 -0.642757 0
M  V30 2832 H 256.659 -2.7838 -0.979217 0
M  V30 2833 H 256.74 -2.44393 0.755359 0
M  V30 2834 H 256.384 -4.92639 1.2357 0
M  V30 2835 H 256.314 -5.24061 -0.516489 0
M  V30 2836 H 258.805 -3.77885 0.0331115 0
M  V30 2837 H 259.118 -7.69689 0.69275 0
M  V30 2838 H 257.463 -6.92264 0.616087 0
M  V30 2839 H 260.654 -4.67932 0.125258 0
M  V30 2840 H 260.827 -6.46599 0.425831 0
M  V30 2841 N 254.233 0.115231 -1.57178 0
M  V30 2842 C 255.163 1.1423 -2.03651 0
M  V30 2843 C 256.144 1.42967 -0.921655 0
M  V30 2844 O 257.329 1.53343 -1.19162 0
M  V30 2845 C 254.459 2.4675 -2.44401 0
M  V30 2846 C 253.413 2.32467 -3.59365 0
M  V30 2847 C 252.739 3.69984 -3.86026 0
M  V30 2848 C 254.039 1.78203 -4.90959 0
M  V30 2849 H 255.733 0.755749 -2.89705 0
M  V30 2850 H 253.279 0.362093 -1.39373 0
M  V30 2851 H 255.232 3.18854 -2.75517 0
M  V30 2852 H 253.956 2.87302 -1.55322 0
M  V30 2853 H 252.615 1.62811 -3.28463 0
M  V30 2854 H 252.263 4.08028 -2.94147 0
M  V30 2855 H 251.963 3.61279 -4.63412 0
M  V30 2856 H 253.487 4.43587 -4.19599 0
M  V30 2857 H 254.901 2.40128 -5.20587 0
M  V30 2858 H 253.298 1.8031 -5.72371 0
M  V30 2859 H 254.368 0.739876 -4.79222 0
M  V30 2860 N 255.711 1.52812 0.385517 0
M  V30 2861 C 256.939 1.71907 1.15133 0
M  V30 2862 C 257.354 0.439004 1.83625 0
M  V30 2863 O 256.711 -0.586765 1.7281 0
M  V30 2864 C 256.762 2.87099 2.19673 0
M  V30 2865 O 256.483 4.10151 1.53973 0
M  V30 2866 C 257.984 3.17902 3.08955 0
M  V30 2867 H 255.204 0.575479 0.345057 0
M  V30 2868 H 257.748 1.99476 0.45052 0
M  V30 2869 H 255.903 2.61982 2.85384 0
M  V30 2870 H 256.317 4.74514 2.23465 0
M  V30 2871 H 257.791 4.01959 3.7833 0
M  V30 2872 H 258.268 2.3243 3.72657 0
M  V30 2873 H 258.874 3.44871 2.48885 0
M  V30 2874 N 257.189 -0.644168 1.43834 0
M  V30 2875 C 258.436 -1.40395 1.4593 0
M  V30 2876 C 258.764 -1.94305 0.0869658 0
M  V30 2877 O 258.019 -1.73288 -0.909378 0
M  V30 2878 C 258.318 -2.59615 2.45631 0
M  V30 2879 C 257.984 -2.2407 3.91284 0
M  V30 2880 C 256.646 -2.14089 4.30952 0
M  V30 2881 C 258.998 -1.95775 4.83034 0
M  V30 2882 C 256.326 -1.73981 5.6031 0
M  V30 2883 C 258.678 -1.57163 6.12766 0
M  V30 2884 C 257.342 -1.45713 6.51402 0
M  V30 2885 H 256.612 -0.513741 0.533995 0
M  V30 2886 H 259.259 -0.731724 1.76969 0
M  V30 2887 H 257.564 -3.32011 2.08028 0
M  V30 2888 H 259.261 -3.17834 2.44504 0
M  V30 2889 H 255.851 -2.32753 3.59895 0
M  V30 2890 H 260.035 -2.02403 4.53152 0
M  V30 2891 H 255.291 -1.63709 5.89075 0
M  V30 2892 H 259.465 -1.34303 6.83327 0
M  V30 2893 H 257.092 -1.14406 7.51542 0
M  V30 2894 N 258.668 -1.30515 -0.883378 0
M  V30 2895 C 259.945 -1.10086 -1.6168 0
M  V30 2896 C 260.325 0.349269 -2.08191 0
M  V30 2897 O 259.673 1.34105 -1.85008 0
M  V30 2898 C 259.883 -2.10315 -2.78511 0
M  V30 2899 C 261.231 -2.42119 -3.48803 0
M  V30 2900 O 262.255 -2.08638 -2.88702 0
M  V30 2901 O 261.114 -2.99396 -4.57192 0
M  V30 2902 H 258.208 -0.422907 -0.710689 0
M  V30 2903 H 260.754 -1.41947 -0.930015 0
M  V30 2904 H 259.526 -3.07917 -2.41459 0
M  V30 2905 H 259.149 -1.79282 -3.54886 0
M  V30 2906 N 260.146 1.09593 -1.13257 0
M  V30 2907 C 261.394 1.81375 -0.891492 0
M  V30 2908 C 261.715 1.86049 0.584009 0
M  V30 2909 O 260.985 1.34481 1.42449 0
M  V30 2910 H 259.565 0.671708 -0.326828 0
M  V30 2911 H 262.227 1.3256 -1.42877 0
M  V30 2912 H 261.323 2.84612 -1.28071 0
M  V30 2913 N 261.624 0.925811 1.2754 0
M  V30 2914 C 262.901 0.483726 1.89524 0
M  V30 2915 C 263.281 -1.03809 1.83812 0
M  V30 2916 O 262.629 -1.89143 1.28207 0
M  V30 2917 C 262.839 1.02769 3.33526 0
M  V30 2918 C 264.187 1.08703 4.10449 0
M  V30 2919 O 265.211 0.977175 3.42534 0
M  V30 2920 O 264.07 1.25599 5.31871 0
M  V30 2921 H 261.164 0.15529 0.812289 0
M  V30 2922 H 263.71 1.01738 1.35822 0
M  V30 2923 H 262.482 2.07155 3.31967 0
M  V30 2924 H 262.105 0.475567 3.94746 0
M  V30 2925 N 263.102 -1.41638 0.69111 0
M  V30 2926 C 264.052 -2.28 -0.000107832 0
M  V30 2927 C 265.036 -1.41964 -0.757304 0
M  V30 2928 O 266.228 -1.65274 -0.633532 0
M  V30 2929 C 263.357 -3.30209 -0.938983 0
M  V30 2930 C 262.443 -4.23725 -0.17827 0
M  V30 2931 N 262.834 -4.99017 0.825563 0
M  V30 2932 C 261.132 -4.44071 -0.414392 0
M  V30 2933 C 261.833 -5.67431 1.28052 0
M  V30 2934 N 260.809 -5.40197 0.607304 0
M  V30 2935 H 264.611 -2.83644 0.769617 0
M  V30 2936 H 262.125 -1.53797 0.521562 0
M  V30 2937 H 264.122 -3.90898 -1.44929 0
M  V30 2938 H 262.782 -2.76126 -1.70836 0
M  V30 2939 H 263.793 -5.03671 1.20566 0
M  V30 2940 H 260.47 -4.01004 -1.162 0
M  V30 2941 H 261.86 -6.37801 2.11327 0
M  V30 2942 N 264.58 -0.43555 -1.51462 0
M  V30 2943 C 265.51 0.367376 -2.30592 0
M  V30 2944 C 266.491 1.02263 -1.35928 0
M  V30 2945 O 267.676 1.02661 -1.64847 0
M  V30 2946 C 264.806 1.46983 -3.14664 0
M  V30 2947 C 263.76 0.938161 -4.17591 0
M  V30 2948 C 263.086 2.13622 -4.90173 0
M  V30 2949 C 264.386 -0.0261621 -5.22293 0
M  V30 2950 H 266.08 -0.292969 -2.97963 0
M  V30 2951 H 263.626 -0.14234 -1.43295 0
M  V30 2952 H 265.579 2.03873 -3.688 0
M  V30 2953 H 264.303 2.15843 -2.4511 0
M  V30 2954 H 262.962 0.391481 -3.64504 0
M  V30 2955 H 262.61 2.81098 -4.17124 0
M  V30 2956 H 262.31 1.78688 -5.59772 0
M  V30 2957 H 263.834 2.7107 -5.47132 0
M  V30 2958 H 265.248 0.452384 -5.71512 0
M  V30 2959 H 263.645 -0.287992 -5.99409 0
M  V30 2960 H 264.715 -0.963391 -4.75233 0
M  V30 2961 N 266.058 1.56714 -0.166846 0
M  V30 2962 C 267.021 2.16539 0.751232 0
M  V30 2963 C 268.021 1.11228 1.16125 0
M  V30 2964 O 269.211 1.36765 1.07894 0
M  V30 2965 C 266.343 2.74462 2.02196 0
M  V30 2966 H 267.536 2.99013 0.230499 0
M  V30 2967 H 265.089 1.56081 0.0826982 0
M  V30 2968 H 265.824 1.95709 2.58589 0
M  V30 2969 H 265.609 3.51527 1.73698 0
M  V30 2970 H 267.099 3.20489 2.67725 0
M  V30 2971 N 267.536 -0.106894 1.57237 0
M  V30 2972 C 268.764 -0.826389 1.8968 0
M  V30 2973 C 269.179 -1.72856 0.759353 0
M  V30 2974 O 268.536 -1.80503 -0.269263 0
M  V30 2975 C 268.587 -1.64967 3.21665 0
M  V30 2976 O 268.308 -0.783804 4.31031 0
M  V30 2977 C 269.809 -2.47326 3.67892 0
M  V30 2978 H 267.029 -0.236927 0.627779 0
M  V30 2979 H 269.573 -0.0876593 2.04312 0
M  V30 2980 H 267.728 -2.34103 3.08666 0
M  V30 2981 H 268.142 -1.35284 5.06753 0
M  V30 2982 H 269.616 -3.00604 4.6297 0
M  V30 2983 H 270.093 -3.25247 2.95146 0
M  V30 2984 H 270.699 -1.83411 3.83719 0
M  V30 2985 N 269.014 -1.53014 -0.377408 0
M  V30 2986 C 270.263 -1.67845 -1.11853 0
M  V30 2987 C 270.576 -0.430625 -1.90801 0
M  V30 2988 O 271.782 -0.459261 -2.67587 0
M  V30 2989 C 270.238 -2.96668 -2.03756 0
M  V30 2990 C 269.846 -4.28671 -1.30175 0
M  V30 2991 C 271.59 -3.20865 -2.77932 0
M  V30 2992 C 269.497 -5.48591 -2.20911 0
M  V30 2993 H 268.427 -0.625343 -0.421263 0
M  V30 2994 H 271.078 -1.79514 -0.380409 0
M  V30 2995 H 269.46 -2.78773 -2.8125 0
M  V30 2996 H 270.634 -4.57157 -0.578259 0
M  V30 2997 H 268.949 -4.10825 -0.679108 0
M  V30 2998 H 271.546 -4.07642 -3.46024 0
M  V30 2999 H 271.889 -2.36424 -3.4265 0
M  V30 3000 H 272.422 -3.39379 -2.07525 0
M  V30 3001 H 269.161 -6.35474 -1.6079 0
M  V30 3002 H 268.681 -5.244 -2.91144 0
M  V30 3003 H 270.36 -5.8292 -2.80736 0
M  V30 3004 N 270.492 0.636531 -1.44174 0
M  V30 3005 C 271.738 1.39826 -1.4689 0
M  V30 3006 C 272.071 1.93947 -0.0990585 0
M  V30 3007 O 271.346 1.73325 0.882544 0
M  V30 3008 C 271.629 2.56751 -2.5249 0
M  V30 3009 C 271.482 2.08014 -3.98811 0
M  V30 3010 C 272.801 3.58946 -2.54649 0
M  V30 3011 H 269.92 0.507075 -0.53483 0
M  V30 3012 H 272.562 0.720188 -1.75822 0
M  V30 3013 H 270.712 3.14597 -2.2795 0
M  V30 3014 H 272.384 1.5504 -4.34466 0
M  V30 3015 H 270.627 1.39242 -4.10846 0
M  V30 3016 H 271.298 2.92169 -4.68339 0
M  V30 3017 H 273.774 3.1089 -2.76563 0
M  V30 3018 H 272.65 4.38286 -3.3045 0
M  V30 3019 H 272.911 4.12655 -1.58646 0
M  V30 3020 N 271.97 1.30982 0.876444 0
M  V30 3021 C 272.918 1.18006 2.00443 0
M  V30 3022 C 273.912 0.0898871 1.69161 0
M  V30 3023 O 275.118 0.251333 1.78237 0
M  V30 3024 H 271.493 0.365196 0.65737 0
M  V30 3025 H 273.464 2.13453 2.0852 0
M  V30 3026 C 272.213 0.897521 3.35916 0
M  V30 3027 H 271.536 1.7285 3.60504 0
M  V30 3028 H 272.976 0.846874 4.15456 0
M  V30 3029 C 271.435 -0.399674 3.34521 0
M  V30 3030 O 271.965 -1.41852 3.7582 0
M  V30 3031 N 270.171 -0.413893 2.87637 0
M  V30 3032 H 269.718 0.41571 2.54224 0
M  V30 3033 H 269.676 -1.28175 2.87086 0
M  V30 3034 N 273.449 -1.08991 1.13837 0
M  V30 3035 C 274.382 -2.15049 0.763477 0
M  V30 3036 C 275.36 -1.60629 -0.252398 0
M  V30 3037 O 276.544 -1.87958 -0.142853 0
M  V30 3038 C 273.671 -3.38441 0.132545 0
M  V30 3039 C 272.717 -4.11596 1.11763 0
M  V30 3040 S 273.55 -4.6521 2.65216 0
M  V30 3041 C 274.706 -5.91896 2.03495 0
M  V30 3042 H 274.939 -2.46518 1.66182 0
M  V30 3043 H 272.472 -1.21008 0.958976 0
M  V30 3044 H 274.43 -4.09883 -0.225074 0
M  V30 3045 H 273.091 -3.05182 -0.743135 0
M  V30 3046 H 272.284 -5.00121 0.624076 0
M  V30 3047 H 271.886 -3.46038 1.41894 0
M  V30 3048 H 274.178 -6.63156 1.38675 0
M  V30 3049 H 275.121 -6.45938 2.9012 0
M  V30 3050 H 275.529 -5.44625 1.48471 0
M  V30 3051 N 274.927 -0.932562 -1.27047 0
M  V30 3052 C 275.837 -0.441219 -2.30414 0
M  V30 3053 C 276.853 0.480525 -1.67233 0
M  V30 3054 O 278.029 0.362151 -1.98117 0
M  V30 3055 C 275.094 0.293651 -3.45454 0
M  V30 3056 C 274.155 -0.663601 -4.2414 0
M  V30 3057 C 273.388 0.0362932 -5.33688 0
M  V30 3058 O 273.611 1.2548 -5.56427 0
M  V30 3059 O 272.545 -0.638015 -5.98509 0
M  V30 3060 H 276.371 -1.29962 -2.74488 0
M  V30 3061 H 273.956 -0.6981 -1.32087 0
M  V30 3062 H 275.838 0.707951 -4.15411 0
M  V30 3063 H 274.513 1.12758 -3.03426 0
M  V30 3064 H 273.42 -1.12768 -3.56699 0
M  V30 3065 H 274.753 -1.46489 -4.69896 0
M  V30 3066 N 276.405 1.4127 -0.698611 0
M  V30 3067 C 277.353 2.32588 -0.023855 0
M  V30 3068 C 278.347 1.51128 0.765292 0
M  V30 3069 O 279.553 1.67043 0.670571 0
M  V30 3070 H 275.928 0.751918 0.0110871 0
M  V30 3071 H 277.899 2.87167 -0.811031 0
M  V30 3072 C 276.648 3.35947 0.896369 0
M  V30 3073 H 275.971 3.98684 0.298548 0
M  V30 3074 H 277.411 4.02376 1.33676 0
M  V30 3075 C 275.87 2.70076 2.01396 0
M  V30 3076 O 276.4 2.55093 3.10307 0
M  V30 3077 N 274.606 2.28724 1.79259 0
M  V30 3078 H 274.153 2.4111 0.906841 0
M  V30 3079 H 274.111 1.84986 2.54219 0
M  V30 3080 N 277.883 0.443576 1.51229 0
M  V30 3081 C 278.831 -0.37904 2.29491 0
M  V30 3082 C 279.825 -1.0153 1.35603 0
M  V30 3083 O 281.031 -0.94955 1.52917 0
M  V30 3084 H 277.406 -0.141053 0.738653 0
M  V30 3085 H 279.377 0.301799 2.9687 0
M  V30 3086 C 278.126 -1.46426 3.15364 0
M  V30 3087 H 277.449 -0.984037 3.87501 0
M  V30 3088 H 278.889 -2.01297 3.7317 0
M  V30 3089 C 277.348 -2.45099 2.31146 0
M  V30 3090 O 277.878 -3.49773 1.9754 0
M  V30 3091 N 276.084 -2.16139 1.94249 0
M  V30 3092 H 275.631 -1.31044 2.21777 0
M  V30 3093 H 275.589 -2.82398 1.38198 0
M  V30 3094 N 279.361 -1.56624 0.175154 0
M  V30 3095 C 280.777 -1.58571 -0.180966 0
M  V30 3096 C 280.977 -1.19065 -1.6256 0
M  V30 3097 O 280.033 -0.904044 -2.35761 0
M  V30 3098 C 281.346 -3.00522 0.103326 0
M  V30 3099 C 282.894 -3.12972 0.0418426 0
M  V30 3100 C 283.369 -4.57022 0.299175 0
M  V30 3101 N 284.86 -4.62541 0.247086 0
M  V30 3102 C 285.595 -5.71857 0.420318 0
M  V30 3103 N 285.091 -6.89717 0.652816 0
M  V30 3104 N 286.884 -5.60972 0.355957 0
M  V30 3105 H 279.035 -1.80589 1.11809 0
M  V30 3106 H 281.298 -0.837178 0.444788 0
M  V30 3107 H 281.004 -3.33916 1.10422 0
M  V30 3108 H 280.878 -3.72344 -0.603299 0
M  V30 3109 H 283.265 -2.79403 -0.949636 0
M  V30 3110 H 283.346 -2.43578 0.781238 0
M  V30 3111 H 282.99 -4.913 1.28788 0
M  V30 3112 H 282.92 -5.24579 -0.460876 0
M  V30 3113 H 285.411 -3.77829 0.0731895 0
M  V30 3114 H 285.724 -7.68911 0.774347 0
M  V30 3115 H 284.069 -6.91572 0.689476 0
M  V30 3116 H 287.26 -4.67773 0.174882 0
M  V30 3117 H 287.433 -6.46111 0.494388 0
M  V30 3118 N 280.839 0.0985539 -1.57292 0
M  V30 3119 C 281.771 1.14595 -1.98496 0
M  V30 3120 C 282.784 1.36512 -0.887031 0
M  V30 3121 O 283.973 1.35225 -1.16518 0
M  V30 3122 C 281.073 2.50216 -2.28572 0
M  V30 3123 C 280.246 2.48624 -3.59868 0
M  V30 3124 C 279.305 3.66146 -3.7792 0
M  V30 3125 O 278.331 3.48795 -4.49812 0
M  V30 3126 N 279.533 4.85496 -3.18235 0
M  V30 3127 H 282.298 0.795277 -2.88956 0
M  V30 3128 H 279.859 0.287579 -1.59325 0
M  V30 3129 H 281.851 3.27432 -2.37845 0
M  V30 3130 H 280.421 2.77387 -1.44136 0
M  V30 3131 H 279.641 1.56978 -3.61596 0
M  V30 3132 H 280.929 2.44635 -4.46129 0
M  V30 3133 H 280.327 5.02497 -2.59833 0
M  V30 3134 H 278.884 5.60317 -3.32999 0
M  V30 3135 N 282.317 1.53212 0.369288 0
M  V30 3136 C 283.564 1.69215 1.11232 0
M  V30 3137 C 283.892 0.442048 1.8941 0
M  V30 3138 O 283.147 -0.575944 1.87033 0
M  V30 3139 C 283.446 2.89101 2.10132 0
M  V30 3140 C 283.112 4.25758 1.48463 0
M  V30 3141 C 281.774 4.6292 1.31372 0
M  V30 3142 C 284.126 5.10757 1.03811 0
M  V30 3143 C 281.454 5.82722 0.68207 0
M  V30 3144 C 283.806 6.31201 0.420487 0
M  V30 3145 C 282.47 6.67079 0.237038 0
M  V30 3146 H 281.74 0.619201 0.407027 0
M  V30 3147 H 284.387 1.87391 0.394552 0
M  V30 3148 H 282.692 2.65421 2.88199 0
M  V30 3149 H 284.389 2.98676 2.6757 0
M  V30 3150 H 280.979 3.96494 1.62758 0
M  V30 3151 H 285.163 4.82599 1.1581 0
M  V30 3152 H 280.419 6.09113 0.528316 0
M  V30 3153 H 284.593 6.96368 0.0662874 0
M  V30 3154 H 282.22 7.59774 -0.254477 0
M  V30 3155 N 283.795 -0.628877 1.44509 0
M  V30 3156 C 285.043 -1.38565 1.4712 0
M  V30 3157 C 285.364 -1.94712 0.105899 0
M  V30 3158 O 284.634 -1.75912 -0.862079 0
M  V30 3159 H 283.214 -0.514333 0.541729 0
M  V30 3160 H 285.876 -0.740018 1.80305 0
M  V30 3161 H 284.972 -2.21583 2.19789 0
M  V30 3162 N 285.273 -1.31445 -0.869486 0
M  V30 3163 C 286.52 -1.21158 -1.62256 0
M  V30 3164 C 286.848 0.230155 -1.93133 0
M  V30 3165 O 286.103 1.17906 -1.56194 0
M  V30 3166 C 286.402 -2.00145 -2.96102 0
M  V30 3167 C 286.068 -3.4964 -2.84715 0
M  V30 3168 C 284.73 -3.90403 -2.81317 0
M  V30 3169 C 287.082 -4.44769 -2.71716 0
M  V30 3170 C 284.41 -5.24561 -2.62778 0
M  V30 3171 C 286.762 -5.79054 -2.54714 0
M  V30 3172 C 285.426 -6.19037 -2.49699 0
M  V30 3173 H 284.696 -0.443348 -0.593737 0
M  V30 3174 H 287.343 -1.62715 -1.00976 0
M  V30 3175 H 285.648 -1.5127 -3.6142 0
M  V30 3176 H 287.345 -1.89566 -3.53363 0
M  V30 3177 H 283.935 -3.17256 -2.88178 0
M  V30 3178 H 288.119 -4.14208 -2.73397 0
M  V30 3179 H 283.375 -5.54613 -2.57321 0
M  V30 3180 H 287.549 -6.52393 -2.43632 0
M  V30 3181 H 285.176 -7.22935 -2.35093 0
M  V30 3182 N 286.751 1.08385 -1.14413 0
M  V30 3183 C 287.998 1.80776 -0.912482 0
M  V30 3184 C 288.326 1.86236 0.560934 0
M  V30 3185 O 287.581 1.33431 1.43159 0
M  V30 3186 C 287.88 3.26273 -1.45879 0
M  V30 3187 C 287.546 3.4093 -2.95089 0
M  V30 3188 C 286.208 3.44638 -3.35824 0
M  V30 3189 C 288.56 3.44591 -3.91033 0
M  V30 3190 C 285.888 3.49597 -4.71167 0
M  V30 3191 C 288.24 3.51086 -5.26233 0
M  V30 3192 C 286.904 3.53067 -5.6648 0
M  V30 3193 H 286.174 0.661507 -0.333901 0
M  V30 3194 H 288.821 1.27613 -1.42784 0
M  V30 3195 H 287.126 3.82146 -0.864376 0
M  V30 3196 H 288.823 3.80839 -1.2555 0
M  V30 3197 H 285.413 3.38736 -2.62594 0
M  V30 3198 H 289.597 3.40957 -3.60641 0
M  V30 3199 H 284.853 3.49424 -5.0171 0
M  V30 3200 H 289.027 3.52864 -6.00383 0
M  V30 3201 H 286.654 3.56662 -6.71339 0
M  V30 3202 N 288.23 0.939286 1.26551 0
M  V30 3203 C 289.646 0.641304 1.46149 0
M  V30 3204 C 289.846 -0.805964 1.84679 0
M  V30 3205 O 288.902 -1.58278 1.96734 0
M  V30 3206 C 290.215 1.6011 2.54529 0
M  V30 3207 C 291.763 1.6106 2.68382 0
M  V30 3208 C 292.238 2.55765 3.79932 0
M  V30 3209 N 293.729 2.5404 3.87322 0
M  V30 3210 C 294.464 3.24004 4.73085 0
M  V30 3211 N 293.96 4.03388 5.63249 0
M  V30 3212 N 295.753 3.12965 4.66914 0
M  V30 3213 H 287.904 1.87478 0.998285 0
M  V30 3214 H 290.167 0.805559 0.499779 0
M  V30 3215 H 289.873 2.63412 2.33039 0
M  V30 3216 H 289.747 1.35171 3.52149 0
M  V30 3217 H 292.134 0.584835 2.89247 0
M  V30 3218 H 292.215 1.90053 1.71212 0
M  V30 3219 H 291.859 3.58458 3.5982 0
M  V30 3220 H 291.789 2.24063 4.76554 0
M  V30 3221 H 294.28 1.96396 3.22858 0
M  V30 3222 H 294.593 4.5373 6.25579 0
M  V30 3223 H 292.938 4.07489 5.63008 0
M  V30 3224 H 296.129 2.50432 3.95476 0
M  V30 3225 H 296.302 3.67759 5.33533 0
M  V30 3226 N 289.708 -1.40897 0.706093 0
M  V30 3227 C 290.638 -2.33418 0.0620085 0
M  V30 3228 C 291.619 -1.52385 -0.755827 0
M  V30 3229 O 292.804 -1.80886 -0.706674 0
M  V30 3230 C 289.934 -3.36293 -0.867445 0
M  V30 3231 C 288.888 -4.27716 -0.155932 0
M  V30 3232 C 288.214 -5.2105 -1.20046 0
M  V30 3233 C 289.514 -5.12944 0.984149 0
M  V30 3234 H 291.208 -2.87527 0.83477 0
M  V30 3235 H 288.754 -1.38249 0.402875 0
M  V30 3236 H 290.707 -3.99949 -1.32735 0
M  V30 3237 H 289.431 -2.80556 -1.67199 0
M  V30 3238 H 288.09 -3.65498 0.284047 0
M  V30 3239 H 287.738 -4.61624 -1.99781 0
M  V30 3240 H 287.438 -5.83056 -0.729328 0
M  V30 3241 H 288.962 -5.87584 -1.66066 0
M  V30 3242 H 290.376 -5.70109 0.604048 0
M  V30 3243 H 288.773 -5.83945 1.38304 0
M  V30 3244 H 289.843 -4.49485 1.81911 0
M  V30 3245 N 291.186 -0.45159 -1.50991 0
M  V30 3246 C 292.463 0.170707 -1.94854 0
M  V30 3247 C 292.843 1.58788 -1.39103 0
M  V30 3248 O 292.191 2.20913 -0.583921 0
M  V30 3249 C 292.401 0.133929 -3.48743 0
M  V30 3250 C 293.749 0.33248 -4.23296 0
M  V30 3251 O 294.773 0.211403 -3.55572 0
M  V30 3252 O 293.632 0.57486 -5.43468 0
M  V30 3253 H 290.726 0.122264 -0.817912 0
M  V30 3254 H 293.272 -0.510594 -1.61836 0
M  V30 3255 H 292.044 -0.856283 -3.81816 0
M  V30 3256 H 291.667 0.857529 -3.88242 0
M  V30 3257 N 292.664 1.56529 -0.183458 0
M  V30 3258 C 294.075 1.83739 0.331177 0
M  V30 3259 C 294.426 1.10373 1.62211 0
M  V30 3260 O 293.551 0.36071 2.13373 0
M  V30 3261 C 294.146 3.33306 0.607646 0
M  V30 3262 C 292.705 3.60969 1.06668 0
M  V30 3263 C 291.852 2.77086 0.109029 0
M  V30 3264 H 294.803 1.53379 -0.407484 0
M  V30 3265 H 294.824 3.51444 1.45832 0
M  V30 3266 H 294.336 3.86677 -0.332086 0
M  V30 3267 H 292.437 3.13021 2.0211 0
M  V30 3268 H 292.55 4.69231 0.967447 0
M  V30 3269 H 290.914 2.47319 0.608714 0
M  V30 3270 H 291.697 3.33241 -0.82494 0
M  V30 3271 N 294.142 -0.090211 1.57342 0
M  V30 3272 C 295.558 -0.444547 1.53284 0
M  V30 3273 C 295.758 -1.80238 0.900914 0
M  V30 3274 O 294.814 -2.4759 0.495513 0
M  V30 3275 C 296.127 -0.402543 2.97993 0
M  V30 3276 C 297.675 -0.48405 3.09234 0
M  V30 3277 C 298.15 -0.472144 4.5556 0
M  V30 3278 N 299.641 -0.532757 4.60126 0
M  V30 3279 C 300.376 -0.545462 5.708 0
M  V30 3280 N 299.872 -0.514082 6.9089 0
M  V30 3281 N 301.665 -0.59064 5.58988 0
M  V30 3282 H 293.816 0.799121 1.96794 0
M  V30 3283 H 296.079 0.297965 0.899956 0
M  V30 3284 H 295.785 0.528106 3.47712 0
M  V30 3285 H 295.659 -1.21969 3.56936 0
M  V30 3286 H 298.046 -1.40512 2.595 0
M  V30 3287 H 298.127 0.361328 2.53235 0
M  V30 3288 H 297.771 0.445 5.05947 0
M  V30 3289 H 297.701 -1.3348 5.09402 0
M  V30 3290 H 300.192 -0.562006 3.73698 0
M  V30 3291 H 300.505 -0.527195 7.71 0
M  V30 3292 H 298.85 -0.481054 6.93333 0
M  V30 3293 H 302.041 -0.61272 4.64073 0
M  V30 3294 H 302.214 -0.597073 6.45243 0
M  V30 3295 N 295.62 -1.53406 -0.361157 0
M  V30 3296 C 296.55 -1.83136 -1.44857 0
M  V30 3297 C 297.531 -0.685174 -1.5569 0
M  V30 3298 O 298.716 -0.93544 -1.70186 0
M  V30 3299 C 295.846 -2.02522 -2.82138 0
M  V30 3300 C 294.8 -3.18302 -2.86126 0
M  V30 3301 C 294.126 -3.22989 -4.26125 0
M  V30 3302 C 295.426 -4.56796 -2.53248 0
M  V30 3303 H 297.12 -2.74201 -1.20226 0
M  V30 3304 H 294.666 -1.31938 -0.576922 0
M  V30 3305 H 296.619 -2.21904 -3.58241 0
M  V30 3306 H 295.343 -1.08172 -3.08166 0
M  V30 3307 H 294.002 -2.98747 -2.12475 0
M  V30 3308 H 293.65 -2.26267 -4.49235 0
M  V30 3309 H 293.35 -4.00781 -4.29708 0
M  V30 3310 H 294.874 -3.44559 -5.04094 0
M  V30 3311 H 296.288 -4.7631 -3.19064 0
M  V30 3312 H 294.685 -5.36862 -2.68141 0
M  V30 3313 H 295.755 -4.61606 -1.48484 0
M  V30 3314 N 297.098 0.621204 -1.44841 0
M  V30 3315 C 298.347 1.37658 -1.47422 0
M  V30 3316 C 298.66 1.95264 -0.114629 0
M  V30 3317 O 299.866 2.71494 -0.0180199 0
M  V30 3318 C 298.322 2.49285 -2.59586 0
M  V30 3319 C 297.93 1.98149 -4.01797 0
M  V30 3320 C 299.674 3.26409 -2.71399 0
M  V30 3321 C 297.581 3.07178 -5.05367 0
M  V30 3322 H 296.511 0.517344 -0.548517 0
M  V30 3323 H 299.162 0.667257 -1.70938 0
M  V30 3324 H 297.544 3.22839 -2.29328 0
M  V30 3325 H 298.718 1.31395 -4.41669 0
M  V30 3326 H 297.033 1.33812 -3.94314 0
M  V30 3327 H 299.63 4.07706 -3.45948 0
M  V30 3328 H 299.973 3.76535 -1.77559 0
M  V30 3329 H 300.506 2.5995 -3.01116 0
M  V30 3330 H 297.245 2.61985 -6.00869 0
M  V30 3331 H 296.765 3.72542 -4.70077 0
M  V30 3332 H 298.444 3.71789 -5.29511 0
M  V30 3333 N 298.576 1.31904 0.862503 0
M  V30 3334 C 299.804 1.24998 1.64873 0
M  V30 3335 C 300.219 -0.183425 1.87907 0
M  V30 3336 O 299.576 -1.11794 1.44251 0
M  V30 3337 C 299.627 1.99829 3.01248 0
M  V30 3338 O 299.348 3.37575 2.79239 0
M  V30 3339 C 300.849 1.99852 3.95694 0
M  V30 3340 H 298.069 0.431599 0.513773 0
M  V30 3341 H 300.613 1.73901 1.07604 0
M  V30 3342 H 298.768 1.54668 3.55185 0
M  V30 3343 H 299.182 3.75776 3.65914 0
M  V30 3344 H 300.656 2.56709 4.88676 0
M  V30 3345 H 301.133 0.982852 4.28062 0
M  V30 3346 H 301.739 2.44926 3.47694 0
M  V30 3347 N 300.054 -1.07777 1.14986 0
M  V30 3348 C 300.987 -2.14228 0.786243 0
M  V30 3349 C 301.965 -1.60888 -0.235347 0
M  V30 3350 O 303.149 -1.88099 -0.122909 0
M  V30 3351 C 300.276 -3.38281 0.168433 0
M  V30 3352 C 299.322 -4.10387 1.16123 0
M  V30 3353 S 300.155 -4.62371 2.70135 0
M  V30 3354 C 301.311 -5.89704 2.09762 0
M  V30 3355 H 301.544 -2.44741 1.68787 0
M  V30 3356 H 299.077 -1.19984 0.971756 0
M  V30 3357 H 301.035 -4.10098 -0.181588 0
M  V30 3358 H 299.696 -3.05953 -0.710725 0
M  V30 3359 H 298.889 -4.99431 0.677086 0
M  V30 3360 H 298.491 -3.44513 1.45556 0
M  V30 3361 H 300.783 -6.61648 1.45701 0
M  V30 3362 H 301.726 -6.42824 2.96955 0
M  V30 3363 H 302.134 -5.4302 1.54239 0
M  V30 3364 N 301.532 -0.945985 -1.26051 0
M  V30 3365 C 302.781 -0.591836 -1.92822 0
M  V30 3366 C 303.094 0.873956 -1.7499 0
M  V30 3367 O 304.3 1.33769 -2.36259 0
M  V30 3368 C 302.756 -1.00776 -3.45503 0
M  V30 3369 C 302.364 -2.4955 -3.7206 0
M  V30 3370 C 304.108 -0.725735 -4.1825 0
M  V30 3371 C 302.015 -2.84988 -5.18205 0
M  V30 3372 H 300.945 -0.217635 -0.721908 0
M  V30 3373 H 303.596 -1.14927 -1.43052 0
M  V30 3374 H 301.978 -0.378812 -3.94184 0
M  V30 3375 H 303.152 -3.1739 -3.34066 0
M  V30 3376 H 301.467 -2.75133 -3.12555 0
M  V30 3377 H 304.064 -0.966771 -5.25887 0
M  V30 3378 H 304.407 0.337639 -4.14929 0
M  V30 3379 H 304.94 -1.31463 -3.7545 0
M  V30 3380 H 301.679 -3.90307 -5.26631 0
M  V30 3381 H 301.199 -2.21813 -5.57278 0
M  V30 3382 H 302.878 -2.73712 -5.86252 0
M  V30 3383 N 303.011 1.40521 -0.713556 0
M  V30 3384 C 304.236 2.05759 -0.26035 0
M  V30 3385 C 304.661 1.53403 1.08854 0
M  V30 3386 O 304.019 0.668535 1.68524 0
M  V30 3387 C 304.067 3.59745 -0.248122 0
M  V30 3388 O 303.171 4.05123 0.77131 0
M  V30 3389 H 302.512 0.652564 -0.122703 0
M  V30 3390 H 305.042 1.79958 -0.973467 0
M  V30 3391 H 305.052 4.07911 -0.0851129 0
M  V30 3392 H 303.727 3.97218 -1.2325 0
M  V30 3393 H 302.304 3.68422 0.57619 0
M  V30 3394 N 304.489 0.459591 1.5075 0
M  V30 3395 C 305.714 -0.0996819 2.0716 0
M  V30 3396 C 306.139 -1.33761 1.32249 0
M  V30 3397 O 305.497 -1.77551 0.366786 0
M  V30 3398 C 305.545 -0.378226 3.58611 0
M  V30 3399 O 304.649 -1.46081 3.85661 0
M  V30 3400 H 303.99 0.00791392 0.663953 0
M  V30 3401 H 306.52 0.647329 1.9409 0
M  V30 3402 H 306.53 -0.622135 4.03229 0
M  V30 3403 H 305.205 0.526439 4.12555 0
M  V30 3404 H 303.782 -1.20511 3.5289 0
M  V30 3405 N 305.967 -1.56429 0.191757 0
M  V30 3406 C 307.378 -1.83912 -0.321428 0
M  V30 3407 C 307.729 -1.11231 -1.61623 0
M  V30 3408 O 306.854 -0.37202 -2.13178 0
M  V30 3409 C 307.449 -3.33624 -0.589961 0
M  V30 3410 C 306.008 -3.6153 -1.04753 0
M  V30 3411 C 305.155 -2.7714 -0.0943327 0
M  V30 3412 H 308.106 -1.53161 0.415612 0
M  V30 3413 H 308.127 -3.52213 -1.43966 0
M  V30 3414 H 307.639 -3.86495 0.352588 0
M  V30 3415 H 305.74 -3.14089 -2.00447 0
M  V30 3416 H 305.853 -4.69737 -0.942549 0
M  V30 3417 H 304.217 -2.47638 -0.595589 0
M  V30 3418 H 305 -3.32799 0.842601 0
M  V30 3419 N 307.445 0.0818655 -1.57387 0
M  V30 3420 C 308.393 1.11712 -2.04018 0
M  V30 3421 C 309.387 1.40683 -0.94364 0
M  V30 3422 O 310.593 1.40209 -1.12878 0
M  V30 3423 H 306.968 0.377542 -0.650358 0
M  V30 3424 H 308.939 0.697614 -2.90131 0
M  V30 3425 C 307.688 2.42537 -2.49141 0
M  V30 3426 H 307.011 2.21092 -3.33104 0
M  V30 3427 H 308.451 3.13446 -2.85531 0
M  V30 3428 C 306.91 3.0778 -1.37014 0
M  V30 3429 O 307.44 3.95436 -0.706621 0
M  V30 3430 N 305.646 2.68242 -1.11779 0
M  V30 3431 H 305.193 1.97052 -1.65917 0
M  V30 3432 H 305.151 3.1222 -0.369594 0
M  V30 3433 N 308.923 1.53595 0.353017 0
M  V30 3434 C 310.171 1.70049 1.09215 0
M  V30 3435 C 310.492 0.461406 1.89463 0
M  V30 3436 O 309.762 -0.524633 1.88744 0
M  V30 3437 H 308.342 0.626912 0.40619 0
M  V30 3438 H 311.004 1.90822 0.396585 0
M  V30 3439 H 310.1 2.56718 1.77488 0
M  V30 3440 N 310.401 -0.613514 1.45168 0
M  V30 3441 C 311.311 -1.75296 1.55912 0
M  V30 3442 C 312.327 -1.68244 0.443856 0
M  V30 3443 O 313.503 -1.88706 0.70371 0
M  V30 3444 C 310.568 -3.1174 1.5172 0
M  V30 3445 C 309.629 -3.30291 2.74238 0
M  V30 3446 C 308.862 -4.60226 2.70236 0
M  V30 3447 O 309.085 -5.42168 1.77229 0
M  V30 3448 O 308.019 -4.81361 3.61352 0
M  V30 3449 H 311.845 -1.69183 2.52212 0
M  V30 3450 H 309.43 -0.776886 1.27612 0
M  V30 3451 H 311.312 -3.93044 1.51968 0
M  V30 3452 H 309.987 -3.18357 0.585697 0
M  V30 3453 H 308.894 -2.48598 2.79553 0
M  V30 3454 H 310.227 -3.28547 3.66494 0
M  V30 3455 N 311.879 -1.3236 -0.855495 0
M  V30 3456 C 312.811 -1.17052 -1.97057 0
M  V30 3457 C 313.824 -0.10574 -1.62456 0
M  V30 3458 O 315.013 -0.354619 -1.74942 0
M  V30 3459 C 312.113 -0.769305 -3.30053 0
M  V30 3460 C 311.286 -1.9222 -3.929 0
M  V30 3461 C 310.345 -1.50466 -5.04228 0
M  V30 3462 O 309.371 -2.21655 -5.24269 0
M  V30 3463 N 310.573 -0.400209 -5.79119 0
M  V30 3464 H 313.338 -2.13103 -2.1073 0
M  V30 3465 H 310.899 -1.24885 -1.0303 0
M  V30 3466 H 312.891 -0.472407 -4.01933 0
M  V30 3467 H 311.461 0.100025 -3.1244 0
M  V30 3468 H 310.681 -2.38563 -3.13817 0
M  V30 3469 H 311.969 -2.69403 -4.31624 0
M  V30 3470 H 311.367 0.192319 -5.65373 0
M  V30 3471 H 309.924 -0.162912 -6.51596 0
M  V30 3472 N 313.357 1.07166 -1.15556 0
M  V30 3473 C 314.773 1.31899 -0.898603 0
M  V30 3474 C 314.973 1.96333 0.453383 0
M  V30 3475 O 314.029 2.22438 1.19489 0
M  V30 3476 C 315.342 2.20826 -2.04099 0
M  V30 3477 C 316.89 2.34269 -2.07574 0
M  V30 3478 C 317.365 3.26546 -3.21141 0
M  V30 3479 N 318.856 3.34127 -3.20801 0
M  V30 3480 C 319.591 4.05595 -4.05315 0
M  V30 3481 N 319.087 4.79661 -4.99897 0
M  V30 3482 N 320.88 4.01555 -3.93332 0
M  V30 3483 H 313.031 0.637302 -2.02613 0
M  V30 3484 H 315.294 0.343468 -0.883591 0
M  V30 3485 H 315 1.80744 -3.01703 0
M  V30 3486 H 314.874 3.21364 -1.97496 0
M  V30 3487 H 317.261 2.73603 -1.10568 0
M  V30 3488 H 317.342 1.33429 -2.18244 0
M  V30 3489 H 316.986 2.87931 -4.184 0
M  V30 3490 H 316.916 4.27345 -3.07708 0
M  V30 3491 H 319.407 2.81336 -2.52306 0
M  V30 3492 H 319.72 5.31694 -5.60822 0
M  V30 3493 H 318.065 4.78671 -5.03884 0
M  V30 3494 H 321.256 3.42806 -3.18751 0
M  V30 3495 H 321.429 4.56987 -4.5942 0
M  V30 3496 N 314.835 0.952656 1.25548 0
M  V30 3497 C 315.765 0.489287 2.28316 0
M  V30 3498 C 316.746 -0.463359 1.63667 0
M  V30 3499 O 317.931 -0.36274 1.90782 0
M  V30 3500 C 315.061 -0.235603 3.465 0
M  V30 3501 C 314.015 0.631593 4.23314 0
M  V30 3502 C 313.341 -0.223923 5.34231 0
M  V30 3503 C 314.641 1.90871 4.86174 0
M  V30 3504 H 316.335 1.34822 2.67326 0
M  V30 3505 H 313.881 0.649728 1.28509 0
M  V30 3506 H 315.834 -0.570882 4.17515 0
M  V30 3507 H 314.558 -1.12877 3.06474 0
M  V30 3508 H 313.217 0.949929 3.54079 0
M  V30 3509 H 312.865 -1.11678 4.90446 0
M  V30 3510 H 312.565 0.35299 5.86539 0
M  V30 3511 H 314.089 -0.554214 6.0808 0
M  V30 3512 H 315.503 1.63997 5.49343 0
M  V30 3513 H 313.9 2.43112 5.4865 0
M  V30 3514 H 314.97 2.61304 4.08471 0
M  V30 3515 N 316.313 -1.40141 0.720998 0
M  V30 3516 C 317.56 -2.00787 0.262842 0
M  V30 3517 C 317.888 -1.5718 -1.14563 0
M  V30 3518 O 317.143 -0.785391 -1.79249 0
M  V30 3519 C 317.442 -3.56165 0.296892 0
M  V30 3520 C 317.108 -4.19373 1.65641 0
M  V30 3521 C 315.77 -4.36352 2.02855 0
M  V30 3522 C 318.122 -4.54578 2.54968 0
M  V30 3523 C 315.45 -4.8582 3.28931 0
M  V30 3524 C 317.802 -5.05447 3.80402 0
M  V30 3525 C 316.466 -5.20635 4.17726 0
M  V30 3526 H 315.736 -0.734731 0.0961807 0
M  V30 3527 H 318.383 -1.67673 0.925093 0
M  V30 3528 H 316.688 -3.8922 -0.448932 0
M  V30 3529 H 318.385 -4.00929 -0.0755208 0
M  V30 3530 H 314.975 -4.06549 1.35704 0
M  V30 3531 H 319.159 -4.41091 2.27491 0
M  V30 3532 H 314.415 -4.95764 3.57811 0
M  V30 3533 H 318.589 -5.31663 4.49786 0
M  V30 3534 H 316.216 -5.58728 5.15487 0
M  V30 3535 N 317.792 -0.46758 -1.50504 0
M  V30 3536 C 319.038 0.0887532 -2.02606 0
M  V30 3537 C 319.371 1.39686 -1.34913 0
M  V30 3538 O 318.646 1.88644 -0.473694 0
M  V30 3539 C 318.929 0.276206 -3.59039 0
M  V30 3540 C 318.782 -1.05267 -4.37309 0
M  V30 3541 C 320.101 1.03235 -4.27821 0
M  V30 3542 H 317.22 0.0307814 -0.736357 0
M  V30 3543 H 319.862 -0.612485 -1.79857 0
M  V30 3544 H 318.012 0.8735 -3.78553 0
M  V30 3545 H 319.684 -1.68628 -4.29374 0
M  V30 3546 H 317.927 -1.65015 -4.01189 0
M  V30 3547 H 318.598 -0.875197 -5.45018 0
M  V30 3548 H 321.074 0.526111 -4.12761 0
M  V30 3549 H 319.95 1.1323 -5.37094 0
M  V30 3550 H 320.211 2.06806 -3.90748 0
M  V30 3551 N 319.27 1.56325 -0.20005 0
M  V30 3552 C 320.681 1.8408 0.31167 0
M  V30 3553 C 321.032 1.12087 1.61031 0
M  V30 3554 O 320.157 0.38332 2.12978 0
M  V30 3555 C 320.752 3.33932 0.57226 0
M  V30 3556 C 319.311 3.6208 1.02834 0
M  V30 3557 C 318.458 2.77186 0.079634 0
M  V30 3558 H 321.409 1.52939 -0.423729 0
M  V30 3559 H 321.43 3.52971 1.42096 0
M  V30 3560 H 320.942 3.86303 -0.37308 0
M  V30 3561 H 319.043 3.15147 1.98778 0
M  V30 3562 H 319.156 4.7023 0.917624 0
M  V30 3563 H 317.52 2.47951 0.582448 0
M  V30 3564 H 318.303 3.32347 -0.860238 0
M  V30 3565 N 320.748 -0.0735177 1.57428 0
M  V30 3566 C 322.164 -0.428264 1.53747 0
M  V30 3567 C 322.364 -1.79272 0.91998 0
M  V30 3568 O 321.42 -2.47051 0.521745 0
M  V30 3569 C 322.733 -0.370914 2.98404 0
M  V30 3570 C 324.281 -0.451224 3.0973 0
M  V30 3571 C 324.756 -0.4238 4.56035 0
M  V30 3572 N 326.247 -0.483925 4.60665 0
M  V30 3573 C 326.982 -0.484891 5.71346 0
M  V30 3574 N 326.478 -0.440775 6.91396 0
M  V30 3575 N 328.271 -0.531319 5.59583 0
M  V30 3576 H 320.422 0.819949 1.95935 0
M  V30 3577 H 322.685 0.307493 0.896745 0
M  V30 3578 H 322.391 0.564956 3.47133 0
M  V30 3579 H 322.265 -1.18176 3.5821 0
M  V30 3580 H 324.652 -1.37752 2.60976 0
M  V30 3581 H 324.733 0.388167 2.52838 0
M  V30 3582 H 324.377 0.498638 5.05446 0
M  V30 3583 H 324.307 -1.2807 5.10789 0
M  V30 3584 H 326.798 -0.522338 3.74273 0
M  V30 3585 H 327.111 -0.44539 7.71515 0
M  V30 3586 H 325.456 -0.40749 6.93804 0
M  V30 3587 H 328.647 -0.563464 4.64696 0
M  V30 3588 H 328.82 -0.528603 6.4584 0
M  V30 3589 N 322.226 -1.5378 -0.344866 0
M  V30 3590 C 323.451 -1.75211 -1.10977 0
M  V30 3591 C 323.876 -0.48936 -1.81623 0
M  V30 3592 O 323.234 0.557925 -1.72502 0
M  V30 3593 C 323.282 -2.93147 -2.09993 0
M  V30 3594 O 322.386 -2.63203 -3.17487 0
M  V30 3595 H 321.727 -0.581241 -0.321021 0
M  V30 3596 H 324.257 -2.00738 -0.395661 0
M  V30 3597 H 324.267 -3.19898 -2.53237 0
M  V30 3598 H 322.942 -3.84731 -1.5797 0
M  V30 3599 H 321.519 -2.47336 -2.79069 0
M  V30 3600 N 323.704 0.605807 -1.45491 0
M  V30 3601 C 324.952 1.36207 -1.49305 0
M  V30 3602 C 325.273 1.94519 -0.136863 0
M  V30 3603 O 324.543 1.77261 0.833983 0
M  V30 3604 H 323.123 0.50565 -0.549843 0
M  V30 3605 H 325.785 0.711239 -1.81459 0
M  V30 3606 H 324.881 2.18058 -2.23287 0
M  V30 3607 N 325.182 1.32811 0.848464 0
M  V30 3608 C 326.429 1.23724 1.60308 0
M  V30 3609 C 326.757 -0.1994 1.93475 0
M  V30 3610 O 326.012 -1.15406 1.5805 0
M  V30 3611 C 326.311 2.04831 2.92881 0
M  V30 3612 C 325.977 3.54125 2.79117 0
M  V30 3613 C 324.639 3.94829 2.7507 0
M  V30 3614 C 326.991 4.49036 2.64606 0
M  V30 3615 C 324.319 5.28675 2.544 0
M  V30 3616 C 326.671 5.83033 2.4547 0
M  V30 3617 C 325.335 6.22931 2.39819 0
M  V30 3618 H 324.605 0.452737 0.586609 0
M  V30 3619 H 327.252 1.64301 0.983743 0
M  V30 3620 H 325.557 1.57001 3.58968 0
M  V30 3621 H 327.254 1.95164 3.50303 0
M  V30 3622 H 323.844 3.21801 2.83094 0
M  V30 3623 H 328.028 4.18505 2.66772 0
M  V30 3624 H 323.284 5.58637 2.48465 0
M  V30 3625 H 327.458 6.56186 2.33222 0
M  V30 3626 H 325.085 7.26584 2.23562 0
M  V30 3627 N 326.66 -1.06551 1.16123 0
M  V30 3628 C 328.071 -1.60768 0.949232 0
M  V30 3629 C 328.422 -1.89523 -0.507508 0
M  V30 3630 O 327.547 -1.66671 -1.38021 0
M  V30 3631 C 328.142 -2.92086 1.71671 0
M  V30 3632 C 326.701 -3.43015 1.54977 0
M  V30 3633 C 325.848 -2.16947 1.72711 0
M  V30 3634 H 328.799 -0.895354 1.31031 0
M  V30 3635 H 328.82 -3.6138 1.19099 0
M  V30 3636 H 328.332 -2.71127 2.7769 0
M  V30 3637 H 326.433 -3.69039 0.513873 0
M  V30 3638 H 326.546 -4.18516 2.33198 0
M  V30 3639 H 324.91 -2.27041 1.15431 0
M  V30 3640 H 325.693 -1.98473 2.80113 0
M  V30 3641 N 328.138 -0.959301 -1.25041 0
M  V30 3642 C 329.415 -0.533805 -1.88175 0
M  V30 3643 C 329.795 0.988994 -1.865 0
M  V30 3644 O 329.143 1.85677 -1.33177 0
M  V30 3645 C 329.353 -1.11575 -3.30684 0
M  V30 3646 C 330.701 -1.19548 -4.07423 0
M  V30 3647 O 331.725 -1.06765 -3.39823 0
M  V30 3648 O 330.584 -1.39656 -5.28354 0
M  V30 3649 H 327.678 -0.176772 -0.807887 0
M  V30 3650 H 330.224 -1.05303 -1.33076 0
M  V30 3651 H 328.996 -2.15884 -3.26358 0
M  V30 3652 H 328.619 -0.580059 -3.93346 0
M  V30 3653 N 329.616 1.39756 -0.72842 0
M  V30 3654 C 330.546 2.33289 -0.0991354 0
M  V30 3655 C 331.527 1.53568 0.731489 0
M  V30 3656 O 332.712 1.81987 0.677807 0
M  V30 3657 C 329.842 3.3763 0.813834 0
M  V30 3658 C 328.796 4.2791 0.0878663 0
M  V30 3659 C 328.122 5.22894 1.11741 0
M  V30 3660 C 329.422 5.11314 -1.06563 0
M  V30 3661 H 331.116 2.86163 -0.880408 0
M  V30 3662 H 328.662 1.37591 -0.424819 0
M  V30 3663 H 330.615 4.0201 1.26355 0
M  V30 3664 H 329.339 2.83181 1.62715 0
M  V30 3665 H 327.998 3.65 -0.342159 0
M  V30 3666 H 327.646 4.64744 1.92412 0
M  V30 3667 H 327.346 5.84143 0.636477 0
M  V30 3668 H 328.87 5.90151 1.56697 0
M  V30 3669 H 330.284 5.69076 -0.694671 0
M  V30 3670 H 328.681 5.81671 -1.47577 0
M  V30 3671 H 329.751 4.46534 -1.89038 0
M  V30 3672 N 331.094 0.475555 1.50254 0
M  V30 3673 C 332.024 -0.30611 2.31485 0
M  V30 3674 C 333.005 -0.986228 1.38591 0
M  V30 3675 O 334.19 -0.982541 1.67511 0
M  V30 3676 C 331.32 -1.38588 3.1845 0
M  V30 3677 C 330.274 -0.827115 4.19932 0
M  V30 3678 C 329.6 -2.00551 4.95665 0
M  V30 3679 C 330.9 0.16463 5.2204 0
M  V30 3680 H 332.594 0.371866 2.97082 0
M  V30 3681 H 330.14 0.180282 1.42867 0
M  V30 3682 H 332.093 -1.94023 3.74076 0
M  V30 3683 H 330.817 -2.09269 2.50747 0
M  V30 3684 H 329.476 -0.294702 3.65414 0
M  V30 3685 H 329.124 -2.6994 4.2443 0
M  V30 3686 H 328.824 -1.63784 5.64313 0
M  V30 3687 H 330.348 -2.56468 5.54127 0
M  V30 3688 H 331.762 -0.300699 5.72511 0
M  V30 3689 H 330.159 0.446813 5.98434 0
M  V30 3690 H 331.229 1.08905 4.72512 0
M  V30 3691 N 332.573 -1.56217 0.208337 0
M  V30 3692 C 333.819 -1.98242 -0.427552 0
M  V30 3693 C 334.152 -1.09554 -1.60348 0
M  V30 3694 O 333.427 -0.15035 -1.93918 0
M  V30 3695 C 333.71 -3.4931 -0.874907 0
M  V30 3696 C 333.563 -4.48773 0.303751 0
M  V30 3697 C 334.882 -4.04424 -1.73577 0
M  V30 3698 H 332.001 -0.720744 -0.153936 0
M  V30 3699 H 334.643 -1.87586 0.30192 0
M  V30 3700 H 332.793 -3.58522 -1.49648 0
M  V30 3701 H 334.465 -4.51586 0.941682 0
M  V30 3702 H 332.708 -4.23194 0.953375 0
M  V30 3703 H 333.379 -5.51976 -0.0519883 0
M  V30 3704 H 335.855 -3.98075 -1.21143 0
M  V30 3705 H 334.731 -5.1047 -2.01771 0
M  V30 3706 H 334.992 -3.50494 -2.69456 0
M  V30 3707 N 334.051 0.0651679 -1.57465 0
M  V30 3708 C 335.328 0.79644 -1.78651 0
M  V30 3709 C 335.708 1.95454 -0.797566 0
M  V30 3710 O 335.056 2.27882 0.167946 0
M  V30 3711 C 335.266 1.26322 -3.25337 0
M  V30 3712 C 336.614 1.6939 -3.89348 0
M  V30 3713 O 337.638 1.35872 -3.29268 0
M  V30 3714 O 336.497 2.31471 -4.95059 0
M  V30 3715 H 333.591 0.382157 -0.733407 0
M  V30 3716 H 336.137 0.0447311 -1.69641 0
M  V30 3717 H 334.909 0.434859 -3.88876 0
M  V30 3718 H 334.532 2.07604 -3.39096 0
M  V30 3719 N 335.529 1.53961 0.336706 0
M  V30 3720 C 336.757 1.75483 1.09605 0
M  V30 3721 C 337.172 0.4972 1.82136 0
M  V30 3722 O 336.529 -0.53149 1.74589 0
M  V30 3723 C 336.58 2.93943 2.10428 0
M  V30 3724 O 336.301 4.14842 1.40846 0
M  V30 3725 C 337.802 3.27571 2.98684 0
M  V30 3726 H 335.022 0.586166 0.326574 0
M  V30 3727 H 337.566 2.00808 0.38683 0
M  V30 3728 H 335.721 2.70929 2.76905 0
M  V30 3729 H 336.135 4.81383 2.08255 0
M  V30 3730 H 337.609 4.13791 3.6535 0
M  V30 3731 H 338.086 2.44168 3.65074 0
M  V30 3732 H 338.692 3.52615 2.37787 0
M  V30 3733 N 337.007 -0.598083 1.45811 0
M  V30 3734 C 337.937 -1.71873 1.58057 0
M  V30 3735 C 338.918 -1.64533 0.431615 0
M  V30 3736 O 340.103 -1.82787 0.65595 0
M  V30 3737 C 337.233 -3.10495 1.55597 0
M  V30 3738 C 336.187 -3.32654 2.69305 0
M  V30 3739 C 335.513 -4.71646 2.51902 0
M  V30 3740 C 336.813 -3.21981 4.11248 0
M  V30 3741 H 338.507 -1.61881 2.51863 0
M  V30 3742 H 336.053 -0.777372 1.21214 0
M  V30 3743 H 338.006 -3.88699 1.6276 0
M  V30 3744 H 336.73 -3.2135 0.583255 0
M  V30 3745 H 335.389 -2.56843 2.61586 0
M  V30 3746 H 335.037 -4.79246 1.52748 0
M  V30 3747 H 334.737 -4.87426 3.2816 0
M  V30 3748 H 336.261 -5.52038 2.60933 0
M  V30 3749 H 337.675 -3.90049 4.20161 0
M  V30 3750 H 336.072 -3.49289 4.87972 0
M  V30 3751 H 337.142 -2.1928 4.32486 0
M  V30 3752 N 338.485 -1.33259 -0.841409 0
M  V30 3753 C 339.415 -1.25926 -1.96634 0
M  V30 3754 C 340.396 -0.140349 -1.6952 0
M  V30 3755 O 341.581 -0.329707 -1.91381 0
M  V30 3756 C 338.711 -0.99512 -3.32738 0
M  V30 3757 C 337.665 -2.0767 -3.74242 0
M  V30 3758 C 336.991 -1.66474 -5.08125 0
M  V30 3759 C 338.291 -3.49318 -3.88297 0
M  V30 3760 H 339.985 -2.20046 -2.03027 0
M  V30 3761 H 337.531 -1.05931 -0.975425 0
M  V30 3762 H 339.484 -0.930323 -4.11002 0
M  V30 3763 H 338.208 -0.0183004 -3.26595 0
M  V30 3764 H 336.867 -2.13187 -2.98239 0
M  V30 3765 H 336.515 -0.675012 -4.9845 0
M  V30 3766 H 336.215 -2.3885 -5.36865 0
M  V30 3767 H 337.739 -1.61455 -5.88867 0
M  V30 3768 H 339.153 -3.46316 -4.56879 0
M  V30 3769 H 337.55 -4.20158 -4.28471 0
M  V30 3770 H 338.62 -3.8801 -2.9082 0
M  V30 3771 N 339.963 1.05934 -1.16686 0
M  V30 3772 C 340.926 2.11669 -0.879144 0
M  V30 3773 C 341.926 1.60294 0.127445 0
M  V30 3774 O 343.116 1.7389 -0.103865 0
M  V30 3775 C 340.248 3.39438 -0.315425 0
M  V30 3776 H 341.441 2.38626 -1.81653 0
M  V30 3777 H 338.994 1.22058 -0.976299 0
M  V30 3778 H 339.729 3.18132 0.629468 0
M  V30 3779 H 339.514 3.78034 -1.04079 0
M  V30 3780 H 341.004 4.17391 -0.132189 0
M  V30 3781 N 341.441 0.965919 1.2453 0
M  V30 3782 C 342.669 0.644385 1.96609 0
M  V30 3783 C 343.084 -0.785823 1.71669 0
M  V30 3784 O 342.441 -1.52703 0.999399 0
M  V30 3785 C 342.492 0.907375 3.49927 0
M  V30 3786 O 342.213 2.28136 3.74013 0
M  V30 3787 C 343.714 0.599784 4.39224 0
M  V30 3788 H 340.934 0.240588 0.626385 0
M  V30 3789 H 343.478 1.29337 1.58405 0
M  V30 3790 H 341.633 0.304631 3.862 0
M  V30 3791 H 342.047 2.36002 4.68405 0
M  V30 3792 H 343.521 0.834263 5.45659 0
M  V30 3793 H 343.998 -0.465921 4.36722 0
M  V30 3794 H 344.604 1.18235 4.08535 0
M  V30 3795 N 342.919 -1.39368 0.735821 0
M  V30 3796 C 343.829 -2.34395 0.0979693 0
M  V30 3797 C 344.845 -1.58361 -0.720968 0
M  V30 3798 O 346.021 -1.90648 -0.649245 0
M  V30 3799 C 343.086 -3.37393 -0.797916 0
M  V30 3800 C 342.147 -4.29287 0.0333662 0
M  V30 3801 C 341.38 -5.27365 -0.819854 0
M  V30 3802 O 341.603 -5.31959 -2.05855 0
M  V30 3803 O 340.537 -6.01389 -0.248079 0
M  V30 3804 H 344.363 -2.90601 0.882315 0
M  V30 3805 H 341.948 -1.40909 0.4965 0
M  V30 3806 H 343.83 -4.00505 -1.31048 0
M  V30 3807 H 342.505 -2.83571 -1.56106 0
M  V30 3808 H 341.412 -3.69395 0.591475 0
M  V30 3809 H 342.745 -4.86317 0.758752 0
M  V30 3810 N 344.397 -0.483516 -1.5 0
M  V30 3811 C 345.674 0.129337 -1.95172 0
M  V30 3812 C 346.054 1.55802 -1.4244 0
M  V30 3813 O 345.402 2.19625 -0.630649 0
M  V30 3814 C 345.612 0.0599251 -3.48949 0
M  V30 3815 C 346.96 0.242617 -4.23906 0
M  V30 3816 O 347.984 0.135933 -3.55941 0
M  V30 3817 O 346.843 0.459454 -5.44565 0
M  V30 3818 H 343.937 0.104887 -0.820322 0
M  V30 3819 H 346.483 -0.544807 -1.60717 0
M  V30 3820 H 345.255 -0.937079 -3.79914 0
M  V30 3821 H 344.878 0.774984 -3.89974 0
M  V30 3822 N 345.875 1.56104 -0.216619 0
M  V30 3823 C 347.291 1.58995 0.13886 0
M  V30 3824 C 347.491 1.23333 1.59346 0
M  V30 3825 O 346.547 0.966234 2.33281 0
M  V30 3826 C 347.86 3.00143 -0.182968 0
M  V30 3827 C 349.408 3.12751 -0.124807 0
M  V30 3828 C 349.883 4.56068 -0.420241 0
M  V30 3829 N 351.374 4.61723 -0.369634 0
M  V30 3830 C 352.109 5.70542 -0.571789 0
M  V30 3831 N 351.605 6.87744 -0.835453 0
M  V30 3832 N 353.398 5.59831 -0.504563 0
M  V30 3833 H 345.549 1.77562 -1.16557 0
M  V30 3834 H 347.812 0.825091 -0.466828 0
M  V30 3835 H 347.518 3.30871 -1.19237 0
M  V30 3836 H 347.392 3.73813 0.504367 0
M  V30 3837 H 349.779 2.81822 0.875223 0
M  V30 3838 H 349.86 2.41421 -0.845544 0
M  V30 3839 H 349.504 4.87713 -1.41769 0
M  V30 3840 H 349.434 5.25617 0.321631 0
M  V30 3841 H 351.925 3.77502 -0.173338 0
M  V30 3842 H 352.238 7.66587 -0.977938 0
M  V30 3843 H 350.583 6.895 -0.872592 0
M  V30 3844 H 353.774 4.67145 -0.298842 0
M  V30 3845 H 353.947 6.44573 -0.665519 0
M  V30 3846 N 347.353 -0.0568162 1.57498 0
M  V30 3847 C 348.303 -1.07315 2.01166 0
M  V30 3848 C 349.287 -1.33632 0.896171 0
M  V30 3849 O 350.479 -1.33682 1.16009 0
M  V30 3850 C 347.608 -2.38257 2.47161 0
M  V30 3851 C 346.694 -2.1515 3.65474 0
M  V30 3852 N 347.085 -1.62014 4.7915 0
M  V30 3853 C 345.383 -2.45559 3.72313 0
M  V30 3854 C 346.084 -1.54069 5.60926 0
M  V30 3855 N 345.06 -2.00652 5.05213 0
M  V30 3856 H 348.862 -0.655878 2.86488 0
M  V30 3857 H 346.376 -0.263635 1.60246 0
M  V30 3858 H 348.373 -3.11845 2.76691 0
M  V30 3859 H 347.033 -2.80687 1.63232 0
M  V30 3860 H 348.044 -1.30667 5.01145 0
M  V30 3861 H 344.721 -2.91253 2.99129 0
M  V30 3862 H 346.111 -1.13712 6.62208 0
M  V30 3863 N 348.832 -1.54138 -0.328536 0
M  V30 3864 C 350.079 -1.72105 -1.06706 0
M  V30 3865 C 350.407 -0.492111 -1.88171 0
M  V30 3866 O 349.662 0.526153 -1.88494 0
M  V30 3867 C 349.961 -2.9457 -2.02393 0
M  V30 3868 C 349.627 -4.29544 -1.37122 0
M  V30 3869 C 348.289 -4.6624 -1.19052 0
M  V30 3870 C 350.641 -5.1333 -0.902331 0
M  V30 3871 C 347.969 -5.84325 -0.527331 0
M  V30 3872 C 350.321 -6.32094 -0.252988 0
M  V30 3873 C 348.985 -6.67473 -0.0600901 0
M  V30 3874 H 348.255 -0.629775 -0.390466 0
M  V30 3875 H 350.902 -1.88372 -0.34473 0
M  V30 3876 H 349.207 -2.72969 -2.81061 0
M  V30 3877 H 350.904 -3.05665 -2.59557 0
M  V30 3878 H 347.494 -4.0067 -1.52188 0
M  V30 3879 H 351.678 -4.855 -1.02974 0
M  V30 3880 H 346.934 -6.103 -0.366634 0
M  V30 3881 H 351.108 -6.96299 0.118366 0
M  V30 3882 H 348.735 -7.58832 0.455828 0
M  V30 3883 N 350.31 0.590341 -1.46126 0
M  V30 3884 C 351.54 1.37304 -1.54373 0
M  V30 3885 C 351.948 1.88332 -0.181071 0
M  V30 3886 O 351.291 1.63852 0.830559 0
M  V30 3887 C 351.353 2.6012 -2.48149 0
M  V30 3888 C 351.017 2.30613 -3.94546 0
M  V30 3889 C 352.014 1.89915 -4.83971 0
M  V30 3890 C 349.699 2.42993 -4.39613 0
M  V30 3891 C 351.693 1.61981 -6.16475 0
M  V30 3892 C 349.38 2.14672 -5.72153 0
M  V30 3893 C 350.378 1.7423 -6.60404 0
M  V30 3894 O 350.066 1.46251 -7.90485 0
M  V30 3895 H 349.798 0.426086 -0.524811 0
M  V30 3896 H 352.352 0.72539 -1.92165 0
M  V30 3897 H 350.582 3.27664 -2.05361 0
M  V30 3898 H 352.271 3.22182 -2.46887 0
M  V30 3899 H 353.037 1.79872 -4.50412 0
M  V30 3900 H 348.916 2.73435 -3.71153 0
M  V30 3901 H 352.46 1.30341 -6.85315 0
M  V30 3902 H 348.357 2.24337 -6.05263 0
M  V30 3903 H 349.125 1.6016 -8.02677 0
M  V30 3904 N 351.788 1.33704 0.83433 0
M  V30 3905 C 352.698 1.26382 1.97648 0
M  V30 3906 C 353.714 0.173548 1.73132 0
M  V30 3907 O 354.89 0.397962 1.97429 0
M  V30 3908 C 351.955 1.00769 3.31733 0
M  V30 3909 C 351.016 2.1884 3.69334 0
M  V30 3910 C 350.249 1.9444 4.9702 0
M  V30 3911 O 350.472 0.896961 5.63303 0
M  V30 3912 O 349.406 2.81093 5.32231 0
M  V30 3913 H 353.232 2.22444 2.06767 0
M  V30 3914 H 350.817 1.13795 0.968037 0
M  V30 3915 H 352.699 0.882186 4.12062 0
M  V30 3916 H 351.374 0.0773783 3.23608 0
M  V30 3917 H 350.281 2.36946 2.89495 0
M  V30 3918 H 351.614 3.10221 3.82131 0
M  V30 3919 N 353.266 -1.05314 1.17247 0
M  V30 3920 C 354.216 -2.11313 0.856196 0
M  V30 3921 C 355.2 -1.60013 -0.168694 0
M  V30 3922 O 356.392 -1.76968 0.0335624 0
M  V30 3923 C 353.521 -3.41301 0.369917 0
M  V30 3924 C 352.607 -3.99401 1.42616 0
M  V30 3925 N 352.998 -4.31481 2.63928 0
M  V30 3926 C 351.296 -4.27126 1.28373 0
M  V30 3927 C 351.997 -4.77799 3.31787 0
M  V30 3928 N 350.973 -4.77843 2.59166 0
M  V30 3929 H 354.775 -2.33976 1.77856 0
M  V30 3930 H 352.289 -1.2295 1.06099 0
M  V30 3931 H 354.286 -4.16713 0.124897 0
M  V30 3932 H 352.946 -3.20072 -0.546253 0
M  V30 3933 H 353.957 -4.21519 3.00902 0
M  V30 3934 H 350.634 -4.15289 0.429111 0
M  V30 3935 H 352.024 -5.11743 4.35395 0
M  V30 3936 N 354.744 -0.972509 -1.24016 0
M  V30 3937 C 356.021 -0.553733 -1.87598 0
M  V30 3938 C 356.401 0.969158 -1.87538 0
M  V30 3939 O 355.749 1.84255 -1.35139 0
M  V30 3940 C 355.959 -1.15076 -3.29482 0
M  V30 3941 C 357.307 -1.23862 -4.06132 0
M  V30 3942 O 358.331 -1.10363 -3.38672 0
M  V30 3943 O 357.19 -1.45252 -5.26844 0
M  V30 3944 H 354.284 -0.185331 -0.805966 0
M  V30 3945 H 356.83 -1.06709 -1.31952 0
M  V30 3946 H 355.602 -2.19333 -3.2405 0
M  V30 3947 H 355.225 -0.621746 -3.92709 0
M  V30 3948 N 356.222 1.38976 -0.743202 0
M  V30 3949 C 357.47 1.99948 -0.29417 0
M  V30 3950 C 357.791 1.59279 1.12495 0
M  V30 3951 O 357.061 0.844808 1.76748 0
M  V30 3952 H 355.641 0.739473 -0.105774 0
M  V30 3953 H 358.303 1.699 -0.954986 0
M  V30 3954 H 357.399 3.10142 -0.349056 0
M  V30 3955 N 357.7 0.491464 1.49741 0
M  V30 3956 C 358.949 -0.0582189 2.01616 0
M  V30 3957 C 359.262 -1.38927 1.3769 0
M  V30 3958 O 360.468 -2.02509 1.80838 0
M  V30 3959 C 358.924 -0.154235 3.59569 0
M  V30 3960 C 358.532 1.1696 4.32463 0
M  V30 3961 C 360.276 -0.65479 4.1942 0
M  V30 3962 C 358.183 1.03627 5.8225 0
M  V30 3963 H 357.113 -0.0255317 0.753568 0
M  V30 3964 H 359.764 0.629445 1.72367 0
M  V30 3965 H 358.146 -0.906138 3.85493 0
M  V30 3966 H 359.32 1.93405 4.18248 0
M  V30 3967 H 357.635 1.60285 3.84315 0
M  V30 3968 H 360.232 -0.771903 5.29099 0
M  V30 3969 H 360.575 -1.65127 3.8215 0
M  V30 3970 H 361.108 0.040304 3.9778 0
M  V30 3971 H 357.847 2.00672 6.24028 0
M  V30 3972 H 357.367 0.312546 5.98985 0
M  V30 3973 H 359.046 0.711114 6.4308 0
M  V30 3974 N 359.178 -1.55987 0.224894 0
M  V30 3975 C 360.403 -2.03232 -0.41369 0
M  V30 3976 C 360.828 -1.10359 -1.52323 0
M  V30 3977 O 360.186 -0.092395 -1.81064 0
M  V30 3978 C 360.234 -3.48682 -0.919405 0
M  V30 3979 O 359.338 -3.58947 -2.03054 0
M  V30 3980 H 358.679 -0.657428 -0.0931903 0
M  V30 3981 H 361.209 -2.01679 0.34451 0
M  V30 3982 H 361.219 -3.8907 -1.22835 0
M  V30 3983 H 359.894 -4.15761 -0.107339 0
M  V30 3984 H 358.471 -3.30448 -1.72796 0
M  V30 3985 N 360.656 0.0484629 -1.57525 0
M  V30 3986 C 361.586 1.0549 -2.08313 0
M  V30 3987 C 362.567 1.38929 -0.981463 0
M  V30 3988 O 363.752 1.48151 -1.25558 0
M  V30 3989 C 360.882 2.36162 -2.54646 0
M  V30 3990 C 359.836 2.17016 -3.68901 0
M  V30 3991 C 359.162 3.53278 -4.01371 0
M  V30 3992 C 360.462 1.57219 -4.98076 0
M  V30 3993 H 362.156 0.632195 -2.92649 0
M  V30 3994 H 359.702 0.302654 -1.40784 0
M  V30 3995 H 361.655 3.06882 -2.88793 0
M  V30 3996 H 360.379 2.80456 -1.67368 0
M  V30 3997 H 359.038 1.48733 -3.35073 0
M  V30 3998 H 358.686 3.95185 -3.11188 0
M  V30 3999 H 358.386 3.41299 -4.78318 0
M  V30 4000 H 359.91 4.25391 -4.38035 0
M  V30 4001 H 361.324 2.17832 -5.30304 0
M  V30 4002 H 359.721 1.55871 -5.79503 0
M  V30 4003 H 360.791 0.535956 -4.81929 0
M  V30 4004 N 362.134 1.5431 0.320358 0
M  V30 4005 C 363.364 1.7638 1.07582 0
M  V30 4006 C 363.772 0.513944 1.82086 0
M  V30 4007 O 363.115 -0.525123 1.76035 0
M  V30 4008 C 363.177 2.9055 2.1171 0
M  V30 4009 C 362.841 4.2934 1.56575 0
M  V30 4010 C 363.838 5.10077 1.00586 0
M  V30 4011 C 361.523 4.75893 1.60722 0
M  V30 4012 C 363.517 6.35477 0.494756 0
M  V30 4013 C 361.204 6.0126 1.09224 0
M  V30 4014 C 362.202 6.80886 0.53696 0
M  V30 4015 O 361.89 8.03894 0.0297371 0
M  V30 4016 H 361.622 0.592369 0.325692 0
M  V30 4017 H 364.176 2.02019 0.37116 0
M  V30 4018 H 362.406 2.60489 2.85801 0
M  V30 4019 H 364.095 3.00373 2.73003 0
M  V30 4020 H 364.861 4.75265 0.966869 0
M  V30 4021 H 360.74 4.13957 2.02882 0
M  V30 4022 H 364.284 6.97574 0.0606842 0
M  V30 4023 H 360.181 6.35562 1.12831 0
M  V30 4024 H 360.949 8.18372 0.14486 0
M  V30 4025 N 363.613 -0.582584 1.46437 0
M  V30 4026 C 364.838 -1.37168 1.55563 0
M  V30 4027 C 365.263 -1.87061 0.19743 0
M  V30 4028 O 364.621 -1.61572 -0.822451 0
M  V30 4029 C 364.669 -2.53511 2.56446 0
M  V30 4030 O 363.773 -3.54953 2.09958 0
M  V30 4031 H 363.114 -0.408494 0.523477 0
M  V30 4032 H 365.644 -0.706646 1.9201 0
M  V30 4033 H 365.654 -3.00426 2.76058 0
M  V30 4034 H 364.329 -2.16549 3.55076 0
M  V30 4035 H 362.906 -3.14516 2.00334 0
M  V30 4036 N 365.091 -1.34144 -0.827227 0
M  V30 4037 C 366.34 -1.25602 -1.5782 0
M  V30 4038 C 366.653 0.173445 -1.94829 0
M  V30 4039 O 367.859 0.380984 -2.68814 0
M  V30 4040 C 366.315 -2.20151 -2.84713 0
M  V30 4041 C 365.923 -3.68331 -2.55021 0
M  V30 4042 C 367.667 -2.20508 -3.62735 0
M  V30 4043 C 365.574 -4.54762 -3.78082 0
M  V30 4044 H 364.504 -0.466573 -0.592306 0
M  V30 4045 H 367.155 -1.59283 -0.911116 0
M  V30 4046 H 365.537 -1.79417 -3.53023 0
M  V30 4047 H 366.711 -4.17577 -1.94849 0
M  V30 4048 H 365.026 -3.7038 -1.90283 0
M  V30 4049 H 367.623 -2.82306 -4.54101 0
M  V30 4050 H 367.966 -1.20322 -3.98533 0
M  V30 4051 H 368.499 -2.59664 -3.01362 0
M  V30 4052 H 365.238 -5.55867 -3.47407 0
M  V30 4053 H 364.758 -4.10254 -4.37552 0
M  V30 4054 H 366.437 -4.69153 -4.45538 0
M  V30 4055 N 366.569 1.04691 -1.17803 0
M  V30 4056 C 367.817 1.7743 -0.967617 0
M  V30 4057 C 368.138 1.88359 0.504574 0
M  V30 4058 O 367.408 1.40402 1.36617 0
M  V30 4059 H 365.988 0.657242 -0.355024 0
M  V30 4060 H 368.65 1.2638 -1.48371 0
M  V30 4061 H 367.746 2.78924 -1.40027 0
M  V30 4062 N 368.047 0.979072 1.23499 0
M  V30 4063 C 369.463 0.687475 1.44034 0
M  V30 4064 C 369.663 -0.746801 1.8715 0
M  V30 4065 O 368.719 -1.51939 2.0167 0
M  V30 4066 C 370.032 1.68127 2.49307 0
M  V30 4067 C 371.58 1.69516 2.63122 0
M  V30 4068 C 372.055 2.67723 3.71603 0
M  V30 4069 N 373.546 2.66233 3.79044 0
M  V30 4070 C 374.281 3.38891 4.62537 0
M  V30 4071 N 373.777 4.21103 5.50131 0
M  V30 4072 N 375.57 3.27661 4.56721 0
M  V30 4073 H 367.721 1.90559 0.938135 0
M  V30 4074 H 369.984 0.821051 0.473897 0
M  V30 4075 H 369.69 2.70693 2.2454 0
M  V30 4076 H 369.564 1.46306 3.4767 0
M  V30 4077 H 371.951 0.676561 2.8724 0
M  V30 4078 H 372.032 1.95404 1.65079 0
M  V30 4079 H 371.676 3.69724 3.48233 0
M  V30 4080 H 371.606 2.39111 4.69184 0
M  V30 4081 H 374.097 2.06568 3.16446 0
M  V30 4082 H 374.41 4.73403 6.10827 0
M  V30 4083 H 372.755 4.25195 5.49759 0
M  V30 4084 H 375.946 2.62887 3.87309 0
M  V30 4085 H 376.119 3.84547 5.21562 0
M  V30 4086 N 369.525 -1.3858 0.750561 0
M  V30 4087 C 370.488 -2.28836 0.129152 0
M  V30 4088 C 371.488 -1.47045 -0.650714 0
M  V30 4089 O 372.678 -1.6753 -0.477428 0
M  V30 4090 C 369.81 -3.30751 -0.825622 0
M  V30 4091 H 371.003 -2.85294 0.924516 0
M  V30 4092 H 368.556 -1.47489 0.517376 0
M  V30 4093 H 369.291 -2.79378 -1.64677 0
M  V30 4094 H 369.076 -3.91177 -0.268852 0
M  V30 4095 H 370.566 -3.98249 -1.2565 0
M  V30 4096 N 371.003 -0.499398 -1.49478 0
M  V30 4097 C 372.249 0.0457576 -2.02748 0
M  V30 4098 C 372.582 1.36793 -1.37846 0
M  V30 4099 O 371.857 1.87596 -0.513601 0
M  V30 4100 C 372.14 0.199986 -3.59544 0
M  V30 4101 C 371.993 -1.1452 -4.34977 0
M  V30 4102 C 373.312 0.94137 -4.29914 0
M  V30 4103 H 370.431 0.0151552 -0.736844 0
M  V30 4104 H 373.073 -0.650498 -1.78518 0
M  V30 4105 H 371.223 0.793007 -3.8032 0
M  V30 4106 H 372.895 -1.77697 -4.25701 0
M  V30 4107 H 371.138 -1.73488 -3.97598 0
M  V30 4108 H 371.809 -0.990607 -5.43039 0
M  V30 4109 H 374.285 0.43844 -4.13784 0
M  V30 4110 H 373.161 1.01812 -5.39375 0
M  V30 4111 H 373.422 1.98471 -3.95046 0
M  V30 4112 N 372.481 1.55866 -0.233164 0
M  V30 4113 C 373.411 2.23783 0.666599 0
M  V30 4114 C 374.392 1.21343 1.19205 0
M  V30 4115 O 375.577 1.4996 1.23392 0
M  V30 4116 C 372.707 2.92671 1.86978 0
M  V30 4117 C 371.661 4.01682 1.47768 0
M  V30 4118 C 370.987 4.57926 2.76058 0
M  V30 4119 C 372.287 5.18126 0.658993 0
M  V30 4120 H 373.981 2.99232 0.100306 0
M  V30 4121 H 371.527 1.43924 0.046804 0
M  V30 4122 H 373.48 3.3888 2.50476 0
M  V30 4123 H 372.204 2.14688 2.46123 0
M  V30 4124 H 370.863 3.56222 0.866106 0
M  V30 4125 H 370.511 3.76659 3.33372 0
M  V30 4126 H 370.211 5.31505 2.50552 0
M  V30 4127 H 371.735 5.06859 3.40479 0
M  V30 4128 H 373.149 5.60644 1.19795 0
M  V30 4129 H 371.546 5.98009 0.500552 0
M  V30 4130 H 372.616 4.83763 -0.331856 0
M  V30 4131 N 373.959 -0.0401083 1.57549 0
M  V30 4132 C 374.922 -1.02871 2.04817 0
M  V30 4133 C 375.922 -1.29708 0.950388 0
M  V30 4134 O 377.112 -1.24897 1.21435 0
M  V30 4135 C 374.244 -2.36443 2.45576 0
M  V30 4136 H 375.437 -0.620631 2.93408 0
M  V30 4137 H 372.99 -0.286667 1.53649 0
M  V30 4138 H 373.725 -2.82021 1.60108 0
M  V30 4139 H 373.51 -2.18296 3.25713 0
M  V30 4140 H 375 -3.07441 2.82612 0
M  V30 4141 N 375.437 -1.54477 -0.31217 0
M  V30 4142 C 376.385 -1.85395 -1.40469 0
M  V30 4143 C 377.379 -0.726749 -1.53019 0
M  V30 4144 O 378.585 -0.910582 -1.55269 0
M  V30 4145 H 374.96 -0.587845 -0.46898 0
M  V30 4146 H 376.931 -2.76736 -1.11623 0
M  V30 4147 C 375.68 -2.10811 -2.76503 0
M  V30 4148 H 375.003 -2.97014 -2.67625 0
M  V30 4149 H 376.443 -2.3639 -3.51988 0
M  V30 4150 C 374.902 -0.903165 -3.24568 0
M  V30 4151 O 375.432 -0.118085 -4.01526 0
M  V30 4152 N 373.638 -0.711634 -2.81752 0
M  V30 4153 H 373.185 -1.35171 -2.19286 0
M  V30 4154 H 373.143 0.0930473 -3.14262 0
M  V30 4155 N 376.915 0.57481 -1.46744 0
M  V30 4156 C 377.845 1.69337 -1.60771 0
M  V30 4157 C 378.826 1.63825 -0.457736 0
M  V30 4158 O 380.011 1.8172 -0.684947 0
M  V30 4159 C 377.141 3.0798 -1.60517 0
M  V30 4160 C 376.095 3.28327 -2.74564 0
M  V30 4161 C 375.421 4.67578 -2.59373 0
M  V30 4162 C 376.721 3.15398 -4.16319 0
M  V30 4163 H 378.415 1.57853 -2.54407 0
M  V30 4164 H 375.961 0.75799 -1.22436 0
M  V30 4165 H 377.914 3.86061 -1.68923 0
M  V30 4166 H 376.638 3.20381 -0.634305 0
M  V30 4167 H 375.297 2.52649 -2.65639 0
M  V30 4168 H 374.945 4.76755 -1.60353 0
M  V30 4169 H 374.645 4.82144 -3.35873 0
M  V30 4170 H 376.169 5.47817 -2.69682 0
M  V30 4171 H 377.583 3.83315 -4.26313 0
M  V30 4172 H 375.98 3.41482 -4.93468 0
M  V30 4173 H 377.05 2.12372 -4.3592 0
M  V30 4174 N 378.394 1.34581 0.820102 0
M  V30 4175 C 379.622 1.3018 1.60813 0
M  V30 4176 C 380.037 -0.123551 1.88395 0
M  V30 4177 O 379.394 -1.07148 1.47735 0
M  V30 4178 C 379.445 2.09312 2.94739 0
M  V30 4179 O 379.166 3.46288 2.68358 0
M  V30 4180 C 380.667 2.1234 3.89136 0
M  V30 4181 H 377.887 0.447726 0.499782 0
M  V30 4182 H 380.431 1.77237 1.02017 0
M  V30 4183 H 378.586 1.65889 3.50085 0
M  V30 4184 H 379 3.87227 3.53774 0
M  V30 4185 H 380.474 2.72126 4.80262 0
M  V30 4186 H 380.951 1.11854 4.24718 0
M  V30 4187 H 381.557 2.55864 3.39726 0
M  V30 4188 N 379.872 -1.04064 1.18357 0
M  V30 4189 C 380.835 -2.10243 0.912707 0
M  V30 4190 C 381.835 -1.60477 -0.101928 0
M  V30 4191 O 383.025 -1.73703 0.131517 0
M  V30 4192 C 380.157 -3.38893 0.369387 0
M  V30 4193 H 381.35 -2.35706 1.85426 0
M  V30 4194 H 378.903 -1.20489 0.995594 0
M  V30 4195 H 379.638 -3.19094 -0.578776 0
M  V30 4196 H 379.423 -3.76331 1.1008 0
M  V30 4197 H 380.913 -4.17128 0.198575 0
M  V30 4198 N 381.35 -0.985608 -1.22978 0
M  V30 4199 C 382.598 -0.656087 -1.91154 0
M  V30 4200 C 382.919 0.813561 -1.77218 0
M  V30 4201 O 382.189 1.58244 -1.1548 0
M  V30 4202 H 380.769 -0.239674 -0.707506 0
M  V30 4203 H 383.431 -1.25054 -1.49491 0
M  V30 4204 H 382.527 -0.912253 -2.9847 0
M  V30 4205 N 382.828 1.3818 -0.7579 0
M  V30 4206 C 384.244 1.5353 -0.435972 0
M  V30 4207 C 384.444 1.71961 1.05032 0
M  V30 4208 O 383.5 1.73307 1.83633 0
M  V30 4209 C 384.813 2.73989 -1.23898 0
M  V30 4210 C 386.361 2.87841 -1.22949 0
M  V30 4211 C 386.836 4.11266 -2.01554 0
M  V30 4212 N 388.327 4.18352 -1.98837 0
M  V30 4213 C 389.062 5.12856 -2.5645 0
M  V30 4214 N 388.558 6.13005 -3.22794 0
M  V30 4215 N 390.351 5.05238 -2.46356 0
M  V30 4216 H 382.502 1.24467 -1.7211 0
M  V30 4217 H 384.765 0.604982 -0.729864 0
M  V30 4218 H 384.471 2.66789 -2.29165 0
M  V30 4219 H 384.345 3.67294 -0.858764 0
M  V30 4220 H 386.732 2.9452 -0.184854 0
M  V30 4221 H 386.813 1.95534 -1.64924 0
M  V30 4222 H 386.457 4.05349 -3.06031 0
M  V30 4223 H 386.387 5.02661 -1.5697 0
M  V30 4224 H 388.878 3.46628 -1.50524 0
M  V30 4225 H 389.191 6.81619 -3.64165 0
M  V30 4226 H 387.536 6.13325 -3.2689 0
M  V30 4227 H 390.727 4.25938 -1.9415 0
M  V30 4228 H 390.9 5.78707 -2.91552 0
M  V30 4229 N 384.306 0.507319 1.49211 0
M  V30 4230 C 385.534 -0.0315749 2.06876 0
M  V30 4231 C 385.949 -1.30241 1.36685 0
M  V30 4232 O 385.306 -1.76937 0.447152 0
M  V30 4233 C 385.357 -0.282627 3.60393 0
M  V30 4234 O 385.078 0.937835 4.27944 0
M  V30 4235 C 386.579 -0.864453 4.3479 0
M  V30 4236 H 383.799 0.0233048 0.670595 0
M  V30 4237 H 386.343 0.706484 1.91909 0
M  V30 4238 H 384.498 -0.97068 3.75042 0
M  V30 4239 H 384.912 0.704567 5.19746 0
M  V30 4240 H 386.386 -0.989664 5.43056 0
M  V30 4241 H 386.863 -1.86382 3.97692 0
M  V30 4242 H 387.469 -0.213672 4.24763 0
M  V30 4243 N 385.784 -1.5574 0.241426 0
M  V30 4244 C 387.03 -1.99104 -0.385406 0
M  V30 4245 C 387.363 -1.1293 -1.57988 0
M  V30 4246 O 386.638 -0.191449 -1.93555 0
M  V30 4247 C 386.921 -3.51087 -0.800616 0
M  V30 4248 C 386.774 -4.48028 0.398874 0
M  V30 4249 C 388.093 -4.08015 -1.64959 0
M  V30 4250 H 385.212 -0.723848 -0.138614 0
M  V30 4251 H 387.854 -1.86903 0.341642 0
M  V30 4252 H 386.004 -3.61615 -1.4201 0
M  V30 4253 H 387.676 -4.49487 1.03726 0
M  V30 4254 H 385.919 -4.21077 1.04293 0
M  V30 4255 H 386.59 -5.51962 0.0651056 0
M  V30 4256 H 389.066 -4.00555 -1.12672 0
M  V30 4257 H 387.942 -5.14635 -1.90898 0
M  V30 4258 H 388.203 -3.56131 -2.61961 0
M  V30 4259 N 387.262 0.0317525 -1.57568 0
M  V30 4260 C 388.194 1.06073 -2.03178 0
M  V30 4261 C 389.207 1.32627 -0.944132 0
M  V30 4262 O 390.396 1.30162 -1.22148 0
M  V30 4263 C 387.496 2.40297 -2.38978 0
M  V30 4264 C 386.669 2.33137 -3.70089 0
M  V30 4265 C 385.728 3.49787 -3.9311 0
M  V30 4266 O 384.754 3.29403 -4.64201 0
M  V30 4267 N 385.956 4.71562 -3.38541 0
M  V30 4268 H 388.721 0.672006 -2.92069 0
M  V30 4269 H 386.282 0.219745 -1.60402 0
M  V30 4270 H 388.274 3.1705 -2.51518 0
M  V30 4271 H 386.844 2.71024 -1.55771 0
M  V30 4272 H 386.064 1.415 -3.67928 0
M  V30 4273 H 387.352 2.25493 -4.56104 0
M  V30 4274 H 386.75 4.91024 -2.80912 0
M  V30 4275 H 385.307 5.45689 -3.56464 0
M  V30 4276 N 388.74 1.54641 0.303973 0
M  V30 4277 C 389.988 1.73437 1.0375 0
M  V30 4278 C 390.309 0.521449 1.87899 0
M  V30 4279 O 389.579 -0.46432 1.90318 0
M  V30 4280 H 388.159 0.639518 0.386039 0
M  V30 4281 H 390.821 1.91988 0.335675 0
M  V30 4282 H 389.917 2.62235 1.69231 0
M  V30 4283 N 390.218 -0.567019 1.47046 0
M  V30 4284 C 391.181 -1.65696 1.58359 0
M  V30 4285 C 392.181 -1.54097 0.459441 0
M  V30 4286 O 393.371 -1.58432 0.724225 0
M  V30 4287 C 390.503 -3.05197 1.51879 0
M  V30 4288 H 391.696 -1.57019 2.5551 0
M  V30 4289 H 389.249 -0.786148 1.3509 0
M  V30 4290 H 389.984 -3.19417 0.560673 0
M  V30 4291 H 389.769 -3.15025 2.33455 0
M  V30 4292 H 391.259 -3.84511 1.62913 0
M  V30 4293 N 391.696 -1.35014 -0.812953 0
M  V30 4294 C 392.921 -1.31187 -1.60639 0
M  V30 4295 C 393.346 0.109382 -1.87782 0
M  V30 4296 O 392.704 1.07424 -1.46047 0
M  V30 4297 C 392.752 -2.11809 -2.91838 0
M  V30 4298 O 391.856 -1.49444 -3.8437 0
M  V30 4299 H 391.197 -0.450084 -0.488181 0
M  V30 4300 H 393.727 -1.77963 -1.00947 0
M  V30 4301 H 393.737 -2.23531 -3.41318 0
M  V30 4302 H 392.412 -3.15137 -2.71407 0
M  V30 4303 H 390.989 -1.46524 -3.42907 0
M  V30 4304 N 393.175 1.03435 -1.18907 0
M  V30 4305 C 394.403 1.80381 -1.01342 0
M  V30 4306 C 394.818 1.83649 0.438005 0
M  V30 4307 O 394.175 1.27655 1.30424 0
M  V30 4308 C 394.226 3.25689 -1.56873 0
M  V30 4309 O 393.947 3.22673 -2.96334 0
M  V30 4310 C 395.448 4.19255 -1.44014 0
M  V30 4311 H 392.668 0.56784 -0.35749 0
M  V30 4312 H 395.212 1.30317 -1.576 0
M  V30 4313 H 393.367 3.72962 -1.04777 0
M  V30 4314 H 393.781 4.13748 -3.22355 0
M  V30 4315 H 395.255 5.19123 -1.87657 0
M  V30 4316 H 395.732 4.37467 -0.389815 0
M  V30 4317 H 396.338 3.77851 -1.95214 0
M  V30 4318 N 394.653 0.992116 1.22453 0
M  V30 4319 C 395.583 0.561677 2.26644 0
M  V30 4320 C 396.564 -0.411055 1.65059 0
M  V30 4321 O 397.749 -0.301861 1.9184 0
M  V30 4322 C 394.879 -0.125247 3.47074 0
M  V30 4323 C 393.833 0.765948 4.21091 0
M  V30 4324 C 393.159 -0.0538484 5.34673 0
M  V30 4325 C 394.459 2.06242 4.79856 0
M  V30 4326 H 396.153 1.43259 2.62902 0
M  V30 4327 H 393.699 0.690283 1.26377 0
M  V30 4328 H 395.652 -0.437764 4.1912 0
M  V30 4329 H 394.376 -1.03069 3.0991 0
M  V30 4330 H 393.035 1.0621 3.50878 0
M  V30 4331 H 392.683 -0.960188 4.9375 0
M  V30 4332 H 392.383 0.539415 5.85119 0
M  V30 4333 H 393.907 -0.360477 6.09535 0
M  V30 4334 H 395.321 1.8139 5.43848 0
M  V30 4335 H 393.718 2.60444 5.40638 0
M  V30 4336 H 394.788 2.74167 3.99951 0
M  V30 4337 N 396.131 -1.37776 0.765217 0
M  V30 4338 C 397.359 -2.04124 0.337767 0
M  V30 4339 C 397.774 -1.57715 -1.03785 0
M  V30 4340 O 397.131 -0.755447 -1.6613 0
M  V30 4341 C 397.182 -3.59658 0.364442 0
M  V30 4342 O 396.903 -4.04367 1.68579 0
M  V30 4343 C 398.404 -4.43236 -0.0754221 0
M  V30 4344 H 395.624 -0.655696 0.142491 0
M  V30 4345 H 398.168 -1.76238 1.03732 0
M  V30 4346 H 396.323 -3.86339 -0.286471 0
M  V30 4347 H 396.737 -4.98857 1.61993 0
M  V30 4348 H 398.211 -5.52 -0.00560067 0
M  V30 4349 H 398.688 -4.2455 -1.12491 0
M  V30 4350 H 399.294 -4.21767 0.547055 0
M  V30 4351 N 397.609 -0.515225 -1.4894 0
M  V30 4352 C 398.541 0.292481 -2.27326 0
M  V30 4353 C 399.554 0.917838 -1.3446 0
M  V30 4354 O 400.743 0.798772 -1.5963 0
M  V30 4355 C 397.843 1.42803 -3.07344 0
M  V30 4356 C 397.016 0.907347 -4.27885 0
M  V30 4357 C 396.075 1.92222 -4.89834 0
M  V30 4358 O 395.101 1.48506 -5.49486 0
M  V30 4359 N 396.303 3.25355 -4.80754 0
M  V30 4360 H 399.068 -0.379721 -2.97285 0
M  V30 4361 H 396.629 -0.348638 -1.58102 0
M  V30 4362 H 398.621 2.10481 -3.45658 0
M  V30 4363 H 397.191 2.00414 -2.39902 0
M  V30 4364 H 396.411 0.0550218 -3.94162 0
M  V30 4365 H 397.699 0.538108 -5.05946 0
M  V30 4366 H 397.097 3.6355 -4.33414 0
M  V30 4367 H 395.654 3.88707 -5.23211 0
M  V30 4368 N 399.087 1.5561 -0.249682 0
M  V30 4369 C 400.019 2.18834 0.681496 0
M  V30 4370 C 401.032 1.16546 1.1367 0
M  V30 4371 O 402.221 1.43397 1.06299 0
M  V30 4372 C 399.321 2.77992 1.9384 0
M  V30 4373 C 398.494 4.05725 1.63419 0
M  V30 4374 C 397.553 4.49174 2.74096 0
M  V30 4375 O 396.579 5.15492 2.41364 0
M  V30 4376 N 397.781 4.17191 4.03649 0
M  V30 4377 H 400.546 2.9937 0.140514 0
M  V30 4378 H 398.107 1.6175 -0.0697541 0
M  V30 4379 H 400.099 3.04015 2.67127 0
M  V30 4380 H 398.669 2.01596 2.38909 0
M  V30 4381 H 397.889 3.87261 0.736358 0
M  V30 4382 H 399.177 4.88999 1.40562 0
M  V30 4383 H 398.575 3.63955 4.33074 0
M  V30 4384 H 397.132 4.48043 4.73393 0
M  V30 4385 N 400.565 -0.0233959 1.57583 0
M  V30 4386 C 401.495 -1.02162 2.09965 0
M  V30 4387 C 402.476 -1.3735 1.00344 0
M  V30 4388 O 403.661 -1.46135 1.27899 0
M  V30 4389 C 400.791 -2.32081 2.58371 0
M  V30 4390 C 399.745 -2.1112 3.72307 0
M  V30 4391 C 399.071 -3.46848 4.06941 0
M  V30 4392 C 400.371 -1.49276 5.00514 0
M  V30 4393 H 402.065 -0.585557 2.93618 0
M  V30 4394 H 399.611 -0.280218 1.41247 0
M  V30 4395 H 401.564 -3.02249 2.93639 0
M  V30 4396 H 400.288 -2.77758 1.71808 0
M  V30 4397 H 398.947 -1.43384 3.37397 0
M  V30 4398 H 398.595 -3.90184 3.17436 0
M  V30 4399 H 398.295 -3.33646 4.83688 0
M  V30 4400 H 399.819 -4.18369 4.44747 0
M  V30 4401 H 401.233 -2.09368 5.33702 0
M  V30 4402 H 399.63 -1.46632 5.8191 0
M  V30 4403 H 400.7 -0.459217 4.82721 0
M  V30 4404 N 402.043 -1.548 -0.295768 0
M  V30 4405 C 403.289 -1.74588 -1.03184 0
M  V30 4406 C 403.622 -0.532962 -1.86744 0
M  V30 4407 O 402.897 0.469872 -1.88739 0
M  V30 4408 C 403.18 -3.03791 -1.93347 0
M  V30 4409 C 403.033 -4.35392 -1.12933 0
M  V30 4410 C 404.352 -3.28892 -2.92435 0
M  V30 4411 H 401.471 -0.635221 -0.373715 0
M  V30 4412 H 404.113 -1.87519 -0.30606 0
M  V30 4413 H 402.263 -2.92898 -2.55232 0
M  V30 4414 H 403.935 -4.58211 -0.532943 0
M  V30 4415 H 402.178 -4.31642 -0.432168 0
M  V30 4416 H 402.849 -5.22074 -1.79284 0
M  V30 4417 H 405.325 -3.39429 -2.4068 0
M  V30 4418 H 404.201 -4.20603 -3.52682 0
M  V30 4419 H 404.462 -2.47437 -3.6637 0
M  V30 4420 N 403.521 0.559213 -1.47345 0
M  V30 4421 C 404.468 1.66645 -1.59682 0
M  V30 4422 C 405.438 1.60168 -0.43994 0
M  V30 4423 O 406.623 1.79031 -0.659736 0
M  V30 4424 C 403.763 3.04969 -1.61518 0
M  V30 4425 C 402.876 3.21897 -2.88108 0
M  V30 4426 C 402.011 4.50608 -2.81294 0
M  V30 4427 C 401.05 4.60961 -4.02717 0
M  V30 4428 N 400.187 5.81024 -3.94151 0
M  V30 4429 H 405.027 1.55439 -2.54249 0
M  V30 4430 H 402.564 0.757219 -1.26113 0
M  V30 4431 H 404.522 3.85064 -1.60566 0
M  V30 4432 H 403.152 3.15015 -0.704645 0
M  V30 4433 H 402.204 2.35248 -2.98936 0
M  V30 4434 H 403.516 3.25412 -3.78032 0
M  V30 4435 H 402.67 5.3896 -2.7858 0
M  V30 4436 H 401.409 4.49568 -1.89049 0
M  V30 4437 H 400.414 3.71021 -4.05738 0
M  V30 4438 H 401.639 4.63761 -4.96087 0
M  V30 4439 H 399.585 5.80938 -3.04708 0
M  V30 4440 H 399.502 5.85909 -4.77752 0
M  V30 4441 H 400.77 6.71744 -3.9545 0
M  V30 4442 N 404.999 1.35443 0.805782 0
M  V30 4443 C 405.947 1.28465 1.93906 0
M  V30 4444 C 406.941 0.17943 1.68447 0
M  V30 4445 O 408.147 0.345459 1.76654 0
M  V30 4446 H 404.522 0.399528 0.637088 0
M  V30 4447 H 406.493 2.24206 1.96912 0
M  V30 4448 C 405.242 1.07432 3.30687 0
M  V30 4449 H 404.565 1.91716 3.50835 0
M  V30 4450 H 406.005 1.06591 4.10383 0
M  V30 4451 C 404.464 -0.22179 3.36169 0
M  V30 4452 O 404.994 -1.21731 3.82811 0
M  V30 4453 N 403.2 -0.260841 2.89427 0
M  V30 4454 H 402.747 0.549884 2.51663 0
M  V30 4455 H 402.705 -1.12777 2.93477 0
M  V30 4456 N 406.477 -1.02803 1.19454 0
M  V30 4457 C 407.407 -2.12999 0.956758 0
M  V30 4458 C 408.388 -1.69743 -0.110188 0
M  V30 4459 O 409.573 -1.94148 0.0450038 0
M  V30 4460 C 406.703 -3.43746 0.495553 0
M  V30 4461 C 405.657 -4.00688 1.50443 0
M  V30 4462 C 404.983 -5.27067 0.900275 0
M  V30 4463 C 406.283 -4.35397 2.8849 0
M  V30 4464 H 407.977 -2.33148 1.87836 0
M  V30 4465 H 405.523 -1.12045 0.904539 0
M  V30 4466 H 407.476 -4.2021 0.316493 0
M  V30 4467 H 406.2 -3.23321 -0.461646 0
M  V30 4468 H 404.859 -3.2632 1.67065 0
M  V30 4469 H 404.507 -5.02959 -0.064503 0
M  V30 4470 H 404.207 -5.66127 1.57397 0
M  V30 4471 H 405.731 -6.06196 0.73203 0
M  V30 4472 H 407.145 -5.02795 2.75446 0
M  V30 4473 H 405.542 -4.85541 3.52661 0
M  V30 4474 H 406.612 -3.44662 3.41081 0
M  V30 4475 N 407.956 -0.998596 -1.21925 0
M  V30 4476 C 409.203 -0.677663 -1.90824 0
M  V30 4477 C 409.531 0.790905 -1.77693 0
M  V30 4478 O 408.786 1.58817 -1.14349 0
M  V30 4479 C 409.085 -1.03648 -3.42041 0
M  V30 4480 C 408.751 -2.49825 -3.75364 0
M  V30 4481 C 407.413 -2.8977 -3.8417 0
M  V30 4482 C 409.765 -3.44545 -3.91073 0
M  V30 4483 C 407.093 -4.23412 -4.06127 0
M  V30 4484 C 409.445 -4.77853 -4.14535 0
M  V30 4485 C 408.109 -5.17531 -4.21566 0
M  V30 4486 H 407.379 -0.247975 -0.698276 0
M  V30 4487 H 410.026 -1.25584 -1.44571 0
M  V30 4488 H 408.331 -0.376457 -3.89987 0
M  V30 4489 H 410.028 -0.766113 -3.93614 0
M  V30 4490 H 406.618 -2.17866 -3.69097 0
M  V30 4491 H 410.802 -3.14853 -3.83642 0
M  V30 4492 H 406.058 -4.53734 -4.09799 0
M  V30 4493 H 410.232 -5.51189 -4.25633 0
M  V30 4494 H 407.859 -6.21102 -4.38333 0
M  V30 4495 N 409.434 1.37368 -0.772513 0
M  V30 4496 C 410.364 2.32856 -0.173304 0
M  V30 4497 C 411.345 1.55818 0.682262 0
M  V30 4498 O 412.53 1.84052 0.619566 0
M  V30 4499 C 409.66 3.40048 0.706007 0
M  V30 4500 C 408.614 4.27973 -0.0483144 0
M  V30 4501 C 407.94 5.26184 0.950491 0
M  V30 4502 C 409.24 5.07665 -1.22776 0
M  V30 4503 H 410.934 2.83217 -0.971002 0
M  V30 4504 H 408.48 1.3617 -0.468377 0
M  V30 4505 H 410.433 4.05827 1.13501 0
M  V30 4506 H 409.157 2.88214 1.53623 0
M  V30 4507 H 407.816 3.63726 -0.458107 0
M  V30 4508 H 407.464 4.7063 1.77529 0
M  V30 4509 H 407.164 5.85872 0.450314 0
M  V30 4510 H 408.688 5.94838 1.37842 0
M  V30 4511 H 410.102 5.66578 -0.875366 0
M  V30 4512 H 408.499 5.76681 -1.66007 0
M  V30 4513 H 409.569 4.40294 -2.03149 0
M  V30 4514 N 410.912 0.523116 1.48665 0
M  V30 4515 C 412.137 -0.0117284 2.07397 0
M  V30 4516 C 412.562 -1.28031 1.37803 0
M  V30 4517 O 411.92 -1.75836 0.441762 0
M  V30 4518 C 411.968 -0.225786 3.59892 0
M  V30 4519 O 411.072 -1.29592 3.91509 0
M  V30 4520 H 410.413 0.0360673 0.66302 0
M  V30 4521 H 412.943 0.729066 1.9117 0
M  V30 4522 H 412.953 -0.450552 4.05505 0
M  V30 4523 H 411.628 0.700944 4.09951 0
M  V30 4524 H 410.205 -1.05436 3.57684 0
M  V30 4525 N 412.39 -1.55475 0.257931 0
M  V30 4526 C 413.615 -2.04064 -0.370488 0
M  V30 4527 C 414.04 -1.13565 -1.49948 0
M  V30 4528 O 413.398 -0.130781 -1.80828 0
M  V30 4529 C 413.446 -3.50554 -0.845237 0
M  V30 4530 O 412.55 -3.63173 -1.95394 0
M  V30 4531 H 411.891 -0.659257 -0.0792243 0
M  V30 4532 H 414.421 -2.00903 0.387212 0
M  V30 4533 H 414.431 -3.91588 -1.14555 0
M  V30 4534 H 413.106 -4.15896 -0.0191259 0
M  V30 4535 H 411.683 -3.34039 -1.65748 0
M  V30 4536 N 413.868 0.0150385 -1.57593 0
M  V30 4537 C 414.778 1.02791 -2.10882 0
M  V30 4538 C 415.794 1.38702 -1.0506 0
M  V30 4539 O 416.97 1.47739 -1.36877 0
M  V30 4540 C 414.035 2.30568 -2.58919 0
M  V30 4541 C 413.096 2.01108 -3.79281 0
M  V30 4542 C 412.329 3.22794 -4.25018 0
M  V30 4543 O 412.552 4.33959 -3.70183 0
M  V30 4544 O 411.486 3.07672 -5.17322 0
M  V30 4545 H 415.312 0.604973 -2.97613 0
M  V30 4546 H 412.897 0.23292 -1.47573 0
M  V30 4547 H 414.779 3.05662 -2.90084 0
M  V30 4548 H 413.454 2.72129 -1.75293 0
M  V30 4549 H 412.361 1.23537 -3.53114 0
M  V30 4550 H 413.694 1.64394 -4.63935 0
M  V30 4551 N 415.346 1.54954 0.287554 0
M  V30 4552 C 416.762 1.46469 0.633964 0
M  V30 4553 C 416.962 0.666865 1.90145 0
M  V30 4554 O 416.018 0.179906 2.51858 0
M  V30 4555 C 417.331 2.90556 0.774454 0
M  V30 4556 C 418.879 3.00681 0.869462 0
M  V30 4557 C 419.354 4.45993 1.04184 0
M  V30 4558 N 420.845 4.4976 1.10772 0
M  V30 4559 C 421.58 5.59393 1.25964 0
M  V30 4560 N 421.076 6.78923 1.37968 0
M  V30 4561 N 422.869 5.47107 1.28959 0
M  V30 4562 H 415.02 2.05288 -0.545041 0
M  V30 4563 H 417.283 0.930305 -0.182308 0
M  V30 4564 H 416.989 3.51594 -0.086207 0
M  V30 4565 H 416.863 3.38743 1.6593 0
M  V30 4566 H 419.25 2.39749 1.7206 0
M  V30 4567 H 419.331 2.55769 -0.0396831 0
M  V30 4568 H 418.975 5.07524 0.195422 0
M  V30 4569 H 418.905 4.88548 1.96542 0
M  V30 4570 H 421.396 3.63651 1.02794 0
M  V30 4571 H 421.709 7.58231 1.49353 0
M  V30 4572 H 420.054 6.81763 1.34999 0
M  V30 4573 H 423.245 4.52668 1.19202 0
M  V30 4574 H 423.418 6.32595 1.40455 0
M  V30 4575 N 416.824 -0.551391 1.4764 0
M  V30 4576 C 418.049 -1.33837 1.58437 0
M  V30 4577 C 418.474 -1.866 0.237063 0
M  V30 4578 O 417.832 -1.6328 -0.787994 0
M  V30 4579 C 417.88 -2.48014 2.61766 0
M  V30 4580 O 416.984 -3.50419 2.1744 0
M  V30 4581 H 416.325 -0.397299 0.532024 0
M  V30 4582 H 418.855 -0.665759 1.93465 0
M  V30 4583 H 418.865 -2.94503 2.82369 0
M  V30 4584 H 417.54 -2.08969 3.5959 0
M  V30 4585 H 416.117 -3.10196 2.06961 0
M  V30 4586 N 418.302 -1.35869 -0.798587 0
M  V30 4587 C 419.532 -1.32529 -1.58491 0
M  V30 4588 C 419.94 0.0975405 -1.88948 0
M  V30 4589 O 419.283 1.06224 -1.49874 0
M  V30 4590 C 419.345 -2.07247 -2.9375 0
M  V30 4591 C 419.009 -3.56391 -2.86068 0
M  V30 4592 C 420.006 -4.50824 -2.58947 0
M  V30 4593 C 417.691 -3.9915 -3.04933 0
M  V30 4594 C 419.685 -5.85993 -2.5078 0
M  V30 4595 C 417.372 -5.34413 -2.96389 0
M  V30 4596 C 418.37 -6.27646 -2.69349 0
M  V30 4597 O 418.058 -7.60426 -2.60782 0
M  V30 4598 H 417.79 -0.456529 -0.498556 0
M  V30 4599 H 420.344 -1.79425 -0.999799 0
M  V30 4600 H 418.574 -1.55001 -3.54276 0
M  V30 4601 H 420.263 -1.96883 -3.54954 0
M  V30 4602 H 421.029 -4.19104 -2.44084 0
M  V30 4603 H 416.908 -3.26961 -3.24989 0
M  V30 4604 H 420.452 -6.58735 -2.29595 0
M  V30 4605 H 416.349 -5.65743 -3.10813 0
M  V30 4606 H 417.117 -7.70444 -2.76331 0
M  V30 4607 N 419.78 1.02168 -1.19998 0
M  V30 4608 C 421.026 1.7606 -1.01855 0
M  V30 4609 C 421.381 1.87178 0.445222 0
M  V30 4610 O 420.674 1.3828 1.32624 0
M  V30 4611 C 420.868 3.18081 -1.62969 0
M  V30 4612 C 420.697 3.20809 -3.15137 0
M  V30 4613 C 419.467 3.28342 -3.84083 0
M  V30 4614 C 421.665 3.07268 -4.1242 0
M  V30 4615 N 419.647 3.2052 -5.23584 0
M  V30 4616 C 421.018 3.0716 -5.38566 0
M  V30 4617 C 423.073 2.91448 -4.03686 0
M  V30 4618 C 421.776 2.92853 -6.56985 0
M  V30 4619 C 423.802 2.78494 -5.21723 0
M  V30 4620 C 423.164 2.79046 -6.46771 0
M  V30 4621 H 419.263 0.655192 -0.426905 0
M  V30 4622 H 421.847 1.21564 -1.52087 0
M  V30 4623 H 420.018 3.70882 -1.15329 0
M  V30 4624 H 421.75 3.80375 -1.38192 0
M  V30 4625 H 418.505 3.34859 -3.34913 0
M  V30 4626 H 418.929 3.19997 -5.96599 0
M  V30 4627 H 423.571 2.89838 -3.07821 0
M  V30 4628 H 421.289 2.93213 -7.53028 0
M  V30 4629 H 424.875 2.67278 -5.16773 0
M  V30 4630 H 423.755 2.69134 -7.36571 0
M  V30 4631 N 421.258 1.00505 1.21394 0
M  V30 4632 C 422.674 0.717873 1.42544 0
M  V30 4633 C 422.874 -0.706936 1.88692 0
M  V30 4634 O 421.93 -1.47627 2.04847 0
M  V30 4635 C 423.243 1.73377 2.45684 0
M  V30 4636 C 424.791 1.75059 2.59467 0
M  V30 4637 C 425.266 2.75545 3.6584 0
M  V30 4638 N 426.757 2.74213 3.73311 0
M  V30 4639 C 427.492 3.48626 4.55245 0
M  V30 4640 N 426.988 4.32678 5.41075 0
M  V30 4641 N 428.781 3.37276 4.49668 0
M  V30 4642 H 420.932 1.92506 0.897503 0
M  V30 4643 H 423.195 0.830919 0.456375 0
M  V30 4644 H 422.901 2.75395 2.18748 0
M  V30 4645 H 422.775 1.53647 3.44489 0
M  V30 4646 H 425.162 0.737337 2.8574 0
M  V30 4647 H 425.243 1.98861 1.60897 0
M  V30 4648 H 424.887 3.77028 3.40313 0
M  V30 4649 H 424.817 2.49009 4.64007 0
M  V30 4650 H 427.308 2.13234 3.11993 0
M  V30 4651 H 427.621 4.86253 6.00648 0
M  V30 4652 H 425.966 4.3676 5.40616 0
M  V30 4653 H 429.157 2.71043 3.81646 0
M  V30 4654 H 429.33 3.95524 5.13288 0
M  V30 4655 N 422.737 -1.36956 0.779787 0
M  V30 4656 C 423.684 -2.30175 0.169697 0
M  V30 4657 C 424.654 -1.51501 -0.68094 0
M  V30 4658 O 425.839 -1.80042 -0.631629 0
M  V30 4659 C 422.979 -3.37985 -0.697131 0
M  V30 4660 C 422.092 -4.31661 0.170992 0
M  V30 4661 C 421.227 -5.2655 -0.701298 0
M  V30 4662 C 420.266 -6.11867 0.168869 0
M  V30 4663 N 419.403 -6.98973 -0.661855 0
M  V30 4664 H 424.243 -2.81767 0.970135 0
M  V30 4665 H 421.78 -1.38699 0.489994 0
M  V30 4666 H 423.738 -3.99128 -1.2146 0
M  V30 4667 H 422.368 -2.87739 -1.46309 0
M  V30 4668 H 421.42 -3.71756 0.80634 0
M  V30 4669 H 422.732 -4.91644 0.841875 0
M  V30 4670 H 421.886 -5.92937 -1.28494 0
M  V30 4671 H 420.625 -4.66998 -1.40584 0
M  V30 4672 H 419.63 -5.44452 0.764986 0
M  V30 4673 H 420.855 -6.73493 0.870863 0
M  V30 4674 H 418.801 -6.41941 -1.35086 0
M  V30 4675 H 418.718 -7.55984 -0.0484447 0
M  V30 4676 H 419.986 -7.6974 -1.22963 0
M  V30 4677 N 424.215 -0.530993 -1.48385 0
M  V30 4678 C 425.178 0.220497 -2.28137 0
M  V30 4679 C 426.178 0.866851 -1.35434 0
M  V30 4680 O 427.368 0.726746 -1.58316 0
M  V30 4681 C 424.5 1.31921 -3.1434 0
M  V30 4682 H 425.693 -0.479714 -2.96038 0
M  V30 4683 H 423.246 -0.286968 -1.53643 0
M  V30 4684 H 423.981 2.05264 -2.51072 0
M  V30 4685 H 423.766 0.86085 -3.82533 0
M  V30 4686 H 425.256 1.84776 -3.74497 0
M  V30 4687 N 425.693 1.55336 -0.266172 0
M  V30 4688 C 426.641 2.23587 0.641228 0
M  V30 4689 C 427.635 1.22986 1.16494 0
M  V30 4690 O 428.841 1.40943 1.1196 0
M  V30 4691 H 425.216 0.717452 0.225315 0
M  V30 4692 H 427.187 2.9837 0.0426561 0
M  V30 4693 C 425.936 2.96369 1.81826 0
M  V30 4694 H 425.259 3.73563 1.42445 0
M  V30 4695 H 426.699 3.47459 2.42998 0
M  V30 4696 C 425.158 2.0133 2.70125 0
M  V30 4697 O 425.688 1.55875 3.70224 0
M  V30 4698 N 423.894 1.6802 2.37102 0
M  V30 4699 H 423.441 2.05181 1.55751 0
M  V30 4700 H 423.399 1.047 2.96454 0
M  V30 4701 N 427.171 -0.0066808 1.57599 0
M  V30 4702 C 428.081 -1.01671 2.11424 0
M  V30 4703 C 429.097 -1.38143 1.05795 0
M  V30 4704 O 430.273 -1.47011 1.37658 0
M  V30 4705 C 427.338 -2.29192 2.60139 0
M  V30 4706 C 426.399 -1.99094 3.80342 0
M  V30 4707 C 425.632 -3.20535 4.26724 0
M  V30 4708 O 425.855 -4.3199 3.72479 0
M  V30 4709 O 424.789 -3.04924 5.18946 0
M  V30 4710 H 428.615 -0.589181 2.9793 0
M  V30 4711 H 426.2 -0.225091 1.47695 0
M  V30 4712 H 428.082 -3.0412 2.917 0
M  V30 4713 H 426.757 -2.71195 1.76733 0
M  V30 4714 H 425.664 -1.21663 3.53764 0
M  V30 4715 H 426.997 -1.61931 4.648 0
M  V30 4716 N 428.649 -1.55105 -0.279332 0
M  V30 4717 C 429.612 -1.86783 -1.32834 0
M  V30 4718 C 430.612 -0.74199 -1.42657 0
M  V30 4719 O 431.802 -1.0102 -1.41918 0
M  V30 4720 C 428.934 -2.06746 -2.71052 0
M  V30 4721 H 430.127 -2.8055 -1.05979 0
M  V30 4722 H 427.68 -1.47499 -0.517087 0
M  V30 4723 H 428.415 -1.15339 -3.03097 0
M  V30 4724 H 428.2 -2.88711 -2.65309 0
M  V30 4725 H 429.69 -2.32549 -3.46858 0
M  V30 4726 N 430.127 0.543554 -1.4793 0
M  V30 4727 C 431.357 1.32324 -1.58663 0
M  V30 4728 C 431.765 1.8766 -0.240896 0
M  V30 4729 O 431.108 1.66411 0.778011 0
M  V30 4730 C 431.17 2.52094 -2.56299 0
M  V30 4731 C 430.834 2.17944 -4.01683 0
M  V30 4732 C 431.831 1.74422 -4.89768 0
M  V30 4733 C 429.516 2.28884 -4.47121 0
M  V30 4734 C 431.51 1.42287 -6.21316 0
M  V30 4735 C 429.197 1.96361 -5.78693 0
M  V30 4736 C 430.195 1.53132 -6.65612 0
M  V30 4737 O 429.883 1.21029 -7.94737 0
M  V30 4738 H 429.615 0.409174 -0.538101 0
M  V30 4739 H 432.169 0.663887 -1.94375 0
M  V30 4740 H 430.399 3.20965 -2.15681 0
M  V30 4741 H 432.088 3.14165 -2.57012 0
M  V30 4742 H 432.854 1.65452 -4.55907 0
M  V30 4743 H 428.733 2.61488 -3.79664 0
M  V30 4744 H 432.277 1.08472 -6.89115 0
M  V30 4745 H 428.174 2.04967 -6.12094 0
M  V30 4746 H 428.942 1.34543 -8.07366 0
M  V30 4747 N 431.605 1.3629 0.791371 0
M  V30 4748 C 432.538 1.24816 1.9104 0
M  V30 4749 C 433.516 0.132739 1.62057 0
M  V30 4750 O 434.7 0.303527 1.8604 0
M  V30 4751 C 431.827 0.925355 3.25814 0
M  V30 4752 C 430.873 2.05495 3.7373 0
M  V30 4753 S 431.706 3.67255 3.89723 0
M  V30 4754 C 432.862 3.37084 5.27376 0
M  V30 4755 H 433.095 2.19533 2.00481 0
M  V30 4756 H 430.628 1.21684 0.950393 0
M  V30 4757 H 432.586 0.745924 4.03666 0
M  V30 4758 H 431.247 -0.00400098 3.141 0
M  V30 4759 H 430.44 1.7836 4.71385 0
M  V30 4760 H 430.042 2.1935 3.02922 0
M  V30 4761 H 432.334 2.90856 6.1189 0
M  V30 4762 H 433.277 4.33995 5.59512 0
M  V30 4763 H 433.685 2.7248 4.94383 0
M  V30 4764 N 433.083 -1.0153 1.20538 0
M  V30 4765 C 434.046 -2.0826 0.957098 0
M  V30 4766 C 435.046 -1.60657 -0.0678655 0
M  V30 4767 O 436.236 -1.73385 0.168332 0
M  V30 4768 C 433.368 -3.38033 0.441188 0
M  V30 4769 H 434.561 -2.31719 1.90384 0
M  V30 4770 H 432.114 -1.1835 1.02093 0
M  V30 4771 H 432.849 -3.20249 -0.510961 0
M  V30 4772 H 432.634 -3.73911 1.18038 0
M  V30 4773 H 434.124 -4.16613 0.287009 0
M  V30 4774 N 434.561 -1.01147 -1.20859 0
M  V30 4775 C 435.491 -0.597663 -2.25722 0
M  V30 4776 C 436.472 0.384744 -1.65692 0
M  V30 4777 O 437.657 0.271303 -1.92296 0
M  V30 4778 C 434.787 0.0700149 -3.47229 0
M  V30 4779 C 433.741 -0.832843 -4.19819 0
M  V30 4780 C 433.067 -0.0312202 -5.34691 0
M  V30 4781 C 434.367 -2.1385 -4.76514 0
M  V30 4782 H 436.061 -1.47423 -2.60589 0
M  V30 4783 H 433.607 -0.710301 -1.25263 0
M  V30 4784 H 435.56 0.37103 -4.19763 0
M  V30 4785 H 434.284 0.981259 -3.11511 0
M  V30 4786 H 432.943 -1.11778 -3.49144 0
M  V30 4787 H 432.591 0.881515 -4.95215 0
M  V30 4788 H 432.291 -0.632434 -5.84187 0
M  V30 4789 H 433.815 0.26346 -6.10031 0
M  V30 4790 H 435.229 -1.9002 -5.40893 0
M  V30 4791 H 433.626 -2.69012 -5.36426 0
M  V30 4792 H 434.696 -2.80495 -3.95538 0
M  V30 4793 N 436.039 1.36541 -0.78704 0
M  V30 4794 C 437.288 1.98552 -0.35494 0
M  V30 4795 C 437.601 1.63171 1.07864 0
M  V30 4796 O 438.807 2.18399 1.61289 0
M  V30 4797 C 437.263 3.55136 -0.583671 0
M  V30 4798 C 436.871 3.99444 -2.02851 0
M  V30 4799 C 438.615 4.2395 -0.215957 0
M  V30 4800 C 436.522 5.48796 -2.20403 0
M  V30 4801 H 435.452 0.742888 -0.128972 0
M  V30 4802 H 438.103 1.5587 -0.968337 0
M  V30 4803 H 436.485 3.95875 0.0994046 0
M  V30 4804 H 437.659 3.6991 -2.74779 0
M  V30 4805 H 435.974 3.43459 -2.35425 0
M  V30 4806 H 438.571 5.33709 -0.325405 0
M  V30 4807 H 438.914 4.07827 0.835646 0
M  V30 4808 H 439.447 3.88565 -0.852175 0
M  V30 4809 H 436.186 5.69864 -3.23937 0
M  V30 4810 H 435.706 5.79964 -1.52977 0
M  V30 4811 H 437.385 6.14986 -2.01002 0
M  V30 4812 N 437.518 0.538854 1.48102 0
M  V30 4813 C 438.451 -0.266495 2.26639 0
M  V30 4814 C 439.429 -0.93687 1.32897 0
M  V30 4815 O 440.613 -0.959507 1.62252 0
M  V30 4816 C 437.74 -1.37814 3.09394 0
M  V30 4817 C 436.786 -0.818247 4.18577 0
M  V30 4818 S 437.619 0.320848 5.34538 0
M  V30 4819 C 438.775 -0.793059 6.20855 0
M  V30 4820 H 439.008 0.399994 2.94597 0
M  V30 4821 H 436.541 0.324808 1.50945 0
M  V30 4822 H 438.499 -2.01488 3.57649 0
M  V30 4823 H 437.16 -2.01639 2.40833 0
M  V30 4824 H 436.353 -1.65247 4.7614 0
M  V30 4825 H 435.955 -0.258036 3.73109 0
M  V30 4826 H 438.247 -1.68961 6.56093 0
M  V30 4827 H 439.19 -0.255204 7.0764 0
M  V30 4828 H 439.598 -1.07746 5.54122 0
M  V30 4829 N 438.996 -1.55193 0.274407 0
M  V30 4830 C 440.273 -1.91584 -0.394331 0
M  V30 4831 C 440.653 -1.19858 -1.73774 0
M  V30 4832 O 440.001 -0.3252 -2.26174 0
M  V30 4833 C 440.211 -3.4487 -0.535311 0
M  V30 4834 C 441.559 -4.16636 -0.818534 0
M  V30 4835 O 442.583 -3.5076 -0.620146 0
M  V30 4836 O 441.442 -5.33209 -1.19792 0
M  V30 4837 H 438.536 -0.798349 -0.215794 0
M  V30 4838 H 441.082 -1.66646 0.320507 0
M  V30 4839 H 439.854 -3.89145 0.410141 0
M  V30 4840 H 439.477 -3.75759 -1.29964 0
M  V30 4841 N 440.474 -0.00167713 -1.576 0
M  V30 4842 C 441.437 0.974046 -2.07473 0
M  V30 4843 C 442.437 1.27143 -0.984444 0
M  V30 4844 O 443.627 1.21633 -1.24703 0
M  V30 4845 C 440.759 2.29849 -2.51759 0
M  V30 4846 H 441.952 0.54262 -2.9495 0
M  V30 4847 H 439.505 0.245829 -1.54355 0
M  V30 4848 H 440.24 2.77677 -1.67529 0
M  V30 4849 H 440.025 2.09584 -3.31386 0
M  V30 4850 H 441.515 2.9984 -2.90664 0
M  V30 4851 N 441.952 1.55251 0.271103 0
M  V30 4852 C 443.368 1.47133 0.618393 0
M  V30 4853 C 443.568 0.686994 1.89427 0
M  V30 4854 O 442.624 0.206609 2.51653 0
M  V30 4855 C 443.937 2.91361 0.743593 0
M  V30 4856 C 445.485 3.01587 0.837522 0
M  V30 4857 C 445.96 4.47073 0.994483 0
M  V30 4858 N 447.451 4.50909 1.05996 0
M  V30 4859 C 448.186 5.60698 1.20024 0
M  V30 4860 N 447.682 6.80348 1.30759 0
M  V30 4861 N 449.475 5.48444 1.23149 0
M  V30 4862 H 441.626 2.04698 -0.566784 0
M  V30 4863 H 443.889 0.928319 -0.192165 0
M  V30 4864 H 443.595 3.51483 -0.123493 0
M  V30 4865 H 443.469 3.40484 1.62328 0
M  V30 4866 H 445.856 2.4156 1.69507 0
M  V30 4867 H 445.937 2.55713 -0.0668086 0
M  V30 4868 H 445.581 5.07703 0.141582 0
M  V30 4869 H 445.511 4.90605 1.91349 0
M  V30 4870 H 448.002 3.6472 0.989316 0
M  V30 4871 H 448.315 7.59772 1.41303 0
M  V30 4872 H 446.66 6.83156 1.27761 0
M  V30 4873 H 449.851 4.53907 1.14394 0
M  V30 4874 H 450.024 6.34049 1.33738 0
M  V30 4875 N 443.43 -0.535701 1.48216 0
M  V30 4876 C 444.66 -1.3148 1.59363 0
M  V30 4877 C 445.068 -1.8753 0.250844 0
M  V30 4878 O 444.411 -1.66821 -0.769174 0
M  V30 4879 C 444.473 -2.50731 2.57632 0
M  V30 4880 C 444.137 -2.15811 4.02833 0
M  V30 4881 C 445.134 -1.71822 4.90686 0
M  V30 4882 C 442.819 -2.26509 4.48329 0
M  V30 4883 C 444.813 -1.3899 6.22062 0
M  V30 4884 C 442.5 -1.93289 5.79726 0
M  V30 4885 C 443.498 -1.49599 6.66415 0
M  V30 4886 O 443.186 -1.16812 7.95368 0
M  V30 4887 H 442.918 -0.406315 0.540263 0
M  V30 4888 H 445.472 -0.653569 1.94725 0
M  V30 4889 H 443.702 -3.19817 2.1738 0
M  V30 4890 H 445.391 -3.12797 2.58675 0
M  V30 4891 H 446.157 -1.63031 4.56778 0
M  V30 4892 H 442.036 -2.59471 3.81045 0
M  V30 4893 H 445.58 -1.04816 6.89681 0
M  V30 4894 H 441.477 -2.01718 6.13172 0
M  V30 4895 H 442.245 -1.30259 8.08069 0
M  V30 4896 N 444.908 -1.36708 -0.784132 0
M  V30 4897 C 446.133 -1.34565 -1.5782 0
M  V30 4898 C 446.558 0.0695257 -1.87971 0
M  V30 4899 O 445.916 1.04302 -1.48293 0
M  V30 4900 C 445.964 -2.17952 -2.87279 0
M  V30 4901 O 445.068 -1.57563 -3.81114 0
M  V30 4902 H 444.409 -0.460337 -0.478524 0
M  V30 4903 H 446.939 -1.80064 -0.971495 0
M  V30 4904 H 446.949 -2.30721 -3.365 0
M  V30 4905 H 445.624 -3.20823 -2.64661 0
M  V30 4906 H 444.201 -1.53764 -3.39722 0
M  V30 4907 N 446.386 1.0089 -1.21074 0
M  V30 4908 C 447.333 2.09588 -0.966512 0
M  V30 4909 C 448.303 1.65761 0.106089 0
M  V30 4910 O 449.488 1.90758 -0.0402287 0
M  V30 4911 C 446.628 3.40958 -0.533058 0
M  V30 4912 C 445.741 3.9822 -1.67467 0
M  V30 4913 C 444.876 5.17682 -1.19076 0
M  V30 4914 C 443.915 5.67043 -2.30496 0
M  V30 4915 N 443.052 6.77759 -1.83267 0
M  V30 4916 H 447.892 2.29815 -1.89708 0
M  V30 4917 H 445.429 1.12689 -0.945489 0
M  V30 4918 H 447.387 4.1637 -0.263019 0
M  V30 4919 H 446.017 3.20781 0.360505 0
M  V30 4920 H 445.069 3.1983 -2.05944 0
M  V30 4921 H 446.381 4.3085 -2.51336 0
M  V30 4922 H 445.535 6.00326 -0.877151 0
M  V30 4923 H 444.274 4.86635 -0.322066 0
M  V30 4924 H 443.279 4.82999 -2.62664 0
M  V30 4925 H 444.504 6.00121 -3.17855 0
M  V30 4926 H 442.45 6.48527 -0.987356 0
M  V30 4927 H 442.367 7.09624 -2.60711 0
M  V30 4928 H 443.635 7.63949 -1.54928 0
M  V30 4929 N 447.864 1.01787 1.20321 0
M  V30 4930 C 449.141 0.622978 1.85414 0
M  V30 4931 C 449.521 -0.898887 1.91006 0
M  V30 4932 O 448.869 -1.79112 1.41884 0
M  V30 4933 C 449.079 1.27226 3.24984 0
M  V30 4934 C 450.427 1.3885 4.01255 0
M  V30 4935 O 451.451 1.22857 3.34342 0
M  V30 4936 O 450.31 1.64705 5.2109 0
M  V30 4937 H 447.404 0.215116 0.798533 0
M  V30 4938 H 449.95 1.11533 1.27901 0
M  V30 4939 H 448.722 2.31209 3.15687 0
M  V30 4940 H 448.345 0.767069 3.90131 0
M  V30 4941 N 449.342 -1.36122 0.79427 0
M  V30 4942 C 450.758 -1.5232 0.476525 0
M  V30 4943 C 450.958 -1.74685 -1.00436 0
M  V30 4944 O 450.014 -1.78115 -1.78973 0
M  V30 4945 C 451.327 -2.70607 1.31119 0
M  V30 4946 C 452.875 -2.8448 1.30537 0
M  V30 4947 C 453.35 -4.05778 2.12387 0
M  V30 4948 N 454.841 -4.12933 2.09859 0
M  V30 4949 C 455.576 -5.05876 2.69957 0
M  V30 4950 N 455.072 -6.04232 3.38934 0
M  V30 4951 N 456.865 -4.98528 2.59665 0
M  V30 4952 H 449.016 -1.1986 1.75349 0
M  V30 4953 H 451.279 -0.585418 0.745647 0
M  V30 4954 H 450.985 -2.60619 2.36158 0
M  V30 4955 H 450.859 -3.64888 0.955843 0
M  V30 4956 H 453.246 -2.93927 0.262876 0
M  V30 4957 H 453.327 -1.91093 1.70051 0
M  V30 4958 H 452.971 -3.97092 3.1667 0
M  V30 4959 H 452.901 -4.98323 1.70242 0
M  V30 4960 H 455.392 -3.42515 1.59662 0
M  V30 4961 H 455.705 -6.71724 3.82109 0
M  V30 4962 H 454.05 -6.04443 3.43036 0
M  V30 4963 H 457.241 -4.20641 2.05375 0
M  V30 4964 H 457.414 -5.70773 3.06793 0
M  V30 4965 N 450.82 -0.546701 -1.47814 0
M  V30 4966 C 452.069 -0.0166497 -2.01693 0
M  V30 4967 C 452.382 1.33721 -1.42752 0
M  V30 4968 O 453.588 1.95658 -1.8823 0
M  V30 4969 C 452.044 0.0206769 -3.59894 0
M  V30 4970 C 451.652 -1.3293 -4.27824 0
M  V30 4971 C 453.396 0.498674 -4.21561 0
M  V30 4972 C 451.303 -1.25165 -5.78003 0
M  V30 4973 H 450.233 -0.0024541 -0.753996 0
M  V30 4974 H 452.884 -0.692984 -1.69912 0
M  V30 4975 H 451.266 0.76244 -3.88591 0
M  V30 4976 H 452.44 -2.08795 -4.10781 0
M  V30 4977 H 450.755 -1.74438 -3.78101 0
M  V30 4978 H 453.352 0.575 -5.31599 0
M  V30 4979 H 453.695 1.5083 -3.88016 0
M  V30 4980 H 454.228 -0.18791 -3.97356 0
M  V30 4981 H 450.967 -2.23695 -6.1615 0
M  V30 4982 H 450.487 -0.53464 -5.97412 0
M  V30 4983 H 452.166 -0.949299 -6.39998 0
M  V30 4984 N 452.299 1.55045 -0.282633 0
M  V30 4985 C 453.229 2.2579 0.595066 0
M  V30 4986 C 454.21 1.25074 1.15284 0
M  V30 4987 O 455.395 1.5381 1.18559 0
M  V30 4988 C 452.525 2.98472 1.77572 0
M  V30 4989 C 451.479 4.0618 1.34914 0
M  V30 4990 C 450.805 4.66477 2.6135 0
M  V30 4991 C 452.105 5.1996 0.493821 0
M  V30 4992 H 453.799 2.994 0.00505653 0
M  V30 4993 H 451.345 1.44 0.000992001 0
M  V30 4994 H 453.298 3.46677 2.39568 0
M  V30 4995 H 452.022 2.2241 2.39168 0
M  V30 4996 H 450.681 3.58797 0.752338 0
M  V30 4997 H 450.329 3.87074 3.2122 0
M  V30 4998 H 450.029 5.39207 2.33516 0
M  V30 4999 H 451.553 5.17435 3.24181 0
M  V30 5000 H 452.967 5.64172 1.01898 0
M  V30 5001 H 451.364 5.99299 0.310047 0
M  V30 5002 H 452.434 4.82462 -0.485593 0
M  V30 5003 N 453.777 0.010035 1.57597 0
M  V30 5004 C 454.687 -0.994226 2.12491 0
M  V30 5005 C 455.703 -1.37013 1.07254 0
M  V30 5006 O 456.879 -1.45542 1.3921 0
M  V30 5007 C 453.944 -2.2642 2.62555 0
M  V30 5008 C 453.005 -1.95049 3.82432 0
M  V30 5009 C 452.238 -3.15991 4.30099 0
M  V30 5010 O 452.461 -4.28015 3.7704 0
M  V30 5011 O 451.395 -2.99403 5.22151 0
M  V30 5012 H 455.221 -0.557549 2.98538 0
M  V30 5013 H 452.806 -0.209413 1.47925 0
M  V30 5014 H 454.688 -3.01009 2.9491 0
M  V30 5015 H 453.363 -2.69306 1.796 0
M  V30 5016 H 452.27 -1.17904 3.55034 0
M  V30 5017 H 453.603 -1.56992 4.66491 0
M  V30 5018 N 455.255 -1.55392 -0.262866 0
M  V30 5019 C 456.185 -1.91978 -1.32917 0
M  V30 5020 C 457.166 -0.7828 -1.51017 0
M  V30 5021 O 458.351 -1.04178 -1.63892 0
M  V30 5022 C 455.481 -2.20055 -2.68687 0
M  V30 5023 C 454.435 -3.35854 -2.65304 0
M  V30 5024 C 453.761 -3.49435 -4.04721 0
M  V30 5025 C 455.061 -4.71977 -2.23685 0
M  V30 5026 H 456.755 -2.81292 -1.02544 0
M  V30 5027 H 454.301 -1.3534 -0.491846 0
M  V30 5028 H 456.254 -2.44237 -3.43404 0
M  V30 5029 H 454.978 -1.27551 -3.00663 0
M  V30 5030 H 453.637 -3.11655 -1.93045 0
M  V30 5031 H 453.285 -2.54379 -4.33936 0
M  V30 5032 H 452.985 -4.27297 -4.0335 0
M  V30 5033 H 454.509 -3.7592 -4.81161 0
M  V30 5034 H 455.923 -4.95637 -2.88127 0
M  V30 5035 H 454.32 -5.52828 -2.33456 0
M  V30 5036 H 455.39 -4.70115 -1.18827 0
M  V30 5037 N 456.733 0.527833 -1.48498 0
M  V30 5038 C 457.963 1.30633 -1.60058 0
M  V30 5039 C 458.371 1.87394 -0.260786 0
M  V30 5040 O 457.714 1.67227 0.760317 0
M  V30 5041 C 457.776 2.49361 -2.58958 0
M  V30 5042 C 457.44 2.13671 -4.03972 0
M  V30 5043 C 458.437 1.69217 -4.91591 0
M  V30 5044 C 456.122 2.24129 -4.49524 0
M  V30 5045 C 458.116 1.35689 -6.2279 0
M  V30 5046 C 455.803 1.90212 -5.80743 0
M  V30 5047 C 456.801 1.46063 -6.67199 0
M  V30 5048 O 456.489 1.12593 -7.95976 0
M  V30 5049 H 456.221 0.403444 -0.54241 0
M  V30 5050 H 458.775 0.643233 -1.95068 0
M  V30 5051 H 457.005 3.18659 -2.19073 0
M  V30 5052 H 458.694 3.11421 -2.6033 0
M  V30 5053 H 459.46 1.60607 -4.57636 0
M  V30 5054 H 455.339 2.57447 -3.82416 0
M  V30 5055 H 458.883 1.01157 -6.90227 0
M  V30 5056 H 454.78 1.98464 -6.14233 0
M  V30 5057 H 455.548 1.25972 -8.08748 0
M  V30 5058 N 458.211 1.37122 0.776871 0
M  V30 5059 C 459.144 1.26835 1.89705 0
M  V30 5060 C 460.122 0.14992 1.61907 0
M  V30 5061 O 461.306 0.323242 1.85708 0
M  V30 5062 C 458.433 0.95986 3.24814 0
M  V30 5063 C 457.479 2.09447 3.7153 0
M  V30 5064 S 458.312 3.71368 3.85806 0
M  V30 5065 C 459.468 3.42659 5.23771 0
M  V30 5066 H 459.701 2.21647 1.98141 0
M  V30 5067 H 457.234 1.22685 0.937433 0
M  V30 5068 H 459.192 0.788696 4.02852 0
M  V30 5069 H 457.853 0.0293137 3.14086 0
M  V30 5070 H 457.046 1.8335 4.69467 0
M  V30 5071 H 456.648 2.2255 3.00578 0
M  V30 5072 H 458.94 2.9733 6.0877 0
M  V30 5073 H 459.883 4.39905 5.54878 0
M  V30 5074 H 460.291 2.77708 4.91466 0
M  V30 5075 N 459.689 -1.00246 1.21608 0
M  V30 5076 C 460.637 -2.11193 0.97469 0
M  V30 5077 C 461.631 -1.69216 -0.0789303 0
M  V30 5078 O 462.837 -1.79853 0.0726806 0
M  V30 5079 H 459.212 -0.690455 0.297953 0
M  V30 5080 H 461.183 -2.2873 1.91638 0
M  V30 5081 C 459.932 -3.43182 0.558717 0
M  V30 5082 H 459.255 -3.75918 1.3611 0
M  V30 5083 H 460.695 -4.21823 0.429154 0
M  V30 5084 C 459.154 -3.28882 -0.730648 0
M  V30 5085 O 459.684 -3.59835 -1.78554 0
M  V30 5086 N 457.89 -2.8209 -0.698131 0
M  V30 5087 H 457.437 -2.57099 0.16061 0
M  V30 5088 H 457.395 -2.72903 -1.56113 0
M  V30 5089 N 461.167 -1.02423 -1.1978 0
M  V30 5090 C 462.077 -0.610919 -2.26506 0
M  V30 5091 C 463.093 0.355152 -1.70337 0
M  V30 5092 O 464.269 0.214195 -2.00258 0
M  V30 5093 C 461.334 0.0365921 -3.46681 0
M  V30 5094 C 460.395 -0.976389 -4.18049 0
M  V30 5095 C 459.628 -0.359683 -5.32487 0
M  V30 5096 O 459.851 0.838601 -5.64202 0
M  V30 5097 O 458.785 -1.08022 -5.92127 0
M  V30 5098 H 462.611 -1.49965 -2.64091 0
M  V30 5099 H 460.196 -0.794156 -1.26545 0
M  V30 5100 H 462.078 0.39786 -4.19518 0
M  V30 5101 H 460.753 0.899398 -3.10954 0
M  V30 5102 H 459.66 -1.38916 -3.47352 0
M  V30 5103 H 460.993 -1.80941 -4.57735 0
M  V30 5104 N 462.645 1.35699 -0.801477 0
M  V30 5105 C 463.891 1.99208 -0.380022 0
M  V30 5106 C 464.224 1.63445 1.04878 0
M  V30 5107 O 463.499 0.895223 1.72673 0
M  V30 5108 C 463.782 3.55755 -0.557708 0
M  V30 5109 C 463.635 4.01332 -2.03107 0
M  V30 5110 C 464.954 4.40096 0.0197968 0
M  V30 5111 H 462.073 0.723667 -0.139552 0
M  V30 5112 H 464.715 1.60928 -1.01006 0
M  V30 5113 H 462.865 3.88494 -0.0213741 0
M  V30 5114 H 464.537 3.79026 -2.62939 0
M  V30 5115 H 462.78 3.52429 -2.52936 0
M  V30 5116 H 463.451 5.10234 -2.1063 0
M  V30 5117 H 465.927 4.13786 -0.438179 0
M  V30 5118 H 464.803 5.48735 -0.134477 0
M  V30 5119 H 465.064 4.2786 1.11303 0
M  V30 5120 N 464.123 0.554532 1.47522 0
M  V30 5121 C 465.353 0.0342074 2.06572 0
M  V30 5122 C 465.761 -1.26375 1.40805 0
M  V30 5123 O 465.104 -1.7683 0.49769 0
M  V30 5124 C 465.166 -0.235096 3.5873 0
M  V30 5125 C 464.83 0.973024 4.46521 0
M  V30 5126 C 465.827 1.8779 4.848 0
M  V30 5127 C 463.512 1.18694 4.88075 0
M  V30 5128 C 465.506 2.98039 5.63428 0
M  V30 5129 C 463.193 2.29254 5.66468 0
M  V30 5130 C 464.191 3.18757 6.04055 0
M  V30 5131 O 463.879 4.27401 6.8087 0
M  V30 5132 H 463.611 0.041587 0.67472 0
M  V30 5133 H 466.165 0.766748 1.90552 0
M  V30 5134 H 464.395 -1.02191 3.72953 0
M  V30 5135 H 466.084 -0.700477 3.9981 0
M  V30 5136 H 466.85 1.72467 4.53299 0
M  V30 5137 H 462.729 0.49947 4.58286 0
M  V30 5138 H 466.273 3.67926 5.92685 0
M  V30 5139 H 462.17 2.4455 5.97382 0
M  V30 5140 H 462.938 4.25415 6.9926 0
M  V30 5141 N 465.601 -1.54893 0.290851 0
M  V30 5142 C 466.531 -2.26103 -0.583084 0
M  V30 5143 C 467.512 -1.25684 -1.14619 0
M  V30 5144 O 468.697 -1.54436 -1.17741 0
M  V30 5145 C 465.827 -2.99409 -1.75987 0
M  V30 5146 C 464.781 -4.0689 -1.32758 0
M  V30 5147 C 464.107 -4.67856 -2.58872 0
M  V30 5148 C 465.407 -5.20215 -0.46624 0
M  V30 5149 H 467.101 -2.99398 0.0108214 0
M  V30 5150 H 464.647 -1.43998 0.00664468 0
M  V30 5151 H 466.6 -3.47943 -2.37727 0
M  V30 5152 H 465.324 -2.23675 -2.37985 0
M  V30 5153 H 463.983 -3.59191 -0.733299 0
M  V30 5154 H 463.631 -3.88772 -3.19163 0
M  V30 5155 H 463.331 -5.40438 -2.30653 0
M  V30 5156 H 464.855 -5.19147 -3.21433 0
M  V30 5157 H 466.269 -5.64704 -0.989047 0
M  V30 5158 H 464.666 -5.99455 -0.27826 0
M  V30 5159 H 465.736 -4.82198 0.511173 0
M  V30 5160 N 467.08 -0.0183926 -1.57589 0
M  V30 5161 C 468.328 0.661253 -1.90976 0
M  V30 5162 C 468.649 1.73281 -0.894353 0
M  V30 5163 O 467.919 1.9579 0.0656788 0
M  V30 5164 H 466.499 0.247233 -0.704901 0
M  V30 5165 H 469.161 -0.0636639 -1.94796 0
M  V30 5166 H 468.257 1.12083 -2.9128 0
M  V30 5167 N 468.558 1.5553 0.254621 0
M  V30 5168 C 469.49 1.86104 1.33783 0
M  V30 5169 C 470.503 0.746752 1.44663 0
M  V30 5170 O 471.692 1.0248 1.46151 0
M  V30 5171 C 468.792 2.02532 2.71724 0
M  V30 5172 C 467.965 3.33335 2.83208 0
M  V30 5173 C 467.024 3.396 4.01943 0
M  V30 5174 O 466.05 4.12862 3.91834 0
M  V30 5175 N 467.252 2.68332 5.1476 0
M  V30 5176 H 470.017 2.79605 1.07893 0
M  V30 5177 H 467.578 1.55672 0.444732 0
M  V30 5178 H 469.57 2.04074 3.4948 0
M  V30 5179 H 468.14 1.15811 2.90356 0
M  V30 5180 H 467.36 3.44176 1.92189 0
M  V30 5181 H 468.648 4.19565 2.87824 0
M  V30 5182 H 468.046 2.08528 5.25864 0
M  V30 5183 H 466.603 2.75575 5.90679 0
M  V30 5184 N 470.036 -0.519951 1.48776 0
M  V30 5185 C 471.261 -1.30447 1.6124 0
M  V30 5186 C 471.686 -1.86055 0.276591 0
M  V30 5187 O 471.044 -1.64915 -0.753183 0
M  V30 5188 C 471.092 -2.42406 2.66967 0
M  V30 5189 O 470.196 -3.45728 2.24824 0
M  V30 5190 H 469.537 -0.385924 0.540332 0
M  V30 5191 H 472.067 -0.624572 1.94834 0
M  V30 5192 H 472.077 -2.88447 2.88552 0
M  V30 5193 H 470.752 -2.01294 3.63941 0
M  V30 5194 H 469.329 -3.05737 2.13494 0
M  V30 5195 N 471.514 -1.37532 -0.769588 0
M  V30 5196 C 472.762 -1.32597 -1.5252 0
M  V30 5197 C 473.083 0.0884294 -1.94799 0
M  V30 5198 O 472.353 1.03289 -1.66458 0
M  V30 5199 H 470.933 -0.487846 -0.565699 0
M  V30 5200 H 473.595 -1.72044 -0.915806 0
M  V30 5201 H 472.691 -1.96643 -2.42359 0
M  V30 5202 N 472.992 0.995999 -1.22138 0
M  V30 5203 C 474.269 1.70834 -0.952642 0
M  V30 5204 C 474.649 2.04257 0.533119 0
M  V30 5205 O 473.997 1.72343 1.50034 0
M  V30 5206 C 474.207 2.96119 -1.84701 0
M  V30 5207 C 475.555 3.68962 -2.10124 0
M  V30 5208 O 476.579 3.0612 -1.82124 0
M  V30 5209 O 475.438 4.82017 -2.57531 0
M  V30 5210 H 472.532 0.745498 -0.357997 0
M  V30 5211 H 475.078 1.05262 -1.33109 0
M  V30 5212 H 473.85 2.67898 -2.85213 0
M  V30 5213 H 473.473 3.6943 -1.46995 0
M  V30 5214 N 474.47 1.03057 1.19235 0
M  V30 5215 C 475.418 0.606391 2.24557 0
M  V30 5216 C 476.412 -0.361826 1.65491 0
M  V30 5217 O 477.618 -0.23022 1.78522 0
M  V30 5218 H 473.993 0.177838 0.730669 0
M  V30 5219 H 475.964 1.50529 2.5765 0
M  V30 5220 C 474.713 -0.0252127 3.47691 0
M  V30 5221 H 474.036 0.710838 3.9343 0
M  V30 5222 H 475.476 -0.284931 4.23042 0
M  V30 5223 C 473.935 -1.27229 3.11953 0
M  V30 5224 O 474.465 -2.36416 3.24762 0
M  V30 5225 N 472.671 -1.16169 2.6637 0
M  V30 5226 H 472.218 -0.273189 2.56147 0
M  V30 5227 H 472.176 -1.99703 2.42829 0
M  V30 5228 N 475.948 -1.35272 0.808662 0
M  V30 5229 C 476.858 -2.33546 0.222079 0
M  V30 5230 C 477.874 -1.6196 -0.636011 0
M  V30 5231 O 479.05 -1.93822 -0.547274 0
M  V30 5232 C 476.115 -3.41148 -0.61795 0
M  V30 5233 C 475.176 -4.28507 0.260875 0
M  V30 5234 C 474.409 -5.3097 -0.539156 0
M  V30 5235 O 474.632 -5.42123 -1.77367 0
M  V30 5236 O 473.566 -6.01858 0.0710526 0
M  V30 5237 H 477.392 -2.85515 1.03512 0
M  V30 5238 H 474.977 -1.38079 0.570495 0
M  V30 5239 H 476.859 -4.06889 -1.09634 0
M  V30 5240 H 475.534 -2.91447 -1.40855 0
M  V30 5241 H 474.441 -3.6574 0.786451 0
M  V30 5242 H 475.774 -4.81611 1.01547 0
M  V30 5243 N 477.426 -0.562348 -1.47226 0
M  V30 5244 C 478.675 -0.038041 -2.01664 0
M  V30 5245 C 478.988 1.32199 -1.44162 0
M  V30 5246 O 480.194 1.9365 -1.90294 0
M  V30 5247 C 478.65 -0.0174958 -3.59896 0
M  V30 5248 C 478.258 -1.3746 -4.2639 0
M  V30 5249 C 480.002 0.453934 -4.22066 0
M  V30 5250 C 477.909 -1.31289 -5.76643 0
M  V30 5251 H 476.839 -0.0104511 -0.753928 0
M  V30 5252 H 479.49 -0.710966 -1.69167 0
M  V30 5253 H 477.872 0.721182 -3.89378 0
M  V30 5254 H 479.046 -2.1314 -4.08544 0
M  V30 5255 H 477.361 -1.78438 -3.7623 0
M  V30 5256 H 479.958 0.518584 -5.32179 0
M  V30 5257 H 480.301 1.46706 -3.89594 0
M  V30 5258 H 480.834 -0.230044 -3.97134 0
M  V30 5259 H 477.573 -2.30217 -6.13743 0
M  V30 5260 H 477.093 -0.597973 -5.96812 0
M  V30 5261 H 478.772 -1.01713 -6.38955 0
M  V30 5262 N 478.904 1.54736 -0.299062 0
M  V30 5263 C 480.32 1.59507 0.0543849 0
M  V30 5264 C 480.52 1.31606 1.52585 0
M  V30 5265 O 479.576 1.08853 2.27832 0
M  V30 5266 C 480.889 2.98751 -0.34181 0
M  V30 5267 C 482.437 3.1165 -0.290414 0
M  V30 5268 C 482.912 4.53199 -0.661402 0
M  V30 5269 N 484.403 4.59114 -0.613863 0
M  V30 5270 C 485.138 5.66709 -0.873417 0
M  V30 5271 N 484.634 6.82349 -1.19884 0
M  V30 5272 N 486.427 5.56369 -0.800608 0
M  V30 5273 H 478.578 1.71133 -1.25806 0
M  V30 5274 H 480.841 0.799186 -0.509908 0
M  V30 5275 H 480.547 3.24085 -1.36608 0
M  V30 5276 H 480.421 3.75961 0.305508 0
M  V30 5277 H 482.808 2.86066 0.724605 0
M  V30 5278 H 482.889 2.366 -0.972327 0
M  V30 5279 H 482.533 4.79513 -1.67422 0
M  V30 5280 H 482.463 5.26583 0.0425612 0
M  V30 5281 H 484.954 3.76053 -0.3732 0
M  V30 5282 H 485.267 7.60326 -1.38291 0
M  V30 5283 H 483.612 6.83906 -1.23685 0
M  V30 5284 H 486.803 4.64904 -0.546045 0
M  V30 5285 H 486.976 6.40139 -1.00626 0
M  V30 5286 N 480.382 0.0267497 1.57577 0
M  V30 5287 C 481.63 -0.651116 1.91324 0
M  V30 5288 C 481.951 -1.72804 0.90353 0
M  V30 5289 O 481.221 -1.95822 -0.0552946 0
M  V30 5290 H 479.801 -0.243491 0.706202 0
M  V30 5291 H 482.463 0.0739935 1.94759 0
M  V30 5292 H 481.559 -1.10536 2.9187 0
M  V30 5293 N 481.861 -1.55662 -0.24637 0
M  V30 5294 C 483.108 -1.77519 -0.974335 0
M  V30 5295 C 483.436 -0.591165 -1.85298 0
M  V30 5296 O 482.691 0.425497 -1.91018 0
M  V30 5297 C 482.99 -3.04885 -1.86494 0
M  V30 5298 C 482.656 -4.36209 -1.14161 0
M  V30 5299 C 481.318 -4.71896 -0.941701 0
M  V30 5300 C 483.67 -5.17391 -0.628957 0
M  V30 5301 C 480.998 -5.86299 -0.216852 0
M  V30 5302 C 483.35 -6.32546 0.0824273 0
M  V30 5303 C 482.014 -6.66853 0.293807 0
M  V30 5304 H 481.284 -0.649588 -0.356535 0
M  V30 5305 H 483.931 -1.89934 -0.244394 0
M  V30 5306 H 482.236 -2.87484 -2.66196 0
M  V30 5307 H 483.933 -3.18994 -2.42989 0
M  V30 5308 H 480.523 -4.08174 -1.30736 0
M  V30 5309 H 484.707 -4.90276 -0.770943 0
M  V30 5310 H 479.963 -6.11385 -0.0426124 0
M  V30 5311 H 484.137 -6.94693 0.487292 0
M  V30 5312 H 481.764 -7.55349 0.857428 0
M  V30 5313 N 483.339 0.512053 -1.4905 0
M  V30 5314 C 484.75 1.09376 -1.51307 0
M  V30 5315 C 485.101 1.94 -0.292971 0
M  V30 5316 O 484.226 2.07965 0.598277 0
M  V30 5317 C 484.821 1.99031 -2.74176 0
M  V30 5318 C 483.38 2.52385 -2.79247 0
M  V30 5319 C 482.527 1.29749 -2.45073 0
M  V30 5320 H 485.478 0.296467 -1.55906 0
M  V30 5321 H 485.499 2.83569 -2.53711 0
M  V30 5322 H 485.011 1.37412 -3.62959 0
M  V30 5323 H 483.112 3.17673 -1.94716 0
M  V30 5324 H 483.225 2.90293 -3.81139 0
M  V30 5325 H 481.589 1.61912 -1.96612 0
M  V30 5326 H 482.372 0.698555 -3.36118 0
M  V30 5327 N 484.817 1.37938 0.762283 0
M  V30 5328 C 485.747 1.37176 1.88958 0
M  V30 5329 C 486.728 0.238945 1.68413 0
M  V30 5330 O 487.913 0.440726 1.89133 0
M  V30 5331 C 485.043 1.18742 3.2637 0
M  V30 5332 C 483.997 2.29136 3.61498 0
M  V30 5333 C 483.323 1.95816 4.97554 0
M  V30 5334 C 484.623 3.71363 3.6727 0
M  V30 5335 H 486.317 2.31509 1.89853 0
M  V30 5336 H 483.863 1.11438 0.912005 0
M  V30 5337 H 485.816 1.16837 4.04879 0
M  V30 5338 H 484.54 0.208683 3.25933 0
M  V30 5339 H 483.199 2.30213 2.85303 0
M  V30 5340 H 482.847 0.964475 4.93667 0
M  V30 5341 H 482.547 2.69745 5.22026 0
M  V30 5342 H 484.071 1.95513 5.78452 0
M  V30 5343 H 485.485 3.72364 4.35911 0
M  V30 5344 H 483.882 4.44425 4.03245 0
M  V30 5345 H 484.952 4.04305 2.67704 0
M  V30 5346 N 486.295 -0.989507 1.22664 0
M  V30 5347 C 487.258 -2.06183 1.00106 0
M  V30 5348 C 488.258 -1.60765 -0.0337726 0
M  V30 5349 O 489.448 -1.72989 0.205072 0
M  V30 5350 C 486.58 -3.37021 0.51279 0
M  V30 5351 H 487.773 -2.27629 1.95256 0
M  V30 5352 H 485.326 -1.16158 1.0458 0
M  V30 5353 H 486.061 -3.21261 -0.442917 0
M  V30 5354 H 485.846 -3.71323 1.25942 0
M  V30 5355 H 487.336 -4.1591 0.375315 0
M  V30 5356 N 487.773 -1.03688 -1.18687 0
M  V30 5357 C 488.998 -0.757819 -1.93059 0
M  V30 5358 C 489.423 0.678353 -1.75442 0
M  V30 5359 O 488.781 1.46938 -1.06203 0
M  V30 5360 C 488.829 -1.12423 -3.42627 0
M  V30 5361 O 487.933 -0.247505 -4.11657 0
M  V30 5362 H 487.274 -0.279245 -0.602427 0
M  V30 5363 H 489.804 -1.3857 -1.5053 0
M  V30 5364 H 489.814 -1.08454 -3.93322 0
M  V30 5365 H 488.489 -2.17049 -3.54771 0
M  V30 5366 H 487.066 -0.34649 -3.71287 0
M  V30 5367 N 489.251 1.34841 -0.815825 0
M  V30 5368 C 490.181 2.32187 -0.247298 0
M  V30 5369 C 491.162 1.5791 0.632344 0
M  V30 5370 O 492.347 1.8593 0.560698 0
M  V30 5371 C 489.477 3.42122 0.597466 0
M  V30 5372 C 488.431 4.27602 -0.184446 0
M  V30 5373 C 487.757 5.28942 0.782609 0
M  V30 5374 C 489.057 5.03502 -1.38865 0
M  V30 5375 H 490.751 2.79985 -1.06061 0
M  V30 5376 H 488.297 1.34611 -0.511461 0
M  V30 5377 H 490.25 4.09232 1.00533 0
M  V30 5378 H 488.974 2.92956 1.44376 0
M  V30 5379 H 487.633 3.62085 -0.573592 0
M  V30 5380 H 487.281 4.7604 1.62466 0
M  V30 5381 H 486.981 5.87008 0.263695 0
M  V30 5382 H 488.505 5.98922 1.18848 0
M  V30 5383 H 489.919 5.63506 -1.05518 0
M  V30 5384 H 488.316 5.71108 -1.8427 0
M  V30 5385 H 489.386 4.33608 -2.17054 0
M  V30 5386 N 490.729 0.570148 1.46925 0
M  V30 5387 C 491.959 0.0561151 2.06524 0
M  V30 5388 C 492.367 -1.24874 1.42137 0
M  V30 5389 O 491.71 -1.76292 0.516417 0
M  V30 5390 C 491.772 -0.197035 3.5896 0
M  V30 5391 C 491.436 1.02033 4.45464 0
M  V30 5392 C 492.433 1.92921 4.82781 0
M  V30 5393 C 490.118 1.23864 4.86788 0
M  V30 5394 C 492.112 3.03999 5.60235 0
M  V30 5395 C 489.799 2.35249 5.64004 0
M  V30 5396 C 490.797 3.25146 6.0064 0
M  V30 5397 O 490.485 4.34598 6.76299 0
M  V30 5398 H 490.217 0.0487409 0.674241 0
M  V30 5399 H 492.771 0.786915 1.89728 0
M  V30 5400 H 491.001 -0.982299 3.74016 0
M  V30 5401 H 492.69 -0.658032 4.00531 0
M  V30 5402 H 493.456 1.77265 4.51444 0
M  V30 5403 H 489.335 0.54805 4.57731 0
M  V30 5404 H 492.879 3.74192 5.8875 0
M  V30 5405 H 488.776 2.50873 5.94755 0
M  V30 5406 H 489.544 4.32808 6.94708 0
M  V30 5407 N 492.207 -1.54576 0.307264 0
M  V30 5408 C 493.437 -2.04378 -0.302158 0
M  V30 5409 C 493.845 -1.18381 -1.47589 0
M  V30 5410 O 493.188 -0.20352 -1.82569 0
M  V30 5411 C 493.25 -3.50133 -0.815305 0
M  V30 5412 C 492.914 -4.56401 0.233977 0
M  V30 5413 C 493.911 -5.08884 1.06456 0
M  V30 5414 C 491.596 -5.0088 0.377478 0
M  V30 5415 C 493.59 -6.04394 2.02452 0
M  V30 5416 C 491.277 -5.96208 1.34088 0
M  V30 5417 C 492.275 -6.47849 2.16288 0
M  V30 5418 O 491.963 -7.41308 3.10994 0
M  V30 5419 H 491.695 -0.672502 -0.0686839 0
M  V30 5420 H 494.249 -2.00484 0.446682 0
M  V30 5421 H 492.479 -3.51371 -1.61478 0
M  V30 5422 H 494.168 -3.83098 -1.34129 0
M  V30 5423 H 494.934 -4.75311 0.964596 0
M  V30 5424 H 490.813 -4.60309 -0.252405 0
M  V30 5425 H 494.357 -6.44626 2.66652 0
M  V30 5426 H 490.254 -6.29198 1.44154 0
M  V30 5427 H 491.022 -7.5913 3.06045 0
M  V30 5428 N 493.685 -0.035106 -1.57561 0
M  V30 5429 C 494.932 0.642229 -1.92046 0
M  V30 5430 C 495.26 1.7179 -0.91206 0
M  V30 5431 O 494.515 1.95544 0.0781153 0
M  V30 5432 C 494.814 1.29149 -3.3325 0
M  V30 5433 C 494.48 0.345604 -4.49574 0
M  V30 5434 C 493.142 0.0852775 -4.81124 0
M  V30 5435 C 495.494 -0.303569 -5.20315 0
M  V30 5436 C 492.822 -0.831927 -5.80772 0
M  V30 5437 C 495.174 -1.20886 -6.20942 0
M  V30 5438 C 493.838 -1.47802 -6.50931 0
M  V30 5439 H 493.108 0.235008 -0.702746 0
M  V30 5440 H 495.755 -0.0981529 -1.91248 0
M  V30 5441 H 494.06 2.10676 -3.30337 0
M  V30 5442 H 495.757 1.82223 -3.57205 0
M  V30 5443 H 492.347 0.558683 -4.24943 0
M  V30 5444 H 496.531 -0.115515 -4.96166 0
M  V30 5445 H 491.787 -1.0481 -6.02349 0
M  V30 5446 H 495.961 -1.71804 -6.74875 0
M  V30 5447 H 493.588 -2.19039 -7.2796 0
M  V30 5448 N 495.163 1.55791 0.238111 0
M  V30 5449 C 496.411 1.77681 0.963001 0
M  V30 5450 C 496.732 0.600674 1.85518 0
M  V30 5451 O 496.002 -0.383182 1.92116 0
M  V30 5452 H 494.582 0.655315 0.358568 0
M  V30 5453 H 497.244 1.93239 0.253945 0
M  V30 5454 H 496.34 2.69177 1.57956 0
M  V30 5455 N 496.642 -0.504142 1.49319 0
M  V30 5456 C 498.058 -0.835039 1.36012 0
M  V30 5457 C 498.258 -1.97674 0.390808 0
M  V30 5458 O 497.314 -2.51867 -0.178655 0
M  V30 5459 C 498.627 -1.17821 2.76656 0
M  V30 5460 C 500.175 -1.2866 2.85334 0
M  V30 5461 C 500.65 -1.66307 4.26739 0
M  V30 5462 N 502.141 -1.73362 4.29534 0
M  V30 5463 C 502.876 -2.0393 5.35911 0
M  V30 5464 N 502.372 -2.32744 6.52535 0
M  V30 5465 N 504.165 -2.05155 5.23324 0
M  V30 5466 H 496.316 0.248764 2.10938 0
M  V30 5467 H 498.579 0.0486962 0.946748 0
M  V30 5468 H 498.285 -0.412682 3.4927 0
M  V30 5469 H 498.159 -2.12239 3.11825 0
M  V30 5470 H 500.546 -2.04285 2.1296 0
M  V30 5471 H 500.627 -0.323004 2.53752 0
M  V30 5472 H 500.271 -0.91234 4.99639 0
M  V30 5473 H 500.201 -2.63761 4.55782 0
M  V30 5474 H 502.692 -1.53268 3.45424 0
M  V30 5475 H 503.005 -2.55248 7.2943 0
M  V30 5476 H 501.35 -2.30207 6.55767 0
M  V30 5477 H 504.541 -1.82119 4.3122 0
M  V30 5478 H 504.714 -2.28644 6.06322 0
M  V30 5479 N 498.12 -1.38341 -0.754957 0
M  V30 5480 C 499.531 -1.30803 -1.3322 0
M  V30 5481 C 499.882 0.0368 -1.96165 0
M  V30 5482 O 499.007 0.938844 -1.94974 0
M  V30 5483 C 499.602 -2.3688 -2.42225 0
M  V30 5484 C 498.161 -2.32925 -2.95674 0
M  V30 5485 C 497.308 -2.19819 -1.69042 0
M  V30 5486 H 500.259 -1.48719 -0.553937 0
M  V30 5487 H 500.28 -2.02517 -3.22129 0
M  V30 5488 H 499.792 -3.34747 -1.96383 0
M  V30 5489 H 497.893 -1.38635 -3.45848 0
M  V30 5490 H 498.006 -3.27008 -3.50146 0
M  V30 5491 H 496.37 -1.66648 -1.92615 0
M  V30 5492 H 497.153 -3.19625 -1.25279 0
M  V30 5493 N 499.598 0.982988 -1.23187 0
M  V30 5494 C 500.844 1.72648 -1.06398 0
M  V30 5495 C 501.177 1.90066 0.398561 0
M  V30 5496 O 500.452 1.45105 1.29518 0
M  V30 5497 C 500.735 3.12627 -1.78707 0
M  V30 5498 C 500.588 3.02795 -3.32618 0
M  V30 5499 C 501.907 4.11997 -1.54747 0
M  V30 5500 H 499.026 0.626649 -0.387918 0
M  V30 5501 H 501.668 1.14455 -1.51658 0
M  V30 5502 H 499.818 3.62308 -1.40234 0
M  V30 5503 H 501.49 2.60659 -3.80598 0
M  V30 5504 H 499.733 2.39362 -3.61785 0
M  V30 5505 H 500.404 4.01893 -3.78399 0
M  V30 5506 H 502.88 3.71114 -1.88186 0
M  V30 5507 H 501.756 5.08037 -2.07821 0
M  V30 5508 H 502.017 4.39462 -0.482249 0
M  V30 5509 N 501.076 1.04316 1.18135 0
M  V30 5510 C 501.986 0.646876 2.25505 0
M  V30 5511 C 503.002 -0.328008 1.7088 0
M  V30 5512 O 504.178 -0.182309 2.00573 0
M  V30 5513 C 501.243 0.0185664 3.46695 0
M  V30 5514 C 500.304 1.04277 4.16443 0
M  V30 5515 C 499.537 0.444352 5.31847 0
M  V30 5516 O 499.76 -0.748735 5.65465 0
M  V30 5517 O 498.694 1.17428 5.90334 0
M  V30 5518 H 502.52 1.54147 2.61672 0
M  V30 5519 H 500.105 0.814188 1.25265 0
M  V30 5520 H 501.987 -0.331068 4.20097 0
M  V30 5521 H 500.662 -0.849814 3.12346 0
M  V30 5522 H 499.569 1.44425 3.45098 0
M  V30 5523 H 500.902 1.882 4.54798 0
M  V30 5524 N 502.554 -1.34406 0.822964 0
M  V30 5525 C 503.464 -2.33298 0.246838 0
M  V30 5526 C 504.48 -1.62625 -0.618797 0
M  V30 5527 O 505.656 -1.94391 -0.526685 0
M  V30 5528 C 502.721 -3.41785 -0.581731 0
M  V30 5529 C 501.782 -4.28206 0.306309 0
M  V30 5530 C 501.015 -5.31512 -0.48281 0
M  V30 5531 O 501.238 -5.43973 -1.71607 0
M  V30 5532 O 500.172 -6.01749 0.134884 0
M  V30 5533 H 503.998 -2.84401 1.06534 0
M  V30 5534 H 501.583 -1.37466 0.585108 0
M  V30 5535 H 503.465 -4.08028 -1.05313 0
M  V30 5536 H 502.14 -2.92925 -1.37756 0
M  V30 5537 H 501.047 -3.64885 0.825199 0
M  V30 5538 H 502.38 -4.80507 1.06649 0
M  V30 5539 N 504.032 -0.577932 -1.46621 0
M  V30 5540 C 504.962 0.145917 -2.33044 0
M  V30 5541 C 505.943 0.888412 -1.45056 0
M  V30 5542 O 507.128 0.864812 -1.73881 0
M  V30 5543 C 504.258 1.16322 -3.27241 0
M  V30 5544 C 503.212 0.535868 -4.24632 0
M  V30 5545 C 502.538 1.65929 -5.08303 0
M  V30 5546 C 503.838 -0.523861 -5.19666 0
M  V30 5547 H 505.532 -0.575636 -2.93814 0
M  V30 5548 H 503.078 -0.278272 -1.41286 0
M  V30 5549 H 505.031 1.67793 -3.86553 0
M  V30 5550 H 503.755 1.91498 -2.64567 0
M  V30 5551 H 502.414 0.0422759 -3.66576 0
M  V30 5552 H 502.062 2.40061 -4.42018 0
M  V30 5553 H 501.762 1.2452 -5.74255 0
M  V30 5554 H 503.286 2.17686 -5.70478 0
M  V30 5555 H 504.7 -0.0944059 -5.73222 0
M  V30 5556 H 503.097 -0.858 -5.93935 0
M  V30 5557 H 504.167 -1.41197 -4.63887 0
M  V30 5558 N 505.51 1.54411 -0.315457 0
M  V30 5559 C 506.735 2.05299 0.294496 0
M  V30 5560 C 507.16 1.19052 1.4563 0
M  V30 5561 O 506.518 0.197804 1.80218 0
M  V30 5562 C 506.566 3.5345 0.714549 0
M  V30 5563 O 505.67 3.70175 1.81781 0
M  V30 5564 H 505.011 0.661743 0.0547019 0
M  V30 5565 H 507.541 1.99327 -0.461508 0
M  V30 5566 H 507.551 3.9557 0.999426 0
M  V30 5567 H 506.226 4.1568 -0.135244 0
M  V30 5568 H 504.803 3.3996 1.53236 0
M  V30 5569 N 506.988 0.0434614 1.5754 0
M  V30 5570 C 507.918 -0.931651 2.14109 0
M  V30 5571 C 508.899 -1.32971 1.06079 0
M  V30 5572 O 510.084 -1.40579 1.33982 0
M  V30 5573 C 507.214 -2.20914 2.67982 0
M  V30 5574 C 506.168 -1.95139 3.80926 0
M  V30 5575 C 505.494 -3.29276 4.21285 0
M  V30 5576 C 506.794 -1.27913 5.06395 0
M  V30 5577 H 508.488 -0.460497 2.95837 0
M  V30 5578 H 506.034 -0.220058 1.42309 0
M  V30 5579 H 507.987 -2.89522 3.06194 0
M  V30 5580 H 506.711 -2.70221 1.83434 0
M  V30 5581 H 505.37 -1.28945 3.43175 0
M  V30 5582 H 505.018 -3.76369 3.33699 0
M  V30 5583 H 504.718 -3.12831 4.97404 0
M  V30 5584 H 506.242 -3.99129 4.62091 0
M  V30 5585 H 507.656 -1.86544 5.42102 0
M  V30 5586 H 506.053 -1.2182 5.87605 0
M  V30 5587 H 507.123 -0.254066 4.84234 0
M  V30 5588 N 508.466 -1.55915 -0.229846 0
M  V30 5589 C 509.743 -1.6932 -0.979295 0
M  V30 5590 C 510.123 -0.588321 -2.02736 0
M  V30 5591 O 509.471 0.40586 -2.24867 0
M  V30 5592 C 509.681 -3.10305 -1.59724 0
M  V30 5593 C 511.029 -3.6945 -2.09264 0
M  V30 5594 O 512.053 -3.13214 -1.69633 0
M  V30 5595 O 510.912 -4.68072 -2.82082 0
M  V30 5596 H 508.006 -0.689314 -0.456919 0
M  V30 5597 H 510.552 -1.68238 -0.222283 0
M  V30 5598 H 509.324 -3.82177 -0.840039 0
M  V30 5599 H 508.947 -3.1547 -2.42001 0
M  V30 5600 N 509.944 0.496216 -1.49584 0
M  V30 5601 C 510.876 1.61404 -1.62731 0
M  V30 5602 C 511.889 1.54613 -0.50978 0
M  V30 5603 O 513.078 1.60458 -0.782017 0
M  V30 5604 C 510.178 3.00212 -1.57245 0
M  V30 5605 C 509.351 3.32138 -2.84611 0
M  V30 5606 C 508.41 4.5038 -2.72112 0
M  V30 5607 O 507.436 4.51926 -3.46051 0
M  V30 5608 N 508.638 5.50575 -1.83977 0
M  V30 5609 H 511.403 1.50552 -2.59141 0
M  V30 5610 H 508.964 0.684182 -1.46733 0
M  V30 5611 H 510.956 3.77241 -1.4653 0
M  V30 5612 H 509.526 3.04964 -0.686729 0
M  V30 5613 H 508.746 2.4396 -3.09641 0
M  V30 5614 H 510.034 3.50268 -3.69039 0
M  V30 5615 H 509.432 5.52128 -1.23171 0
M  V30 5616 H 507.989 6.26687 -1.79182 0
M  V30 5617 N 511.423 1.38739 0.74761 0
M  V30 5618 C 512.355 1.32341 1.87132 0
M  V30 5619 C 513.368 0.234502 1.61102 0
M  V30 5620 O 514.557 0.492516 1.71571 0
M  V30 5621 C 511.657 1.02915 3.22896 0
M  V30 5622 C 510.83 2.22834 3.76383 0
M  V30 5623 C 509.889 1.90059 4.90677 0
M  V30 5624 O 508.915 2.62615 5.04997 0
M  V30 5625 N 510.117 0.859141 5.74107 0
M  V30 5626 H 512.882 2.29175 1.93129 0
M  V30 5627 H 510.443 1.32678 0.927805 0
M  V30 5628 H 512.435 0.79031 3.96908 0
M  V30 5629 H 511.005 0.148572 3.12247 0
M  V30 5630 H 510.225 2.62747 2.93867 0
M  V30 5631 H 511.513 3.02851 4.08851 0
M  V30 5632 H 510.911 0.257564 5.65113 0
M  V30 5633 H 509.468 0.680189 6.48241 0
M  V30 5634 N 512.901 -0.976442 1.23707 0
M  V30 5635 C 513.864 -2.0511 1.02287 0
M  V30 5636 C 514.864 -1.60791 -0.0167195 0
M  V30 5637 O 516.054 -1.72761 0.223408 0
M  V30 5638 C 513.186 -3.36458 0.548507 0
M  V30 5639 H 514.379 -2.25545 1.9766 0
M  V30 5640 H 511.932 -1.15042 1.05806 0
M  V30 5641 H 512.667 -3.21713 -0.408818 0
M  V30 5642 H 512.452 -3.69967 1.29874 0
M  V30 5643 H 513.942 -4.15489 0.419406 0
M  V30 5644 N 514.379 -1.04941 -1.1758 0
M  V30 5645 C 515.309 -0.669172 -2.23706 0
M  V30 5646 C 516.29 0.331835 -1.66832 0
M  V30 5647 O 517.475 0.209988 -1.93061 0
M  V30 5648 C 514.605 -0.0404889 -3.47276 0
M  V30 5649 C 513.559 -0.965983 -4.16957 0
M  V30 5650 C 512.885 -0.201312 -5.34321 0
M  V30 5651 C 514.185 -2.28902 -4.69469 0
M  V30 5652 H 515.879 -1.55639 -2.55767 0
M  V30 5653 H 513.425 -0.749793 -1.22939 0
M  V30 5654 H 515.378 0.237298 -4.20731 0
M  V30 5655 H 514.102 0.881658 -3.14475 0
M  V30 5656 H 512.761 -1.22829 -3.45411 0
M  V30 5657 H 512.409 0.723519 -4.97769 0
M  V30 5658 H 512.109 -0.817968 -5.81879 0
M  V30 5659 H 513.633 0.0692499 -6.10561 0
M  V30 5660 H 515.047 -2.07132 -5.34574 0
M  V30 5661 H 513.444 -2.85942 -5.27596 0
M  V30 5662 H 514.514 -2.92937 -3.86414 0
M  V30 5663 N 515.857 1.33968 -0.830081 0
M  V30 5664 C 516.787 2.31911 -0.271911 0
M  V30 5665 C 517.768 1.58571 0.61556 0
M  V30 5666 O 518.953 1.86514 0.540946 0
M  V30 5667 C 516.083 3.42737 0.561146 0
M  V30 5668 C 515.037 4.27383 -0.229789 0
M  V30 5669 C 514.363 5.29742 0.726463 0
M  V30 5670 C 515.663 5.02 -1.44197 0
M  V30 5671 H 517.357 2.78844 -1.09025 0
M  V30 5672 H 514.903 1.34061 -0.52571 0
M  V30 5673 H 516.856 4.10276 0.961867 0
M  V30 5674 H 515.58 2.94471 1.41261 0
M  V30 5675 H 514.239 3.61456 -0.611964 0
M  V30 5676 H 513.887 4.77736 1.57408 0
M  V30 5677 H 513.587 5.87255 0.20142 0
M  V30 5678 H 515.111 6.00149 1.12489 0
M  V30 5679 H 516.525 5.62355 -1.11488 0
M  V30 5680 H 514.922 5.69122 -1.90317 0
M  V30 5681 H 515.992 4.31281 -2.2164 0
M  V30 5682 N 517.335 0.585699 1.46312 0
M  V30 5683 C 518.581 0.0725284 2.0267 0
M  V30 5684 C 518.914 -1.28523 1.45586 0
M  V30 5685 O 518.189 -1.84283 0.622101 0
M  V30 5686 C 518.472 0.0099788 3.60099 0
M  V30 5687 C 518.325 1.39685 4.27561 0
M  V30 5688 C 519.644 -0.689117 4.34671 0
M  V30 5689 H 516.763 0.0278307 0.736474 0
M  V30 5690 H 519.405 0.753472 1.74421 0
M  V30 5691 H 517.555 -0.56992 3.84297 0
M  V30 5692 H 519.227 2.02215 4.14617 0
M  V30 5693 H 517.47 1.96374 3.86807 0
M  V30 5694 H 518.141 1.30553 5.36339 0
M  V30 5695 H 520.617 -0.196446 4.15636 0
M  V30 5696 H 519.493 -0.701921 5.44393 0
M  V30 5697 H 519.754 -1.75101 4.05946 0
M  V30 5698 N 518.813 -1.54241 0.323641 0
M  V30 5699 C 520.061 -2.00174 -0.278359 0
M  V30 5700 C 520.382 -1.2134 -1.52648 0
M  V30 5701 O 519.652 -0.315244 -1.93347 0
M  V30 5702 H 518.232 -0.739463 -0.105845 0
M  V30 5703 H 520.894 -1.89864 0.440204 0
M  V30 5704 H 519.99 -3.07486 -0.5347 0
M  V30 5705 N 520.291 -0.0518155 -1.57515 0
M  V30 5706 C 521.224 0.957758 -2.07129 0
M  V30 5707 C 522.202 1.30355 -0.971927 0
M  V30 5708 O 523.386 1.41631 -1.2439 0
M  V30 5709 C 520.513 2.27157 -2.51232 0
M  V30 5710 C 519.559 2.07879 -3.72409 0
M  V30 5711 S 520.392 1.35656 -5.18033 0
M  V30 5712 C 521.548 2.68359 -5.65451 0
M  V30 5713 H 521.781 0.53552 -2.92437 0
M  V30 5714 H 519.314 0.160465 -1.53564 0
M  V30 5715 H 521.272 3.02676 -2.77304 0
M  V30 5716 H 519.933 2.66509 -1.66228 0
M  V30 5717 H 519.126 3.05061 -4.01191 0
M  V30 5718 H 518.728 1.40499 -3.46606 0
M  V30 5719 H 521.02 3.64526 -5.71076 0
M  V30 5720 H 521.963 2.44213 -6.64654 0
M  V30 5721 H 522.371 2.74647 -4.93183 0
M  V30 5722 N 521.769 1.56035 0.221574 0
M  V30 5723 C 523.015 1.79312 0.947372 0
M  V30 5724 C 523.348 0.621453 1.83988 0
M  V30 5725 O 522.623 -0.379287 1.90766 0
M  V30 5726 C 522.906 3.1267 1.78633 0
M  V30 5727 C 522.759 4.40284 0.920312 0
M  V30 5728 C 524.078 3.4247 2.7641 0
M  V30 5729 H 521.197 0.652328 0.342982 0
M  V30 5730 H 523.839 1.88765 0.216244 0
M  V30 5731 H 521.989 3.04741 2.40967 0
M  V30 5732 H 523.661 4.60232 0.313718 0
M  V30 5733 H 521.904 4.33212 0.225734 0
M  V30 5734 H 522.575 5.30033 1.54171 0
M  V30 5735 H 525.051 3.50526 2.24211 0
M  V30 5736 H 523.927 4.3695 3.32213 0
M  V30 5737 H 524.188 2.64635 3.54148 0
M  V30 5738 N 523.247 -0.488276 1.49845 0
M  V30 5739 C 524.194 -1.58836 1.67451 0
M  V30 5740 C 525.164 -1.57886 0.515857 0
M  V30 5741 O 526.349 -1.75679 0.744403 0
M  V30 5742 C 523.489 -2.96915 1.75885 0
M  V30 5743 C 522.602 -3.07784 3.03138 0
M  V30 5744 C 521.737 -4.36673 3.02473 0
M  V30 5745 C 520.776 -4.41222 4.24252 0
M  V30 5746 N 519.913 -5.61557 4.21424 0
M  V30 5747 H 524.753 -1.43131 2.61376 0
M  V30 5748 H 522.29 -0.696186 1.29583 0
M  V30 5749 H 524.248 -3.76965 1.78755 0
M  V30 5750 H 522.878 -3.11295 0.85414 0
M  V30 5751 H 521.93 -2.20717 3.09819 0
M  V30 5752 H 523.242 -3.07005 3.93128 0
M  V30 5753 H 522.396 -5.25055 3.03977 0
M  V30 5754 H 521.135 -4.40037 2.10283 0
M  V30 5755 H 520.14 -3.5124 4.22978 0
M  V30 5756 H 521.365 -4.39564 5.17649 0
M  V30 5757 H 519.311 -5.65738 3.32078 0
M  V30 5758 H 519.228 -5.62447 5.05163 0
M  V30 5759 H 520.496 -6.52111 4.2705 0
M  V30 5760 N 524.725 -1.39134 -0.740242 0
M  V30 5761 C 525.973 -1.35803 -1.49673 0
M  V30 5762 C 526.294 0.0470897 -1.94943 0
M  V30 5763 O 525.564 0.997347 -1.68611 0
M  V30 5764 H 524.144 -0.499736 -0.555224 0
M  V30 5765 H 526.806 -1.73947 -0.879107 0
M  V30 5766 H 525.902 -2.0174 -2.38133 0
M  V30 5767 N 526.204 0.969867 -1.24223 0
M  V30 5768 C 527.167 2.04564 -1.03373 0
M  V30 5769 C 528.167 1.60798 0.00819206 0
M  V30 5770 O 529.357 1.72641 -0.232567 0
M  V30 5771 C 526.489 3.36163 -0.566343 0
M  V30 5772 H 527.682 2.24494 -1.98853 0
M  V30 5773 H 525.235 1.1448 -1.06415 0
M  V30 5774 H 525.97 3.21925 0.391751 0
M  V30 5775 H 525.755 3.69273 -1.31834 0
M  V30 5776 H 527.245 4.1526 -0.441435 0
M  V30 5777 N 527.682 1.05563 1.17022 0
M  V30 5778 C 528.907 0.788437 1.91829 0
M  V30 5779 C 529.332 -0.650356 1.76499 0
M  V30 5780 O 528.69 -1.45229 1.08527 0
M  V30 5781 C 528.738 1.1786 3.40795 0
M  V30 5782 O 527.842 0.312965 4.11211 0
M  V30 5783 H 527.183 0.288794 0.597908 0
M  V30 5784 H 529.713 1.40948 1.48307 0
M  V30 5785 H 529.723 1.14697 3.91546 0
M  V30 5786 H 528.398 2.22666 3.51273 0
M  V30 5787 H 526.975 0.405515 3.70689 0
M  V30 5788 N 529.16 -1.33526 0.837174 0
M  V30 5789 C 530.409 -1.97098 0.428387 0
M  V30 5790 C 530.722 -1.67062 -1.01734 0
M  V30 5791 O 531.928 -2.24235 -1.53072 0
M  V30 5792 C 530.384 -3.52725 0.715075 0
M  V30 5793 C 529.992 -3.9164 2.17537 0
M  V30 5794 C 531.736 -4.22857 0.373154 0
M  V30 5795 C 529.643 -5.40237 2.40619 0
M  V30 5796 H 528.573 -0.737589 0.156455 0
M  V30 5797 H 531.224 -1.52169 1.02552 0
M  V30 5798 H 529.606 -3.95971 0.0475904 0
M  V30 5799 H 530.78 -3.59456 2.88319 0
M  V30 5800 H 529.095 -3.34485 2.4801 0
M  V30 5801 H 531.692 -5.32133 0.523264 0
M  V30 5802 H 532.035 -4.10647 -0.683708 0
M  V30 5803 H 532.568 -3.85135 0.995801 0
M  V30 5804 H 529.307 -5.57449 3.44864 0
M  V30 5805 H 528.827 -5.73887 1.74396 0
M  V30 5806 H 530.506 -6.07102 2.23688 0
M  V30 5807 N 530.638 -0.59345 -1.46 0
M  V30 5808 C 531.868 -0.0889642 -2.06408 0
M  V30 5809 C 532.276 1.22597 -1.44106 0
M  V30 5810 O 531.619 1.75448 -0.544398 0
M  V30 5811 C 531.681 0.139902 -3.59228 0
M  V30 5812 C 531.345 -1.09107 -4.43784 0
M  V30 5813 C 532.342 -2.00577 -4.79651 0
M  V30 5814 C 530.027 -1.31593 -4.84756 0
M  V30 5815 C 532.021 -3.12873 -5.55328 0
M  V30 5816 C 529.708 -2.44192 -5.60191 0
M  V30 5817 C 530.706 -3.34661 -5.95392 0
M  V30 5818 O 530.394 -4.45302 -6.69299 0
M  V30 5819 H 530.126 -0.0594613 -0.67338 0
M  V30 5820 H 532.68 -0.817 -1.88452 0
M  V30 5821 H 530.91 0.922672 -3.75531 0
M  V30 5822 H 532.599 0.594228 -4.01527 0
M  V30 5823 H 533.365 -1.84425 -4.48567 0
M  V30 5824 H 529.244 -0.620801 -4.56801 0
M  V30 5825 H 532.788 -3.83511 -5.82722 0
M  V30 5826 H 528.685 -2.60303 -5.90688 0
M  V30 5827 H 529.453 -4.43805 -6.87735 0
M  V30 5828 N 532.116 1.54067 -0.331816 0
M  V30 5829 C 533.064 2.26105 0.54582 0
M  V30 5830 C 534.058 1.27816 1.11173 0
M  V30 5831 O 535.264 1.45565 1.05882 0
M  V30 5832 H 531.639 0.726363 0.194683 0
M  V30 5833 H 533.61 2.98282 -0.083931 0
M  V30 5834 C 532.359 3.03814 1.69092 0
M  V30 5835 H 531.682 3.79269 1.26473 0
M  V30 5836 H 533.122 3.57453 2.28043 0
M  V30 5837 C 531.581 2.12606 2.61343 0
M  V30 5838 O 532.111 1.71437 3.6328 0
M  V30 5839 N 530.317 1.77925 2.29763 0
M  V30 5840 H 529.864 2.11602 1.46909 0
M  V30 5841 H 529.822 1.1718 2.91747 0
M  V30 5842 N 533.594 0.0601682 1.57485 0
M  V30 5843 C 535.005 -0.474217 1.80577 0
M  V30 5844 C 535.356 -1.70365 0.973147 0
M  V30 5845 O 534.481 -2.15544 0.192306 0
M  V30 5846 C 535.076 -0.867102 3.27516 0
M  V30 5847 C 533.635 -1.34642 3.51495 0
M  V30 5848 C 532.782 -0.32594 2.75378 0
M  V30 5849 H 535.733 0.285973 1.56102 0
M  V30 5850 H 535.754 -1.72938 3.38929 0
M  V30 5851 H 535.266 0.0278927 3.8809 0
M  V30 5852 H 533.367 -2.2603 2.96212 0
M  V30 5853 H 533.48 -1.33237 4.60201 0
M  V30 5854 H 531.844 -0.800749 2.41785 0
M  V30 5855 H 532.627 0.561125 3.38683 0
M  V30 5856 N 535.072 -1.5615 -0.213296 0
M  V30 5857 C 536.318 -1.80718 -0.933402 0
M  V30 5858 C 536.673 -0.634441 -1.81639 0
M  V30 5859 O 535.966 0.371182 -1.8797 0
M  V30 5860 C 536.16 -3.08772 -1.79985 0
M  V30 5861 C 535.989 -4.38389 -1.00224 0
M  V30 5862 C 534.759 -5.00513 -0.693885 0
M  V30 5863 C 536.957 -5.13013 -0.363598 0
M  V30 5864 N 534.939 -6.13774 0.124266 0
M  V30 5865 C 536.31 -6.19186 0.31757 0
M  V30 5866 C 538.365 -4.97126 -0.277468 0
M  V30 5867 C 537.068 -7.11197 1.07664 0
M  V30 5868 C 539.094 -5.89544 0.468155 0
M  V30 5869 C 538.456 -6.95149 1.13784 0
M  V30 5870 H 534.555 -0.712833 -0.321549 0
M  V30 5871 H 537.139 -1.93633 -0.203588 0
M  V30 5872 H 535.31 -2.97126 -2.50142 0
M  V30 5873 H 537.042 -3.21499 -2.45806 0
M  V30 5874 H 533.797 -4.62619 -1.01391 0
M  V30 5875 H 534.221 -6.74981 0.522418 0
M  V30 5876 H 538.863 -4.15526 -0.78087 0
M  V30 5877 H 536.581 -7.92273 1.59153 0
M  V30 5878 H 540.167 -5.79327 0.535911 0
M  V30 5879 H 539.047 -7.65428 1.70557 0
M  V30 5880 N 536.55 0.480323 -1.50102 0
M  V30 5881 C 537.966 0.813295 -1.37323 0
M  V30 5882 C 538.166 1.97027 -0.422206 0
M  V30 5883 O 537.222 2.5212 0.138563 0
M  V30 5884 C 538.535 1.13404 -2.78496 0
M  V30 5885 C 540.083 1.24104 -2.87345 0
M  V30 5886 C 540.558 1.59497 -4.29331 0
M  V30 5887 N 542.049 1.66507 -4.32238 0
M  V30 5888 C 542.784 1.95378 -5.39087 0
M  V30 5889 N 542.28 2.22333 -6.56155 0
M  V30 5890 N 544.073 1.96803 -5.26522 0
M  V30 5891 H 536.224 -0.282291 -2.10516 0
M  V30 5892 H 538.487 -0.063752 -0.945854 0
M  V30 5893 H 538.193 0.357064 -3.49883 0
M  V30 5894 H 538.067 2.07251 -3.15162 0
M  V30 5895 H 540.454 2.00871 -2.16183 0
M  V30 5896 H 540.535 0.282593 -2.54234 0
M  V30 5897 H 540.179 0.832736 -5.01027 0
M  V30 5898 H 540.109 2.56477 -4.59921 0
M  V30 5899 H 542.6 1.47753 -3.47818 0
M  V30 5900 H 542.913 2.43611 -7.33399 0
M  V30 5901 H 541.258 2.19745 -6.59346 0
M  V30 5902 H 544.449 1.75235 -4.34062 0
M  V30 5903 H 544.622 2.18969 -6.09883 0
M  V30 5904 N 538.028 1.39524 0.732853 0
M  V30 5905 C 538.976 1.38563 1.86824 0
M  V30 5906 C 539.97 0.268467 1.67259 0
M  V30 5907 O 541.176 0.438613 1.74574 0
M  V30 5908 H 537.551 0.432737 0.615014 0
M  V30 5909 H 539.522 2.34328 1.84751 0
M  V30 5910 C 538.271 1.2481 3.24527 0
M  V30 5911 H 537.594 2.10044 3.40179 0
M  V30 5912 H 539.034 1.28194 4.04156 0
M  V30 5913 C 537.493 -0.0432825 3.36872 0
M  V30 5914 O 538.023 -1.01268 3.88726 0
M  V30 5915 N 536.229 -0.107055 2.90403 0
M  V30 5916 H 535.776 0.682512 2.48394 0
M  V30 5917 H 535.734 -0.970618 2.99042 0
M  V30 5918 N 539.506 -0.963266 1.24736 0
M  V30 5919 C 540.917 -1.52145 1.08207 0
M  V30 5920 C 541.268 -1.93142 -0.345061 0
M  V30 5921 O 540.393 -1.77769 -1.23399 0
M  V30 5922 C 540.988 -2.76486 1.95808 0
M  V30 5923 C 539.547 -3.28646 1.8349 0
M  V30 5924 C 538.694 -2.01529 1.90476 0
M  V30 5925 H 541.645 -0.781083 1.38148 0
M  V30 5926 H 541.666 -3.49986 1.49297 0
M  V30 5927 H 541.178 -2.46617 2.99669 0
M  V30 5928 H 539.279 -3.63357 0.824787 0
M  V30 5929 H 539.392 -3.97246 2.67829 0
M  V30 5930 H 537.756 -2.16442 1.34258 0
M  V30 5931 H 538.539 -1.7402 2.95926 0
M  V30 5932 N 540.985 -1.06182 -1.16461 0
M  V30 5933 C 541.932 -0.671613 -2.20812 0
M  V30 5934 C 542.902 0.331186 -1.62765 0
M  V30 5935 O 544.087 0.22033 -1.89524 0
M  V30 5936 C 541.227 -0.063029 -3.45042 0
M  V30 5937 C 540.34 -1.11587 -4.1734 0
M  V30 5938 C 539.475 -0.473546 -5.29085 0
M  V30 5939 C 538.514 -1.51 -5.93182 0
M  V30 5940 N 537.651 -0.891118 -6.96422 0
M  V30 5941 H 542.491 -1.56589 -2.53542 0
M  V30 5942 H 540.028 -0.782951 -1.24532 0
M  V30 5943 H 541.986 0.307344 -4.16066 0
M  V30 5944 H 540.616 0.794663 -3.12866 0
M  V30 5945 H 539.668 -1.60396 -3.44931 0
M  V30 5946 H 540.98 -1.90221 -4.61104 0
M  V30 5947 H 540.134 -0.0501432 -6.06679 0
M  V30 5948 H 538.873 0.344687 -4.8648 0
M  V30 5949 H 537.878 -1.94331 -5.14311 0
M  V30 5950 H 539.103 -2.33031 -6.37866 0
M  V30 5951 H 537.049 -0.0935753 -6.55933 0
M  V30 5952 H 536.966 -1.61486 -7.38551 0
M  V30 5953 H 538.234 -0.492822 -7.77941 0
M  V30 5954 N 542.463 1.3308 -0.844243 0
M  V30 5955 C 543.393 2.3161 -0.296493 0
M  V30 5956 C 544.374 1.59215 0.598707 0
M  V30 5957 O 545.559 1.87077 0.521134 0
M  V30 5958 C 542.689 3.43313 0.524762 0
M  V30 5959 C 541.643 4.27115 -0.275106 0
M  V30 5960 C 540.969 5.30483 0.670236 0
M  V30 5961 C 542.269 5.00443 -1.49514 0
M  V30 5962 H 543.963 2.77672 -1.11976 0
M  V30 5963 H 541.509 1.33496 -0.539899 0
M  V30 5964 H 543.462 4.11273 0.918298 0
M  V30 5965 H 542.186 2.95952 1.3813 0
M  V30 5966 H 540.845 3.60787 -0.650267 0
M  V30 5967 H 540.493 4.79379 1.52332 0
M  V30 5968 H 540.193 5.87435 0.139123 0
M  V30 5969 H 541.717 6.01308 1.06117 0
M  V30 5970 H 543.131 5.61141 -1.17447 0
M  V30 5971 H 541.528 5.67071 -1.96343 0
M  V30 5972 H 542.598 4.28906 -2.26202 0
M  V30 5973 N 543.941 0.601185 1.45683 0
M  V30 5974 C 544.904 -0.111398 2.28929 0
M  V30 5975 C 545.904 -0.801246 1.39416 0
M  V30 5976 O 547.094 -0.650383 1.61603 0
M  V30 5977 C 544.226 -1.16773 3.20276 0
M  V30 5978 H 545.419 0.620412 2.93413 0
M  V30 5979 H 542.972 0.359946 1.52099 0
M  V30 5980 H 543.707 -1.93051 2.60579 0
M  V30 5981 H 543.492 -0.677358 3.86205 0
M  V30 5982 H 544.982 -1.66698 3.82886 0
M  V30 5983 N 545.419 -1.53889 0.339982 0
M  V30 5984 C 546.349 -2.27843 -0.510856 0
M  V30 5985 C 547.33 -1.29267 -1.10563 0
M  V30 5986 O 548.515 -1.58104 -1.12768 0
M  V30 5987 C 545.645 -3.04857 -1.66372 0
M  V30 5988 C 544.599 -4.10907 -1.19746 0
M  V30 5989 C 543.925 -4.75855 -2.43857 0
M  V30 5990 C 545.225 -5.21435 -0.300501 0
M  V30 5991 H 546.919 -2.99212 0.106067 0
M  V30 5992 H 544.465 -1.43904 0.0524533 0
M  V30 5993 H 546.418 -3.5533 -2.26537 0
M  V30 5994 H 545.142 -2.31133 -2.30749 0
M  V30 5995 H 543.801 -3.61342 -0.618654 0
M  V30 5996 H 543.449 -3.9873 -3.06633 0
M  V30 5997 H 543.149 -5.47502 -2.13343 0
M  V30 5998 H 544.673 -5.2911 -3.04754 0
M  V30 5999 H 546.087 -5.67565 -0.80889 0
M  V30 6000 H 544.484 -6.00036 -0.0874076 0
M  V30 6001 H 545.554 -4.80328 0.664321 0
M  V30 6002 N 546.897 -0.0685191 -1.57451 0
M  V30 6003 C 547.807 0.914677 -2.16034 0
M  V30 6004 C 548.823 1.32938 -1.12265 0
M  V30 6005 O 549.999 1.40275 -1.44516 0
M  V30 6006 C 547.064 2.16519 -2.70777 0
M  V30 6007 C 546.125 1.80721 -3.89408 0
M  V30 6008 C 545.358 2.9981 -4.41531 0
M  V30 6009 O 545.581 4.13727 -3.92666 0
M  V30 6010 O 544.515 2.79817 -5.32903 0
M  V30 6011 H 548.341 0.446364 -3.00402 0
M  V30 6012 H 545.926 0.154367 -1.486 0
M  V30 6013 H 547.808 2.89856 -3.05878 0
M  V30 6014 H 546.483 2.62454 -1.89471 0
M  V30 6015 H 545.39 1.04646 -3.59166 0
M  V30 6016 H 546.723 1.39571 -4.71997 0
M  V30 6017 N 548.375 1.56261 0.205012 0
M  V30 6018 C 549.791 1.49623 0.555433 0
M  V30 6019 C 549.991 0.766719 1.86343 0
M  V30 6020 O 549.047 0.313158 2.50551 0
M  V30 6021 C 550.36 2.94253 0.619347 0
M  V30 6022 C 551.908 3.04868 0.708855 0
M  V30 6023 C 552.383 4.50888 0.803969 0
M  V30 6024 N 553.874 4.54999 0.867758 0
M  V30 6025 C 554.609 5.65284 0.96135 0
M  V30 6026 N 554.105 6.85282 1.01786 0
M  V30 6027 N 555.898 5.53174 0.997771 0
M  V30 6028 H 548.049 2.0211 -0.653094 0
M  V30 6029 H 550.312 0.919333 -0.231366 0
M  V30 6030 H 550.018 3.50643 -0.272458 0
M  V30 6031 H 549.892 3.47063 1.47741 0
M  V30 6032 H 552.279 2.48532 1.5911 0
M  V30 6033 H 552.36 2.55199 -0.175205 0
M  V30 6034 H 552.004 5.07846 -0.0738798 0
M  V30 6035 H 551.934 4.98279 1.70369 0
M  V30 6036 H 554.425 3.68588 0.833735 0
M  V30 6037 H 554.738 7.65081 1.08951 0
M  V30 6038 H 553.083 6.8796 0.986706 0
M  V30 6039 H 556.274 4.5835 0.950392 0
M  V30 6040 H 556.447 6.39151 1.06725 0
M  V30 6041 N 549.853 -0.472356 1.50355 0
M  V30 6042 C 551.269 -0.806001 1.37753 0
M  V30 6043 C 551.469 -1.968 0.432649 0
M  V30 6044 O 550.525 -2.52189 -0.12519 0
M  V30 6045 C 551.838 -1.11926 2.79093 0
M  V30 6046 C 553.386 -1.22579 2.87999 0
M  V30 6047 C 553.861 -1.57218 4.3017 0
M  V30 6048 N 555.352 -1.64212 4.33115 0
M  V30 6049 C 556.087 -1.92517 5.40116 0
M  V30 6050 N 555.583 -2.1885 6.57325 0
M  V30 6051 N 557.376 -1.94008 5.27558 0
M  V30 6052 H 549.527 0.293451 2.10363 0
M  V30 6053 H 551.79 0.0687672 0.945503 0
M  V30 6054 H 551.496 -0.338504 3.50067 0
M  V30 6055 H 551.37 -2.05577 3.16256 0
M  V30 6056 H 553.757 -1.99722 2.17245 0
M  V30 6057 H 553.838 -0.269107 2.54381 0
M  V30 6058 H 553.482 -0.806154 5.01461 0
M  V30 6059 H 553.412 -2.54034 4.61275 0
M  V30 6060 H 555.903 -1.45906 3.48597 0
M  V30 6061 H 556.216 -2.39718 7.3468 0
M  V30 6062 H 554.561 -2.16245 6.60502 0
M  V30 6063 H 557.752 -1.72931 4.34986 0
M  V30 6064 H 557.925 -2.15731 6.11035 0
M  V30 6065 N 551.331 -1.39911 -0.725443 0
M  V30 6066 C 552.279 -1.39552 -1.86086 0
M  V30 6067 C 553.273 -0.277334 -1.67114 0
M  V30 6068 O 554.479 -0.447865 -1.74339 0
M  V30 6069 H 550.854 -0.435993 -0.612711 0
M  V30 6070 H 552.825 -2.35305 -1.83505 0
M  V30 6071 C 551.574 -1.26529 -3.2386 0
M  V30 6072 H 550.897 -2.11845 -3.3906 0
M  V30 6073 H 552.337 -1.30336 -4.03471 0
M  V30 6074 C 550.796 0.0254168 -3.3689 0
M  V30 6075 O 551.326 0.992048 -3.89257 0
M  V30 6076 N 549.532 0.0916528 -2.90455 0
M  V30 6077 H 549.079 -0.695675 -2.48028 0
M  V30 6078 H 549.037 0.954745 -2.99553 0
M  V30 6079 N 552.809 0.956637 -1.25245 0
M  V30 6080 C 553.739 2.07058 -1.07931 0
M  V30 6081 C 554.72 1.70096 0.0110361 0
M  V30 6082 O 555.905 1.93555 -0.158121 0
M  V30 6083 C 553.035 3.40272 -0.695124 0
M  V30 6084 C 551.989 3.91235 -1.73549 0
M  V30 6085 C 551.315 5.20921 -1.20604 0
M  V30 6086 C 552.615 4.17837 -3.13385 0
M  V30 6087 H 554.309 2.218 -2.01109 0
M  V30 6088 H 551.855 1.06581 -0.968326 0
M  V30 6089 H 553.808 4.1765 -0.560949 0
M  V30 6090 H 552.532 3.25462 0.272355 0
M  V30 6091 H 551.191 3.16025 -1.85807 0
M  V30 6092 H 550.839 5.02479 -0.228846 0
M  V30 6093 H 550.539 5.55987 -1.90136 0
M  V30 6094 H 552.063 6.00897 -1.08421 0
M  V30 6095 H 553.477 4.8588 -3.04292 0
M  V30 6096 H 551.874 4.64154 -3.80369 0
M  V30 6097 H 552.944 3.2419 -3.60595 0
M  V30 6098 N 554.287 1.06798 1.15896 0
M  V30 6099 C 555.533 0.788934 1.86825 0
M  V30 6100 C 555.866 -0.683084 1.8179 0
M  V30 6101 O 555.141 -1.50086 1.23711 0
M  V30 6102 C 555.424 1.29065 3.36176 0
M  V30 6103 C 555.277 2.8268 3.49874 0
M  V30 6104 C 556.596 0.902655 4.30744 0
M  V30 6105 H 553.715 0.288066 0.678371 0
M  V30 6106 H 556.357 1.32479 1.36195 0
M  V30 6107 H 554.507 0.834806 3.79425 0
M  V30 6108 H 556.179 3.36511 3.15528 0
M  V30 6109 H 554.422 3.21157 2.91617 0
M  V30 6110 H 555.093 3.12852 4.54783 0
M  V30 6111 H 557.569 1.29535 3.95424 0
M  V30 6112 H 556.445 1.28111 5.3374 0
M  V30 6113 H 556.706 -0.191951 4.41683 0
M  V30 6114 N 555.766 -1.3263 0.851289 0
M  V30 6115 C 556.696 -2.31449 0.308771 0
M  V30 6116 C 557.677 -1.59531 -0.590255 0
M  V30 6117 O 558.862 -1.87351 -0.511205 0
M  V30 6118 C 555.992 -3.43586 -0.506548 0
M  V30 6119 C 554.946 -4.26963 0.297753 0
M  V30 6120 C 554.272 -5.30831 -0.642094 0
M  V30 6121 C 555.572 -4.99643 1.52166 0
M  V30 6122 H 557.266 -2.77074 1.13447 0
M  V30 6123 H 554.812 -1.33207 0.546971 0
M  V30 6124 H 556.765 -4.11754 -0.896474 0
M  V30 6125 H 555.489 -2.96681 -1.36558 0
M  V30 6126 H 554.148 -3.60437 0.669391 0
M  V30 6127 H 553.796 -4.8018 -1.49788 0
M  V30 6128 H 553.496 -5.87501 -0.107968 0
M  V30 6129 H 555.02 -6.01862 -1.02927 0
M  V30 6130 H 556.434 -5.6051 1.20421 0
M  V30 6131 H 554.831 -5.66022 1.99347 0
M  V30 6132 H 555.901 -4.27701 2.28474 0
M  V30 6133 N 557.244 -0.608902 -1.45362 0
M  V30 6134 C 558.66 -0.272659 -1.57254 0
M  V30 6135 C 558.86 1.22477 -1.60005 0
M  V30 6136 O 557.916 2.00785 -1.53106 0
M  V30 6137 C 559.229 -0.944991 -2.85465 0
M  V30 6138 C 560.777 -0.921033 -2.99142 0
M  V30 6139 C 561.252 -1.5734 -4.30126 0
M  V30 6140 N 562.743 -1.53895 -4.36887 0
M  V30 6141 C 563.478 -2.01286 -5.36909 0
M  V30 6142 N 562.974 -2.56768 -6.43461 0
M  V30 6143 N 564.767 -1.92046 -5.28275 0
M  V30 6144 H 556.918 -1.58117 -1.4182 0
M  V30 6145 H 559.181 -0.662437 -0.678146 0
M  V30 6146 H 558.887 -1.99941 -2.89338 0
M  V30 6147 H 558.761 -0.469079 -3.74272 0
M  V30 6148 H 561.148 0.124846 -2.94836 0
M  V30 6149 H 561.229 -1.43522 -2.11743 0
M  V30 6150 H 560.873 -2.61862 -4.35191 0
M  V30 6151 H 560.803 -1.03422 -5.16344 0
M  V30 6152 H 563.294 -1.13366 -3.60495 0
M  V30 6153 H 563.607 -2.9072 -7.16032 0
M  V30 6154 H 561.952 -2.60808 -6.44208 0
M  V30 6155 H 565.143 -1.48439 -4.43941 0
M  V30 6156 H 565.316 -2.29293 -6.06077 0
M  V30 6157 N 558.722 1.53707 -0.348139 0
M  V30 6158 C 559.652 2.28111 0.498766 0
M  V30 6159 C 560.633 1.29851 1.09876 0
M  V30 6160 O 561.818 1.587 1.11928 0
M  V30 6161 C 558.948 3.05735 1.64753 0
M  V30 6162 C 557.902 4.11537 1.17565 0
M  V30 6163 C 557.228 4.77142 2.4133 0
M  V30 6164 C 558.528 5.21587 0.272844 0
M  V30 6165 H 560.222 2.99152 -0.121934 0
M  V30 6166 H 557.768 1.43875 -0.0600842 0
M  V30 6167 H 559.721 3.56526 2.24649 0
M  V30 6168 H 558.445 2.32354 2.2952 0
M  V30 6169 H 557.104 3.61665 0.599483 0
M  V30 6170 H 556.752 4.0035 3.04514 0
M  V30 6171 H 556.452 5.48626 2.10436 0
M  V30 6172 H 557.976 5.30719 3.01943 0
M  V30 6173 H 559.39 5.67986 0.778779 0
M  V30 6174 H 557.787 6.00074 0.0555849 0
M  V30 6175 H 558.857 4.79969 -0.689785 0
M  V30 6176 N 560.2 0.0768682 1.57412 0
M  V30 6177 C 561.13 -0.886026 2.16037 0
M  V30 6178 C 562.111 -1.30691 1.08876 0
M  V30 6179 O 563.296 -1.37705 1.36934 0
M  V30 6180 C 560.426 -2.1518 2.72608 0
M  V30 6181 C 559.38 -1.87015 3.8498 0
M  V30 6182 C 558.706 -3.20266 4.28175 0
M  V30 6183 C 560.006 -1.17143 5.08994 0
M  V30 6184 H 561.7 -0.397642 2.96748 0
M  V30 6185 H 559.246 -0.189823 1.42743 0
M  V30 6186 H 561.199 -2.82962 3.12266 0
M  V30 6187 H 559.923 -2.66269 1.89125 0
M  V30 6188 H 558.582 -1.21636 3.45833 0
M  V30 6189 H 558.23 -3.69207 3.41607 0
M  V30 6190 H 557.93 -3.0221 5.03927 0
M  V30 6191 H 559.454 -3.89237 4.70454 0
M  V30 6192 H 560.868 -1.75003 5.45937 0
M  V30 6193 H 559.265 -1.09328 5.90057 0
M  V30 6194 H 560.335 -0.151295 4.84664 0
M  V30 6195 N 561.678 -1.56367 -0.196722 0
M  V30 6196 C 562.61 -1.90941 -1.26784 0
M  V30 6197 C 563.623 -0.799928 -1.41792 0
M  V30 6198 O 564.812 -1.07833 -1.42247 0
M  V30 6199 C 561.912 -2.12477 -2.6402 0
M  V30 6200 C 561.085 -3.43616 -2.70641 0
M  V30 6201 C 560.144 -3.54284 -3.89062 0
M  V30 6202 O 559.17 -4.2712 -3.76241 0
M  V30 6203 N 560.372 -2.87252 -5.04447 0
M  V30 6204 H 563.137 -2.83417 -0.974417 0
M  V30 6205 H 560.698 -1.57215 -0.386649 0
M  V30 6206 H 562.69 -2.16904 -3.41665 0
M  V30 6207 H 561.26 -1.26508 -2.85857 0
M  V30 6208 H 560.48 -3.51072 -1.79283 0
M  V30 6209 H 561.768 -4.29958 -2.72054 0
M  V30 6210 H 561.166 -2.27901 -5.17762 0
M  V30 6211 H 559.723 -2.97308 -5.80044 0
M  V30 6212 N 563.156 0.464375 -1.50603 0
M  V30 6213 C 564.088 1.57916 -1.66118 0
M  V30 6214 C 565.101 1.53497 -0.54246 0
M  V30 6215 O 566.29 1.58763 -0.815877 0
M  V30 6216 C 563.39 2.96809 -1.63577 0
M  V30 6217 C 562.563 3.26026 -2.91592 0
M  V30 6218 C 561.622 4.44506 -2.81604 0
M  V30 6219 O 560.648 4.44484 -3.55559 0
M  V30 6220 N 561.85 5.46549 -1.95614 0
M  V30 6221 H 564.615 1.45022 -2.62276 0
M  V30 6222 H 562.176 0.652903 -1.48151 0
M  V30 6223 H 564.168 3.74048 -1.54499 0
M  V30 6224 H 562.738 3.03438 -0.751262 0
M  V30 6225 H 561.958 2.37337 -3.14746 0
M  V30 6226 H 563.246 3.42361 -3.76386 0
M  V30 6227 H 562.644 5.49391 -1.34854 0
M  V30 6228 H 561.201 6.22746 -1.92435 0
M  V30 6229 N 564.634 1.40294 0.718013 0
M  V30 6230 C 565.566 1.36281 1.84283 0
M  V30 6231 C 566.579 0.268621 1.60569 0
M  V30 6232 O 567.768 0.528798 1.70487 0
M  V30 6233 C 564.868 1.09741 3.2064 0
M  V30 6234 C 564.041 2.30767 3.71571 0
M  V30 6235 C 563.1 2.00424 4.86535 0
M  V30 6236 O 562.126 2.73268 4.99313 0
M  V30 6237 N 563.328 0.980724 5.72156 0
M  V30 6238 H 566.093 2.3322 1.88225 0
M  V30 6239 H 563.654 1.34616 0.899453 0
M  V30 6240 H 565.646 0.874322 3.95143 0
M  V30 6241 H 564.216 0.214771 3.11861 0
M  V30 6242 H 563.436 2.68921 2.88228 0
M  V30 6243 H 564.724 3.11455 4.02335 0
M  V30 6244 H 564.122 0.377375 5.6444 0
M  V30 6245 H 562.679 0.817538 6.46653 0
M  V30 6246 N 566.112 -0.949982 1.2575 0
M  V30 6247 C 567.044 -2.05088 1.02331 0
M  V30 6248 C 568.057 -1.62795 -0.0133247 0
M  V30 6249 O 569.246 -1.77067 0.225759 0
M  V30 6250 C 566.346 -3.34794 0.525924 0
M  V30 6251 C 565.519 -4.05903 1.62978 0
M  V30 6252 C 564.578 -5.1388 1.13196 0
M  V30 6253 O 563.604 -5.39072 1.82729 0
M  V30 6254 N 564.806 -5.80495 -0.0242926 0
M  V30 6255 H 567.571 -2.25747 1.97125 0
M  V30 6256 H 565.132 -1.11886 1.17018 0
M  V30 6257 H 567.124 -4.04312 0.177263 0
M  V30 6258 H 565.694 -3.10872 -0.328202 0
M  V30 6259 H 564.914 -3.3042 2.1498 0
M  V30 6260 H 566.202 -4.50166 2.37124 0
M  V30 6261 H 565.6 -5.62454 -0.605184 0
M  V30 6262 H 564.157 -6.51043 -0.313947 0
M  V30 6263 N 567.59 -1.07411 -1.15328 0
M  V30 6264 C 568.839 -0.792643 -1.85473 0
M  V30 6265 C 569.152 0.683789 -1.83259 0
M  V30 6266 O 570.358 1.08005 -2.49093 0
M  V30 6267 C 568.814 -1.36787 -3.32892 0
M  V30 6268 C 568.422 -2.87536 -3.43551 0
M  V30 6269 C 570.166 -1.16444 -4.08217 0
M  V30 6270 C 568.073 -3.38247 -4.85122 0
M  V30 6271 H 567.003 -0.292838 -0.694811 0
M  V30 6272 H 569.654 -1.29426 -1.30082 0
M  V30 6273 H 568.036 -0.793993 -3.87958 0
M  V30 6274 H 569.21 -3.50973 -2.98588 0
M  V30 6275 H 567.525 -3.06676 -2.81672 0
M  V30 6276 H 570.122 -1.51808 -5.12697 0
M  V30 6277 H 570.465 -0.10353 -4.16171 0
M  V30 6278 H 570.998 -1.70472 -3.59422 0
M  V30 6279 H 567.737 -4.43866 -4.82351 0
M  V30 6280 H 567.257 -2.79564 -5.30664 0
M  V30 6281 H 568.936 -3.34238 -5.5398 0
M  V30 6282 N 569.068 1.32177 -0.85831 0
M  V30 6283 C 570.317 1.96392 -0.459689 0
M  V30 6284 C 570.63 1.68659 0.990632 0
M  V30 6285 O 571.836 2.26641 1.49485 0
M  V30 6286 C 570.292 3.51542 -0.7711 0
M  V30 6287 C 569.9 3.8813 -2.2374 0
M  V30 6288 C 571.644 4.2221 -0.44038 0
M  V30 6289 C 569.551 5.36341 -2.49183 0
M  V30 6290 H 568.481 0.735007 -0.168169 0
M  V30 6291 H 571.132 1.50518 -1.0496 0
M  V30 6292 H 569.514 3.95846 -0.11058 0
M  V30 6293 H 570.688 3.54824 -2.94001 0
M  V30 6294 H 569.003 3.30497 -2.533 0
M  V30 6295 H 571.6 5.31234 -0.607855 0
M  V30 6296 H 571.943 4.11683 0.618291 0
M  V30 6297 H 572.476 3.83502 -1.05695 0
M  V30 6298 H 569.215 5.51892 -3.53689 0
M  V30 6299 H 568.735 5.7104 -1.83504 0
M  V30 6300 H 570.414 6.03466 -2.33318 0
M  V30 6301 N 570.547 0.616602 1.45037 0
M  V30 6302 C 571.824 0.0469086 1.95544 0
M  V30 6303 C 572.204 -1.42345 1.55888 0
M  V30 6304 O 571.552 -2.13055 0.825824 0
M  V30 6305 C 571.762 0.254489 3.48071 0
M  V30 6306 C 573.11 0.140025 4.24369 0
M  V30 6307 O 574.134 0.185084 3.55719 0
M  V30 6308 O 572.993 0.0327034 5.4649 0
M  V30 6309 H 570.087 -0.0306051 0.826433 0
M  V30 6310 H 572.633 0.687293 1.55159 0
M  V30 6311 H 571.405 1.27532 3.69934 0
M  V30 6312 H 571.028 -0.42073 3.95368 0
M  V30 6313 N 572.025 -1.5352 0.356285 0
M  V30 6314 C 572.957 -2.23009 -0.529127 0
M  V30 6315 C 573.97 -1.241 -1.05371 0
M  V30 6316 O 575.159 -1.50379 -0.961679 0
M  V30 6317 C 572.259 -2.90685 -1.74229 0
M  V30 6318 C 571.432 -4.16019 -1.35081 0
M  V30 6319 C 570.491 -4.66989 -2.42502 0
M  V30 6320 O 569.517 -5.30895 -2.05279 0
M  V30 6321 N 570.719 -4.44006 -3.7395 0
M  V30 6322 H 573.484 -2.99627 0.0660501 0
M  V30 6323 H 571.045 -1.60885 0.181014 0
M  V30 6324 H 573.037 -3.21695 -2.4555 0
M  V30 6325 H 571.607 -2.17575 -2.24454 0
M  V30 6326 H 570.827 -3.91414 -0.467833 0
M  V30 6327 H 572.115 -4.9752 -1.06542 0
M  V30 6328 H 571.513 -3.92924 -4.06973 0
M  V30 6329 H 570.07 -4.7959 -4.41403 0
M  V30 6330 N 573.503 -0.0852151 -1.57369 0
M  V30 6331 C 574.413 0.891712 -2.16992 0
M  V30 6332 C 575.429 1.3174 -1.13669 0
M  V30 6333 O 576.605 1.38735 -1.45995 0
M  V30 6334 C 573.67 2.13635 -2.73059 0
M  V30 6335 C 572.731 1.7658 -3.91303 0
M  V30 6336 C 571.964 2.95111 -4.44686 0
M  V30 6337 O 572.187 4.09539 -3.97032 0
M  V30 6338 O 571.121 2.74149 -5.35841 0
M  V30 6339 H 574.947 0.414477 -3.00858 0
M  V30 6340 H 572.532 0.138598 -1.48756 0
M  V30 6341 H 574.414 2.86595 -3.08935 0
M  V30 6342 H 573.089 2.6043 -1.92244 0
M  V30 6343 H 571.996 1.00831 -3.60255 0
M  V30 6344 H 573.329 1.34557 -4.7345 0
M  V30 6345 N 574.981 1.5647 0.188427 0
M  V30 6346 C 575.911 1.98101 1.23606 0
M  V30 6347 C 576.892 0.853961 1.47111 0
M  V30 6348 O 578.077 1.11879 1.58735 0
M  V30 6349 C 575.207 2.32624 2.57882 0
M  V30 6350 C 574.161 3.48129 2.48978 0
M  V30 6351 C 573.487 3.68347 3.87588 0
M  V30 6352 C 574.787 4.82112 2.00911 0
M  V30 6353 H 576.481 2.85864 0.890068 0
M  V30 6354 H 574.027 1.37532 0.426714 0
M  V30 6355 H 575.98 2.60343 3.3136 0
M  V30 6356 H 574.704 1.41751 2.94235 0
M  V30 6357 H 573.363 3.20511 1.77956 0
M  V30 6358 H 573.011 2.74793 4.21305 0
M  V30 6359 H 572.711 4.46055 3.82503 0
M  V30 6360 H 574.235 3.98449 4.62678 0
M  V30 6361 H 575.649 5.08819 2.64151 0
M  V30 6362 H 574.046 5.63337 2.06814 0
M  V30 6363 H 575.116 4.75249 0.96262 0
M  V30 6364 N 576.459 -0.456382 1.50847 0
M  V30 6365 C 577.689 -1.22848 1.66108 0
M  V30 6366 C 578.097 -1.85936 0.349897 0
M  V30 6367 O 577.44 -1.70664 -0.679665 0
M  V30 6368 C 577.502 -2.36722 2.70561 0
M  V30 6369 C 577.166 -1.94154 4.13707 0
M  V30 6370 C 578.163 -1.4557 4.99105 0
M  V30 6371 C 575.848 -2.02426 4.59705 0
M  V30 6372 C 577.842 -1.0582 6.28555 0
M  V30 6373 C 575.529 -1.62287 5.89157 0
M  V30 6374 C 576.527 -1.14064 6.73408 0
M  V30 6375 O 576.215 -0.744873 8.00442 0
M  V30 6376 H 575.947 -0.377105 0.561042 0
M  V30 6377 H 578.501 -0.549431 1.97915 0
M  V30 6378 H 576.731 -3.07844 2.34027 0
M  V30 6379 H 578.42 -2.98646 2.74892 0
M  V30 6380 H 579.186 -1.38589 4.64777 0
M  V30 6381 H 575.065 -2.38908 3.94264 0
M  V30 6382 H 578.609 -0.6811 6.94267 0
M  V30 6383 H 574.506 -1.68932 6.23003 0
M  V30 6384 H 575.274 -0.87242 8.13837 0
M  V30 6385 N 577.937 -1.40673 -0.710563 0
M  V30 6386 C 579.214 -1.29718 -1.46398 0
M  V30 6387 C 579.594 0.082177 -2.1094 0
M  V30 6388 O 578.942 1.09536 -2.00534 0
M  V30 6389 C 579.152 -2.43967 -2.49562 0
M  V30 6390 C 580.5 -2.84436 -3.15248 0
M  V30 6391 O 581.524 -2.43597 -2.59883 0
M  V30 6392 O 580.383 -3.55008 -4.1549 0
M  V30 6393 H 577.477 -0.509697 -0.651258 0
M  V30 6394 H 580.023 -1.52603 -0.742312 0
M  V30 6395 H 578.795 -3.36076 -2.0042 0
M  V30 6396 H 578.418 -2.22879 -3.29258 0
M  V30 6397 N 579.415 0.9433 -1.26252 0
M  V30 6398 C 580.348 2.04162 -1.01946 0
M  V30 6399 C 581.326 1.62507 0.0550808 0
M  V30 6400 O 582.51 1.883 -0.0869025 0
M  V30 6401 C 579.637 3.34313 -0.54335 0
M  V30 6402 C 578.683 3.94939 -1.61013 0
M  V30 6403 S 579.516 4.29484 -3.19849 0
M  V30 6404 C 580.672 5.62738 -2.74001 0
M  V30 6405 H 580.905 2.24466 -1.94942 0
M  V30 6406 H 578.438 1.08441 -1.09909 0
M  V30 6407 H 580.396 4.09576 -0.275315 0
M  V30 6408 H 579.057 3.11957 0.36629 0
M  V30 6409 H 578.25 4.88812 -1.22795 0
M  V30 6410 H 577.852 3.26202 -1.82943 0
M  V30 6411 H 580.144 6.41356 -2.18333 0
M  V30 6412 H 581.087 6.05839 -3.66558 0
M  V30 6413 H 581.495 5.22514 -2.13634 0
M  V30 6414 N 580.893 1.08022 1.14757 0
M  V30 6415 C 581.823 0.728248 2.21853 0
M  V30 6416 C 582.804 -0.287486 1.67653 0
M  V30 6417 O 583.989 -0.158727 1.9355 0
M  V30 6418 C 581.119 0.132549 3.47047 0
M  V30 6419 C 580.073 1.07619 4.14249 0
M  V30 6420 C 579.399 0.342907 5.33599 0
M  V30 6421 C 580.699 2.41268 4.63235 0
M  V30 6422 H 582.393 1.62365 2.51551 0
M  V30 6423 H 579.939 0.782125 1.20908 0
M  V30 6424 H 581.892 -0.125665 4.21213 0
M  V30 6425 H 580.616 -0.797971 3.16702 0
M  V30 6426 H 579.275 1.31944 3.42033 0
M  V30 6427 H 578.923 -0.59129 4.99513 0
M  V30 6428 H 578.623 0.971955 5.79506 0
M  V30 6429 H 580.147 0.0926538 6.1053 0
M  V30 6430 H 581.561 2.21232 5.28894 0
M  V30 6431 H 579.958 2.9983 5.19829 0
M  V30 6432 H 581.028 3.03079 3.78512 0
M  V30 6433 N 582.371 -1.3172 0.865308 0
M  V30 6434 C 583.596 -2.01591 0.487415 0
M  V30 6435 C 584.021 -1.6455 -0.911307 0
M  V30 6436 O 583.379 -0.851689 -1.6005 0
M  V30 6437 C 583.427 -3.54759 0.646401 0
M  V30 6438 O 582.531 -4.11185 -0.316284 0
M  V30 6439 H 581.872 -0.634884 0.194468 0
M  V30 6440 H 584.402 -1.68024 1.16744 0
M  V30 6441 H 584.412 -4.04438 0.537932 0
M  V30 6442 H 583.087 -3.8106 1.66632 0
M  V30 6443 H 581.664 -3.72543 -0.163162 0
M  V30 6444 N 583.85 -0.624285 -1.44708 0
M  V30 6445 C 584.812 0.0749638 -2.29077 0
M  V30 6446 C 585.812 0.778965 -1.40673 0
M  V30 6447 O 587.003 0.624591 -1.62618 0
M  V30 6448 C 584.135 1.11663 -3.22094 0
M  V30 6449 H 585.327 -0.667013 -2.92388 0
M  V30 6450 H 582.88 -0.384098 -1.51507 0
M  V30 6451 H 583.615 1.88881 -2.63618 0
M  V30 6452 H 583.401 0.61583 -3.87234 0
M  V30 6453 H 584.891 1.60585 -3.8549 0
M  V30 6454 N 585.328 1.53329 -0.364422 0
M  V30 6455 C 586.744 1.59594 -0.0133165 0
M  V30 6456 C 586.944 1.37959 1.46865 0
M  V30 6457 O 586 1.18418 2.2301 0
M  V30 6458 C 587.313 2.97032 -0.468213 0
M  V30 6459 C 588.861 3.10138 -0.422334 0
M  V30 6460 C 589.336 4.49986 -0.853024 0
M  V30 6461 N 590.827 4.56098 -0.808037 0
M  V30 6462 C 591.562 5.62495 -1.11299 0
M  V30 6463 N 591.058 6.7665 -1.48717 0
M  V30 6464 N 592.851 5.52473 -1.03586 0
M  V30 6465 H 585.002 1.65644 -1.32951 0
M  V30 6466 H 587.265 0.77684 -0.543345 0
M  V30 6467 H 586.971 3.18 -1.5023 0
M  V30 6468 H 586.845 3.76918 0.145775 0
M  V30 6469 H 589.232 2.88881 0.602622 0
M  V30 6470 H 589.313 2.32263 -1.0718 0
M  V30 6471 H 588.957 4.7198 -1.87609 0
M  V30 6472 H 588.887 5.26289 -0.180819 0
M  V30 6473 H 591.378 3.74131 -0.532361 0
M  V30 6474 H 591.691 7.53776 -1.70415 0
M  V30 6475 H 590.036 6.78044 -1.52581 0
M  V30 6476 H 593.227 4.6217 -0.742736 0
M  V30 6477 H 593.4 6.35295 -1.27686 0
M  V30 6478 N 586.806 0.0935595 1.57322 0
M  V30 6479 C 588.217 -0.435807 1.81542 0
M  V30 6480 C 588.568 -1.68263 1.00907 0
M  V30 6481 O 587.693 -2.15087 0.237983 0
M  V30 6482 C 588.288 -0.797436 3.29282 0
M  V30 6483 C 586.847 -1.27155 3.54272 0
M  V30 6484 C 585.994 -0.267455 2.76007 0
M  V30 6485 H 588.945 0.31902 1.5546 0
M  V30 6486 H 588.966 -1.6571 3.42521 0
M  V30 6487 H 588.478 0.110206 3.87943 0
M  V30 6488 H 586.579 -2.19696 3.00939 0
M  V30 6489 H 586.692 -1.23445 4.62923 0
M  V30 6490 H 585.056 -0.749282 2.43429 0
M  V30 6491 H 585.839 0.632839 3.37417 0
M  V30 6492 N 588.284 -1.56567 -0.180126 0
M  V30 6493 C 589.214 -1.98753 -1.22553 0
M  V30 6494 C 590.195 -0.86175 -1.46656 0
M  V30 6495 O 591.38 -1.12719 -1.58139 0
M  V30 6496 C 588.51 -2.33988 -2.56645 0
M  V30 6497 C 587.464 -3.49445 -2.47128 0
M  V30 6498 C 586.79 -3.70397 -3.8563 0
M  V30 6499 C 588.09 -4.83171 -1.98352 0
M  V30 6500 H 589.784 -2.86332 -0.874896 0
M  V30 6501 H 587.33 -1.37757 -0.419414 0
M  V30 6502 H 589.283 -2.62097 -3.29974 0
M  V30 6503 H 588.007 -1.43309 -2.93479 0
M  V30 6504 H 586.666 -3.2145 -1.76254 0
M  V30 6505 H 586.314 -2.77023 -4.19842 0
M  V30 6506 H 586.014 -4.48077 -3.80132 0
M  V30 6507 H 587.538 -4.00897 -4.60558 0
M  V30 6508 H 588.952 -5.10213 -2.61449 0
M  V30 6509 H 587.349 -5.64425 -2.03823 0
M  V30 6510 H 588.419 -4.75753 -0.937402 0
M  V30 6511 N 589.762 0.448376 -1.51087 0
M  V30 6512 C 591.01 1.19635 -1.62886 0
M  V30 6513 C 591.331 1.91977 -0.342024 0
M  V30 6514 O 590.601 1.85094 0.641636 0
M  V30 6515 H 589.181 0.444598 -0.600285 0
M  V30 6516 H 591.843 0.515138 -1.87969 0
M  V30 6517 H 590.939 1.93194 -2.45117 0
M  V30 6518 N 591.24 1.41047 0.703093 0
M  V30 6519 C 592.486 1.40207 1.46526 0
M  V30 6520 C 592.819 0.00847763 1.94198 0
M  V30 6521 O 592.094 -0.962437 1.69019 0
M  V30 6522 C 592.377 2.40238 2.6825 0
M  V30 6523 C 592.23 3.88674 2.26391 0
M  V30 6524 C 593.549 2.37627 3.70434 0
M  V30 6525 H 590.668 0.510594 0.531472 0
M  V30 6526 H 593.31 1.72271 0.801422 0
M  V30 6527 H 591.46 2.13026 3.24888 0
M  V30 6528 H 593.132 4.2676 1.75138 0
M  V30 6529 H 591.375 4.03903 1.58255 0
M  V30 6530 H 592.046 4.542 3.13698 0
M  V30 6531 H 594.522 2.61759 3.23452 0
M  V30 6532 H 593.398 3.09645 4.53223 0
M  V30 6533 H 593.659 1.39223 4.19606 0
M  V30 6534 N 592.718 -0.936591 1.26751 0
M  V30 6535 C 593.65 -2.03991 1.045 0
M  V30 6536 C 594.663 -1.628 0.00394261 0
M  V30 6537 O 595.852 -1.76817 0.244526 0
M  V30 6538 C 592.952 -3.34218 0.561403 0
M  V30 6539 C 592.125 -4.04151 1.67274 0
M  V30 6540 C 591.184 -5.12651 1.1864 0
M  V30 6541 O 590.21 -5.37104 1.88437 0
M  V30 6542 N 591.412 -5.80488 0.037278 0
M  V30 6543 H 594.177 -2.23644 1.99508 0
M  V30 6544 H 591.738 -1.10638 1.18198 0
M  V30 6545 H 593.73 -4.04101 0.220136 0
M  V30 6546 H 592.3 -3.11203 -0.295211 0
M  V30 6547 H 591.52 -3.28121 2.18472 0
M  V30 6548 H 592.808 -4.47626 2.41885 0
M  V30 6549 H 592.206 -5.63064 -0.545494 0
M  V30 6550 H 590.763 -6.5134 -0.244877 0
M  V30 6551 N 594.196 -1.08629 -1.14182 0
M  V30 6552 C 595.607 -0.838003 -1.66836 0
M  V30 6553 C 595.958 0.634885 -1.85644 0
M  V30 6554 O 595.083 1.49008 -1.56926 0
M  V30 6555 C 595.678 -1.51465 -3.03058 0
M  V30 6556 C 594.237 -1.31355 -3.52736 0
M  V30 6557 C 593.384 -1.57599 -2.28162 0
M  V30 6558 H 596.335 -1.24656 -0.982165 0
M  V30 6559 H 596.356 -0.943134 -3.68626 0
M  V30 6560 H 595.868 -2.58661 -2.89337 0
M  V30 6561 H 593.969 -0.262384 -3.71675 0
M  V30 6562 H 594.082 -2.04275 -4.33369 0
M  V30 6563 H 592.446 -0.997659 -2.34348 0
M  V30 6564 H 593.229 -2.66006 -2.17015 0
M  V30 6565 N 595.674 1.31259 -0.872281 0
M  V30 6566 C 597.09 1.49283 -0.564521 0
M  V30 6567 C 597.29 1.80243 0.900807 0
M  V30 6568 O 596.346 1.88246 1.68284 0
M  V30 6569 C 597.659 2.62503 -1.46673 0
M  V30 6570 C 599.207 2.76386 -1.46901 0
M  V30 6571 C 599.682 3.92705 -2.35684 0
M  V30 6572 N 601.173 3.99995 -2.33577 0
M  V30 6573 C 601.908 4.89276 -2.98992 0
M  V30 6574 N 601.404 5.83443 -3.73585 0
M  V30 6575 N 603.197 4.82541 -2.88289 0
M  V30 6576 H 595.348 1.09432 -1.82039 0
M  V30 6577 H 597.611 0.540949 -0.77851 0
M  V30 6578 H 597.317 2.46407 -2.50951 0
M  V30 6579 H 597.191 3.58695 -1.16696 0
M  V30 6580 H 599.578 2.91894 -0.433796 0
M  V30 6581 H 599.659 1.80853 -1.80903 0
M  V30 6582 H 599.303 3.77954 -3.39283 0
M  V30 6583 H 599.233 4.87549 -1.99006 0
M  V30 6584 H 601.724 3.32624 -1.7936 0
M  V30 6585 H 602.037 6.48303 -4.20622 0
M  V30 6586 H 600.382 5.83415 -3.77694 0
M  V30 6587 H 603.573 4.07951 -2.2955 0
M  V30 6588 H 603.746 5.51916 -3.39549 0
M  V30 6589 N 597.152 0.631951 1.44375 0
M  V30 6590 C 598.4 0.136497 2.01639 0
M  V30 6591 C 598.721 -1.24637 1.49969 0
M  V30 6592 O 597.991 -1.82827 0.70363 0
M  V30 6593 H 596.571 0.0474703 0.74549 0
M  V30 6594 H 599.233 0.818837 1.76865 0
M  V30 6595 H 598.329 0.104817 3.11924 0
M  V30 6596 N 598.631 -1.53133 0.372548 0
M  V30 6597 C 599.879 -2.00958 -0.214534 0
M  V30 6598 C 600.2 -1.26135 -1.48711 0
M  V30 6599 O 599.47 -0.376597 -1.92246 0
M  V30 6600 H 598.05 -0.742456 -0.0822664 0
M  V30 6601 H 600.712 -1.88367 0.500385 0
M  V30 6602 H 599.808 -3.09031 -0.436605 0
M  V30 6603 N 600.109 -0.101901 -1.5727 0
M  V30 6604 C 601.355 0.561027 -1.94885 0
M  V30 6605 C 601.688 1.6741 -0.984258 0
M  V30 6606 O 600.963 1.94491 -0.0184767 0
M  V30 6607 C 601.246 1.10982 -3.42571 0
M  V30 6608 C 601.099 0.00133418 -4.498 0
M  V30 6609 C 602.418 2.00608 -3.9172 0
M  V30 6610 H 599.537 0.202467 -0.708644 0
M  V30 6611 H 602.179 -0.173992 -1.89202 0
M  V30 6612 H 600.329 1.73621 -3.47546 0
M  V30 6613 H 602.001 -0.63322 -4.56933 0
M  V30 6614 H 600.244 -0.664143 -4.28686 0
M  V30 6615 H 600.915 0.426253 -5.50352 0
M  V30 6616 H 603.391 1.47864 -3.88941 0
M  V30 6617 H 602.267 2.3593 -4.95609 0
M  V30 6618 H 602.528 2.92608 -3.3141 0
M  V30 6619 N 601.587 1.56661 0.17182 0
M  V30 6620 C 602.836 1.81158 0.886831 0
M  V30 6621 C 603.149 0.679072 1.83434 0
M  V30 6622 O 604.355 0.808964 2.59168 0
M  V30 6623 C 602.811 3.20999 1.6275 0
M  V30 6624 C 602.419 4.42117 0.723652 0
M  V30 6625 C 604.163 3.5479 2.33076 0
M  V30 6626 C 602.07 5.7298 1.46452 0
M  V30 6627 H 601 0.675543 0.334899 0
M  V30 6628 H 603.651 1.82967 0.139765 0
M  V30 6629 H 602.033 3.13506 2.4193 0
M  V30 6630 H 603.207 4.60789 -0.0311485 0
M  V30 6631 H 601.522 4.16197 0.130063 0
M  V30 6632 H 604.119 4.49806 2.89099 0
M  V30 6633 H 604.462 2.79646 3.08389 0
M  V30 6634 H 604.995 3.63834 1.6084 0
M  V30 6635 H 601.734 6.51152 0.753729 0
M  V30 6636 H 601.254 5.58285 2.19266 0
M  V30 6637 H 602.933 6.14916 2.01214 0
M  V30 6638 N 603.065 -0.440357 1.51323 0
M  V30 6639 C 604.29 -1.21716 1.67928 0
M  V30 6640 C 604.715 -1.84328 0.374826 0
M  V30 6641 O 604.073 -1.68675 -0.664706 0
M  V30 6642 C 604.121 -2.27914 2.79442 0
M  V30 6643 O 603.225 -3.33325 2.42834 0
M  V30 6644 H 602.566 -0.35674 0.560029 0
M  V30 6645 H 605.096 -0.520417 1.97871 0
M  V30 6646 H 605.106 -2.72746 3.03436 0
M  V30 6647 H 603.781 -1.8172 3.741 0
M  V30 6648 H 602.358 -2.9399 2.294 0
M  V30 6649 N 604.543 -1.41418 -0.695603 0
M  V30 6650 C 605.954 -1.36335 -1.27552 0
M  V30 6651 C 606.305 -0.0464336 -1.96145 0
M  V30 6652 O 605.43 0.855304 -1.9878 0
M  V30 6653 C 606.025 -2.46941 -2.3196 0
M  V30 6654 C 604.584 -2.45256 -2.85529 0
M  V30 6655 C 603.731 -2.2679 -1.59566 0
M  V30 6656 H 606.682 -1.50934 -0.490362 0
M  V30 6657 H 606.703 -2.15997 -3.1325 0
M  V30 6658 H 606.215 -3.42775 -1.82008 0
M  V30 6659 H 604.316 -1.53179 -3.39657 0
M  V30 6660 H 604.429 -3.41565 -3.35961 0
M  V30 6661 H 602.793 -1.74667 -1.85374 0
M  V30 6662 H 603.576 -3.24651 -1.1161 0
M  V30 6663 N 606.021 0.929856 -1.27246 0
M  V30 6664 C 606.953 2.03434 -1.0558 0
M  V30 6665 C 607.966 1.62795 -0.0125762 0
M  V30 6666 O 609.155 1.76685 -0.2539 0
M  V30 6667 C 606.255 3.33915 -0.57912 0
M  V30 6668 C 605.428 4.03259 -1.69415 0
M  V30 6669 C 604.487 5.12014 -1.21357 0
M  V30 6670 O 603.513 5.36097 -1.91282 0
M  V30 6671 N 604.715 5.8046 -0.0680622 0
M  V30 6672 H 607.48 2.22583 -2.00691 0
M  V30 6673 H 605.041 1.1001 -1.18783 0
M  V30 6674 H 607.033 4.03978 -0.241563 0
M  V30 6675 H 605.603 3.11355 0.278703 0
M  V30 6676 H 604.823 3.26958 -2.20209 0
M  V30 6677 H 606.111 4.46337 -2.44255 0
M  V30 6678 H 605.509 5.63345 0.515626 0
M  V30 6679 H 604.066 6.51461 0.210332 0
M  V30 6680 N 607.499 1.09233 1.13605 0
M  V30 6681 C 608.91 0.846839 1.6639 0
M  V30 6682 C 609.261 -0.625031 1.85978 0
M  V30 6683 O 608.386 -1.48173 1.57714 0
M  V30 6684 C 608.981 1.5307 3.0225 0
M  V30 6685 C 607.54 1.33223 3.52035 0
M  V30 6686 C 606.687 1.58806 2.27323 0
M  V30 6687 H 609.638 1.25175 0.975541 0
M  V30 6688 H 609.659 0.96267 3.68121 0
M  V30 6689 H 609.171 2.60192 2.87961 0
M  V30 6690 H 607.272 0.282091 3.71531 0
M  V30 6691 H 607.385 2.0657 4.32279 0
M  V30 6692 H 605.749 1.01007 2.33815 0
M  V30 6693 H 606.532 2.67153 2.15602 0
M  V30 6694 N 608.977 -1.30795 0.87923 0
M  V30 6695 C 609.94 -2.26563 0.346676 0
M  V30 6696 C 610.94 -1.52578 -0.507597 0
M  V30 6697 O 612.13 -1.71318 -0.315575 0
M  V30 6698 C 609.262 -3.37115 -0.506611 0
M  V30 6699 H 610.455 -2.75183 1.19223 0
M  V30 6700 H 608.008 -1.41886 0.655598 0
M  V30 6701 H 608.743 -2.93802 -1.37299 0
M  V30 6702 H 608.528 -3.91959 0.105218 0
M  V30 6703 H 610.018 -4.08412 -0.871192 0
M  V30 6704 N 610.455 -0.639598 -1.44038 0
M  V30 6705 C 611.702 -0.14748 -2.01962 0
M  V30 6706 C 612.03 1.23372 -1.50365 0
M  V30 6707 O 611.285 1.8345 -0.681501 0
M  V30 6708 C 611.584 -0.0925348 -3.5728 0
M  V30 6709 C 611.25 -1.41365 -4.28167 0
M  V30 6710 C 609.912 -1.77545 -4.47248 0
M  V30 6711 C 612.264 -2.2853 -4.68427 0
M  V30 6712 C 609.592 -3.00583 -5.03852 0
M  V30 6713 C 611.944 -3.50846 -5.26393 0
M  V30 6714 C 610.608 -3.8724 -5.43692 0
M  V30 6715 H 609.878 -0.0539666 -0.739032 0
M  V30 6716 H 612.525 -0.827599 -1.72694 0
M  V30 6717 H 610.83 0.670987 -3.86012 0
M  V30 6718 H 612.527 0.304891 -3.99839 0
M  V30 6719 H 609.117 -1.1221 -4.13651 0
M  V30 6720 H 613.301 -2.0187 -4.5339 0
M  V30 6721 H 608.557 -3.28846 -5.15432 0
M  V30 6722 H 612.731 -4.18616 -5.56537 0
M  V30 6723 H 610.358 -4.8266 -5.87319 0
M  V30 6724 N 611.933 1.52934 -0.380664 0
M  V30 6725 C 612.866 2.22597 0.502564 0
M  V30 6726 C 613.844 1.22345 1.071 0
M  V30 6727 O 615.028 1.51302 1.12428 0
M  V30 6728 C 612.155 2.93246 1.69482 0
M  V30 6729 C 611.201 4.07696 1.25244 0
M  V30 6730 S 612.034 5.34957 0.241159 0
M  V30 6731 C 613.19 6.09124 1.4394 0
M  V30 6732 H 613.423 2.97167 -0.089029 0
M  V30 6733 H 610.956 1.53518 -0.164817 0
M  V30 6734 H 612.914 3.34562 2.37863 0
M  V30 6735 H 611.575 2.18373 2.2577 0
M  V30 6736 H 610.768 4.56199 2.1424 0
M  V30 6737 H 610.37 3.68349 0.647664 0
M  V30 6738 H 612.662 6.34771 2.36794 0
M  V30 6739 H 613.605 7.01068 0.995464 0
M  V30 6740 H 614.013 5.39777 1.65229 0
M  V30 6741 N 613.412 0.11024 1.57214 0
M  V30 6742 C 614.344 -0.873497 2.11902 0
M  V30 6743 C 615.357 -1.23588 1.05971 0
M  V30 6744 O 616.546 -1.18636 1.33371 0
M  V30 6745 C 613.646 -2.17805 2.59643 0
M  V30 6746 C 612.819 -1.98869 3.89576 0
M  V30 6747 C 611.878 -3.12974 4.23006 0
M  V30 6748 O 610.904 -2.86272 4.91973 0
M  V30 6749 N 612.106 -4.39167 3.79622 0
M  V30 6750 H 614.871 -0.406317 2.96933 0
M  V30 6751 H 612.432 -0.074437 1.61729 0
M  V30 6752 H 614.424 -2.93117 2.79042 0
M  V30 6753 H 612.994 -2.55899 1.7954 0
M  V30 6754 H 612.214 -1.078 3.79174 0
M  V30 6755 H 613.502 -1.83512 4.74553 0
M  V30 6756 H 612.9 -4.63739 3.2398 0
M  V30 6757 H 611.457 -5.11379 4.04147 0
M  V30 6758 N 614.89 -1.56749 -0.16351 0
M  V30 6759 C 615.82 -2.00042 -1.20438 0
M  V30 6760 C 616.801 -0.877256 -1.45733 0
M  V30 6761 O 617.986 -1.1439 -1.56935 0
M  V30 6762 C 615.116 -2.36697 -2.54149 0
M  V30 6763 C 614.07 -3.52046 -2.43408 0
M  V30 6764 C 613.396 -3.74466 -3.81679 0
M  V30 6765 C 614.696 -4.85247 -1.93216 0
M  V30 6766 H 616.39 -2.87244 -0.844477 0
M  V30 6767 H 613.936 -1.38194 -0.40478 0
M  V30 6768 H 615.889 -2.65582 -3.27176 0
M  V30 6769 H 614.613 -1.46414 -2.91943 0
M  V30 6770 H 613.272 -3.23301 -1.72834 0
M  V30 6771 H 612.92 -2.81461 -4.1688 0
M  V30 6772 H 612.62 -4.52084 -3.75359 0
M  V30 6773 H 614.144 -4.0576 -4.5628 0
M  V30 6774 H 615.558 -5.12957 -2.56023 0
M  V30 6775 H 613.955 -5.66556 -1.97825 0
M  V30 6776 H 615.025 -4.7672 -0.88689 0
M  V30 6777 N 616.368 0.432326 -1.51554 0
M  V30 6778 C 617.614 1.18309 -1.64714 0
M  V30 6779 C 617.947 1.90745 -0.364696 0
M  V30 6780 O 617.222 1.8381 0.635936 0
M  V30 6781 C 617.505 2.1961 -2.85383 0
M  V30 6782 C 617.358 1.51223 -4.23617 0
M  V30 6783 C 618.677 3.20538 -3.01569 0
M  V30 6784 H 615.796 0.428751 -0.599451 0
M  V30 6785 H 618.438 0.471689 -1.84052 0
M  V30 6786 H 616.588 2.8028 -2.69027 0
M  V30 6787 H 618.26 0.938516 -4.51652 0
M  V30 6788 H 616.503 0.814501 -4.26085 0
M  V30 6789 H 617.174 2.25024 -5.04052 0
M  V30 6790 H 619.65 2.69926 -3.16669 0
M  V30 6791 H 618.526 3.88706 -3.87555 0
M  V30 6792 H 618.787 3.86933 -2.13859 0
M  V30 6793 N 617.846 1.41785 0.688094 0
M  V30 6794 C 619.262 1.24419 0.999608 0
M  V30 6795 C 619.462 0.138868 2.01021 0
M  V30 6796 O 618.518 -0.494283 2.47615 0
M  V30 6797 C 619.831 2.59625 1.51709 0
M  V30 6798 C 621.379 2.66869 1.63554 0
M  V30 6799 C 621.854 4.0241 2.18702 0
M  V30 6800 N 623.345 4.04295 2.26053 0
M  V30 6801 C 624.08 5.05977 2.69768 0
M  V30 6802 N 623.576 6.18047 3.13033 0
M  V30 6803 N 625.369 4.93336 2.69398 0
M  V30 6804 H 617.52 2.12392 0.0187427 0
M  V30 6805 H 619.783 0.945347 0.0708673 0
M  V30 6806 H 619.489 3.41297 0.849059 0
M  V30 6807 H 619.363 2.82628 2.49803 0
M  V30 6808 H 621.75 1.8555 2.29467 0
M  V30 6809 H 621.831 2.47668 0.639857 0
M  V30 6810 H 621.475 4.8418 1.53402 0
M  V30 6811 H 621.405 4.18955 3.19037 0
M  V30 6812 H 623.896 3.23383 1.9553 0
M  V30 6813 H 624.209 6.91498 3.45038 0
M  V30 6814 H 622.554 6.21572 3.10923 0
M  V30 6815 H 625.745 4.04865 2.34952 0
M  V30 6816 H 625.918 5.72717 3.03148 0
M  V30 6817 N 619.324 -0.923095 1.27737 0
M  V30 6818 C 620.256 -2.02871 1.06658 0
M  V30 6819 C 621.269 -1.62786 0.0212095 0
M  V30 6820 O 622.458 -1.76548 0.263267 0
M  V30 6821 C 619.558 -3.33603 0.59682 0
M  V30 6822 C 618.731 -4.02354 1.71551 0
M  V30 6823 C 617.79 -5.11364 1.24071 0
M  V30 6824 O 616.816 -5.35075 1.94123 0
M  V30 6825 N 618.018 -5.80416 0.0988444 0
M  V30 6826 H 620.783 -2.21515 2.01869 0
M  V30 6827 H 618.344 -1.09378 1.19365 0
M  V30 6828 H 620.336 -4.03845 0.262984 0
M  V30 6829 H 618.906 -3.11499 -0.262187 0
M  V30 6830 H 618.126 -3.25786 2.2194 0
M  V30 6831 H 619.414 -4.45035 2.46619 0
M  V30 6832 H 618.812 -5.63611 -0.485743 0
M  V30 6833 H 617.369 -6.51563 -0.17578 0
M  V30 6834 N 620.802 -1.09834 -1.13024 0
M  V30 6835 C 621.712 -0.753731 -2.22162 0
M  V30 6836 C 622.728 0.246105 -1.72251 0
M  V30 6837 O 623.904 0.0864051 -2.01215 0
M  V30 6838 C 620.969 -0.183958 -3.46212 0
M  V30 6839 C 620.03 -1.24028 -4.10993 0
M  V30 6840 C 619.263 -0.697597 -5.29121 0
M  V30 6841 O 619.486 0.478092 -5.68393 0
M  V30 6842 O 618.42 -1.4546 -5.84059 0
M  V30 6843 H 622.246 -1.66456 -2.5402 0
M  V30 6844 H 619.831 -0.873026 -1.21238 0
M  V30 6845 H 621.713 0.130257 -4.21199 0
M  V30 6846 H 620.388 0.699823 -3.16045 0
M  V30 6847 H 619.295 -1.60725 -3.37814 0
M  V30 6848 H 620.628 -2.09685 -4.45301 0
M  V30 6849 N 622.28 1.30327 -0.886154 0
M  V30 6850 C 623.21 2.30549 -0.370028 0
M  V30 6851 C 624.191 1.61039 0.547751 0
M  V30 6852 O 625.376 1.8864 0.461353 0
M  V30 6853 C 622.506 3.44808 0.415275 0
M  V30 6854 C 621.46 4.26024 -0.41085 0
M  V30 6855 C 620.786 5.32347 0.501128 0
M  V30 6856 C 622.086 4.95433 -1.65359 0
M  V30 6857 H 623.78 2.73969 -1.20754 0
M  V30 6858 H 621.326 1.3171 -0.582097 0
M  V30 6859 H 623.279 4.13986 0.78699 0
M  V30 6860 H 622.003 3.00197 1.28644 0
M  V30 6861 H 620.662 3.58535 -0.764719 0
M  V30 6862 H 620.31 4.83982 1.37004 0
M  V30 6863 H 620.01 5.87581 -0.0478356 0
M  V30 6864 H 621.534 6.0438 0.869333 0
M  V30 6865 H 622.948 5.5712 -1.35239 0
M  V30 6866 H 621.345 5.60537 -2.14284 0
M  V30 6867 H 622.415 4.21493 -2.39733 0
M  V30 6868 N 623.758 0.647228 1.43697 0
M  V30 6869 C 624.69 -0.0866232 2.29036 0
M  V30 6870 C 625.703 -0.793051 1.42178 0
M  V30 6871 O 626.892 -0.651807 1.66174 0
M  V30 6872 C 623.992 -1.14552 3.18953 0
M  V30 6873 C 623.165 -0.518422 4.34317 0
M  V30 6874 C 622.224 -1.4734 5.05151 0
M  V30 6875 O 621.25 -0.984312 5.60625 0
M  V30 6876 N 622.452 -2.8075 5.08094 0
M  V30 6877 H 625.217 0.645834 2.92659 0
M  V30 6878 H 622.778 0.489567 1.54321 0
M  V30 6879 H 624.77 -1.78505 3.63205 0
M  V30 6880 H 623.34 -1.78001 2.56971 0
M  V30 6881 H 622.56 0.300079 3.93056 0
M  V30 6882 H 623.848 -0.080401 5.08736 0
M  V30 6883 H 623.246 -3.23052 4.64386 0
M  V30 6884 H 621.803 -3.40022 5.56083 0
M  V30 6885 N 625.236 -1.5273 0.388769 0
M  V30 6886 C 626.199 -2.25043 -0.434544 0
M  V30 6887 C 627.199 -1.26661 -0.990644 0
M  V30 6888 O 628.389 -1.50762 -0.872731 0
M  V30 6889 C 625.521 -3.00507 -1.60961 0
M  V30 6890 H 626.714 -2.99242 0.198549 0
M  V30 6891 H 624.267 -1.55664 0.140875 0
M  V30 6892 H 625.002 -2.30607 -2.28015 0
M  V30 6893 H 624.787 -3.72716 -1.21757 0
M  V30 6894 H 626.277 -3.55413 -2.19251 0
M  V30 6895 N 626.714 -0.118576 -1.57153 0
M  V30 6896 C 627.661 0.831789 -2.1529 0
M  V30 6897 C 628.631 1.26385 -1.07778 0
M  V30 6898 O 629.816 1.34144 -1.35684 0
M  V30 6899 C 626.956 2.07664 -2.75626 0
M  V30 6900 C 626.069 1.69298 -3.97444 0
M  V30 6901 C 625.204 2.88747 -4.45868 0
M  V30 6902 C 624.243 2.46619 -5.60219 0
M  V30 6903 N 623.38 3.5898 -6.03389 0
M  V30 6904 H 628.22 0.329183 -2.96176 0
M  V30 6905 H 625.757 0.150792 -1.46325 0
M  V30 6906 H 627.715 2.80601 -3.08738 0
M  V30 6907 H 626.345 2.55384 -1.97431 0
M  V30 6908 H 625.397 0.862374 -3.70496 0
M  V30 6909 H 626.709 1.34338 -4.80369 0
M  V30 6910 H 625.863 3.69909 -4.80887 0
M  V30 6911 H 624.602 3.26933 -3.61892 0
M  V30 6912 H 623.607 1.63889 -5.24805 0
M  V30 6913 H 624.832 2.0955 -6.45961 0
M  V30 6914 H 622.778 3.9684 -5.22354 0
M  V30 6915 H 622.695 3.27942 -6.81168 0
M  V30 6916 H 623.963 4.40583 -6.43045 0
M  V30 6917 N 628.193 1.56834 0.155195 0
M  V30 6918 C 629.123 2.00678 1.19376 0
M  V30 6919 C 630.104 0.884973 1.45266 0
M  V30 6920 O 631.289 1.1522 1.56326 0
M  V30 6921 C 628.419 2.38042 2.5289 0
M  V30 6922 C 627.373 3.53332 2.41538 0
M  V30 6923 C 626.699 3.76485 3.79688 0
M  V30 6924 C 627.999 4.86265 1.9064 0
M  V30 6925 H 629.693 2.87688 0.829232 0
M  V30 6926 H 627.239 1.38407 0.397445 0
M  V30 6927 H 629.192 2.67314 3.25763 0
M  V30 6928 H 627.916 1.4796 2.91162 0
M  V30 6929 H 626.575 3.24213 1.71117 0
M  V30 6930 H 626.223 2.83667 4.15382 0
M  V30 6931 H 625.923 4.54068 3.72956 0
M  V30 6932 H 627.447 4.08174 4.54122 0
M  V30 6933 H 628.861 5.14308 2.53299 0
M  V30 6934 H 627.258 5.67597 1.94818 0
M  V30 6935 H 628.328 4.77184 0.861596 0
M  V30 6936 N 629.671 -0.424282 1.51781 0
M  V30 6937 C 630.919 -1.17028 1.64769 0
M  V30 6938 C 631.24 -1.91409 0.372523 0
M  V30 6939 O 630.51 -1.86091 -0.612108 0
M  V30 6940 H 629.09 -0.434992 0.607282 0
M  V30 6941 H 631.752 -0.485169 1.88765 0
M  V30 6942 H 630.848 -1.8927 2.4816 0
M  V30 6943 N 631.149 -1.42148 -0.680565 0
M  V30 6944 C 632.426 -1.32795 -1.43614 0
M  V30 6945 C 632.806 0.037415 -2.11067 0
M  V30 6946 O 632.154 1.05258 -2.02813 0
M  V30 6947 C 632.364 -2.49206 -2.44331 0
M  V30 6948 C 633.712 -2.91059 -3.09144 0
M  V30 6949 O 634.736 -2.49054 -2.54657 0
M  V30 6950 O 633.595 -3.63741 -4.07866 0
M  V30 6951 H 630.689 -0.523397 -0.640301 0
M  V30 6952 H 633.235 -1.54144 -0.709775 0
M  V30 6953 H 632.007 -3.40252 -1.93247 0
M  V30 6954 H 631.63 -2.29813 -3.24456 0
M  V30 6955 N 632.627 0.916307 -1.28225 0
M  V30 6956 C 633.574 2.01841 -1.11932 0
M  V30 6957 C 634.544 1.66091 -0.0171604 0
M  V30 6958 O 635.729 1.89934 -0.181617 0
M  V30 6959 C 632.869 3.36065 -0.784504 0
M  V30 6960 C 631.982 3.847 -1.96544 0
M  V30 6961 C 631.117 5.07423 -1.57149 0
M  V30 6962 C 630.156 5.48384 -2.71922 0
M  V30 6963 N 629.293 6.62298 -2.33037 0
M  V30 6964 H 634.133 2.1511 -2.06232 0
M  V30 6965 H 631.67 1.05366 -1.02647 0
M  V30 6966 H 633.628 4.13272 -0.571148 0
M  V30 6967 H 632.258 3.22571 0.121565 0
M  V30 6968 H 631.31 3.03673 -2.291 0
M  V30 6969 H 632.622 4.1102 -2.82603 0
M  V30 6970 H 631.776 5.92165 -1.32004 0
M  V30 6971 H 630.515 4.82906 -0.682153 0
M  V30 6972 H 629.52 4.62184 -2.97768 0
M  V30 6973 H 630.745 5.7489 -3.61494 0
M  V30 6974 H 628.691 6.39416 -1.4657 0
M  V30 6975 H 628.608 6.8833 -3.12631 0
M  V30 6976 H 629.876 7.50352 -2.11169 0
M  V30 6977 N 634.105 1.10431 1.1244 0
M  V30 6978 C 635.351 0.847972 1.84221 0
M  V30 6979 C 635.684 -0.624903 1.83871 0
M  V30 6980 O 634.959 -1.46074 1.28423 0
M  V30 6981 C 635.242 1.39695 3.319 0
M  V30 6982 C 635.095 2.93668 3.40704 0
M  V30 6983 C 636.414 1.03924 4.27654 0
M  V30 6984 H 633.533 0.309502 0.668863 0
M  V30 6985 H 636.175 1.36745 1.31912 0
M  V30 6986 H 634.325 0.955095 3.76577 0
M  V30 6987 H 635.997 3.46379 3.04662 0
M  V30 6988 H 634.24 3.30272 2.81252 0
M  V30 6989 H 634.911 3.27162 4.446 0
M  V30 6990 H 637.387 1.42049 3.91102 0
M  V30 6991 H 636.263 1.45027 5.29394 0
M  V30 6992 H 636.524 -0.051336 4.4207 0
M  V30 6993 N 635.583 -1.29855 0.893053 0
M  V30 6994 C 636.53 -2.27909 0.364161 0
M  V30 6995 C 637.5 -1.56726 -0.550093 0
M  V30 6996 O 638.685 -1.84747 -0.47677 0
M  V30 6997 C 635.825 -3.42678 -0.408178 0
M  V30 6998 C 634.938 -4.28659 0.536212 0
M  V30 6999 C 634.073 -5.30599 -0.252521 0
M  V30 7000 C 633.112 -6.08234 0.686822 0
M  V30 7001 N 632.249 -7.02068 -0.0670902 0
M  V30 7002 H 637.089 -2.72531 1.20544 0
M  V30 7003 H 634.626 -1.34047 0.605779 0
M  V30 7004 H 636.584 -4.07986 -0.871962 0
M  V30 7005 H 635.214 -2.99103 -1.21397 0
M  V30 7006 H 634.266 -3.63584 1.1185 0
M  V30 7007 H 635.578 -4.8274 1.25552 0
M  V30 7008 H 634.732 -6.01694 -0.777801 0
M  V30 7009 H 633.471 -4.77233 -1.005 0
M  V30 7010 H 632.476 -5.3601 1.22366 0
M  V30 7011 H 633.701 -6.63689 1.43852 0
M  V30 7012 H 631.647 -6.5108 -0.801955 0
M  V30 7013 H 631.564 -7.53675 0.59243 0
M  V30 7014 H 632.832 -7.77392 -0.572851 0
M  V30 7015 N 637.061 -0.65484 -1.43351 0
M  V30 7016 C 638.338 -0.0987371 -1.95351 0
M  V30 7017 C 638.718 1.38161 -1.59608 0
M  V30 7018 O 638.066 2.10791 -0.882021 0
M  V30 7019 C 638.276 -0.346684 -3.47274 0
M  V30 7020 C 639.624 -0.25249 -4.23849 0
M  V30 7021 O 640.648 -0.279332 -3.55103 0
M  V30 7022 O 639.507 -0.177584 -5.46211 0
M  V30 7023 H 636.601 0.0086829 -0.826954 0
M  V30 7024 H 639.147 -0.728189 -1.53282 0
M  V30 7025 H 637.919 -1.37296 -3.66423 0
M  V30 7026 H 637.542 0.315757 -3.96344 0
M  V30 7027 N 638.539 1.52521 -0.396863 0
M  V30 7028 C 639.469 2.29582 0.425941 0
M  V30 7029 C 640.45 1.33281 1.05689 0
M  V30 7030 O 641.635 1.62181 1.06823 0
M  V30 7031 C 638.765 3.10821 1.54943 0
M  V30 7032 C 637.719 4.15069 1.04413 0
M  V30 7033 C 637.045 4.84578 2.26028 0
M  V30 7034 C 638.345 5.22191 0.106767 0
M  V30 7035 H 640.039 2.98612 -0.217045 0
M  V30 7036 H 637.585 1.43611 -0.105826 0
M  V30 7037 H 639.538 3.63492 2.13193 0
M  V30 7038 H 638.262 2.39538 2.22011 0
M  V30 7039 H 636.921 3.63389 0.484118 0
M  V30 7040 H 636.569 4.09835 2.91623 0
M  V30 7041 H 636.269 5.55043 1.92876 0
M  V30 7042 H 637.793 5.40056 2.84906 0
M  V30 7043 H 639.207 5.70176 0.597685 0
M  V30 7044 H 637.604 5.99947 -0.135352 0
M  V30 7045 H 638.674 4.77531 -0.842134 0
M  V30 7046 N 640.017 0.126909 1.57088 0
M  V30 7047 C 641.242 -0.53997 2.00248 0
M  V30 7048 C 641.667 -1.58927 1.00618 0
M  V30 7049 O 641.025 -1.81288 -0.0210131 0
M  V30 7050 C 641.073 -1.13565 3.4225 0
M  V30 7051 O 640.177 -2.25103 3.45547 0
M  V30 7052 H 639.518 -0.13412 0.650314 0
M  V30 7053 H 642.048 0.217718 2.03438 0
M  V30 7054 H 642.058 -1.46925 3.80627 0
M  V30 7055 H 640.733 -0.367122 4.14277 0
M  V30 7056 H 639.31 -1.93123 3.18995 0
M  V30 7057 N 641.495 -1.56914 -0.146875 0
M  V30 7058 C 642.743 -1.82994 -0.85777 0
M  V30 7059 C 643.064 -0.707814 -1.817 0
M  V30 7060 O 642.334 0.270521 -1.94023 0
M  V30 7061 H 640.914 -0.675106 -0.319751 0
M  V30 7062 H 643.576 -1.9439 -0.140849 0
M  V30 7063 H 642.672 -2.77928 -1.41994 0
M  V30 7064 N 642.974 0.416227 -1.52004 0
M  V30 7065 C 644.22 1.16555 -1.6596 0
M  V30 7066 C 644.553 1.90347 -0.384906 0
M  V30 7067 O 643.828 1.84474 0.616405 0
M  V30 7068 C 644.111 2.1657 -2.87696 0
M  V30 7069 C 643.964 1.46722 -4.25197 0
M  V30 7070 C 645.283 3.17321 -3.04951 0
M  V30 7071 H 642.402 0.422369 -0.603965 0
M  V30 7072 H 645.044 0.452141 -1.84542 0
M  V30 7073 H 643.194 2.77411 -2.71985 0
M  V30 7074 H 644.866 0.89056 -4.52622 0
M  V30 7075 H 643.109 0.769263 -4.26925 0
M  V30 7076 H 643.78 2.19665 -5.0641 0
M  V30 7077 H 646.256 2.66552 -3.19514 0
M  V30 7078 H 645.132 3.84573 -3.91656 0
M  V30 7079 H 645.393 3.84643 -2.17951 0
M  V30 7080 N 644.452 1.42507 0.673017 0
M  V30 7081 C 645.399 1.46124 1.78651 0
M  V30 7082 C 646.369 0.313007 1.63124 0
M  V30 7083 O 647.554 0.517337 1.83653 0
M  V30 7084 C 644.694 1.3711 3.16694 0
M  V30 7085 C 643.807 2.61983 3.43495 0
M  V30 7086 C 642.942 2.45098 4.71275 0
M  V30 7087 C 641.981 3.65336 4.91117 0
M  V30 7088 N 641.118 3.47383 6.10139 0
M  V30 7089 H 645.958 2.4128 1.74895 0
M  V30 7090 H 643.495 1.19788 0.853766 0
M  V30 7091 H 645.453 1.29881 3.96468 0
M  V30 7092 H 644.083 0.45549 3.1957 0
M  V30 7093 H 643.135 2.79571 2.57961 0
M  V30 7094 H 644.447 3.51355 3.5405 0
M  V30 7095 H 643.601 2.35466 5.59143 0
M  V30 7096 H 642.34 1.53219 4.63007 0
M  V30 7097 H 641.345 3.754 4.0169 0
M  V30 7098 H 642.57 4.58199 5.01229 0
M  V30 7099 H 640.516 2.58222 6.0304 0
M  V30 7100 H 640.433 4.30344 6.21563 0
M  V30 7101 H 641.701 3.41565 7.00681 0
M  V30 7102 N 645.93 -0.909495 1.28709 0
M  V30 7103 C 647.179 -1.65365 1.15487 0
M  V30 7104 C 647.492 -1.93364 -0.294941 0
M  V30 7105 O 648.698 -2.65905 -0.548338 0
M  V30 7106 C 647.154 -2.97923 2.01916 0
M  V30 7107 C 646.762 -2.77556 3.51663 0
M  V30 7108 C 648.506 -3.75814 1.97393 0
M  V30 7109 C 646.413 -4.0578 4.30229 0
M  V30 7110 H 645.343 -0.620323 0.42862 0
M  V30 7111 H 647.994 -1.00894 1.53273 0
M  V30 7112 H 646.376 -3.63552 1.5699 0
M  V30 7113 H 647.55 -2.2058 4.04575 0
M  V30 7114 H 645.865 -2.13072 3.57756 0
M  V30 7115 H 648.462 -4.70866 2.53357 0
M  V30 7116 H 648.805 -4.05277 0.951643 0
M  V30 7117 H 649.338 -3.1701 2.40311 0
M  V30 7118 H 646.077 -3.81488 5.33055 0
M  V30 7119 H 645.597 -4.62351 3.82089 0
M  V30 7120 H 647.276 -4.74004 4.40374 0
M  V30 7121 N 647.408 -1.11026 -1.11852 0
M  V30 7122 C 648.655 -0.85646 -1.83497 0
M  V30 7123 C 648.983 0.617938 -1.84423 0
M  V30 7124 O 648.238 1.47194 -1.28966 0
M  V30 7125 C 648.537 -1.35777 -3.30604 0
M  V30 7126 C 648.203 -2.84465 -3.49843 0
M  V30 7127 C 646.865 -3.25068 -3.54802 0
M  V30 7128 C 649.217 -3.80251 -3.56453 0
M  V30 7129 C 646.545 -4.60194 -3.63921 0
M  V30 7130 C 648.897 -5.15188 -3.67102 0
M  V30 7131 C 647.561 -5.55356 -3.70319 0
M  V30 7132 H 646.831 -0.313401 -0.671462 0
M  V30 7133 H 649.478 -1.38792 -1.31943 0
M  V30 7134 H 647.783 -0.746455 -3.84624 0
M  V30 7135 H 649.48 -1.13779 -3.8452 0
M  V30 7136 H 646.07 -2.52054 -3.46651 0
M  V30 7137 H 650.254 -3.49986 -3.51886 0
M  V30 7138 H 645.51 -4.90728 -3.64686 0
M  V30 7139 H 649.684 -5.89248 -3.71159 0
M  V30 7140 H 647.311 -6.60054 -3.77138 0
M  V30 7141 N 648.886 1.2938 -0.899927 0
M  V30 7142 C 650.114 1.99691 -0.541386 0
M  V30 7143 C 650.529 1.67355 0.873936 0
M  V30 7144 O 649.886 0.918728 1.57688 0
M  V30 7145 C 649.937 3.54168 -0.72438 0
M  V30 7146 O 649.658 3.85359 -2.08399 0
M  V30 7147 C 651.159 4.41746 -0.370819 0
M  V30 7148 H 648.379 0.638037 -0.207726 0
M  V30 7149 H 650.923 1.6491 -1.20934 0
M  V30 7150 H 649.078 3.87261 -0.103607 0
M  V30 7151 H 649.492 4.80032 -2.11352 0
M  V30 7152 H 650.966 5.49256 -0.549693 0
M  V30 7153 H 651.443 4.33712 0.692148 0
M  V30 7154 H 652.049 4.14125 -0.968543 0
M  V30 7155 N 650.364 0.662433 1.43002 0
M  V30 7156 C 651.592 0.187615 2.06048 0
M  V30 7157 C 652.007 -1.15039 1.49705 0
M  V30 7158 O 651.364 -1.71209 0.631956 0
M  V30 7159 C 651.415 0.100498 3.6136 0
M  V30 7160 O 651.136 1.38562 4.15611 0
M  V30 7161 C 652.637 -0.399298 4.41498 0
M  V30 7162 H 649.857 0.0941675 0.664359 0
M  V30 7163 H 652.401 0.905681 1.83351 0
M  V30 7164 H 650.556 -0.568181 3.83211 0
M  V30 7165 H 650.97 1.25084 5.09366 0
M  V30 7166 H 652.444 -0.409187 5.50481 0
M  V30 7167 H 652.921 -1.43232 4.15188 0
M  V30 7168 H 653.527 0.23721 4.24638 0
M  V30 7169 N 651.842 -1.52309 0.404946 0
M  V30 7170 C 653.089 -2.01767 -0.1722 0
M  V30 7171 C 653.417 -1.29075 -1.45498 0
M  V30 7172 O 652.672 -0.3843 -1.9189 0
M  V30 7173 C 652.971 -3.54284 -0.470895 0
M  V30 7174 C 652.637 -4.45079 0.722194 0
M  V30 7175 C 651.299 -4.69617 1.04946 0
M  V30 7176 C 653.651 -4.98555 1.51962 0
M  V30 7177 C 650.979 -5.44878 2.17543 0
M  V30 7178 C 653.331 -5.75049 2.63632 0
M  V30 7179 C 651.995 -5.9786 2.9685 0
M  V30 7180 H 651.265 -0.738316 -0.0630125 0
M  V30 7181 H 653.912 -1.83566 0.545506 0
M  V30 7182 H 652.217 -3.70642 -1.27012 0
M  V30 7183 H 653.914 -3.90058 -0.930346 0
M  V30 7184 H 650.504 -4.26155 0.457131 0
M  V30 7185 H 654.688 -4.79509 1.28002 0
M  V30 7186 H 649.944 -5.60762 2.43631 0
M  V30 7187 H 654.118 -6.15483 3.25813 0
M  V30 7188 H 651.745 -6.5596 3.84215 0
M  V30 7189 N 653.32 -0.135238 -1.57019 0
M  V30 7190 C 654.597 0.563227 -1.87316 0
M  V30 7191 C 654.977 1.83749 -1.03921 0
M  V30 7192 O 654.325 2.2817 -0.122675 0
M  V30 7193 C 654.535 0.840031 -3.3874 0
M  V30 7194 C 655.883 1.18598 -4.077 0
M  V30 7195 O 656.907 0.92977 -3.43851 0
M  V30 7196 O 655.766 1.66758 -5.20436 0
M  V30 7197 H 652.86 0.285971 -0.775983 0
M  V30 7198 H 655.406 -0.170965 -1.68837 0
M  V30 7199 H 654.178 -0.0622785 -3.9125 0
M  V30 7200 H 653.801 1.62882 -3.62706 0
M  V30 7201 N 654.798 1.5699 0.138552 0
M  V30 7202 C 656.023 1.88344 0.86841 0
M  V30 7203 C 656.448 0.725159 1.7356 0
M  V30 7204 O 655.806 -0.324992 1.78363 0
M  V30 7205 C 655.854 3.18334 1.69398 0
M  V30 7206 O 654.958 3.02863 2.79907 0
M  V30 7207 H 654.299 0.618577 0.241367 0
M  V30 7208 H 656.829 2.04207 0.126826 0
M  V30 7209 H 656.839 3.50567 2.08726 0
M  V30 7210 H 655.514 4.02238 1.05725 0
M  V30 7211 H 654.091 2.82056 2.43924 0
M  V30 7212 N 656.276 -0.40816 1.52223 0
M  V30 7213 C 657.522 -1.15673 1.66576 0
M  V30 7214 C 657.855 -1.90141 0.394996 0
M  V30 7215 O 657.13 -1.84798 -0.606613 0
M  V30 7216 C 657.413 -2.15042 2.88841 0
M  V30 7217 C 657.266 -1.44465 4.25969 0
M  V30 7218 C 658.585 -3.15699 3.0663 0
M  V30 7219 H 655.704 -0.41916 0.606196 0
M  V30 7220 H 658.346 -0.442348 1.84779 0
M  V30 7221 H 656.496 -2.75964 2.73452 0
M  V30 7222 H 658.168 -0.866544 4.53088 0
M  V30 7223 H 656.411 -0.746612 4.27327 0
M  V30 7224 H 657.082 -2.16976 5.07568 0
M  V30 7225 H 659.558 -2.64854 3.20923 0
M  V30 7226 H 658.434 -3.82491 3.9369 0
M  V30 7227 H 658.695 -3.83481 2.19987 0
M  V30 7228 N 657.755 -1.42862 -0.66545 0
M  V30 7229 C 658.718 -1.46756 -1.76055 0
M  V30 7230 C 659.718 -0.353866 -1.56858 0
M  V30 7231 O 660.908 -0.615099 -1.62979 0
M  V30 7232 C 658.04 -1.30829 -3.14796 0
M  V30 7233 H 659.233 -2.44271 -1.73987 0
M  V30 7234 H 656.786 -1.29447 -0.875965 0
M  V30 7235 H 657.521 -0.342733 -3.22484 0
M  V30 7236 H 657.306 -2.11551 -3.30134 0
M  V30 7237 H 658.796 -1.36458 -3.94676 0
M  V30 7238 N 659.233 0.902656 -1.29189 0
M  V30 7239 C 660.165 2.01149 -1.09872 0
M  V30 7240 C 661.178 1.62732 -0.0471046 0
M  V30 7241 O 662.367 1.76107 -0.29132 0
M  V30 7242 C 659.467 3.32612 -0.649818 0
M  V30 7243 C 658.64 3.99574 -1.7793 0
M  V30 7244 C 657.699 5.09325 -1.32191 0
M  V30 7245 O 656.725 5.31919 -2.02611 0
M  V30 7246 N 657.927 5.80185 -0.191171 0
M  V30 7247 H 660.692 2.18276 -2.05368 0
M  V30 7248 H 658.253 1.07466 -1.2109 0
M  V30 7249 H 660.245 4.03375 -0.327199 0
M  V30 7250 H 658.815 3.11876 0.212597 0
M  V30 7251 H 658.035 3.22213 -2.27095 0
M  V30 7252 H 659.323 4.41056 -2.53668 0
M  V30 7253 H 658.721 5.64312 0.396016 0
M  V30 7254 H 657.278 6.5176 0.0721001 0
M  V30 7255 N 660.711 1.11618 1.11262 0
M  V30 7256 C 661.988 0.777876 1.79467 0
M  V30 7257 C 662.368 -0.733774 1.97937 0
M  V30 7258 O 661.716 -1.66443 1.56554 0
M  V30 7259 C 661.926 1.5431 3.13032 0
M  V30 7260 C 663.274 1.72357 3.88044 0
M  V30 7261 O 664.298 1.5075 3.22727 0
M  V30 7262 O 663.157 2.08276 5.05256 0
M  V30 7263 H 660.251 0.282018 0.777428 0
M  V30 7264 H 662.797 1.21971 1.17988 0
M  V30 7265 H 661.569 2.57132 2.94956 0
M  V30 7266 H 661.192 1.09495 3.82226 0
M  V30 7267 N 662.189 -1.289 0.906776 0
M  V30 7268 C 663.152 -2.25777 0.394656 0
M  V30 7269 C 664.152 -1.53621 -0.475119 0
M  V30 7270 O 665.342 -1.71949 -0.279165 0
M  V30 7271 C 662.474 -3.38113 -0.43499 0
M  V30 7272 H 663.667 -2.72592 1.25033 0
M  V30 7273 H 661.22 -1.40463 0.685547 0
M  V30 7274 H 661.955 -2.96648 -1.31036 0
M  V30 7275 H 661.74 -3.91647 0.188334 0
M  V30 7276 H 663.23 -4.10168 -0.784365 0
M  V30 7277 N 663.667 -0.670007 -1.42649 0
M  V30 7278 C 664.63 0.00204659 -2.292 0
M  V30 7279 C 665.63 0.733817 -1.4308 0
M  V30 7280 O 666.82 0.57254 -1.64522 0
M  V30 7281 C 663.952 1.01359 -3.25483 0
M  V30 7282 H 665.145 -0.759696 -2.90118 0
M  V30 7283 H 662.698 -0.432105 -1.50208 0
M  V30 7284 H 663.433 1.80399 -2.69493 0
M  V30 7285 H 663.218 0.492323 -3.88997 0
M  V30 7286 H 664.708 1.4824 -3.90403 0
M  V30 7287 N 665.145 1.52092 -0.413018 0
M  V30 7288 C 666.055 2.30858 0.417318 0
M  V30 7289 C 667.071 1.38746 1.05003 0
M  V30 7290 O 668.247 1.71821 1.05069 0
M  V30 7291 C 665.312 3.11756 1.51687 0
M  V30 7292 C 664.373 4.19613 0.906825 0
M  V30 7293 C 663.606 4.96644 1.95399 0
M  V30 7294 O 663.829 4.7402 3.17271 0
M  V30 7295 O 662.763 5.81385 1.55805 0
M  V30 7296 H 666.589 3.02865 -0.225028 0
M  V30 7297 H 664.174 1.48358 -0.176126 0
M  V30 7298 H 666.056 3.62122 2.15512 0
M  V30 7299 H 664.731 2.42539 2.14375 0
M  V30 7300 H 663.638 3.73385 0.231183 0
M  V30 7301 H 664.971 4.91134 0.323814 0
M  V30 7302 N 666.623 0.143563 1.56945 0
M  V30 7303 C 667.57 -0.797433 2.16586 0
M  V30 7304 C 668.54 -1.24654 1.09775 0
M  V30 7305 O 669.725 -1.31968 1.37801 0
M  V30 7306 C 666.865 -2.03253 2.78895 0
M  V30 7307 C 665.978 -1.62954 4.00087 0
M  V30 7308 C 665.113 -2.81617 4.50406 0
M  V30 7309 C 664.152 -2.37675 5.64072 0
M  V30 7310 N 663.289 -3.49335 6.09023 0
M  V30 7311 H 668.129 -0.282023 2.96662 0
M  V30 7312 H 665.666 -0.127494 1.46546 0
M  V30 7313 H 667.624 -2.75653 3.13163 0
M  V30 7314 H 666.254 -2.52211 2.01469 0
M  V30 7315 H 665.306 -0.803322 3.71821 0
M  V30 7316 H 666.618 -1.26679 4.82446 0
M  V30 7317 H 665.772 -3.62212 4.86711 0
M  V30 7318 H 664.511 -3.21134 3.67048 0
M  V30 7319 H 663.516 -1.55519 5.27346 0
M  V30 7320 H 664.741 -1.99247 6.49213 0
M  V30 7321 H 662.687 -3.8848 5.28601 0
M  V30 7322 H 662.604 -3.17064 6.86299 0
M  V30 7323 H 663.872 -4.30297 6.49973 0
M  V30 7324 N 668.101 -1.57061 -0.130224 0
M  V30 7325 C 669.064 -1.98593 -1.14426 0
M  V30 7326 C 670.064 -0.874584 -1.34936 0
M  V30 7327 O 671.254 -1.14086 -1.31643 0
M  V30 7328 C 668.386 -2.31639 -2.50112 0
M  V30 7329 H 669.579 -2.89374 -0.787561 0
M  V30 7330 H 667.132 -1.51756 -0.374146 0
M  V30 7331 H 667.867 -1.43703 -2.90723 0
M  V30 7332 H 667.652 -3.12684 -2.36583 0
M  V30 7333 H 669.142 -2.64551 -3.23114 0
M  V30 7334 N 669.579 0.400081 -1.52437 0
M  V30 7335 C 670.542 1.4707 -1.75793 0
M  V30 7336 C 671.542 1.48036 -0.627856 0
M  V30 7337 O 672.732 1.49401 -0.895817 0
M  V30 7338 C 669.864 2.86427 -1.84858 0
M  V30 7339 H 671.057 1.27649 -2.71377 0
M  V30 7340 H 668.61 0.631141 -1.42991 0
M  V30 7341 H 669.345 3.11207 -0.912194 0
M  V30 7342 H 669.13 2.87128 -2.6702 0
M  V30 7343 H 670.62 3.64023 -2.04638 0
M  V30 7344 N 671.057 1.43213 0.657864 0
M  V30 7345 C 672.303 1.44798 1.41991 0
M  V30 7346 C 672.636 0.070256 1.94073 0
M  V30 7347 O 671.911 -0.908177 1.71995 0
M  V30 7348 C 672.194 2.4865 2.60471 0
M  V30 7349 C 672.047 3.95679 2.13911 0
M  V30 7350 C 673.366 2.49292 3.62686 0
M  V30 7351 H 670.485 0.527244 0.514959 0
M  V30 7352 H 673.127 1.74733 0.74621 0
M  V30 7353 H 671.277 2.23254 3.17946 0
M  V30 7354 H 672.949 4.32116 1.61472 0
M  V30 7355 H 671.192 4.08733 1.45325 0
M  V30 7356 H 671.863 4.6395 2.99089 0
M  V30 7357 H 674.339 2.71917 3.14961 0
M  V30 7358 H 673.215 3.23907 4.43143 0
M  V30 7359 H 673.476 1.52502 4.14964 0
M  V30 7360 N 672.536 -0.895792 1.29666 0
M  V30 7361 C 673.446 -2.03329 1.17024 0
M  V30 7362 C 674.462 -1.73753 0.0925962 0
M  V30 7363 O 675.638 -1.99071 0.305431 0
M  V30 7364 C 672.703 -3.36072 0.851841 0
M  V30 7365 C 671.764 -3.7914 2.01373 0
M  V30 7366 C 670.997 -5.05549 1.71043 0
M  V30 7367 O 671.22 -5.66874 0.633213 0
M  V30 7368 O 670.154 -5.44764 2.5596 0
M  V30 7369 H 673.98 -2.16918 2.12556 0
M  V30 7370 H 671.565 -1.02007 1.09156 0
M  V30 7371 H 673.447 -4.15729 0.689006 0
M  V30 7372 H 672.122 -3.23616 -0.0736634 0
M  V30 7373 H 671.029 -3.00233 2.23183 0
M  V30 7374 H 672.362 -3.96186 2.92058 0
M  V30 7375 N 674.014 -1.12206 -1.10668 0
M  V30 7376 C 675.262 -0.874144 -1.82217 0
M  V30 7377 C 675.583 0.601736 -1.85484 0
M  V30 7378 O 674.853 1.43725 -1.33116 0
M  V30 7379 H 673.433 -0.320404 -0.674797 0
M  V30 7380 H 676.095 -1.41606 -1.33917 0
M  V30 7381 H 675.191 -1.25349 -2.85822 0
M  V30 7382 N 675.492 1.28418 -0.913599 0
M  V30 7383 C 676.741 1.94265 -0.542572 0
M  V30 7384 C 677.054 1.72709 0.918207 0
M  V30 7385 O 678.26 2.32778 1.39738 0
M  V30 7386 C 676.716 3.47956 -0.919507 0
M  V30 7387 C 676.324 3.78291 -2.4 0
M  V30 7388 C 678.068 4.19962 -0.619057 0
M  V30 7389 C 675.975 5.2529 -2.71707 0
M  V30 7390 H 674.905 0.727213 -0.199192 0
M  V30 7391 H 677.556 1.45931 -1.11249 0
M  V30 7392 H 675.938 3.9502 -0.278372 0
M  V30 7393 H 677.112 3.42035 -3.08786 0
M  V30 7394 H 675.427 3.19456 -2.67089 0
M  V30 7395 H 678.024 5.28178 -0.832623 0
M  V30 7396 H 678.367 4.13935 0.443126 0
M  V30 7397 H 678.9 3.78674 -1.21865 0
M  V30 7398 H 675.639 5.36394 -3.76778 0
M  V30 7399 H 675.159 5.62743 -2.07559 0
M  V30 7400 H 676.838 5.93027 -2.58703 0
M  V30 7401 N 676.97 0.677563 1.42291 0
M  V30 7402 C 678.381 0.277912 1.8462 0
M  V30 7403 C 678.732 -1.18048 1.56714 0
M  V30 7404 O 677.857 -1.90404 1.02836 0
M  V30 7405 C 678.452 0.497619 3.35126 0
M  V30 7406 C 677.011 0.152063 3.76093 0
M  V30 7407 C 676.158 0.78872 2.65847 0
M  V30 7408 H 679.109 0.879527 1.32098 0
M  V30 7409 H 679.13 -0.24939 3.79682 0
M  V30 7410 H 678.642 1.55913 3.55405 0
M  V30 7411 H 676.743 -0.905896 3.6142 0
M  V30 7412 H 676.856 0.594514 4.75397 0
M  V30 7413 H 675.22 0.219813 2.5375 0
M  V30 7414 H 676.003 1.85374 2.88949 0
M  V30 7415 N 678.448 -1.51871 0.421078 0
M  V30 7416 C 679.411 -2.25914 -0.386712 0
M  V30 7417 C 680.411 -1.28733 -0.963555 0
M  V30 7418 O 681.601 -1.52579 -0.840556 0
M  V30 7419 C 678.733 -3.03853 -1.54551 0
M  V30 7420 H 679.926 -2.98754 0.261978 0
M  V30 7421 H 677.479 -1.5533 0.173862 0
M  V30 7422 H 678.214 -2.35392 -2.23072 0
M  V30 7423 H 677.999 -3.75215 -1.13824 0
M  V30 7424 H 679.489 -3.59984 -2.11663 0
M  V30 7425 N 679.926 -0.151884 -1.56866 0
M  V30 7426 C 680.856 0.781943 -2.20018 0
M  V30 7427 C 681.837 1.25347 -1.14987 0
M  V30 7428 O 683.022 1.31015 -1.43348 0
M  V30 7429 C 680.152 2.01928 -2.82564 0
M  V30 7430 C 679.106 1.68434 -3.93464 0
M  V30 7431 C 678.432 2.99472 -4.42968 0
M  V30 7432 C 679.732 0.927244 -5.14003 0
M  V30 7433 H 681.426 0.255607 -2.98307 0
M  V30 7434 H 678.972 0.121502 -1.43486 0
M  V30 7435 H 680.925 2.67741 -3.25411 0
M  V30 7436 H 679.649 2.56943 -2.01614 0
M  V30 7437 H 678.308 1.04998 -3.51242 0
M  V30 7438 H 677.956 3.52488 -3.58834 0
M  V30 7439 H 677.656 2.77823 -5.17772 0
M  V30 7440 H 679.18 3.66348 -4.88489 0
M  V30 7441 H 680.594 1.48756 -5.53665 0
M  V30 7442 H 678.991 0.810513 -5.94601 0
M  V30 7443 H 680.061 -0.0801163 -4.84834 0
M  V30 7444 N 681.404 1.57128 0.121893 0
M  V30 7445 C 682.351 2.0013 1.14964 0
M  V30 7446 C 683.321 0.872959 1.4131 0
M  V30 7447 O 684.506 1.13696 1.53225 0
M  V30 7448 C 681.646 2.40824 2.4718 0
M  V30 7449 C 680.759 3.67061 2.27794 0
M  V30 7450 C 679.894 3.96749 3.53219 0
M  V30 7451 C 678.933 5.16178 3.28978 0
M  V30 7452 N 678.07 5.41751 4.46599 0
M  V30 7453 H 682.91 2.8772 0.775947 0
M  V30 7454 H 680.447 1.42328 0.371652 0
M  V30 7455 H 682.405 2.62454 3.24305 0
M  V30 7456 H 681.035 1.56279 2.82448 0
M  V30 7457 H 680.087 3.53063 1.416 0
M  V30 7458 H 681.399 4.5434 2.05857 0
M  V30 7459 H 680.553 4.19012 4.38764 0
M  V30 7460 H 679.292 3.07941 3.78185 0
M  V30 7461 H 678.297 4.93762 2.41824 0
M  V30 7462 H 679.522 6.06561 3.05386 0
M  V30 7463 H 677.468 4.55899 4.71691 0
M  V30 7464 H 677.385 6.23347 4.27756 0
M  V30 7465 H 678.653 5.68531 5.33285 0
M  V30 7466 N 682.882 -0.391992 1.52647 0
M  V30 7467 C 683.829 -1.47866 1.77213 0
M  V30 7468 C 684.799 -1.54286 0.615223 0
M  V30 7469 O 685.984 -1.7059 0.854622 0
M  V30 7470 C 683.124 -2.85129 1.94411 0
M  V30 7471 C 682.237 -2.87883 3.22098 0
M  V30 7472 C 681.372 -4.16553 3.29631 0
M  V30 7473 C 680.411 -4.13348 4.51453 0
M  V30 7474 N 679.548 -5.33619 4.56284 0
M  V30 7475 H 684.388 -1.26219 2.6995 0
M  V30 7476 H 681.925 -0.612367 1.33748 0
M  V30 7477 H 683.883 -3.64833 2.02367 0
M  V30 7478 H 682.513 -3.05232 1.05038 0
M  V30 7479 H 681.565 -2.00567 3.23229 0
M  V30 7480 H 682.877 -2.81382 4.11856 0
M  V30 7481 H 682.031 -5.0466 3.36753 0
M  V30 7482 H 680.77 -4.25773 2.37842 0
M  V30 7483 H 679.775 -3.23629 4.44459 0
M  V30 7484 H 681 -4.05754 5.44555 0
M  V30 7485 H 678.946 -5.43474 3.67385 0
M  V30 7486 H 678.863 -5.29182 5.3991 0
M  V30 7487 H 680.131 -6.23632 4.67657 0
M  V30 7488 N 684.36 -1.4356 -0.65026 0
M  V30 7489 C 685.292 -1.44918 -1.77571 0
M  V30 7490 C 686.305 -0.344925 -1.59104 0
M  V30 7491 O 687.494 -0.609537 -1.6777 0
M  V30 7492 C 684.594 -1.24914 -3.15039 0
M  V30 7493 C 683.767 -2.48232 -3.60138 0
M  V30 7494 C 682.826 -2.23409 -4.76419 0
M  V30 7495 O 681.852 -2.9678 -4.85706 0
M  V30 7496 N 683.054 -1.25259 -5.66825 0
M  V30 7497 H 685.819 -2.41935 -1.76883 0
M  V30 7498 H 683.38 -1.38754 -0.834202 0
M  V30 7499 H 685.372 -1.06185 -3.90521 0
M  V30 7500 H 683.942 -0.363319 -3.10481 0
M  V30 7501 H 683.162 -2.82366 -2.75069 0
M  V30 7502 H 684.45 -3.30296 -3.87017 0
M  V30 7503 H 683.848 -0.646246 -5.61997 0
M  V30 7504 H 682.405 -1.12513 -6.42016 0
M  V30 7505 N 685.838 0.888903 -1.30139 0
M  V30 7506 C 687.254 1.17153 -1.08385 0
M  V30 7507 C 687.454 2.0088 0.157925 0
M  V30 7508 O 686.51 2.37668 0.852652 0
M  V30 7509 C 687.823 1.882 -2.34523 0
M  V30 7510 C 689.371 2.00981 -2.39949 0
M  V30 7511 C 689.846 2.75441 -3.65918 0
M  V30 7512 N 691.337 2.82989 -3.66704 0
M  V30 7513 C 692.072 3.41167 -4.60861 0
M  V30 7514 N 691.568 4.00425 -5.6536 0
M  V30 7515 N 693.361 3.38944 -4.48412 0
M  V30 7516 H 685.512 0.33053 -2.09812 0
M  V30 7517 H 687.775 0.208964 -0.924683 0
M  V30 7518 H 687.481 1.34119 -3.25123 0
M  V30 7519 H 687.355 2.88609 -2.42868 0
M  V30 7520 H 689.742 2.54234 -1.4983 0
M  V30 7521 H 689.823 0.996725 -2.35582 0
M  V30 7522 H 689.467 2.22861 -4.56394 0
M  V30 7523 H 689.397 3.77118 -3.67546 0
M  V30 7524 H 691.888 2.40912 -2.91153 0
M  V30 7525 H 692.201 4.42871 -6.33313 0
M  V30 7526 H 690.546 3.98856 -5.69157 0
M  V30 7527 H 693.737 2.91875 -3.6596 0
M  V30 7528 H 693.91 3.83989 -5.21974 0
M  V30 7529 N 687.317 1.12792 1.10072 0
M  V30 7530 C 688.264 0.79921 2.16521 0
M  V30 7531 C 689.234 -0.235726 1.64419 0
M  V30 7532 O 690.419 -0.109457 1.90486 0
M  V30 7533 C 687.559 0.264091 3.44088 0
M  V30 7534 C 686.672 1.35729 4.10124 0
M  V30 7535 C 685.807 0.781212 5.25424 0
M  V30 7536 C 684.846 1.85327 5.8337 0
M  V30 7537 N 683.983 1.29564 6.90042 0
M  V30 7538 H 688.823 1.71105 2.43981 0
M  V30 7539 H 686.36 0.854225 1.19756 0
M  V30 7540 H 688.318 -0.0642423 4.17151 0
M  V30 7541 H 686.948 -0.610901 3.16967 0
M  V30 7542 H 686 1.80234 3.34993 0
M  V30 7543 H 687.312 2.16782 4.4923 0
M  V30 7544 H 686.466 0.403769 6.05355 0
M  V30 7545 H 685.205 -0.0604686 4.87663 0
M  V30 7546 H 684.21 2.23986 5.02106 0
M  V30 7547 H 685.435 2.69824 6.23195 0
M  V30 7548 H 683.381 0.475844 6.54272 0
M  V30 7549 H 683.298 2.04271 7.2788 0
M  V30 7550 H 684.566 0.945545 7.73744 0
M  V30 7551 N 688.795 -1.27931 0.920396 0
M  V30 7552 C 689.725 -2.29487 0.431024 0
M  V30 7553 C 690.706 -1.62435 -0.504861 0
M  V30 7554 O 691.891 -1.89797 -0.411176 0
M  V30 7555 C 689.021 -3.45788 -0.323709 0
M  V30 7556 C 687.975 -4.24784 0.523658 0
M  V30 7557 C 687.301 -5.33488 -0.359809 0
M  V30 7558 C 688.601 -4.90874 1.78437 0
M  V30 7559 H 690.295 -2.70671 1.27975 0
M  V30 7560 H 687.841 -1.30121 0.616813 0
M  V30 7561 H 689.794 -4.15927 -0.676952 0
M  V30 7562 H 688.518 -3.03502 -1.2064 0
M  V30 7563 H 687.177 -3.56382 0.85951 0
M  V30 7564 H 686.825 -4.87445 -1.24124 0
M  V30 7565 H 686.525 -5.87247 0.203605 0
M  V30 7566 H 688.049 -6.06472 -0.708787 0
M  V30 7567 H 689.463 -5.53339 1.49963 0
M  V30 7568 H 687.86 -5.54659 2.29071 0
M  V30 7569 H 688.93 -4.14988 2.50824 0
M  V30 7570 N 690.273 -0.685099 -1.4193 0
M  V30 7571 C 691.498 -0.218842 -2.06242 0
M  V30 7572 C 691.923 1.11923 -1.51178 0
M  V30 7573 O 691.281 1.69837 -0.634446 0
M  V30 7574 C 691.329 -0.175592 -3.60172 0
M  V30 7575 O 690.433 0.852776 -4.03487 0
M  V30 7576 H 689.774 -0.109531 -0.654904 0
M  V30 7577 H 692.304 -0.937013 -1.81882 0
M  V30 7578 H 692.314 -0.00291151 -4.08 0
M  V30 7579 H 690.989 -1.15222 -3.99621 0
M  V30 7580 H 689.566 0.650301 -3.67186 0
M  V30 7581 N 691.751 1.51645 -0.429126 0
M  V30 7582 C 693.028 1.94579 0.199614 0
M  V30 7583 C 693.408 1.3673 1.60836 0
M  V30 7584 O 692.756 0.551062 2.21756 0
M  V30 7585 C 692.966 3.48506 0.185685 0
M  V30 7586 C 694.314 4.22756 0.395282 0
M  V30 7587 O 695.338 3.55219 0.264165 0
M  V30 7588 O 694.197 5.42555 0.655475 0
M  V30 7589 H 691.291 0.816007 0.134393 0
M  V30 7590 H 693.837 1.62577 -0.486513 0
M  V30 7591 H 692.609 3.83045 -0.799508 0
M  V30 7592 H 692.232 3.86927 0.91507 0
M  V30 7593 N 693.229 0.160201 1.56784 0
M  V30 7594 C 694.159 -0.770264 2.2043 0
M  V30 7595 C 695.14 -1.24736 1.15651 0
M  V30 7596 O 696.325 -1.30253 1.44041 0
M  V30 7597 C 693.455 -2.00427 2.83631 0
M  V30 7598 C 692.409 -1.66345 3.94352 0
M  V30 7599 C 691.735 -2.97119 4.4455 0
M  V30 7600 C 693.035 -0.899972 5.14488 0
M  V30 7601 H 694.729 -0.239783 2.98438 0
M  V30 7602 H 692.275 -0.113891 1.43549 0
M  V30 7603 H 694.228 -2.66012 3.26827 0
M  V30 7604 H 692.952 -2.5587 2.02973 0
M  V30 7605 H 691.611 -1.03133 3.51794 0
M  V30 7606 H 691.259 -3.5058 3.60698 0
M  V30 7607 H 690.959 -2.75073 5.19238 0
M  V30 7608 H 692.483 -3.63753 4.90425 0
M  V30 7609 H 693.897 -1.45818 5.54446 0
M  V30 7610 H 692.294 -0.778968 5.95023 0
M  V30 7611 H 693.364 0.105827 4.84785 0
M  V30 7612 N 694.707 -1.5719 -0.113559 0
M  V30 7613 C 695.617 -2.04041 -1.15777 0
M  V30 7614 C 696.633 -0.961812 -1.45001 0
M  V30 7615 O 697.809 -1.2737 -1.56009 0
M  V30 7616 C 694.874 -2.43994 -2.46308 0
M  V30 7617 C 693.935 -3.65962 -2.24433 0
M  V30 7618 C 693.168 -4.04 -3.4874 0
M  V30 7619 O 693.391 -3.42321 -4.56259 0
M  V30 7620 O 692.325 -4.97069 -3.3942 0
M  V30 7621 H 696.151 -2.93248 -0.789899 0
M  V30 7622 H 693.736 -1.45828 -0.324748 0
M  V30 7623 H 695.618 -2.70401 -3.23204 0
M  V30 7624 H 694.293 -1.57932 -2.82558 0
M  V30 7625 H 693.2 -3.44697 -1.45377 0
M  V30 7626 H 694.533 -4.52746 -1.93084 0
M  V30 7627 N 696.185 0.383891 -1.52853 0
M  V30 7628 C 697.413 1.1495 -1.7203 0
M  V30 7629 C 697.828 1.83578 -0.440957 0
M  V30 7630 O 697.185 1.72872 0.584925 0
M  V30 7631 C 697.236 2.19368 -2.87333 0
M  V30 7632 O 696.957 1.53536 -4.10315 0
M  V30 7633 C 698.458 3.08616 -3.18231 0
M  V30 7634 H 695.678 0.344445 -0.575846 0
M  V30 7635 H 698.222 0.448397 -1.99524 0
M  V30 7636 H 696.377 2.85105 -2.62286 0
M  V30 7637 H 696.791 2.2296 -4.74752 0
M  V30 7638 H 698.265 3.77902 -4.02361 0
M  V30 7639 H 698.742 3.72409 -2.32826 0
M  V30 7640 H 699.348 2.48518 -3.45136 0
M  V30 7641 N 697.663 1.43903 0.642637 0
M  V30 7642 C 698.626 1.49538 1.73698 0
M  V30 7643 C 699.626 0.378776 1.56275 0
M  V30 7644 O 700.816 0.64095 1.6198 0
M  V30 7645 C 697.948 1.35821 3.12675 0
M  V30 7646 H 699.141 2.47008 1.70079 0
M  V30 7647 H 696.694 1.30824 0.85526 0
M  V30 7648 H 697.429 0.393994 3.21898 0
M  V30 7649 H 697.214 2.16776 3.26727 0
M  V30 7650 H 698.704 1.4272 3.92455 0
M  V30 7651 N 699.141 -0.881989 1.30609 0
M  V30 7652 C 700.39 -1.62878 1.18969 0
M  V30 7653 C 700.703 -1.93946 -0.253859 0
M  V30 7654 O 701.909 -2.67008 -0.491813 0
M  V30 7655 C 700.365 -2.93573 2.0819 0
M  V30 7656 C 699.973 -2.70034 3.57471 0
M  V30 7657 C 701.717 -3.71543 2.0532 0
M  V30 7658 C 699.624 -3.96563 4.38739 0
M  V30 7659 H 698.554 -0.611092 0.441682 0
M  V30 7660 H 701.205 -0.976201 1.55379 0
M  V30 7661 H 699.587 -3.6014 1.64666 0
M  V30 7662 H 700.761 -2.11949 4.09163 0
M  V30 7663 H 699.076 -2.05435 3.62195 0
M  V30 7664 H 701.673 -4.65386 2.63288 0
M  V30 7665 H 702.016 -4.03167 1.03739 0
M  V30 7666 H 702.549 -3.11842 2.46981 0
M  V30 7667 H 699.288 -3.70095 5.41027 0
M  V30 7668 H 698.808 -4.54142 3.9181 0
M  V30 7669 H 700.487 -4.64557 4.50329 0
M  V30 7670 N 700.619 -1.13374 -1.09472 0
M  V30 7671 C 701.865 -0.896516 -1.81908 0
M  V30 7672 C 702.198 0.575933 -1.85463 0
M  V30 7673 O 701.473 1.42618 -1.32251 0
M  V30 7674 C 701.756 -1.48445 -3.28079 0
M  V30 7675 C 701.609 -3.02598 -3.32798 0
M  V30 7676 C 702.928 -1.15226 -4.24748 0
M  V30 7677 H 700.047 -0.327127 -0.660422 0
M  V30 7678 H 702.689 -1.40195 -1.2824 0
M  V30 7679 H 700.839 -1.0546 -3.73912 0
M  V30 7680 H 702.511 -3.54335 -2.95372 0
M  V30 7681 H 700.754 -3.37613 -2.72397 0
M  V30 7682 H 701.425 -3.38835 -4.3577 0
M  V30 7683 H 703.901 -1.52369 -3.87199 0
M  V30 7684 H 702.777 -1.59012 -5.25363 0
M  V30 7685 H 703.038 -0.0658891 -4.42051 0
M  V30 7686 N 702.098 1.27442 -0.927168 0
M  V30 7687 C 703.344 1.94679 -0.568164 0
M  V30 7688 C 703.677 1.72697 0.888219 0
M  V30 7689 O 702.952 1.05573 1.63354 0
M  V30 7690 C 703.235 3.4882 -0.894253 0
M  V30 7691 C 703.088 3.80146 -2.40435 0
M  V30 7692 C 704.407 4.38281 -0.399766 0
M  V30 7693 H 701.526 0.707071 -0.207892 0
M  V30 7694 H 704.168 1.50568 -1.15885 0
M  V30 7695 H 702.318 3.86522 -0.391566 0
M  V30 7696 H 703.99 3.52238 -2.97869 0
M  V30 7697 H 702.233 3.26716 -2.85375 0
M  V30 7698 H 702.904 4.87835 -2.58304 0
M  V30 7699 H 705.38 4.07726 -0.83058 0
M  V30 7700 H 704.256 5.44955 -0.656885 0
M  V30 7701 H 704.517 4.36521 0.700153 0
M  V30 7702 N 703.576 0.692616 1.41565 0
M  V30 7703 C 704.822 0.222664 2.01574 0
M  V30 7704 C 705.155 -1.1737 1.54719 0
M  V30 7705 O 704.43 -1.79161 0.757084 0
M  V30 7706 C 704.713 0.277064 3.59033 0
M  V30 7707 C 704.566 1.71016 4.16021 0
M  V30 7708 C 705.885 -0.36479 4.38586 0
M  V30 7709 H 703.004 0.0823839 0.732381 0
M  V30 7710 H 705.646 0.880778 1.68352 0
M  V30 7711 H 703.796 -0.283288 3.87466 0
M  V30 7712 H 705.468 2.32413 3.98475 0
M  V30 7713 H 703.711 2.24525 3.71175 0
M  V30 7714 H 704.382 1.69978 5.25178 0
M  V30 7715 H 706.858 0.112404 4.15948 0
M  V30 7716 H 705.734 -0.296169 5.481 0
M  V30 7717 H 705.995 -1.44506 4.17816 0
M  V30 7718 N 705.054 -1.51416 0.437162 0
M  V30 7719 C 706.331 -1.94682 -0.189292 0
M  V30 7720 C 706.711 -1.37581 -1.60108 0
M  V30 7721 O 706.059 -0.562815 -2.2146 0
M  V30 7722 C 706.269 -3.48599 -0.167201 0
M  V30 7723 C 707.617 -4.2296 -0.372856 0
M  V30 7724 O 708.641 -3.55354 -0.245323 0
M  V30 7725 O 707.5 -5.42895 -0.626693 0
M  V30 7726 H 704.594 -0.816708 -0.130063 0
M  V30 7727 H 707.14 -1.62316 0.495128 0
M  V30 7728 H 705.912 -3.82616 0.81981 0
M  V30 7729 H 705.535 -3.87406 -0.894537 0
M  V30 7730 N 706.532 -0.168513 -1.56696 0
M  V30 7731 C 707.948 0.187686 -1.58493 0
M  V30 7732 C 708.148 1.63063 -1.18375 0
M  V30 7733 O 707.204 2.36142 -0.894042 0
M  V30 7734 C 708.517 -0.0905858 -3.00564 0
M  V30 7735 C 710.065 -0.028575 -3.12987 0
M  V30 7736 C 710.54 -0.279799 -4.57145 0
M  V30 7737 N 712.031 -0.227476 -4.62641 0
M  V30 7738 C 712.766 -0.396073 -5.7203 0
M  V30 7739 N 712.262 -0.623572 -6.89988 0
M  V30 7740 N 714.055 -0.332173 -5.61118 0
M  V30 7741 H 706.206 -1.11042 -1.81062 0
M  V30 7742 H 708.469 -0.441235 -0.839056 0
M  V30 7743 H 708.175 -1.09006 -3.34381 0
M  V30 7744 H 708.049 0.619078 -3.72085 0
M  V30 7745 H 710.436 0.961471 -2.78998 0
M  V30 7746 H 710.517 -0.770905 -2.43907 0
M  V30 7747 H 710.161 -1.26704 -4.91842 0
M  V30 7748 H 710.091 0.48311 -5.24379 0
M  V30 7749 H 712.582 -0.0571723 -3.77857 0
M  V30 7750 H 712.895 -0.741745 -7.69232 0
M  V30 7751 H 711.24 -0.660153 -6.91858 0
M  V30 7752 H 714.431 -0.155051 -4.67843 0
M  V30 7753 H 714.604 -0.466994 -6.46315 0
M  V30 7754 N 708.01 1.57248 0.105221 0
M  V30 7755 C 709.257 1.8557 0.810552 0
M  V30 7756 C 709.585 0.755595 1.79223 0
M  V30 7757 O 708.84 -0.251788 1.94073 0
M  V30 7758 C 709.139 3.20437 1.58287 0
M  V30 7759 C 708.805 4.44716 0.744235 0
M  V30 7760 C 707.467 4.78458 0.513013 0
M  V30 7761 C 709.819 5.20953 0.160578 0
M  V30 7762 C 707.147 5.8587 -0.311894 0
M  V30 7763 C 709.499 6.29235 -0.651596 0
M  V30 7764 C 708.163 6.615 -0.893005 0
M  V30 7765 H 707.433 0.67905 0.296602 0
M  V30 7766 H 710.08 1.91363 0.0723968 0
M  V30 7767 H 708.385 3.10283 2.39232 0
M  V30 7768 H 710.082 3.39576 2.13282 0
M  V30 7769 H 706.672 4.18287 0.934555 0
M  V30 7770 H 710.856 4.95226 0.3264 0
M  V30 7771 H 706.112 6.09286 -0.508012 0
M  V30 7772 H 710.286 6.87484 -1.11077 0
M  V30 7773 H 707.913 7.44562 -1.53401 0
M  V30 7774 N 709.488 -0.375779 1.53054 0
M  V30 7775 C 710.713 -1.14484 1.7294 0
M  V30 7776 C 711.138 -1.82572 0.452668 0
M  V30 7777 O 710.496 -1.71343 -0.592567 0
M  V30 7778 C 710.544 -2.15857 2.88857 0
M  V30 7779 O 709.648 -3.22725 2.56753 0
M  V30 7780 H 708.989 -0.332666 0.574656 0
M  V30 7781 H 711.519 -0.436025 1.999 0
M  V30 7782 H 711.529 -2.59631 3.14731 0
M  V30 7783 H 710.204 -1.65689 3.81471 0
M  V30 7784 H 708.781 -2.83996 2.41663 0
M  V30 7785 N 710.966 -1.44241 -0.634997 0
M  V30 7786 C 712.214 -1.46531 -1.39187 0
M  V30 7787 C 712.535 -0.0976441 -1.94755 0
M  V30 7788 O 711.805 0.869528 -1.75545 0
M  V30 7789 H 710.385 -0.539544 -0.516625 0
M  V30 7790 H 713.047 -1.79989 -0.747655 0
M  V30 7791 H 712.143 -2.18848 -2.22513 0
M  V30 7792 N 712.444 0.87505 -1.31075 0
M  V30 7793 C 713.354 2.01441 -1.20244 0
M  V30 7794 C 714.37 1.73584 -0.120227 0
M  V30 7795 O 715.546 1.98559 -0.337063 0
M  V30 7796 C 712.611 3.34675 -0.905199 0
M  V30 7797 C 711.672 3.75889 -2.0738 0
M  V30 7798 C 710.905 5.02764 -1.79064 0
M  V30 7799 O 711.128 5.65795 -0.723318 0
M  V30 7800 O 710.062 5.40623 -2.64594 0
M  V30 7801 H 713.888 2.13509 -2.1598 0
M  V30 7802 H 711.473 1.00257 -1.10765 0
M  V30 7803 H 713.355 4.1458 -0.755057 0
M  V30 7804 H 712.03 3.23692 0.0221695 0
M  V30 7805 H 710.937 2.96645 -2.27931 0
M  V30 7806 H 712.27 3.91489 -2.98324 0
M  V30 7807 N 713.922 1.13953 1.08869 0
M  V30 7808 C 715.168 0.906151 1.8143 0
M  V30 7809 C 715.501 -0.566089 1.85766 0
M  V30 7810 O 714.776 -1.41915 1.33006 0
M  V30 7811 C 715.059 1.50183 3.27287 0
M  V30 7812 C 714.912 3.04359 3.31189 0
M  V30 7813 C 716.231 1.17477 4.24131 0
M  V30 7814 H 713.35 0.330624 0.658678 0
M  V30 7815 H 715.992 1.40873 1.27495 0
M  V30 7816 H 714.142 1.07442 3.73348 0
M  V30 7817 H 715.814 3.55896 2.93488 0
M  V30 7818 H 714.057 3.39053 2.70602 0
M  V30 7819 H 714.728 3.41141 4.33966 0
M  V30 7820 H 717.204 1.5442 3.86385 0
M  V30 7821 H 716.08 1.61795 5.24513 0
M  V30 7822 H 716.341 0.0893312 4.4201 0
M  V30 7823 N 715.4 -1.26948 0.933913 0
M  V30 7824 C 716.816 -1.46419 0.635103 0
M  V30 7825 C 717.016 -1.84336 -0.813785 0
M  V30 7826 O 716.072 -1.96061 -1.59111 0
M  V30 7827 C 717.385 -2.55206 1.5903 0
M  V30 7828 C 718.933 -2.69062 1.5992 0
M  V30 7829 C 719.408 -3.81013 2.54152 0
M  V30 7830 N 720.899 -3.88395 2.52395 0
M  V30 7831 C 721.634 -4.74454 3.21996 0
M  V30 7832 N 721.13 -5.64954 4.00997 0
M  V30 7833 N 722.923 -4.68237 3.10983 0
M  V30 7834 H 715.074 -1.00622 1.87053 0
M  V30 7835 H 717.337 -0.503189 0.803433 0
M  V30 7836 H 717.043 -2.34153 2.62422 0
M  V30 7837 H 716.917 -3.52719 1.33677 0
M  V30 7838 H 719.304 -2.89492 0.572569 0
M  V30 7839 H 719.385 -1.72016 1.89325 0
M  V30 7840 H 719.029 -3.61336 3.5693 0
M  V30 7841 H 718.959 -4.77499 2.22041 0
M  V30 7842 H 721.45 -3.23687 1.95025 0
M  V30 7843 H 721.763 -6.27496 4.51074 0
M  V30 7844 H 720.108 -5.6473 4.05099 0
M  V30 7845 H 723.299 -3.96535 2.48753 0
M  V30 7846 H 723.472 -5.35087 3.65494 0
M  V30 7847 N 716.879 -0.700114 -1.41195 0
M  V30 7848 C 717.842 -0.0465706 -2.29153 0
M  V30 7849 C 718.842 0.703302 -1.44604 0
M  V30 7850 O 720.032 0.537513 -1.657 0
M  V30 7851 C 717.164 0.944324 -3.2756 0
M  V30 7852 H 718.357 -0.821064 -2.88442 0
M  V30 7853 H 715.91 -0.463869 -1.49258 0
M  V30 7854 H 716.645 1.74642 -2.73259 0
M  V30 7855 H 716.43 0.409701 -3.89954 0
M  V30 7856 H 717.92 1.39925 -3.9346 0
M  V30 7857 N 718.357 1.51182 -0.445186 0
M  V30 7858 C 719.29 2.24528 0.4077 0
M  V30 7859 C 720.268 1.26778 1.01814 0
M  V30 7860 O 721.452 1.55934 1.05909 0
M  V30 7861 C 718.579 3.00171 1.56892 0
M  V30 7862 C 717.625 4.12641 1.0784 0
M  V30 7863 S 718.458 5.35498 0.014049 0
M  V30 7864 C 719.614 6.14681 1.17975 0
M  V30 7865 H 719.847 2.96522 -0.214987 0
M  V30 7866 H 717.38 1.52681 -0.229781 0
M  V30 7867 H 719.338 3.44349 2.23459 0
M  V30 7868 H 717.999 2.27752 2.16304 0
M  V30 7869 H 717.192 4.64875 1.94698 0
M  V30 7870 H 716.794 3.70765 0.490852 0
M  V30 7871 H 719.086 6.44244 2.09658 0
M  V30 7872 H 720.029 7.04659 0.697222 0
M  V30 7873 H 720.437 5.46299 1.42187 0
M  V30 7874 N 719.835 0.176821 1.56605 0
M  V30 7875 C 721.081 -0.467406 1.9734 0
M  V30 7876 C 721.414 -1.62523 1.06301 0
M  V30 7877 O 720.689 -1.94182 0.11125 0
M  V30 7878 C 720.972 -0.945106 3.47476 0
M  V30 7879 C 720.825 0.213273 4.49294 0
M  V30 7880 C 722.144 -1.8169 4.00845 0
M  V30 7881 H 719.263 -0.168426 0.717497 0
M  V30 7882 H 721.905 0.264065 1.88156 0
M  V30 7883 H 720.055 -1.56841 3.55434 0
M  V30 7884 H 721.727 0.850508 4.53392 0
M  V30 7885 H 719.97 0.867918 4.25029 0
M  V30 7886 H 720.641 -0.163187 5.51759 0
M  V30 7887 H 723.117 -1.29139 3.95553 0
M  V30 7888 H 721.993 -2.12015 5.06301 0
M  V30 7889 H 722.254 -2.76463 3.44994 0
M  V30 7890 N 721.313 -1.57302 -0.09688 0
M  V30 7891 C 722.561 -1.8563 -0.799117 0
M  V30 7892 C 722.882 -0.765263 -1.79356 0
M  V30 7893 O 722.152 0.208657 -1.94786 0
M  V30 7894 H 720.732 -0.684937 -0.298111 0
M  V30 7895 H 723.394 -1.9474 -0.0789341 0
M  V30 7896 H 722.49 -2.82305 -1.3308 0
M  V30 7897 N 722.791 0.367657 -1.53252 0
M  V30 7898 C 724.039 1.10832 -1.68999 0
M  V30 7899 C 724.36 1.89894 -0.443306 0
M  V30 7900 O 723.63 1.88235 0.54262 0
M  V30 7901 H 722.21 0.412153 -0.623008 0
M  V30 7902 H 724.872 0.414775 -1.90435 0
M  V30 7903 H 723.968 1.7993 -2.55013 0
M  V30 7904 N 724.269 1.44576 0.627338 0
M  V30 7905 C 725.494 1.51271 1.41887 0
M  V30 7906 C 725.919 0.139814 1.8758 0
M  V30 7907 O 725.277 -0.871746 1.58966 0
M  V30 7908 C 725.325 2.48529 2.61277 0
M  V30 7909 O 724.429 1.98944 3.61241 0
M  V30 7910 H 723.77 0.510668 0.424399 0
M  V30 7911 H 726.3 1.89746 0.765356 0
M  V30 7912 H 726.31 2.66689 3.08773 0
M  V30 7913 H 724.985 3.48249 2.27366 0
M  V30 7914 H 723.562 1.90568 3.20528 0
M  V30 7915 N 725.747 -0.868086 1.31537 0
M  V30 7916 C 726.657 -2.00801 1.21311 0
M  V30 7917 C 727.673 -1.73518 0.129431 0
M  V30 7918 O 728.849 -1.98378 0.347588 0
M  V30 7919 C 725.914 -3.3419 0.922935 0
M  V30 7920 C 724.975 -3.74783 2.0937 0
M  V30 7921 C 724.208 -5.01807 1.81728 0
M  V30 7922 O 724.431 -5.65404 0.753313 0
M  V30 7923 O 723.365 -5.39213 2.67457 0
M  V30 7924 H 727.191 -2.12361 2.17109 0
M  V30 7925 H 724.776 -0.996684 1.11295 0
M  V30 7926 H 726.658 -4.14174 0.777033 0
M  V30 7927 H 725.333 -3.237 -0.00500301 0
M  V30 7928 H 724.24 -2.95432 2.29501 0
M  V30 7929 H 725.573 -3.89902 3.00396 0
M  V30 7930 N 727.225 -1.14528 -1.08264 0
M  V30 7931 C 728.636 -0.925261 -1.6216 0
M  V30 7932 C 728.987 0.535587 -1.88748 0
M  V30 7933 O 728.112 1.4048 -1.64604 0
M  V30 7934 C 728.707 -1.67316 -2.94603 0
M  V30 7935 C 727.266 -1.49868 -3.45278 0
M  V30 7936 C 726.413 -1.69471 -2.19487 0
M  V30 7937 H 729.364 -1.29687 -0.914707 0
M  V30 7938 H 729.385 -1.13721 -3.63109 0
M  V30 7939 H 728.897 -2.73635 -2.75219 0
M  V30 7940 H 726.998 -0.459032 -3.69762 0
M  V30 7941 H 727.111 -2.2696 -4.21931 0
M  V30 7942 H 725.475 -1.12048 -2.2873 0
M  V30 7943 H 726.258 -2.77136 -2.0261 0
M  V30 7944 N 728.703 1.26451 -0.940633 0
M  V30 7945 C 729.635 2.25556 -0.407104 0
M  V30 7946 C 730.648 1.55888 0.469324 0
M  V30 7947 O 731.837 1.76292 0.279858 0
M  V30 7948 C 728.937 3.36109 0.434064 0
M  V30 7949 C 728.11 4.3532 -0.426082 0
M  V30 7950 C 727.169 5.25004 0.354563 0
M  V30 7951 O 726.195 5.68684 -0.242219 0
M  V30 7952 N 727.397 5.5652 1.65123 0
M  V30 7953 H 730.162 2.7197 -1.25907 0
M  V30 7954 H 727.723 1.40212 -0.809456 0
M  V30 7955 H 729.715 3.93059 0.963684 0
M  V30 7956 H 728.285 2.89194 1.18683 0
M  V30 7957 H 727.505 3.77449 -1.13692 0
M  V30 7958 H 728.793 4.986 -1.01366 0
M  V30 7959 H 728.191 5.22912 2.15822 0
M  V30 7960 H 726.748 6.16115 2.12711 0
M  V30 7961 N 730.181 0.707592 1.40822 0
M  V30 7962 C 731.428 0.243671 2.01029 0
M  V30 7963 C 731.756 -1.16057 1.5608 0
M  V30 7964 O 731.011 -1.7999 0.768251 0
M  V30 7965 C 731.31 0.262892 3.56432 0
M  V30 7966 C 730.976 1.61632 4.20935 0
M  V30 7967 C 729.638 1.98682 4.38268 0
M  V30 7968 C 731.99 2.50619 4.5699 0
M  V30 7969 C 729.318 3.2428 4.88937 0
M  V30 7970 C 731.67 3.75562 5.09054 0
M  V30 7971 C 730.334 4.12739 5.24598 0
M  V30 7972 H 729.604 0.0891654 0.735616 0
M  V30 7973 H 732.251 0.909051 1.68548 0
M  V30 7974 H 730.556 -0.486052 3.88773 0
M  V30 7975 H 732.253 -0.113775 4.00839 0
M  V30 7976 H 728.843 1.31818 4.07826 0
M  V30 7977 H 733.027 2.23272 4.43242 0
M  V30 7978 H 728.283 3.53064 4.99155 0
M  V30 7979 H 732.457 4.44692 5.35931 0
M  V30 7980 H 730.084 5.10132 5.63622 0
M  V30 7981 N 731.66 -1.50943 0.453197 0
M  V30 7982 C 732.623 -2.26684 -0.338705 0
M  V30 7983 C 733.623 -1.30748 -0.936032 0
M  V30 7984 O 734.813 -1.54327 -0.808002 0
M  V30 7985 C 731.945 -3.07063 -1.48071 0
M  V30 7986 H 733.138 -2.98131 0.325289 0
M  V30 7987 H 730.691 -1.54926 0.206771 0
M  V30 7988 H 731.426 -2.4007 -2.18029 0
M  V30 7989 H 731.211 -3.77545 -1.0584 0
M  V30 7990 H 732.701 -3.64393 -2.0398 0
M  V30 7991 N 733.138 -0.185124 -1.56509 0
M  V30 7992 C 734.386 0.455357 -1.96903 0
M  V30 7993 C 734.707 1.62839 -1.07277 0
M  V30 7994 O 733.977 1.95385 -0.141966 0
M  V30 7995 H 732.557 0.171218 -0.727113 0
M  V30 7996 H 735.219 -0.26953 -1.93027 0
M  V30 7997 H 734.315 0.80616 -3.01509 0
M  V30 7998 N 734.616 1.57351 0.0885366 0
M  V30 7999 C 735.846 1.90355 0.80303 0
M  V30 8000 C 736.254 0.777678 1.72478 0
M  V30 8001 O 735.597 -0.258908 1.81866 0
M  V30 8002 C 735.659 3.18674 1.66395 0
M  V30 8003 C 735.323 4.4778 0.913327 0
M  V30 8004 C 736.32 5.19345 0.240148 0
M  V30 8005 C 734.005 4.94434 0.885462 0
M  V30 8006 C 735.999 6.35803 -0.450854 0
M  V30 8007 C 733.686 6.10802 0.190679 0
M  V30 8008 C 734.684 6.81337 -0.476295 0
M  V30 8009 O 734.372 7.95488 -1.15992 0
M  V30 8010 H 734.104 0.634035 0.234469 0
M  V30 8011 H 736.658 2.05287 0.0681959 0
M  V30 8012 H 734.888 2.99906 2.44117 0
M  V30 8013 H 736.577 3.37458 2.2556 0
M  V30 8014 H 737.343 4.84339 0.253092 0
M  V30 8015 H 733.222 4.39417 1.39406 0
M  V30 8016 H 736.766 6.90795 -0.972019 0
M  V30 8017 H 732.663 6.45261 0.175603 0
M  V30 8018 H 733.431 8.11509 -1.06749 0
M  V30 8019 N 736.094 -0.359525 1.53444 0
M  V30 8020 C 737.042 -1.46104 1.80987 0
M  V30 8021 C 738.036 -1.55181 0.679351 0
M  V30 8022 O 739.242 -1.57995 0.862405 0
M  V30 8023 H 735.617 -0.486835 0.573145 0
M  V30 8024 H 737.588 -1.2008 2.73173 0
M  V30 8025 C 736.337 -2.82855 2.02208 0
M  V30 8026 H 735.66 -2.76631 2.88644 0
M  V30 8027 H 737.1 -3.59091 2.25455 0
M  V30 8028 C 735.559 -3.27192 0.802931 0
M  V30 8029 O 736.089 -4.017 -0.00544286 0
M  V30 8030 N 734.295 -2.83807 0.624657 0
M  V30 8031 H 733.842 -2.23339 1.28364 0
M  V30 8032 H 733.8 -3.13828 -0.189641 0
M  V30 8033 N 737.572 -1.44907 -0.619662 0
M  V30 8034 C 738.988 -1.29046 -0.939107 0
M  V30 8035 C 739.188 -0.23462 -2.00129 0
M  V30 8036 O 738.244 0.37558 -2.49691 0
M  V30 8037 C 739.557 -2.66567 -1.39149 0
M  V30 8038 C 741.105 -2.74368 -1.50635 0
M  V30 8039 C 741.58 -4.12386 -1.99253 0
M  V30 8040 N 743.071 -4.1462 -2.06506 0
M  V30 8041 C 743.806 -5.18272 -2.4532 0
M  V30 8042 N 743.302 -6.32278 -2.83189 0
M  V30 8043 N 745.095 -5.05628 -2.45554 0
M  V30 8044 H 737.246 -2.12239 0.0826135 0
M  V30 8045 H 739.509 -0.947652 -0.0256829 0
M  V30 8046 H 739.215 -3.4496 -0.685254 0
M  V30 8047 H 739.089 -2.94224 -2.36034 0
M  V30 8048 H 741.476 -1.96287 -2.20353 0
M  V30 8049 H 741.557 -2.50439 -0.520963 0
M  V30 8050 H 741.201 -4.90947 -1.30127 0
M  V30 8051 H 741.131 -4.33699 -2.98684 0
M  V30 8052 H 743.622 -3.32343 -1.79878 0
M  V30 8053 H 743.935 -7.07172 -3.11652 0
M  V30 8054 H 742.28 -6.35699 -2.80913 0
M  V30 8055 H 745.471 -4.15613 -2.15367 0
M  V30 8056 H 745.644 -5.86529 -2.75478 0
M  V30 8057 N 739.05 0.861098 -1.31996 0
M  V30 8058 C 740.013 1.95068 -1.20338 0
M  V30 8059 C 741.013 1.60289 -0.128114 0
M  V30 8060 O 742.203 1.70048 -0.378044 0
M  V30 8061 C 739.335 3.30153 -0.849205 0
M  V30 8062 H 740.528 2.06833 -2.17164 0
M  V30 8063 H 738.081 1.05049 -1.15734 0
M  V30 8064 H 738.816 3.24087 0.117508 0
M  V30 8065 H 738.601 3.56771 -1.62655 0
M  V30 8066 H 740.091 4.10025 -0.791782 0
M  V30 8067 N 740.528 1.15101 1.07655 0
M  V30 8068 C 741.461 0.788522 2.14144 0
M  V30 8069 C 742.439 -0.233635 1.60913 0
M  V30 8070 O 743.623 -0.120908 1.88112 0
M  V30 8071 C 740.75 0.172033 3.38263 0
M  V30 8072 C 739.796 1.16559 4.10264 0
M  V30 8073 S 740.629 2.70627 4.62084 0
M  V30 8074 C 741.785 2.10389 5.8948 0
M  V30 8075 H 742.018 1.69047 2.44561 0
M  V30 8076 H 739.551 0.973033 1.19881 0
M  V30 8077 H 741.509 -0.177223 4.10117 0
M  V30 8078 H 740.17 -0.707468 3.06029 0
M  V30 8079 H 739.363 0.6824 4.99359 0
M  V30 8080 H 738.965 1.45923 3.44358 0
M  V30 8081 H 741.257 1.46405 6.61492 0
M  V30 8082 H 742.2 2.97639 6.42508 0
M  V30 8083 H 742.608 1.54816 5.42856 0
M  V30 8084 N 742.006 -1.2595 0.947325 0
M  V30 8085 C 742.938 -2.25336 0.41906 0
M  V30 8086 C 743.951 -1.56135 -0.461051 0
M  V30 8087 O 745.14 -1.76438 -0.270505 0
M  V30 8088 C 742.24 -3.36334 -0.416233 0
M  V30 8089 C 741.413 -4.35088 0.449162 0
M  V30 8090 C 740.472 -5.25185 -0.326716 0
M  V30 8091 O 739.498 -5.68548 0.272374 0
M  V30 8092 N 740.7 -5.57388 -1.6217 0
M  V30 8093 H 743.465 -2.71298 1.27348 0
M  V30 8094 H 741.026 -1.39781 0.81688 0
M  V30 8095 H 743.018 -3.93564 -0.942826 0
M  V30 8096 H 741.588 -2.89819 -1.17148 0
M  V30 8097 H 740.808 -3.76841 1.15692 0
M  V30 8098 H 742.096 -4.98056 1.04008 0
M  V30 8099 H 741.494 -5.2405 -2.13046 0
M  V30 8100 H 740.051 -6.17234 -2.0944 0
M  V30 8101 N 743.484 -0.715051 -1.40445 0
M  V30 8102 C 744.447 -0.0708726 -2.2909 0
M  V30 8103 C 745.447 0.687926 -1.45342 0
M  V30 8104 O 746.637 0.519908 -1.66261 0
M  V30 8105 C 743.769 0.909528 -3.28543 0
M  V30 8106 H 744.962 -0.851611 -2.87555 0
M  V30 8107 H 742.515 -0.479674 -1.48758 0
M  V30 8108 H 743.25 1.71734 -2.75096 0
M  V30 8109 H 743.035 0.368318 -3.90366 0
M  V30 8110 H 744.525 1.35744 -3.94922 0
M  V30 8111 N 744.962 1.50701 -0.461195 0
M  V30 8112 C 746.378 1.59187 -0.114786 0
M  V30 8113 C 746.578 1.4702 1.37794 0
M  V30 8114 O 745.634 1.32361 2.15027 0
M  V30 8115 C 746.947 2.93453 -0.656167 0
M  V30 8116 C 748.495 3.06824 -0.618715 0
M  V30 8117 C 748.97 4.4365 -1.13747 0
M  V30 8118 N 750.461 4.50035 -1.09646 0
M  V30 8119 C 751.196 5.54278 -1.46846 0
M  V30 8120 N 750.692 6.65822 -1.91448 0
M  V30 8121 N 752.485 5.44767 -1.38512 0
M  V30 8122 H 744.636 1.56853 -1.43216 0
M  V30 8123 H 746.899 0.740712 -0.59165 0
M  V30 8124 H 746.605 3.07802 -1.7015 0
M  V30 8125 H 746.479 3.77082 -0.0942261 0
M  V30 8126 H 748.866 2.92129 0.417685 0
M  V30 8127 H 748.947 2.24976 -1.21734 0
M  V30 8128 H 748.591 4.59093 -2.17245 0
M  V30 8129 H 748.521 5.24074 -0.515153 0
M  V30 8130 H 751.012 3.69988 -0.769217 0
M  V30 8131 H 751.325 7.41413 -2.18007 0
M  V30 8132 H 749.67 6.66968 -1.95393 0
M  V30 8133 H 752.861 4.56511 -1.03516 0
M  V30 8134 H 753.034 6.25889 -1.6783 0
M  V30 8135 N 746.441 0.193421 1.56409 0
M  V30 8136 C 747.857 -0.162447 1.58771 0
M  V30 8137 C 748.057 -1.6116 1.20954 0
M  V30 8138 O 747.113 -2.3469 0.931497 0
M  V30 8139 C 748.426 0.138391 3.00381 0
M  V30 8140 C 749.974 0.0783649 3.12902 0
M  V30 8141 C 750.449 0.352491 4.56642 0
M  V30 8142 N 751.94 0.30105 4.62221 0
M  V30 8143 C 752.675 0.487028 5.71328 0
M  V30 8144 N 752.171 0.733265 6.88909 0
M  V30 8145 N 753.964 0.4214 5.60518 0
M  V30 8146 H 746.115 1.13909 1.79272 0
M  V30 8147 H 748.378 0.454528 0.83193 0
M  V30 8148 H 748.084 1.14312 3.32604 0
M  V30 8149 H 747.958 -0.559804 3.73023 0
M  V30 8150 H 750.345 -0.916963 2.80492 0
M  V30 8151 H 750.426 0.809611 2.4265 0
M  V30 8152 H 750.07 1.34513 4.89764 0
M  V30 8153 H 750 -0.399624 5.25081 0
M  V30 8154 H 752.491 0.117279 3.77718 0
M  V30 8155 H 752.804 0.86403 7.67955 0
M  V30 8156 H 751.149 0.770138 6.9072 0
M  V30 8157 H 754.34 0.229461 4.67537 0
M  V30 8158 H 754.513 0.569758 6.4549 0
M  V30 8159 N 747.919 -1.57396 -0.0801906 0
M  V30 8160 C 749.144 -1.91437 -0.797909 0
M  V30 8161 C 749.569 -0.789075 -1.70749 0
M  V30 8162 O 748.927 0.25857 -1.79447 0
M  V30 8163 C 748.975 -3.24402 -1.57467 0
M  V30 8164 O 748.079 -3.13043 -2.68473 0
M  V30 8165 H 747.42 -0.627109 -0.218243 0
M  V30 8166 H 749.95 -2.04537 -0.050949 0
M  V30 8167 H 749.96 -3.58072 -1.95571 0
M  V30 8168 H 748.635 -4.05884 -0.907229 0
M  V30 8169 H 747.212 -2.90915 -2.33287 0
M  V30 8170 N 749.397 0.351382 -1.53633 0
M  V30 8171 C 750.646 1.08988 -1.69719 0
M  V30 8172 C 750.959 1.90043 -0.462948 0
M  V30 8173 O 752.165 2.66769 -0.504613 0
M  V30 8174 C 750.621 1.98691 -3.00083 0
M  V30 8175 C 750.229 1.22881 -4.30818 0
M  V30 8176 C 751.973 2.72446 -3.25536 0
M  V30 8177 C 749.88 2.11568 -5.52262 0
M  V30 8178 H 748.81 0.410588 -0.632403 0
M  V30 8179 H 751.461 0.349886 -1.80133 0
M  V30 8180 H 749.843 2.76478 -2.83506 0
M  V30 8181 H 751.017 0.500582 -4.58073 0
M  V30 8182 H 749.332 0.60928 -4.11918 0
M  V30 8183 H 751.929 3.39055 -4.13456 0
M  V30 8184 H 752.272 3.38588 -2.42206 0
M  V30 8185 H 752.805 2.01735 -3.42852 0
M  V30 8186 H 749.544 1.4998 -6.38111 0
M  V30 8187 H 749.064 2.82201 -5.29266 0
M  V30 8188 H 750.743 2.70802 -5.87601 0
M  V30 8189 N 750.875 1.45233 0.611969 0
M  V30 8190 C 752.123 1.48727 1.36838 0
M  V30 8191 C 752.444 0.128616 1.94575 0
M  V30 8192 O 751.714 -0.84149 1.76906 0
M  V30 8193 H 750.294 0.547695 0.507976 0
M  V30 8194 H 752.956 1.81156 0.718925 0
M  V30 8195 H 752.052 2.2236 2.19003 0
M  V30 8196 N 752.353 -0.854086 1.3245 0
M  V30 8197 C 753.578 -1.64597 1.26185 0
M  V30 8198 C 754.003 -1.87357 -0.167074 0
M  V30 8199 O 753.361 -1.42675 -1.11864 0
M  V30 8200 C 753.409 -2.98213 2.02734 0
M  V30 8201 O 752.513 -3.88784 1.37554 0
M  V30 8202 H 751.854 -0.50179 0.434859 0
M  V30 8203 H 754.384 -1.06372 1.74775 0
M  V30 8204 H 754.394 -3.4803 2.1293 0
M  V30 8205 H 753.069 -2.80969 3.06642 0
M  V30 8206 H 751.646 -3.4725 1.3591 0
M  V30 8207 N 753.831 -1.1567 -1.07043 0
M  V30 8208 C 754.761 -0.879348 -2.16309 0
M  V30 8209 C 755.742 0.171311 -1.69235 0
M  V30 8210 O 756.927 0.0250175 -1.94184 0
M  V30 8211 C 754.057 -0.371307 -3.45309 0
M  V30 8212 C 753.011 -1.359 -4.05851 0
M  V30 8213 C 752.337 -0.709678 -5.29969 0
M  V30 8214 C 753.637 -2.72606 -4.45514 0
M  V30 8215 H 755.331 -1.79308 -2.39768 0
M  V30 8216 H 752.877 -0.863558 -1.15233 0
M  V30 8217 H 754.83 -0.164798 -4.21078 0
M  V30 8218 H 753.554 0.577906 -3.21446 0
M  V30 8219 H 752.213 -1.55193 -3.32131 0
M  V30 8220 H 751.861 0.245782 -5.02399 0
M  V30 8221 H 751.561 -1.36886 -5.71433 0
M  V30 8222 H 753.085 -0.513015 -6.08441 0
M  V30 8223 H 754.499 -2.57141 -5.12398 0
M  V30 8224 H 752.896 -3.34927 -4.97939 0
M  V30 8225 H 753.966 -3.28434 -3.56734 0
M  V30 8226 N 755.309 1.25446 -0.953992 0
M  V30 8227 C 756.272 2.24156 -0.478179 0
M  V30 8228 C 757.272 1.55278 0.417776 0
M  V30 8229 O 758.462 1.72866 0.215155 0
M  V30 8230 C 755.594 3.39495 0.309202 0
M  V30 8231 H 756.787 2.67764 -1.35064 0
M  V30 8232 H 754.34 1.37822 -0.737206 0
M  V30 8233 H 755.075 3.01307 1.19936 0
M  V30 8234 H 754.86 3.90679 -0.333562 0
M  V30 8235 H 756.35 4.12796 0.631594 0
M  V30 8236 N 756.787 0.722489 1.40064 0
M  V30 8237 C 757.734 0.0743738 2.3068 0
M  V30 8238 C 758.704 -0.743004 1.48555 0
M  V30 8239 O 759.889 -0.705536 1.77276 0
M  V30 8240 C 757.029 -0.836292 3.34814 0
M  V30 8241 C 756.142 -0.00764663 4.31999 0
M  V30 8242 C 755.277 -0.918428 5.232 0
M  V30 8243 C 754.316 -0.0842838 6.12042 0
M  V30 8244 N 753.453 -0.950316 6.95639 0
M  V30 8245 H 758.293 0.852794 2.85537 0
M  V30 8246 H 755.83 0.432222 1.40607 0
M  V30 8247 H 757.788 -1.3786 3.93765 0
M  V30 8248 H 756.418 -1.58082 2.81443 0
M  V30 8249 H 755.47 0.651928 3.74772 0
M  V30 8250 H 756.782 0.63786 4.94705 0
M  V30 8251 H 755.936 -1.52902 5.87116 0
M  V30 8252 H 754.675 -1.59774 4.60786 0
M  V30 8253 H 753.68 0.5392 5.4715 0
M  V30 8254 H 754.905 0.591628 6.76518 0
M  V30 8255 H 752.851 -1.61515 6.35806 0
M  V30 8256 H 752.768 -0.361004 7.55138 0
M  V30 8257 H 754.036 -1.54687 7.63997 0
M  V30 8258 N 758.265 -1.50454 0.469181 0
M  V30 8259 C 759.676 -1.86695 0.0136034 0
M  V30 8260 C 760.027 -1.38413 -1.39055 0
M  V30 8261 O 759.152 -0.748294 -2.03051 0
M  V30 8262 C 759.747 -3.38795 0.0179098 0
M  V30 8263 C 758.306 -3.74455 -0.382191 0
M  V30 8264 C 757.453 -2.74338 0.404207 0
M  V30 8265 H 760.404 -1.43225 0.683547 0
M  V30 8266 H 760.425 -3.72321 -0.78468 0
M  V30 8267 H 759.937 -3.73906 1.04 0
M  V30 8268 H 758.038 -3.44944 -1.4087 0
M  V30 8269 H 758.151 -4.79025 -0.084862 0
M  V30 8270 H 756.515 -2.54305 -0.141829 0
M  V30 8271 H 757.298 -3.12293 1.42577 0
M  V30 8272 N 759.743 -0.201713 -1.56304 0
M  V30 8273 C 760.706 0.702811 -2.18159 0
M  V30 8274 C 761.706 1.13619 -1.13787 0
M  V30 8275 O 762.896 1.0482 -1.39134 0
M  V30 8276 C 760.028 1.96032 -2.78898 0
M  V30 8277 H 761.221 0.163836 -2.99452 0
M  V30 8278 H 758.774 0.04791 -1.56227 0
M  V30 8279 H 759.509 2.54165 -2.01421 0
M  V30 8280 H 759.294 1.65824 -3.55309 0
M  V30 8281 H 760.784 2.60519 -3.26373 0
M  V30 8282 N 761.222 1.57436 0.0718424 0
M  V30 8283 C 762.45 1.91474 0.783932 0
M  V30 8284 C 762.865 0.797669 1.71122 0
M  V30 8285 O 762.222 -0.228989 1.81058 0
M  V30 8286 C 762.273 3.25259 1.57761 0
M  V30 8287 O 761.994 4.3267 0.687596 0
M  V30 8288 C 763.495 3.7331 2.3907 0
M  V30 8289 H 760.715 0.632901 0.222885 0
M  V30 8290 H 763.259 2.04457 0.0421262 0
M  V30 8291 H 761.414 3.13804 2.27169 0
M  V30 8292 H 761.828 5.09641 1.23962 0
M  V30 8293 H 763.302 4.69551 2.90216 0
M  V30 8294 H 763.779 3.02318 3.18591 0
M  V30 8295 H 764.385 3.8771 1.74818 0
M  V30 8296 N 762.7 -0.34323 1.53817 0
M  V30 8297 C 763.93 -1.10188 1.74763 0
M  V30 8298 C 764.338 -1.82829 0.486856 0
M  V30 8299 O 763.681 -1.75236 -0.551198 0
M  V30 8300 C 763.743 -2.16 2.87375 0
M  V30 8301 C 763.407 -1.62931 4.26969 0
M  V30 8302 C 764.404 -1.08147 5.08528 0
M  V30 8303 C 762.089 -1.67769 4.73454 0
M  V30 8304 C 764.083 -0.589039 6.34672 0
M  V30 8305 C 761.77 -1.18138 5.99572 0
M  V30 8306 C 762.768 -0.637979 6.80014 0
M  V30 8307 O 762.456 -0.149073 8.03762 0
M  V30 8308 H 762.188 -0.33445 0.587469 0
M  V30 8309 H 764.742 -0.401109 2.01445 0
M  V30 8310 H 762.972 -2.89637 2.56218 0
M  V30 8311 H 764.661 -2.77432 2.96287 0
M  V30 8312 H 765.427 -1.03732 4.73777 0
M  V30 8313 H 761.306 -2.09004 4.10899 0
M  V30 8314 H 764.85 -0.164233 6.97407 0
M  V30 8315 H 760.747 -1.22254 6.33817 0
M  V30 8316 H 761.515 -0.266332 8.18067 0
M  V30 8317 N 764.178 -1.45556 -0.604258 0
M  V30 8318 C 765.108 -1.57327 -1.72541 0
M  V30 8319 C 766.089 -0.424637 -1.64714 0
M  V30 8320 O 767.274 -0.648196 -1.83063 0
M  V30 8321 C 764.404 -1.54279 -3.11152 0
M  V30 8322 C 763.358 -2.67893 -3.33792 0
M  V30 8323 C 762.684 -2.499 -4.72709 0
M  V30 8324 C 763.984 -4.0988 -3.23722 0
M  V30 8325 H 765.678 -2.51175 -1.62947 0
M  V30 8326 H 763.224 -1.20884 -0.782504 0
M  V30 8327 H 765.177 -1.6111 -3.89386 0
M  V30 8328 H 763.901 -0.569627 -3.21594 0
M  V30 8329 H 762.56 -2.60495 -2.57949 0
M  V30 8330 H 762.208 -1.50715 -4.79889 0
M  V30 8331 H 761.908 -3.26091 -4.88813 0
M  V30 8332 H 763.432 -2.5859 -5.5314 0
M  V30 8333 H 764.846 -4.18503 -3.91826 0
M  V30 8334 H 763.243 -4.86487 -3.51355 0
M  V30 8335 H 764.313 -4.31553 -2.21111 0
M  V30 8336 N 765.656 0.84705 -1.32902 0
M  V30 8337 C 766.884 1.63403 -1.26913 0
M  V30 8338 C 767.299 1.88108 0.161483 0
M  V30 8339 O 766.656 1.45546 1.10103 0
M  V30 8340 C 766.707 2.98896 -2.03331 0
M  V30 8341 O 766.428 2.75281 -3.40811 0
M  V30 8342 C 767.929 3.93335 -2.04457 0
M  V30 8343 H 765.149 0.508701 -0.437566 0
M  V30 8344 H 767.693 1.05567 -1.75145 0
M  V30 8345 H 765.848 3.53356 -1.58802 0
M  V30 8346 H 766.262 3.61504 -3.8002 0
M  V30 8347 H 767.736 4.85647 -2.62394 0
M  V30 8348 H 768.213 4.26885 -1.03274 0
M  V30 8349 H 768.819 3.44812 -2.48967 0
M  V30 8350 N 767.134 1.16236 1.06428 0
M  V30 8351 C 768.097 0.870163 2.1204 0
M  V30 8352 C 769.097 -0.134239 1.60239 0
M  V30 8353 O 770.287 0.0964932 1.73933 0
M  V30 8354 C 767.419 0.301033 3.39568 0
M  V30 8355 H 768.612 1.8064 2.39394 0
M  V30 8356 H 766.165 0.971116 1.2247 0
M  V30 8357 H 766.9 -0.642948 3.17863 0
M  V30 8358 H 766.685 1.02475 3.78472 0
M  V30 8359 H 768.175 0.114494 4.17443 0
M  V30 8360 N 768.612 -1.24939 0.960631 0
M  V30 8361 C 769.542 -2.28 0.503815 0
M  V30 8362 C 770.523 -1.63959 -0.452928 0
M  V30 8363 O 771.708 -1.91009 -0.350585 0
M  V30 8364 C 768.838 -3.46643 -0.213535 0
M  V30 8365 C 767.792 -4.22903 0.658535 0
M  V30 8366 C 767.118 -5.34363 -0.189902 0
M  V30 8367 C 768.418 -4.84949 1.93963 0
M  V30 8368 H 770.112 -2.66462 1.36521 0
M  V30 8369 H 767.658 -1.28093 0.657897 0
M  V30 8370 H 769.611 -4.1787 -0.544286 0
M  V30 8371 H 768.335 -3.07187 -1.10923 0
M  V30 8372 H 766.994 -3.53467 0.972455 0
M  V30 8373 H 766.642 -4.91147 -1.08553 0
M  V30 8374 H 766.342 -5.86302 0.390331 0
M  V30 8375 H 767.866 -6.0842 -0.515484 0
M  V30 8376 H 769.28 -5.48288 1.67491 0
M  V30 8377 H 767.677 -5.47091 2.46601 0
M  V30 8378 H 768.747 -4.06799 2.639 0
M  V30 8379 N 770.09 -0.729906 -1.39679 0
M  V30 8380 C 771.315 -0.284345 -2.05442 0
M  V30 8381 C 771.74 1.07056 -1.54663 0
M  V30 8382 O 771.098 1.67732 -0.688157 0
M  V30 8383 C 771.146 -0.290089 -3.59431 0
M  V30 8384 O 770.25 0.723978 -4.05995 0
M  V30 8385 H 769.591 -0.130311 -0.651088 0
M  V30 8386 H 772.121 -0.994403 -1.78809 0
M  V30 8387 H 772.131 -0.132712 -4.07784 0
M  V30 8388 H 770.806 -1.27877 -3.95753 0
M  V30 8389 H 769.383 0.533154 -3.69069 0
M  V30 8390 N 771.568 1.50203 -0.477153 0
M  V30 8391 C 772.5 2.26508 0.350239 0
M  V30 8392 C 773.513 1.32081 0.95176 0
M  V30 8393 O 774.702 1.57546 0.839139 0
M  V30 8394 C 771.802 3.0361 1.50579 0
M  V30 8395 C 770.975 4.25438 1.01595 0
M  V30 8396 C 770.034 4.84783 2.04626 0
M  V30 8397 O 769.06 5.45528 1.62442 0
M  V30 8398 N 770.262 4.72318 3.37485 0
M  V30 8399 H 773.027 2.98155 -0.30394 0
M  V30 8400 H 770.588 1.58938 -0.308289 0
M  V30 8401 H 772.58 3.4019 2.1921 0
M  V30 8402 H 771.15 2.34724 2.06455 0
M  V30 8403 H 770.37 3.93894 0.155316 0
M  V30 8404 H 771.658 5.04413 0.666694 0
M  V30 8405 H 771.056 4.24022 3.74462 0
M  V30 8406 H 769.613 5.13149 4.01897 0
M  V30 8407 N 773.046 0.209999 1.56195 0
M  V30 8408 C 774.457 -0.299943 1.84275 0
M  V30 8409 C 774.808 -1.60314 1.1311 0
M  V30 8410 O 773.933 -2.1273 0.396874 0
M  V30 8411 C 774.528 -0.550986 3.3429 0
M  V30 8412 C 773.087 -1.00526 3.62728 0
M  V30 8413 C 772.234 -0.0619828 2.77231 0
M  V30 8414 H 775.185 0.433458 1.52666 0
M  V30 8415 H 775.206 -1.39846 3.53869 0
M  V30 8416 H 774.718 0.397669 3.86057 0
M  V30 8417 H 772.819 -1.96768 3.16407 0
M  V30 8418 H 772.932 -0.887664 4.70805 0
M  V30 8419 H 771.296 -0.566648 2.48317 0
M  V30 8420 H 772.079 0.881383 3.31793 0
M  V30 8421 N 774.524 -1.57472 -0.0634922 0
M  V30 8422 C 775.471 -2.04258 -1.07457 0
M  V30 8423 C 776.441 -0.924804 -1.37973 0
M  V30 8424 O 777.626 -1.19305 -1.48899 0
M  V30 8425 C 774.766 -2.49832 -2.38071 0
M  V30 8426 C 773.879 -3.75263 -2.14014 0
M  V30 8427 C 773.014 -4.09585 -3.38251 0
M  V30 8428 C 772.053 -5.28032 -3.09594 0
M  V30 8429 N 771.19 -5.57953 -4.26185 0
M  V30 8430 H 776.03 -2.90402 -0.668626 0
M  V30 8431 H 773.567 -1.43609 -0.318572 0
M  V30 8432 H 775.525 -2.7431 -3.14341 0
M  V30 8433 H 774.155 -1.66654 -2.76453 0
M  V30 8434 H 773.207 -3.58075 -1.28399 0
M  V30 8435 H 774.519 -4.61667 -1.88852 0
M  V30 8436 H 773.673 -4.35008 -4.2291 0
M  V30 8437 H 772.412 -3.21765 -3.66495 0
M  V30 8438 H 771.417 -5.02397 -2.23332 0
M  V30 8439 H 772.642 -6.17477 -2.82663 0
M  V30 8440 H 770.588 -4.73092 -4.54445 0
M  V30 8441 H 770.505 -6.38793 -4.04326 0
M  V30 8442 H 771.773 -5.87931 -5.11817 0
M  V30 8443 N 776.003 0.335068 -1.53997 0
M  V30 8444 C 777.252 1.07182 -1.70865 0
M  V30 8445 C 777.565 1.89541 -0.483078 0
M  V30 8446 O 778.771 2.66219 -0.532879 0
M  V30 8447 C 777.227 1.95497 -3.02174 0
M  V30 8448 C 776.835 1.18304 -4.32097 0
M  V30 8449 C 778.579 2.68978 -3.28407 0
M  V30 8450 C 776.486 2.05699 -5.54474 0
M  V30 8451 H 775.416 0.403857 -0.636722 0
M  V30 8452 H 778.067 0.33076 -1.80494 0
M  V30 8453 H 776.449 2.73456 -2.86423 0
M  V30 8454 H 777.623 0.451969 -4.58578 0
M  V30 8455 H 775.938 0.565556 -4.12541 0
M  V30 8456 H 778.535 3.34651 -4.17029 0
M  V30 8457 H 778.878 3.36 -2.45784 0
M  V30 8458 H 779.411 1.98087 -3.44973 0
M  V30 8459 H 776.15 1.43204 -6.39666 0
M  V30 8460 H 775.67 2.76572 -5.32229 0
M  V30 8461 H 777.349 2.64554 -5.90441 0
M  V30 8462 N 777.481 1.45874 0.596531 0
M  V30 8463 C 778.711 1.5379 1.37958 0
M  V30 8464 C 779.119 0.173086 1.88407 0
M  V30 8465 O 778.462 -0.837498 1.63498 0
M  V30 8466 C 778.524 2.47044 2.61169 0
M  V30 8467 C 778.188 3.93565 2.32283 0
M  V30 8468 C 779.185 4.83162 1.91965 0
M  V30 8469 C 776.87 4.38579 2.44854 0
M  V30 8470 C 778.864 6.15782 1.64593 0
M  V30 8471 C 776.551 5.71238 2.17095 0
M  V30 8472 C 777.549 6.59659 1.77028 0
M  V30 8473 O 777.237 7.89857 1.49601 0
M  V30 8474 H 776.969 0.523 0.428307 0
M  V30 8475 H 779.523 1.91855 0.733529 0
M  V30 8476 H 777.753 2.0397 3.28532 0
M  V30 8477 H 779.442 2.4552 3.23226 0
M  V30 8478 H 780.208 4.49646 1.8178 0
M  V30 8479 H 776.087 3.6999 2.75006 0
M  V30 8480 H 779.631 6.84757 1.33245 0
M  V30 8481 H 775.528 6.04306 2.26901 0
M  V30 8482 H 776.296 8.01991 1.63561 0
M  V30 8483 N 778.959 -0.83999 1.33349 0
M  V30 8484 C 780.375 -1.13049 1.12659 0
M  V30 8485 C 780.575 -2.01328 -0.0832613 0
M  V30 8486 O 779.631 -2.40669 -0.763856 0
M  V30 8487 C 780.944 -1.79366 2.41347 0
M  V30 8488 C 782.492 -1.91937 2.47243 0
M  V30 8489 C 782.967 -2.6167 3.75889 0
M  V30 8490 N 784.458 -2.69184 3.76954 0
M  V30 8491 C 785.193 -3.23827 4.73206 0
M  V30 8492 N 784.689 -3.79166 5.79832 0
M  V30 8493 N 786.482 -3.22068 4.60683 0
M  V30 8494 H 778.633 -0.252432 2.10895 0
M  V30 8495 H 780.896 -0.174501 0.931801 0
M  V30 8496 H 780.602 -1.2196 3.29877 0
M  V30 8497 H 780.476 -2.79396 2.53412 0
M  V30 8498 H 782.863 -2.48498 1.59163 0
M  V30 8499 H 782.944 -0.908604 2.39119 0
M  V30 8500 H 782.588 -2.05769 4.64351 0
M  V30 8501 H 782.518 -3.63217 3.81289 0
M  V30 8502 H 785.009 -2.2994 2.99893 0
M  V30 8503 H 785.322 -4.19061 6.49313 0
M  V30 8504 H 783.667 -3.77457 5.83568 0
M  V30 8505 H 786.858 -2.78092 3.7654 0
M  V30 8506 H 787.031 -3.64351 5.35866 0
M  V30 8507 N 780.437 -1.16799 -1.0581 0
M  V30 8508 C 781.367 -0.902241 -2.15364 0
M  V30 8509 C 782.348 0.153351 -1.69407 0
M  V30 8510 O 783.533 0.00442032 -1.94199 0
M  V30 8511 C 780.663 -0.407911 -3.44896 0
M  V30 8512 C 779.617 -1.40197 -4.04387 0
M  V30 8513 C 778.943 -0.765848 -5.29187 0
M  V30 8514 C 780.243 -2.77316 -4.42598 0
M  V30 8515 H 781.937 -1.81841 -2.37853 0
M  V30 8516 H 779.483 -0.875731 -1.14311 0
M  V30 8517 H 781.436 -0.20945 -4.20879 0
M  V30 8518 H 780.16 0.54378 -3.22041 0
M  V30 8519 H 778.819 -1.58707 -3.30466 0
M  V30 8520 H 778.467 0.192482 -5.02632 0
M  V30 8521 H 778.167 -1.42939 -5.69949 0
M  V30 8522 H 779.691 -0.577519 -6.07863 0
M  V30 8523 H 781.105 -2.62561 -5.09642 0
M  V30 8524 H 779.502 -3.4019 -4.94359 0
M  V30 8525 H 780.572 -3.32199 -3.53231 0
M  V30 8526 N 781.915 1.24427 -0.967243 0
M  V30 8527 C 782.863 2.27403 -0.488927 0
M  V30 8528 C 783.857 1.63388 0.447302 0
M  V30 8529 O 785.063 1.77085 0.322643 0
M  V30 8530 H 781.438 0.738921 -0.139643 0
M  V30 8531 H 783.409 2.65122 -1.36942 0
M  V30 8532 C 782.158 3.4709 0.205787 0
M  V30 8533 H 781.481 3.96591 -0.50551 0
M  V30 8534 H 782.921 4.2099 0.504296 0
M  V30 8535 C 781.38 3.04923 1.43261 0
M  V30 8536 O 781.91 3.12043 2.52967 0
M  V30 8537 N 780.116 2.59976 1.29849 0
M  V30 8538 H 779.663 2.54382 0.405876 0
M  V30 8539 H 779.621 2.32128 2.12047 0
M  V30 8540 N 783.393 0.737304 1.3929 0
M  V30 8541 C 784.621 0.296573 2.04763 0
M  V30 8542 C 785.036 -1.06941 1.55592 0
M  V30 8543 O 784.393 -1.67619 0.721822 0
M  V30 8544 C 784.444 0.291906 3.6032 0
M  V30 8545 O 784.165 1.60397 4.07682 0
M  V30 8546 C 785.666 -0.164708 4.42994 0
M  V30 8547 H 782.886 0.129251 0.658434 0
M  V30 8548 H 785.43 1.0016 1.78293 0
M  V30 8549 H 783.585 -0.364251 3.85684 0
M  V30 8550 H 783.999 1.51909 5.0202 0
M  V30 8551 H 785.473 -0.116814 5.51876 0
M  V30 8552 H 785.95 -1.21022 4.22197 0
M  V30 8553 H 786.556 0.461968 4.22784 0
M  V30 8554 N 784.871 -1.49948 0.485112 0
M  V30 8555 C 786.117 -2.0332 -0.0571625 0
M  V30 8556 C 786.472 -1.35951 -1.36144 0
M  V30 8557 O 785.765 -0.480871 -1.85467 0
M  V30 8558 C 785.959 -3.56282 -0.282434 0
M  V30 8559 C 785.788 -4.38476 0.998455 0
M  V30 8560 C 784.558 -4.81076 1.54576 0
M  V30 8561 C 786.756 -4.78013 1.89758 0
M  V30 8562 N 784.738 -5.47641 2.77421 0
M  V30 8563 C 786.109 -5.44133 2.97186 0
M  V30 8564 C 788.164 -4.59963 1.90627 0
M  V30 8565 C 786.867 -5.94113 4.0549 0
M  V30 8566 C 788.893 -5.10893 2.97897 0
M  V30 8567 C 788.255 -5.77 4.04043 0
M  V30 8568 H 784.354 -0.781758 0.0194642 0
M  V30 8569 H 786.938 -1.833 0.65644 0
M  V30 8570 H 785.109 -3.76219 -0.965083 0
M  V30 8571 H 786.841 -3.96299 -0.820298 0
M  V30 8572 H 783.596 -4.60814 1.09304 0
M  V30 8573 H 784.02 -5.85521 3.39844 0
M  V30 8574 H 788.662 -4.08274 1.09875 0
M  V30 8575 H 786.38 -6.44832 4.8705 0
M  V30 8576 H 789.966 -4.98748 2.9957 0
M  V30 8577 H 788.846 -6.15698 4.85681 0
M  V30 8578 N 786.349 -0.21828 -1.56081 0
M  V30 8579 C 787.598 0.414644 -1.97392 0
M  V30 8580 C 787.911 1.61132 -1.10887 0
M  V30 8581 O 789.117 2.31355 -1.42082 0
M  V30 8582 C 787.573 0.789099 -3.51143 0
M  V30 8583 C 787.181 -0.384578 -4.46346 0
M  V30 8584 C 788.925 1.38781 -4.01173 0
M  V30 8585 C 786.832 0.0121288 -5.91399 0
M  V30 8586 H 785.762 0.158691 -0.737111 0
M  V30 8587 H 788.413 -0.313974 -1.80794 0
M  V30 8588 H 786.795 1.57505 -3.6333 0
M  V30 8589 H 787.969 -1.16212 -4.45905 0
M  V30 8590 H 786.284 -0.896306 -4.06639 0
M  V30 8591 H 788.881 1.69746 -5.07041 0
M  V30 8592 H 789.224 2.30245 -3.46833 0
M  V30 8593 H 789.757 0.665364 -3.92196 0
M  V30 8594 H 786.496 -0.868917 -6.49715 0
M  V30 8595 H 786.016 0.754053 -5.95041 0
M  V30 8596 H 787.695 0.439949 -6.45502 0
M  V30 8597 N 787.827 1.57504 0.0551401 0
M  V30 8598 C 788.79 2.03826 1.04821 0
M  V30 8599 C 789.79 0.937968 1.30609 0
M  V30 8600 O 790.98 1.20237 1.2605 0
M  V30 8601 C 788.112 2.43309 2.38775 0
M  V30 8602 H 789.305 2.92802 0.6486 0
M  V30 8603 H 786.858 1.53368 0.301315 0
M  V30 8604 H 787.593 1.5741 2.83536 0
M  V30 8605 H 787.378 3.23615 2.21395 0
M  V30 8606 H 788.868 2.79666 3.10124 0
M  V30 8607 N 789.305 -0.326896 1.54172 0
M  V30 8608 C 790.582 -1.08326 1.62864 0
M  V30 8609 C 790.962 -2.06018 0.46039 0
M  V30 8610 O 790.31 -2.21889 -0.545685 0
M  V30 8611 C 790.52 -1.78816 2.9971 0
M  V30 8612 C 791.868 -2.31958 3.55641 0
M  V30 8613 O 792.892 -1.88888 3.01993 0
M  V30 8614 O 791.751 -3.10801 4.49517 0
M  V30 8615 H 788.845 -0.499131 0.659392 0
M  V30 8616 H 791.391 -0.327054 1.66519 0
M  V30 8617 H 790.163 -1.07739 3.76176 0
M  V30 8618 H 789.786 -2.61255 2.99719 0
M  V30 8619 N 790.784 -1.46188 -0.588786 0
M  V30 8620 C 791.747 -1.55882 -1.68029 0
M  V30 8621 C 792.747 -0.436515 -1.54762 0
M  V30 8622 O 793.937 -0.700626 -1.59489 0
M  V30 8623 C 791.069 -1.47332 -3.07418 0
M  V30 8624 H 792.262 -2.5315 -1.60795 0
M  V30 8625 H 789.815 -1.33908 -0.806116 0
M  V30 8626 H 790.55 -0.513193 -3.20214 0
M  V30 8627 H 790.335 -2.28753 -3.18456 0
M  V30 8628 H 791.825 -1.57187 -3.86887 0
M  V30 8629 N 792.262 0.832906 -1.33792 0
M  V30 8630 C 793.673 1.40489 -1.22963 0
M  V30 8631 C 794.024 1.95633 0.149026 0
M  V30 8632 O 793.149 1.8928 1.04891 0
M  V30 8633 C 793.744 2.55387 -2.22627 0
M  V30 8634 C 792.303 3.08522 -2.15618 0
M  V30 8635 C 791.45 1.81347 -2.09782 0
M  V30 8636 H 794.401 0.638156 -1.45304 0
M  V30 8637 H 794.422 3.33193 -1.83746 0
M  V30 8638 H 793.934 2.15222 -3.22957 0
M  V30 8639 H 792.035 3.53217 -1.18611 0
M  V30 8640 H 792.148 3.6829 -3.0643 0
M  V30 8641 H 790.512 2.01839 -1.55349 0
M  V30 8642 H 791.295 1.43369 -3.1193 0
M  V30 8643 N 793.74 1.17359 1.05189 0
M  V30 8644 C 794.989 0.956412 1.77583 0
M  V30 8645 C 795.302 -0.516018 1.88671 0
M  V30 8646 O 796.508 -0.851401 2.57805 0
M  V30 8647 C 794.964 1.66203 3.19225 0
M  V30 8648 C 794.572 3.17299 3.16267 0
M  V30 8649 C 796.316 1.52725 3.96075 0
M  V30 8650 C 794.223 3.8055 4.52698 0
M  V30 8651 H 793.153 0.354204 0.665624 0
M  V30 8652 H 795.804 1.40612 1.17901 0
M  V30 8653 H 794.186 1.14006 3.79234 0
M  V30 8654 H 795.36 3.76431 2.65776 0
M  V30 8655 H 793.675 3.3079 2.52917 0
M  V30 8656 H 796.272 1.97351 4.96947 0
M  V30 8657 H 796.615 0.477803 4.13549 0
M  V30 8658 H 797.148 2.02139 3.42614 0
M  V30 8659 H 793.887 4.85492 4.4043 0
M  V30 8660 H 793.407 3.26206 5.03339 0
M  V30 8661 H 795.086 3.82757 5.21638 0
M  V30 8662 N 795.218 -1.23913 0.973828 0
M  V30 8663 C 796.181 -2.23367 0.51378 0
M  V30 8664 C 797.181 -1.55923 -0.39302 0
M  V30 8665 O 798.371 -1.73187 -0.187626 0
M  V30 8666 C 795.503 -3.39944 -0.255152 0
M  V30 8667 H 796.696 -2.65581 1.39307 0
M  V30 8668 H 794.249 -1.36632 0.759039 0
M  V30 8669 H 794.984 -3.03177 -1.15127 0
M  V30 8670 H 794.769 -3.90098 0.395673 0
M  V30 8671 H 796.259 -4.13749 -0.565842 0
M  V30 8672 N 796.696 -0.74468 -1.38897 0
M  V30 8673 C 797.626 -0.126355 -2.33158 0
M  V30 8674 C 798.607 0.713517 -1.54412 0
M  V30 8675 O 799.792 0.656523 -1.82766 0
M  V30 8676 C 796.922 0.774375 -3.38557 0
M  V30 8677 C 795.876 0.0379214 -4.27983 0
M  V30 8678 C 795.202 1.05631 -5.24162 0
M  V30 8679 C 796.502 -1.12523 -5.10035 0
M  V30 8680 H 798.196 -0.913744 -2.85116 0
M  V30 8681 H 795.742 -0.440847 -1.37086 0
M  V30 8682 H 797.695 1.21655 -4.03458 0
M  V30 8683 H 796.419 1.59399 -2.85061 0
M  V30 8684 H 795.078 -0.384733 -3.64576 0
M  V30 8685 H 794.726 1.86975 -4.66958 0
M  V30 8686 H 794.426 0.568261 -5.84846 0
M  V30 8687 H 795.95 1.49799 -5.9194 0
M  V30 8688 H 797.364 -0.761037 -5.68226 0
M  V30 8689 H 795.761 -1.54355 -5.79909 0
M  V30 8690 H 796.831 -1.94237 -4.44297 0
M  V30 8691 N 798.174 1.49689 -0.493057 0
M  V30 8692 C 799.59 1.58907 -0.148526 0
M  V30 8693 C 799.79 1.4991 1.34645 0
M  V30 8694 O 798.846 1.36893 2.12171 0
M  V30 8695 C 800.159 2.91996 -0.718265 0
M  V30 8696 C 801.707 3.05443 -0.683658 0
M  V30 8697 C 802.182 4.41138 -1.23132 0
M  V30 8698 N 803.673 4.47608 -1.19167 0
M  V30 8699 C 804.408 5.51038 -1.5857 0
M  V30 8700 N 803.904 6.61612 -2.05528 0
M  V30 8701 N 805.697 5.41706 -1.50036 0
M  V30 8702 H 797.848 1.5378 -1.46511 0
M  V30 8703 H 800.111 0.727996 -0.607228 0
M  V30 8704 H 799.817 3.04123 -1.7664 0
M  V30 8705 H 799.691 3.76798 -0.17419 0
M  V30 8706 H 802.078 2.92949 0.355626 0
M  V30 8707 H 802.159 2.22344 -1.26479 0
M  V30 8708 H 801.803 4.54382 -2.26935 0
M  V30 8709 H 801.733 5.22864 -0.626201 0
M  V30 8710 H 804.224 3.68274 -0.847524 0
M  V30 8711 H 804.537 7.36622 -2.33685 0
M  V30 8712 H 802.882 6.62674 -2.09497 0
M  V30 8713 H 806.073 4.54212 -1.13176 0
M  V30 8714 H 806.246 6.22188 -1.81068 0
M  V30 8715 N 799.652 0.226554 1.55963 0
M  V30 8716 C 800.584 -0.713907 2.17798 0
M  V30 8717 C 801.597 -1.15387 1.14846 0
M  V30 8718 O 802.786 -1.08416 1.41804 0
M  V30 8719 C 799.886 -1.97945 2.75084 0
M  V30 8720 C 799.059 -1.69424 4.03255 0
M  V30 8721 C 798.118 -2.80734 4.45056 0
M  V30 8722 O 797.144 -2.4899 5.11852 0
M  V30 8723 N 798.346 -4.09797 4.11152 0
M  V30 8724 H 801.111 -0.18494 2.99129 0
M  V30 8725 H 798.672 0.0457346 1.61835 0
M  V30 8726 H 800.664 -2.71611 3.00016 0
M  V30 8727 H 799.234 -2.41876 1.98027 0
M  V30 8728 H 798.454 -0.793767 3.86126 0
M  V30 8729 H 799.742 -1.47806 4.86858 0
M  V30 8730 H 799.14 -4.38429 3.57486 0
M  V30 8731 H 797.697 -4.79992 4.40966 0
M  V30 8732 N 801.13 -1.57531 -0.0467866 0
M  V30 8733 C 802.541 -1.76945 -0.595603 0
M  V30 8734 C 802.892 -0.855354 -1.76573 0
M  V30 8735 O 802.017 -0.045668 -2.16352 0
M  V30 8736 C 802.612 -3.20881 -1.08725 0
M  V30 8737 C 801.171 -3.41553 -1.58172 0
M  V30 8738 C 800.318 -2.72533 -0.511968 0
M  V30 8739 H 803.269 -1.57682 0.179436 0
M  V30 8740 H 803.29 -3.26419 -1.95528 0
M  V30 8741 H 802.802 -3.87385 -0.235398 0
M  V30 8742 H 800.903 -2.80199 -2.456 0
M  V30 8743 H 801.016 -4.50104 -1.64143 0
M  V30 8744 H 799.38 -2.35797 -0.962899 0
M  V30 8745 H 800.163 -3.41709 0.330117 0
M  V30 8746 N 802.608 0.318715 -1.54344 0
M  V30 8747 C 803.556 1.41254 -1.84798 0
M  V30 8748 C 804.55 1.53325 -0.720256 0
M  V30 8749 O 805.756 1.55653 -0.903992 0
M  V30 8750 H 802.131 0.471468 -0.585851 0
M  V30 8751 H 804.102 1.12795 -2.7626 0
M  V30 8752 C 802.851 2.77395 -2.09637 0
M  V30 8753 H 802.174 2.68881 -2.95876 0
M  V30 8754 H 803.614 3.52987 -2.34896 0
M  V30 8755 C 802.073 3.24948 -0.889398 0
M  V30 8756 O 802.603 4.01573 -0.101063 0
M  V30 8757 N 800.809 2.82051 -0.699684 0
M  V30 8758 H 800.356 2.19858 -1.3424 0
M  V30 8759 H 800.314 3.1422 0.106368 0
M  V30 8760 N 804.086 1.46499 0.581025 0
M  V30 8761 C 805.334 1.51596 1.33653 0
M  V30 8762 C 805.655 0.169859 1.94259 0
M  V30 8763 O 804.925 -0.803776 1.78651 0
M  V30 8764 H 803.505 0.558346 0.496244 0
M  V30 8765 H 806.167 1.8264 0.680338 0
M  V30 8766 H 805.263 2.26956 2.14237 0
M  V30 8767 N 805.565 -0.825799 1.34232 0
M  V30 8768 C 806.497 -1.94401 1.21413 0
M  V30 8769 C 807.51 -1.6218 0.141902 0
M  V30 8770 O 808.699 -1.74109 0.3935 0
M  V30 8771 C 805.799 -3.28257 0.842635 0
M  V30 8772 C 804.972 -3.88521 2.00924 0
M  V30 8773 C 804.031 -5.00752 1.61661 0
M  V30 8774 O 803.057 -5.19201 2.33279 0
M  V30 8775 N 804.259 -5.78084 0.52911 0
M  V30 8776 H 807.024 -2.05931 2.17744 0
M  V30 8777 H 804.585 -1.00223 1.27149 0
M  V30 8778 H 806.577 -4.00781 0.561822 0
M  V30 8779 H 805.147 -3.12585 -0.0304029 0
M  V30 8780 H 804.367 -3.08425 2.45495 0
M  V30 8781 H 805.655 -4.25516 2.78951 0
M  V30 8782 H 805.053 -5.65661 -0.0663322 0
M  V30 8783 H 803.61 -6.51072 0.308017 0
M  V30 8784 N 807.043 -1.17915 -1.04565 0
M  V30 8785 C 808.289 -0.972863 -1.77942 0
M  V30 8786 C 808.622 0.496753 -1.87739 0
M  V30 8787 O 807.897 1.3688 -1.38181 0
M  V30 8788 C 808.18 -1.62227 -3.21488 0
M  V30 8789 C 808.033 -3.16441 -3.19664 0
M  V30 8790 C 809.352 -1.33137 -4.19479 0
M  V30 8791 H 806.471 -0.354843 -0.645953 0
M  V30 8792 H 809.113 -1.45508 -1.22178 0
M  V30 8793 H 807.263 -1.21224 -3.69103 0
M  V30 8794 H 808.935 -3.66544 -2.80077 0
M  V30 8795 H 807.178 -3.48863 -2.57832 0
M  V30 8796 H 807.849 -3.57012 -4.21006 0
M  V30 8797 H 810.325 -1.68654 -3.80388 0
M  V30 8798 H 809.201 -1.81151 -5.18146 0
M  V30 8799 H 809.462 -0.253319 -4.41374 0
M  V30 8800 N 808.521 1.23394 -0.980386 0
M  V30 8801 C 809.767 1.924 -0.659848 0
M  V30 8802 C 810.122 1.75076 0.797883 0
M  V30 8803 O 809.415 1.10104 1.56805 0
M  V30 8804 C 809.609 3.43542 -0.985588 0
M  V30 8805 C 809.438 3.75568 -2.47343 0
M  V30 8806 C 808.208 3.96257 -3.13541 0
M  V30 8807 C 810.406 3.81045 -3.45412 0
M  V30 8808 N 808.388 4.15489 -4.51932 0
M  V30 8809 C 809.759 4.05269 -4.69209 0
M  V30 8810 C 811.814 3.63837 -3.39893 0
M  V30 8811 C 810.517 4.14071 -5.88164 0
M  V30 8812 C 812.543 3.73892 -4.58212 0
M  V30 8813 C 811.905 3.98553 -5.80805 0
M  V30 8814 H 808.004 0.725229 -0.292518 0
M  V30 8815 H 810.588 1.48615 -1.25784 0
M  V30 8816 H 808.759 3.86163 -0.416289 0
M  V30 8817 H 810.491 3.99887 -0.622324 0
M  V30 8818 H 807.246 3.93168 -2.64038 0
M  V30 8819 H 807.67 4.29058 -5.23677 0
M  V30 8820 H 812.312 3.43767 -2.46139 0
M  V30 8821 H 810.03 4.32949 -6.82335 0
M  V30 8822 H 813.616 3.61932 -4.55518 0
M  V30 8823 H 812.496 4.06148 -6.70831 0
M  V30 8824 N 809.999 0.752036 1.385 0
M  V30 8825 C 811.224 0.316993 2.04963 0
M  V30 8826 C 811.649 -1.04582 1.56346 0
M  V30 8827 O 811.007 -1.66616 0.714755 0
M  V30 8828 C 811.055 0.347235 3.58924 0
M  V30 8829 O 810.159 -0.659296 4.07096 0
M  V30 8830 H 809.5 0.140652 0.648932 0
M  V30 8831 H 812.03 1.02272 1.77205 0
M  V30 8832 H 812.04 0.19757 4.07521 0
M  V30 8833 H 810.715 1.34157 3.93668 0
M  V30 8834 H 809.292 -0.474371 3.6987 0
M  V30 8835 N 811.477 -1.49425 0.500989 0
M  V30 8836 C 812.888 -1.86624 0.0532011 0
M  V30 8837 C 813.239 -1.41331 -1.36088 0
M  V30 8838 O 812.364 -0.791195 -2.01418 0
M  V30 8839 C 812.959 -3.38681 0.0897693 0
M  V30 8840 C 811.518 -3.75181 -0.302677 0
M  V30 8841 C 810.665 -2.73419 0.462307 0
M  V30 8842 H 813.616 -1.41743 0.713773 0
M  V30 8843 H 813.637 -3.73902 -0.705528 0
M  V30 8844 H 813.149 -3.71616 1.11907 0
M  V30 8845 H 811.25 -3.47855 -1.33521 0
M  V30 8846 H 811.363 -4.79097 0.0167653 0
M  V30 8847 H 809.727 -2.54548 -0.0878557 0
M  V30 8848 H 810.51 -3.09198 1.49169 0
M  V30 8849 N 812.955 -0.234822 -1.55841 0
M  V30 8850 C 813.887 0.702346 -2.18174 0
M  V30 8851 C 814.9 1.14776 -1.15457 0
M  V30 8852 O 816.089 1.07662 -1.42377 0
M  V30 8853 C 813.189 1.96483 -2.76129 0
M  V30 8854 C 812.362 1.67283 -4.04148 0
M  V30 8855 C 811.421 2.7837 -4.46539 0
M  V30 8856 O 810.447 2.46272 -5.13166 0
M  V30 8857 N 811.649 4.07611 -4.1332 0
M  V30 8858 H 814.414 0.169074 -2.99223 0
M  V30 8859 H 811.975 -0.0543164 -1.61809 0
M  V30 8860 H 813.967 2.70016 -3.01452 0
M  V30 8861 H 812.537 2.40822 -1.99307 0
M  V30 8862 H 811.757 0.773278 -3.86541 0
M  V30 8863 H 813.045 1.45222 -4.87635 0
M  V30 8864 H 812.443 4.36527 -3.59806 0
M  V30 8865 H 811 4.77646 -4.43506 0
M  V30 8866 N 814.433 1.57553 0.0384317 0
M  V30 8867 C 815.381 2.07021 1.06043 0
M  V30 8868 C 816.375 0.982078 1.38028 0
M  V30 8869 O 817.581 1.16702 1.37042 0
M  V30 8870 H 813.956 0.660522 0.359464 0
M  V30 8871 H 815.927 2.91944 0.617339 0
M  V30 8872 C 814.676 2.55734 2.35574 0
M  V30 8873 H 813.999 3.39074 2.11822 0
M  V30 8874 H 815.439 2.94066 3.05452 0
M  V30 8875 C 813.898 1.45449 3.03885 0
M  V30 8876 O 814.428 0.815402 3.93337 0
M  V30 8877 N 812.634 1.19134 2.65058 0
M  V30 8878 H 812.181 1.71288 1.92401 0
M  V30 8879 H 812.139 0.455554 3.11082 0
M  V30 8880 N 815.911 -0.310526 1.54511 0
M  V30 8881 C 817.188 -1.06593 1.64004 0
M  V30 8882 C 817.568 -2.05519 0.482216 0
M  V30 8883 O 816.916 -2.22455 -0.52212 0
M  V30 8884 C 817.126 -1.75627 3.01589 0
M  V30 8885 C 818.474 -2.28173 3.58081 0
M  V30 8886 O 819.498 -1.85674 3.03979 0
M  V30 8887 O 818.357 -3.06015 4.52788 0
M  V30 8888 H 815.451 -0.492109 0.664649 0
M  V30 8889 H 817.997 -0.309374 1.66856 0
M  V30 8890 H 816.769 -1.03743 3.77297 0
M  V30 8891 H 816.392 -2.58061 3.02473 0
M  V30 8892 N 817.389 -1.46805 -0.573248 0
M  V30 8893 C 818.666 -1.43082 -1.33368 0
M  V30 8894 C 819.046 -0.119252 -2.10763 0
M  V30 8895 O 818.394 0.899239 -2.10062 0
M  V30 8896 C 818.604 -2.66643 -2.25172 0
M  V30 8897 C 819.952 -3.13188 -2.86702 0
M  V30 8898 O 820.976 -2.67258 -2.35482 0
M  V30 8899 O 819.835 -3.92994 -3.79761 0
M  V30 8900 H 816.929 -0.569451 -0.599712 0
M  V30 8901 H 819.475 -1.58984 -0.59348 0
M  V30 8902 H 818.247 -3.53649 -1.67475 0
M  V30 8903 H 817.87 -2.53247 -3.06516 0
M  V30 8904 N 818.867 0.818669 -1.34668 0
M  V30 8905 C 820.283 1.11243 -1.14443 0
M  V30 8906 C 820.483 2.01435 0.0512212 0
M  V30 8907 O 819.539 2.41854 0.725471 0
M  V30 8908 C 820.852 1.75504 -2.4417 0
M  V30 8909 C 822.4 1.8798 -2.50265 0
M  V30 8910 C 822.875 2.55657 -3.80004 0
M  V30 8911 N 824.366 2.63153 -3.81189 0
M  V30 8912 C 825.101 3.16258 -4.78298 0
M  V30 8913 N 824.597 3.69893 -5.85791 0
M  V30 8914 N 826.39 3.14698 -4.65748 0
M  V30 8915 H 818.541 0.218848 -2.1127 0
M  V30 8916 H 820.804 0.159655 -0.934459 0
M  V30 8917 H 820.51 1.16697 -3.31775 0
M  V30 8918 H 820.384 2.75329 -2.57825 0
M  V30 8919 H 822.771 2.45934 -1.63096 0
M  V30 8920 H 822.852 0.870447 -2.40535 0
M  V30 8921 H 822.496 1.98356 -4.67565 0
M  V30 8922 H 822.426 3.57105 -3.87019 0
M  V30 8923 H 824.917 2.2514 -3.03513 0
M  V30 8924 H 825.23 4.08678 -6.55898 0
M  V30 8925 H 823.575 3.68125 -5.89499 0
M  V30 8926 H 826.766 2.72066 -3.80917 0
M  V30 8927 H 826.939 3.5578 -5.41594 0
M  V30 8928 N 820.346 1.18468 1.03938 0
M  V30 8929 C 821.762 0.934635 1.29371 0
M  V30 8930 C 821.962 -0.399067 1.97509 0
M  V30 8931 O 821.018 -1.13309 2.25648 0
M  V30 8932 C 822.331 2.10111 2.15114 0
M  V30 8933 C 823.879 2.13955 2.28456 0
M  V30 8934 C 824.354 3.30024 3.17566 0
M  V30 8935 N 825.845 3.29893 3.25153 0
M  V30 8936 C 826.58 4.16346 3.94263 0
M  V30 8937 N 826.076 5.12934 4.65693 0
M  V30 8938 N 827.869 4.04256 3.90556 0
M  V30 8939 H 820.02 2.04294 0.581185 0
M  V30 8940 H 822.283 0.892727 0.318971 0
M  V30 8941 H 821.989 3.06572 1.72355 0
M  V30 8942 H 821.863 2.06283 3.15796 0
M  V30 8943 H 824.25 1.18072 2.7045 0
M  V30 8944 H 824.331 2.2184 1.2736 0
M  V30 8945 H 823.975 4.26181 2.76283 0
M  V30 8946 H 823.905 3.19376 4.18697 0
M  V30 8947 H 826.396 2.59969 2.74271 0
M  V30 8948 H 826.709 5.75271 5.16026 0
M  V30 8949 H 825.054 5.16893 4.64593 0
M  V30 8950 H 828.245 3.28083 3.33885 0
M  V30 8951 H 828.418 4.71848 4.44144 0
M  V30 8952 N 821.824 -1.22873 0.986916 0
M  V30 8953 C 823.054 -1.95204 0.67668 0
M  V30 8954 C 823.462 -1.73193 -0.761641 0
M  V30 8955 O 822.805 -1.0243 -1.52492 0
M  V30 8956 C 822.867 -3.48173 0.895302 0
M  V30 8957 C 822.531 -3.93912 2.31695 0
M  V30 8958 C 823.528 -4.02064 3.29607 0
M  V30 8959 C 821.213 -4.26722 2.64978 0
M  V30 8960 C 823.207 -4.42391 4.58878 0
M  V30 8961 C 820.894 -4.66729 3.94471 0
M  V30 8962 C 821.892 -4.74531 4.91232 0
M  V30 8963 O 821.58 -5.13636 6.18412 0
M  V30 8964 H 821.312 -0.628105 0.24992 0
M  V30 8965 H 823.866 -1.5714 1.32274 0
M  V30 8966 H 822.096 -3.86223 0.192072 0
M  V30 8967 H 823.785 -4.01717 0.581233 0
M  V30 8968 H 824.551 -3.76912 3.05225 0
M  V30 8969 H 820.43 -4.19858 1.9037 0
M  V30 8970 H 823.974 -4.48395 5.34404 0
M  V30 8971 H 819.871 -4.91332 4.18645 0
M  V30 8972 H 820.639 -5.31728 6.2226 0
M  V30 8973 N 823.302 -0.75937 -1.38099 0
M  V30 8974 C 824.527 -0.327859 -2.04792 0
M  V30 8975 C 824.952 1.03752 -1.56899 0
M  V30 8976 O 824.31 1.66235 -0.723581 0
M  V30 8977 C 824.358 -0.366264 -3.58735 0
M  V30 8978 O 823.462 0.637697 -4.0744 0
M  V30 8979 H 822.803 -0.144092 -0.648177 0
M  V30 8980 H 825.333 -1.03211 -1.7666 0
M  V30 8981 H 825.343 -0.219179 -4.07411 0
M  V30 8982 H 824.018 -1.36243 -3.92951 0
M  V30 8983 H 822.595 0.454749 -3.70117 0
M  V30 8984 N 824.78 1.49157 -0.508906 0
M  V30 8985 C 825.69 2.33045 0.269656 0
M  V30 8986 C 826.706 1.45143 0.959662 0
M  V30 8987 O 827.882 1.78155 0.939295 0
M  V30 8988 C 824.947 3.20772 1.31554 0
M  V30 8989 C 824.008 4.24531 0.638131 0
M  V30 8990 C 823.241 5.08065 1.63418 0
M  V30 8991 O 823.464 4.93238 2.86483 0
M  V30 8992 O 822.398 5.90117 1.18516 0
M  V30 8993 H 826.224 3.00821 -0.417183 0
M  V30 8994 H 823.809 1.46938 -0.270119 0
M  V30 8995 H 825.691 3.75095 1.92047 0
M  V30 8996 H 824.366 2.55681 1.98516 0
M  V30 8997 H 823.273 3.74099 -0.00674357 0
M  V30 8998 H 824.606 4.92199 0.0108155 0
M  V30 8999 N 826.258 0.243083 1.55714 0
M  V30 9000 C 827.483 -0.389944 2.03701 0
M  V30 9001 C 827.908 -1.51025 1.12129 0
M  V30 9002 O 827.266 -1.80944 0.11352 0
M  V30 9003 C 827.314 -0.878649 3.49731 0
M  V30 9004 O 826.418 -1.98851 3.61292 0
M  V30 9005 H 825.759 -0.0855115 0.658471 0
M  V30 9006 H 828.289 0.368023 2.01263 0
M  V30 9007 H 828.299 -1.18287 3.90477 0
M  V30 9008 H 826.974 -0.0588107 4.15858 0
M  V30 9009 H 825.551 -1.68928 3.32442 0
M  V30 9010 N 827.736 -1.57571 -0.0300757 0
M  V30 9011 C 828.984 -1.88852 -0.719666 0
M  V30 9012 C 829.305 -0.840645 -1.75949 0
M  V30 9013 O 828.575 0.125854 -1.95495 0
M  V30 9014 H 827.155 -0.696965 -0.268792 0
M  V30 9015 H 829.817 -1.949 0.00373285 0
M  V30 9016 H 828.913 -2.87695 -1.20987 0
M  V30 9017 N 829.214 0.302327 -1.54673 0
M  V30 9018 C 830.63 0.647911 -1.45857 0
M  V30 9019 C 830.83 1.90773 -0.64869 0
M  V30 9020 O 829.886 2.52018 -0.155865 0
M  V30 9021 C 831.199 0.802144 -2.89804 0
M  V30 9022 C 832.747 0.898114 -2.99838 0
M  V30 9023 C 833.222 1.08436 -4.44978 0
M  V30 9024 N 834.713 1.15059 -4.48682 0
M  V30 9025 C 835.448 1.31296 -5.58166 0
M  V30 9026 N 834.944 1.4444 -6.77576 0
M  V30 9027 N 836.737 1.34174 -5.45851 0
M  V30 9028 H 828.888 -0.525428 -2.05798 0
M  V30 9029 H 831.151 -0.173423 -0.932002 0
M  V30 9030 H 830.857 -0.0526531 -3.51661 0
M  V30 9031 H 830.731 1.69155 -3.37145 0
M  V30 9032 H 833.118 1.7434 -2.38096 0
M  V30 9033 H 833.199 -0.0152752 -2.55795 0
M  V30 9034 H 832.843 0.243843 -5.07314 0
M  V30 9035 H 832.773 2.01195 -4.8665 0
M  V30 9036 H 835.264 1.0626 -3.62653 0
M  V30 9037 H 835.577 1.56582 -7.56771 0
M  V30 9038 H 833.922 1.41499 -6.80443 0
M  V30 9039 H 837.113 1.23516 -4.5151 0
M  V30 9040 H 837.286 1.46485 -6.31226 0
M  V30 9041 N 830.692 1.47107 0.565454 0
M  V30 9042 C 831.938 1.53535 1.32495 0
M  V30 9043 C 832.271 0.193537 1.93233 0
M  V30 9044 O 831.546 -0.796956 1.77423 0
M  V30 9045 C 831.829 2.64712 2.4413 0
M  V30 9046 C 831.682 4.08482 1.88314 0
M  V30 9047 C 833.001 2.71853 3.46098 0
M  V30 9048 H 830.12 0.558926 0.480386 0
M  V30 9049 H 832.762 1.79125 0.633575 0
M  V30 9050 H 830.912 2.43023 3.03104 0
M  V30 9051 H 832.584 4.4151 1.33665 0
M  V30 9052 H 830.827 4.17148 1.19037 0
M  V30 9053 H 831.498 4.82032 2.68978 0
M  V30 9054 H 833.974 2.91397 2.97031 0
M  V30 9055 H 832.85 3.51433 4.21646 0
M  V30 9056 H 833.111 1.78584 4.04426 0
M  V30 9057 N 832.17 -0.811516 1.35101 0
M  V30 9058 C 833.103 -1.92872 1.21966 0
M  V30 9059 C 834.081 -1.62236 0.108667 0
M  V30 9060 O 835.265 -1.8647 0.275875 0
M  V30 9061 C 832.392 -3.27152 0.876886 0
M  V30 9062 C 831.438 -3.7674 1.99924 0
M  V30 9063 S 832.271 -3.95132 3.61429 0
M  V30 9064 C 833.427 -5.32322 3.29218 0
M  V30 9065 H 833.66 -2.03718 2.16532 0
M  V30 9066 H 831.193 -0.968352 1.20259 0
M  V30 9067 H 833.151 -4.04729 0.685917 0
M  V30 9068 H 831.812 -3.14059 -0.0506289 0
M  V30 9069 H 831.005 -4.73981 1.71343 0
M  V30 9070 H 830.607 -3.06145 2.14829 0
M  V30 9071 H 832.899 -6.1614 2.8174 0
M  V30 9072 H 833.842 -5.65893 4.25641 0
M  V30 9073 H 834.25 -4.98374 2.65111 0
M  V30 9074 N 833.648 -1.19017 -1.03309 0
M  V30 9075 C 834.578 -0.94772 -2.13402 0
M  V30 9076 C 835.559 0.117383 -1.69694 0
M  V30 9077 O 836.744 -0.0367733 -1.94165 0
M  V30 9078 C 833.874 -0.480977 -3.43953 0
M  V30 9079 C 832.828 -1.48743 -4.01322 0
M  V30 9080 C 832.154 -0.877924 -5.27443 0
M  V30 9081 C 833.454 -2.86642 -4.36616 0
M  V30 9082 H 835.148 -1.86846 -2.33942 0
M  V30 9083 H 832.694 -0.899781 -1.12427 0
M  V30 9084 H 834.647 -0.298677 -4.2034 0
M  V30 9085 H 833.371 0.475348 -3.23122 0
M  V30 9086 H 832.03 -1.65681 -3.27025 0
M  V30 9087 H 831.678 0.0858232 -5.02927 0
M  V30 9088 H 831.378 -1.54996 -5.66789 0
M  V30 9089 H 832.902 -0.706326 -6.06501 0
M  V30 9090 H 834.316 -2.73312 -5.03958 0
M  V30 9091 H 832.713 -3.50599 -4.87032 0
M  V30 9092 H 833.783 -3.39617 -3.46105 0
M  V30 9093 N 835.127 1.22348 -0.993418 0
M  V30 9094 C 836.373 1.91393 -0.67056 0
M  V30 9095 C 836.706 1.77163 0.795428 0
M  V30 9096 O 835.981 1.14084 1.57528 0
M  V30 9097 C 836.264 3.43589 -1.0779 0
M  V30 9098 C 836.117 3.66867 -2.60248 0
M  V30 9099 C 837.436 4.35545 -0.631527 0
M  V30 9100 H 834.555 0.695057 -0.24508 0
M  V30 9101 H 837.197 1.44213 -1.23703 0
M  V30 9102 H 835.347 3.83903 -0.595902 0
M  V30 9103 H 837.019 3.35954 -3.16121 0
M  V30 9104 H 835.262 3.1113 -3.02293 0
M  V30 9105 H 835.933 4.73457 -2.838 0
M  V30 9106 H 838.409 4.0275 -1.04554 0
M  V30 9107 H 837.285 5.40707 -0.944831 0
M  V30 9108 H 837.546 4.39618 0.467779 0
M  V30 9109 N 836.605 0.766683 1.37694 0
M  V30 9110 C 837.882 0.25366 1.93948 0
M  V30 9111 C 838.262 -1.25041 1.70082 0
M  V30 9112 O 837.61 -2.03115 1.04674 0
M  V30 9113 C 837.82 0.621549 3.43421 0
M  V30 9114 C 839.168 0.588504 4.20502 0
M  V30 9115 O 840.192 0.560632 3.5176 0
M  V30 9116 O 839.051 0.61107 5.43073 0
M  V30 9117 H 836.145 0.0570586 0.825029 0
M  V30 9118 H 838.691 0.847693 1.47011 0
M  V30 9119 H 837.463 1.65979 3.54354 0
M  V30 9120 H 837.086 0.000197027 3.976 0
M  V30 9121 N 838.083 -1.48885 0.516809 0
M  V30 9122 C 839.046 -2.27916 -0.242256 0
M  V30 9123 C 840.046 -1.34601 -0.879735 0
M  V30 9124 O 841.236 -1.57616 -0.74182 0
M  V30 9125 C 838.368 -3.13067 -1.34914 0
M  V30 9126 H 839.561 -2.96483 0.451444 0
M  V30 9127 H 837.114 -1.5391 0.272294 0
M  V30 9128 H 837.849 -2.49102 -2.07651 0
M  V30 9129 H 837.634 -3.81695 -0.897313 0
M  V30 9130 H 839.124 -3.72716 -1.88341 0
M  V30 9131 N 839.561 -0.251338 -1.55583 0
M  V30 9132 C 840.491 0.640437 -2.24545 0
M  V30 9133 C 841.472 1.17781 -1.22726 0
M  V30 9134 O 842.657 1.21633 -1.5139 0
M  V30 9135 C 839.787 1.8355 -2.94834 0
M  V30 9136 C 838.741 1.4307 -4.03379 0
M  V30 9137 C 838.067 2.70695 -4.61116 0
M  V30 9138 C 839.367 0.59848 -5.1886 0
M  V30 9139 H 841.061 0.0653772 -2.99329 0
M  V30 9140 H 838.607 0.0300042 -1.43969 0
M  V30 9141 H 840.56 2.46505 -3.4178 0
M  V30 9142 H 839.284 2.43601 -2.17546 0
M  V30 9143 H 837.943 0.824474 -3.57209 0
M  V30 9144 H 837.591 3.28954 -3.80524 0
M  V30 9145 H 837.291 2.44332 -5.34393 0
M  V30 9146 H 838.815 3.34541 -5.10798 0
M  V30 9147 H 840.229 1.13244 -5.62004 0
M  V30 9148 H 838.626 0.430728 -5.98552 0
M  V30 9149 H 839.696 -0.38829 -4.83343 0
M  V30 9150 N 841.039 1.57585 0.0217189 0
M  V30 9151 C 842.267 1.93871 0.722619 0
M  V30 9152 C 842.682 0.851706 1.68498 0
M  V30 9153 O 842.039 -0.17127 1.81695 0
M  V30 9154 C 842.09 3.30114 1.47333 0
M  V30 9155 O 841.811 4.34639 0.549597 0
M  V30 9156 C 843.312 3.80727 2.27072 0
M  V30 9157 H 840.532 0.639671 0.202637 0
M  V30 9158 H 843.076 2.04487 -0.0229414 0
M  V30 9159 H 841.231 3.20872 2.17071 0
M  V30 9160 H 841.645 5.13326 1.07686 0
M  V30 9161 H 843.119 4.78547 2.75131 0
M  V30 9162 H 843.596 3.12301 3.08812 0
M  V30 9163 H 844.202 3.93075 1.62395 0
M  V30 9164 N 842.517 -0.29412 1.54831 0
M  V30 9165 C 843.933 -0.640167 1.46199 0
M  V30 9166 C 844.133 -1.90426 0.658798 0
M  V30 9167 O 843.189 -2.51932 0.169228 0
M  V30 9168 C 844.502 -0.786763 2.90225 0
M  V30 9169 C 846.05 -0.882201 3.0031 0
M  V30 9170 C 846.525 -1.06074 4.45547 0
M  V30 9171 N 848.016 -1.12678 4.49286 0
M  V30 9172 C 848.751 -1.28334 5.58854 0
M  V30 9173 N 848.247 -1.40845 6.78332 0
M  V30 9174 N 850.04 -1.31277 5.46555 0
M  V30 9175 H 842.191 0.536334 2.05517 0
M  V30 9176 H 844.454 0.178363 0.93107 0
M  V30 9177 H 844.16 0.0713018 3.51628 0
M  V30 9178 H 844.034 -1.67364 3.38037 0
M  V30 9179 H 846.421 -1.73075 2.39017 0
M  V30 9180 H 846.502 0.0288405 2.55784 0
M  V30 9181 H 846.146 -0.216935 5.07437 0
M  V30 9182 H 846.076 -1.98611 4.8771 0
M  V30 9183 H 848.567 -1.04335 3.63212 0
M  V30 9184 H 848.88 -1.52566 7.57591 0
M  V30 9185 H 847.225 -1.37888 6.81184 0
M  V30 9186 H 850.416 -1.2112 4.52159 0
M  V30 9187 H 850.589 -1.43136 6.31994 0
M  V30 9188 N 843.995 -1.47404 -0.557645 0
M  V30 9189 C 845.22 -1.57868 -1.34508 0
M  V30 9190 C 845.645 -0.229151 -1.86699 0
M  V30 9191 O 845.003 0.794908 -1.62944 0
M  V30 9192 C 845.051 -2.60712 -2.49122 0
M  V30 9193 O 844.155 -2.15952 -3.51338 0
M  V30 9194 H 843.496 -0.530335 -0.399551 0
M  V30 9195 H 846.026 -1.93181 -0.673954 0
M  V30 9196 H 846.036 -2.81118 -2.95697 0
M  V30 9197 H 844.711 -3.58701 -2.10491 0
M  V30 9198 H 843.288 -2.05644 -3.11071 0
M  V30 9199 N 845.473 0.80434 -1.35529 0
M  V30 9200 C 846.406 1.92222 -1.22987 0
M  V30 9201 C 847.384 1.62177 -0.117269 0
M  V30 9202 O 848.568 1.86321 -0.285761 0
M  V30 9203 C 845.695 3.26682 -0.894223 0
M  V30 9204 C 844.741 3.75674 -2.01919 0
M  V30 9205 S 845.574 3.93209 -3.6352 0
M  V30 9206 C 846.73 5.30568 -3.32037 0
M  V30 9207 H 846.963 2.02567 -2.1761 0
M  V30 9208 H 844.496 0.961961 -1.20771 0
M  V30 9209 H 846.454 4.04359 -0.707371 0
M  V30 9210 H 845.115 3.14082 0.0339729 0
M  V30 9211 H 844.308 4.73065 -1.73854 0
M  V30 9212 H 843.91 3.05001 -2.16449 0
M  V30 9213 H 846.202 6.14637 -2.85004 0
M  V30 9214 H 847.145 5.63628 -4.28636 0
M  V30 9215 H 847.553 4.96961 -2.6775 0
M  V30 9216 N 846.951 1.19563 1.02676 0
M  V30 9217 C 847.899 0.931942 2.13114 0
M  V30 9218 C 848.893 -0.113007 1.69023 0
M  V30 9219 O 850.099 0.0364298 1.79963 0
M  V30 9220 H 846.474 0.283981 0.696318 0
M  V30 9221 H 848.445 1.86991 2.32545 0
M  V30 9222 C 847.194 0.489461 3.44238 0
M  V30 9223 H 846.517 1.28508 3.78584 0
M  V30 9224 H 847.957 0.34408 4.22602 0
M  V30 9225 C 846.416 -0.796761 3.27343 0
M  V30 9226 O 846.946 -1.85767 3.56165 0
M  V30 9227 N 845.152 -0.754824 2.80626 0
M  V30 9228 H 844.699 0.108778 2.5737 0
M  V30 9229 H 844.657 -1.6158 2.69702 0
M  V30 9230 N 848.429 -1.21819 0.999893 0
M  V30 9231 C 849.675 -1.91035 0.680701 0
M  V30 9232 C 850.008 -1.77582 -0.786021 0
M  V30 9233 O 849.283 -1.14917 -1.56921 0
M  V30 9234 C 849.566 -3.43013 1.0961 0
M  V30 9235 C 849.419 -3.65481 2.6219 0
M  V30 9236 C 850.738 -4.35204 0.654616 0
M  V30 9237 H 847.857 -0.693748 0.248763 0
M  V30 9238 H 850.499 -1.43555 1.24466 0
M  V30 9239 H 848.649 -3.83581 0.616253 0
M  V30 9240 H 850.321 -3.34273 3.17899 0
M  V30 9241 H 848.564 -3.09522 3.03938 0
M  V30 9242 H 849.235 -4.71945 2.86307 0
M  V30 9243 H 851.711 -4.0219 1.06688 0
M  V30 9244 H 850.587 -5.40198 0.973492 0
M  V30 9245 H 850.848 -4.3986 -0.444458 0
M  V30 9246 N 849.908 -0.773975 -1.37286 0
M  V30 9247 C 851.319 -0.404433 -1.82267 0
M  V30 9248 C 851.67 1.06971 -1.64474 0
M  V30 9249 O 850.795 1.82867 -1.15708 0
M  V30 9250 C 851.39 -0.727298 -3.30902 0
M  V30 9251 C 849.949 -0.410784 -3.74152 0
M  V30 9252 C 849.096 -0.969983 -2.59782 0
M  V30 9253 H 852.047 -0.968437 -1.25726 0
M  V30 9254 H 852.068 -0.0127575 -3.80498 0
M  V30 9255 H 851.58 -1.80026 -3.4382 0
M  V30 9256 H 849.681 0.65477 -3.66802 0
M  V30 9257 H 849.794 -0.920592 -4.70172 0
M  V30 9258 H 848.158 -0.394094 -2.51633 0
M  V30 9259 H 848.941 -2.04839 -2.75492 0
M  V30 9260 N 851.386 1.48609 -0.524698 0
M  V30 9261 C 852.614 2.06899 0.00742946 0
M  V30 9262 C 853.029 1.38196 1.28637 0
M  V30 9263 O 852.386 0.467771 1.76403 0
M  V30 9264 C 852.437 3.60699 0.240548 0
M  V30 9265 O 852.158 4.26821 -0.987715 0
M  V30 9266 C 853.659 4.35769 0.813652 0
M  V30 9267 H 850.879 0.670278 -0.0311294 0
M  V30 9268 H 853.423 1.91071 -0.728832 0
M  V30 9269 H 851.578 3.76149 0.926845 0
M  V30 9270 H 851.992 5.18889 -0.765175 0
M  V30 9271 H 853.466 5.44174 0.926219 0
M  V30 9272 H 853.943 3.9984 1.81728 0
M  V30 9273 H 854.549 4.24983 0.164086 0
M  V30 9274 N 852.864 0.259585 1.55447 0
M  V30 9275 C 854.11 -0.362143 1.9954 0
M  V30 9276 C 854.443 -1.5666 1.14767 0
M  V30 9277 O 853.718 -1.93319 0.214025 0
M  V30 9278 C 854.001 -0.759588 3.51998 0
M  V30 9279 C 853.854 0.451134 4.47532 0
M  V30 9280 C 855.173 -1.60186 4.09913 0
M  V30 9281 H 852.292 -0.130157 0.725416 0
M  V30 9282 H 854.934 0.363431 1.86492 0
M  V30 9283 H 853.084 -1.3778 3.63248 0
M  V30 9284 H 854.756 1.08965 4.48246 0
M  V30 9285 H 852.999 1.092 4.19831 0
M  V30 9286 H 853.67 0.129518 5.51848 0
M  V30 9287 H 856.146 -1.0799 4.01842 0
M  V30 9288 H 855.022 -1.84879 5.16828 0
M  V30 9289 H 855.283 -2.57787 3.59163 0
M  V30 9290 N 854.342 -1.57594 -0.0133615 0
M  V30 9291 C 855.29 -2.08682 -1.02736 0
M  V30 9292 C 856.284 -1.00391 -1.36448 0
M  V30 9293 O 857.49 -1.18868 -1.35168 0
M  V30 9294 H 853.865 -0.666158 -0.34891 0
M  V30 9295 H 855.836 -2.9289 -0.570815 0
M  V30 9296 C 854.585 -2.5945 -2.31476 0
M  V30 9297 H 853.908 -3.42401 -2.06401 0
M  V30 9298 H 855.348 -2.98888 -3.00735 0
M  V30 9299 C 853.807 -1.50266 -3.01533 0
M  V30 9300 O 854.337 -0.877875 -3.9199 0
M  V30 9301 N 852.543 -1.23336 -2.63129 0
M  V30 9302 H 852.09 -1.74327 -1.89652 0
M  V30 9303 H 852.048 -0.504987 -3.10318 0
M  V30 9304 N 855.82 0.285905 -1.54985 0
M  V30 9305 C 856.75 1.35752 -1.89983 0
M  V30 9306 C 857.731 1.52163 -0.760295 0
M  V30 9307 O 858.916 1.65421 -1.01733 0
M  V30 9308 C 856.046 2.71925 -2.16042 0
M  V30 9309 C 855 2.70261 -3.31878 0
M  V30 9310 C 854.326 4.09864 -3.43388 0
M  V30 9311 C 855.626 2.30667 -4.68604 0
M  V30 9312 H 857.32 1.06709 -2.79738 0
M  V30 9313 H 854.866 0.511884 -1.34595 0
M  V30 9314 H 856.819 3.46992 -2.39113 0
M  V30 9315 H 855.543 3.02523 -1.23074 0
M  V30 9316 H 854.202 1.97651 -3.08755 0
M  V30 9317 H 853.85 4.37664 -2.47909 0
M  V30 9318 H 853.55 4.09648 -4.21262 0
M  V30 9319 H 855.074 4.86689 -3.68736 0
M  V30 9320 H 856.488 2.95453 -4.91305 0
M  V30 9321 H 854.885 2.41637 -5.49301 0
M  V30 9322 H 855.955 1.25793 -4.68299 0
M  V30 9323 N 857.298 1.47698 0.54982 0
M  V30 9324 C 858.546 1.54397 1.30407 0
M  V30 9325 C 858.867 0.211026 1.93855 0
M  V30 9326 O 858.137 -0.765701 1.80316 0
M  V30 9327 H 856.717 0.568747 0.484289 0
M  V30 9328 H 859.379 1.84042 0.641444 0
M  V30 9329 H 858.475 2.31449 2.09375 0
M  V30 9330 N 858.776 -0.797141 1.35954 0
M  V30 9331 C 859.709 -1.91567 1.24005 0
M  V30 9332 C 860.687 -1.62112 0.125868 0
M  V30 9333 O 861.871 -1.86167 0.295638 0
M  V30 9334 C 858.998 -3.26204 0.911535 0
M  V30 9335 C 858.044 -3.74598 2.03909 0
M  V30 9336 S 858.877 -3.91276 3.656 0
M  V30 9337 C 860.033 -5.288 3.34846 0
M  V30 9338 H 860.266 -2.0141 2.18681 0
M  V30 9339 H 857.799 -0.955542 1.2128 0
M  V30 9340 H 859.757 -4.03979 0.728805 0
M  V30 9341 H 858.418 -3.14095 -0.0173159 0
M  V30 9342 H 857.611 -4.72137 1.7636 0
M  V30 9343 H 857.213 -3.03849 2.18064 0
M  V30 9344 H 859.505 -6.13117 2.8826 0
M  V30 9345 H 860.448 -5.61347 4.31619 0
M  V30 9346 H 860.856 -4.95534 2.70382 0
M  V30 9347 N 860.254 -1.20106 -1.0204 0
M  V30 9348 C 861.217 -0.948261 -2.08664 0
M  V30 9349 C 862.217 0.0746753 -1.60627 0
M  V30 9350 O 863.407 -0.160981 -1.73455 0
M  V30 9351 C 860.539 -0.426854 -3.38217 0
M  V30 9352 H 861.732 -1.894 -2.32524 0
M  V30 9353 H 859.285 -1.0159 -1.18782 0
M  V30 9354 H 860.02 0.524532 -3.2003 0
M  V30 9355 H 859.805 -1.16451 -3.74408 0
M  V30 9356 H 861.295 -0.269346 -4.1673 0
M  V30 9357 N 861.732 1.21287 -1.00634 0
M  V30 9358 C 862.662 2.25973 -0.588089 0
M  V30 9359 C 863.643 1.65527 0.391764 0
M  V30 9360 O 864.828 1.92179 0.279452 0
M  V30 9361 C 861.958 3.47197 0.0847336 0
M  V30 9362 C 860.912 4.20168 -0.815039 0
M  V30 9363 C 860.238 5.34699 -0.00855393 0
M  V30 9364 C 861.538 4.77416 -2.11828 0
M  V30 9365 H 863.232 2.61212 -1.46317 0
M  V30 9366 H 860.778 1.25563 -0.704985 0
M  V30 9367 H 862.731 4.19602 0.388821 0
M  V30 9368 H 861.455 3.11092 0.994456 0
M  V30 9369 H 860.114 3.49614 -1.10297 0
M  V30 9370 H 859.762 4.94837 0.902499 0
M  V30 9371 H 859.462 5.84449 -0.607664 0
M  V30 9372 H 860.986 6.09914 0.289317 0
M  V30 9373 H 862.4 5.41694 -1.87725 0
M  V30 9374 H 860.797 5.37561 -2.66736 0
M  V30 9375 H 861.867 3.96724 -2.78816 0
M  V30 9376 N 863.21 0.781244 1.36873 0
M  V30 9377 C 864.458 0.349198 1.9906 0
M  V30 9378 C 864.779 -1.0806 1.62321 0
M  V30 9379 O 864.049 -1.74351 0.893229 0
M  V30 9380 H 862.629 0.126126 0.736275 0
M  V30 9381 H 865.291 1.00148 1.67202 0
M  V30 9382 H 864.387 0.434451 3.09061 0
M  V30 9383 N 864.689 -1.48329 0.532571 0
M  V30 9384 C 865.619 -2.32485 -0.217511 0
M  V30 9385 C 866.6 -1.42255 -0.932598 0
M  V30 9386 O 867.785 -1.7114 -0.917873 0
M  V30 9387 C 864.915 -3.23509 -1.26329 0
M  V30 9388 C 863.869 -4.22784 -0.666191 0
M  V30 9389 C 863.195 -5.0296 -1.81482 0
M  V30 9390 C 864.495 -5.21031 0.363813 0
M  V30 9391 H 866.189 -2.95445 0.485014 0
M  V30 9392 H 863.735 -1.42075 0.234694 0
M  V30 9393 H 865.688 -3.81211 -1.79601 0
M  V30 9394 H 864.412 -2.58554 -1.99543 0
M  V30 9395 H 863.071 -3.66272 -0.15498 0
M  V30 9396 H 862.719 -4.34427 -2.5354 0
M  V30 9397 H 862.419 -5.70154 -1.4212 0
M  V30 9398 H 863.943 -5.63514 -2.35126 0
M  V30 9399 H 865.357 -5.73241 -0.0819079 0
M  V30 9400 H 863.754 -5.96292 0.674956 0
M  V30 9401 H 864.824 -4.6801 1.26865 0
M  V30 9402 N 866.167 -0.267825 -1.55308 0
M  V30 9403 C 867.578 0.231344 -1.85261 0
M  V30 9404 C 867.929 1.56006 -1.18982 0
M  V30 9405 O 867.054 2.1111 -0.475554 0
M  V30 9406 C 867.649 0.426537 -3.36104 0
M  V30 9407 C 866.208 0.869945 -3.66209 0
M  V30 9408 C 865.355 -0.0409522 -2.7727 0
M  V30 9409 H 868.306 -0.489821 -1.50952 0
M  V30 9410 H 868.327 1.26616 -3.58816 0
M  V30 9411 H 867.839 -0.540678 -3.84315 0
M  V30 9412 H 865.94 1.84889 -3.23492 0
M  V30 9413 H 866.053 0.712316 -4.73775 0
M  V30 9414 H 864.417 0.474097 -2.50249 0
M  V30 9415 H 865.2 -1.00392 -3.28293 0
M  V30 9416 N 867.645 1.57599 0.00500368 0
M  V30 9417 C 868.608 2.07058 0.982832 0
M  V30 9418 C 869.608 0.979045 1.27559 0
M  V30 9419 O 870.798 1.24187 1.22161 0
M  V30 9420 C 867.93 2.50782 2.30914 0
M  V30 9421 H 869.123 2.94718 0.555119 0
M  V30 9422 H 866.676 1.54249 0.25237 0
M  V30 9423 H 867.411 1.66351 2.78385 0
M  V30 9424 H 867.196 3.30495 2.10987 0
M  V30 9425 H 868.686 2.89391 3.0107 0
M  V30 9426 N 869.123 -0.277682 1.55134 0
M  V30 9427 C 870.369 -1.0114 1.7578 0
M  V30 9428 C 870.702 -1.86109 0.554719 0
M  V30 9429 O 869.977 -1.89275 -0.447813 0
M  V30 9430 C 870.26 -1.89789 3.06027 0
M  V30 9431 C 870.113 -1.07844 4.3668 0
M  V30 9432 C 871.432 -2.88577 3.32282 0
M  V30 9433 H 868.551 -0.366277 0.639539 0
M  V30 9434 H 871.193 -0.284155 1.87863 0
M  V30 9435 H 869.343 -2.51796 2.95856 0
M  V30 9436 H 871.015 -0.479432 4.58802 0
M  V30 9437 H 869.258 -0.381764 4.32117 0
M  V30 9438 H 869.929 -1.73179 5.24131 0
M  V30 9439 H 872.405 -2.36702 3.42215 0
M  V30 9440 H 871.281 -3.47749 4.2469 0
M  V30 9441 H 871.542 -3.63458 2.51696 0
M  V30 9442 N 870.601 -1.47988 -0.541979 0
M  V30 9443 C 871.829 -1.59034 -1.32347 0
M  V30 9444 C 872.244 -0.246123 -1.87189 0
M  V30 9445 O 871.601 0.762889 -1.6579 0
M  V30 9446 C 871.652 -2.62759 -2.48274 0
M  V30 9447 O 871.373 -3.91963 -1.95695 0
M  V30 9448 C 872.874 -2.84133 -3.4027 0
M  V30 9449 H 870.094 -0.536574 -0.402901 0
M  V30 9450 H 872.638 -1.93725 -0.655045 0
M  V30 9451 H 870.793 -2.3096 -3.11025 0
M  V30 9452 H 871.207 -4.48769 -2.7149 0
M  V30 9453 H 872.681 -3.60538 -4.17991 0
M  V30 9454 H 873.158 -1.92512 -3.9476 0
M  V30 9455 H 873.764 -3.17188 -2.83322 0
M  V30 9456 N 872.079 0.78992 -1.36375 0
M  V30 9457 C 872.989 1.93386 -1.32812 0
M  V30 9458 C 874.005 1.72468 -0.230377 0
M  V30 9459 O 875.181 1.96014 -0.462657 0
M  V30 9460 C 872.246 3.2824 -1.11621 0
M  V30 9461 C 871.307 3.61939 -2.30865 0
M  V30 9462 C 870.54 4.90359 -2.10675 0
M  V30 9463 O 870.763 5.6005 -1.08168 0
M  V30 9464 O 869.697 5.22702 -2.9844 0
M  V30 9465 H 873.523 1.99342 -2.29121 0
M  V30 9466 H 871.108 0.9301 -1.16917 0
M  V30 9467 H 872.99 4.08939 -1.01719 0
M  V30 9468 H 871.665 3.23178 -0.183732 0
M  V30 9469 H 870.572 2.81549 -2.46335 0
M  V30 9470 H 871.905 3.71725 -3.22617 0
M  V30 9471 N 873.557 1.20646 1.01402 0
M  V30 9472 C 874.785 1.04389 1.78635 0
M  V30 9473 C 875.2 -0.406771 1.84366 0
M  V30 9474 O 874.557 -1.28239 1.2985 0
M  V30 9475 C 874.608 1.62378 3.22979 0
M  V30 9476 O 874.329 3.01768 3.17597 0
M  V30 9477 C 875.83 1.5111 4.1675 0
M  V30 9478 H 873.05 0.367077 0.56169 0
M  V30 9479 H 875.594 1.59789 1.27624 0
M  V30 9480 H 873.749 1.11092 3.7113 0
M  V30 9481 H 874.163 3.29331 4.08217 0
M  V30 9482 H 875.637 1.96441 5.15863 0
M  V30 9483 H 876.114 0.464011 4.36742 0
M  V30 9484 H 876.72 2.01599 3.74483 0
M  V30 9485 N 875.035 -1.20752 1.01276 0
M  V30 9486 C 876.281 -1.90582 0.710627 0
M  V30 9487 C 876.636 -1.7713 -0.751184 0
M  V30 9488 O 875.929 -1.14223 -1.5383 0
M  V30 9489 C 876.123 -3.40808 1.07633 0
M  V30 9490 C 875.952 -3.68878 2.57214 0
M  V30 9491 C 874.722 -3.87805 3.23937 0
M  V30 9492 C 876.92 -3.71753 3.55393 0
M  V30 9493 N 874.902 -4.0336 4.62789 0
M  V30 9494 C 876.273 -3.92686 4.79789 0
M  V30 9495 C 878.328 -3.54697 3.4942 0
M  V30 9496 C 877.031 -3.98332 5.98936 0
M  V30 9497 C 879.057 -3.61612 4.67964 0
M  V30 9498 C 878.419 -3.83014 5.91168 0
M  V30 9499 H 874.518 -0.717219 0.311643 0
M  V30 9500 H 877.102 -1.45228 1.2968 0
M  V30 9501 H 875.273 -3.84923 0.518527 0
M  V30 9502 H 877.005 -3.98096 0.728128 0
M  V30 9503 H 873.76 -3.86029 2.74369 0
M  V30 9504 H 874.184 -4.15023 5.34869 0
M  V30 9505 H 878.826 -3.3712 2.55166 0
M  V30 9506 H 876.544 -4.14706 6.93574 0
M  V30 9507 H 880.13 -3.49728 4.64954 0
M  V30 9508 H 879.01 -3.88219 6.81363 0
M  V30 9509 N 876.513 -0.788492 -1.36457 0
M  V30 9510 C 877.762 -0.357052 -1.98515 0
M  V30 9511 C 878.075 1.0769 -1.63285 0
M  V30 9512 O 879.281 1.61057 -2.1857 0
M  V30 9513 C 877.737 -0.587449 -3.55073 0
M  V30 9514 C 877.345 -2.03276 -3.99228 0
M  V30 9515 C 879.089 -0.220468 -4.23927 0
M  V30 9516 C 876.996 -2.20987 -5.48561 0
M  V30 9517 H 875.926 -0.129762 -0.74275 0
M  V30 9518 H 878.577 -0.969995 -1.55767 0
M  V30 9519 H 876.959 0.0951918 -3.95886 0
M  V30 9520 H 878.133 -2.75173 -3.69617 0
M  V30 9521 H 876.448 -2.3579 -3.43208 0
M  V30 9522 H 879.045 -0.331085 -5.33674 0
M  V30 9523 H 879.388 0.831306 -4.07915 0
M  V30 9524 H 879.921 -0.856309 -3.88474 0
M  V30 9525 H 876.66 -3.24543 -5.69519 0
M  V30 9526 H 876.18 -1.53594 -5.79801 0
M  V30 9527 H 877.859 -2.01656 -6.14771 0
M  V30 9528 N 877.991 1.48044 -0.54043 0
M  V30 9529 C 878.938 2.29781 0.216597 0
M  V30 9530 C 879.908 1.38021 0.924094 0
M  V30 9531 O 881.093 1.66985 0.923078 0
M  V30 9532 C 878.233 3.21623 1.2511 0
M  V30 9533 C 877.346 4.28467 0.551384 0
M  V30 9534 C 876.481 5.07477 1.56972 0
M  V30 9535 C 875.52 6.06113 0.854048 0
M  V30 9536 N 874.657 6.78143 1.81842 0
M  V30 9537 H 879.497 2.94001 -0.486578 0
M  V30 9538 H 877.034 1.44929 -0.251789 0
M  V30 9539 H 878.992 3.73279 1.8633 0
M  V30 9540 H 877.622 2.59305 1.92252 0
M  V30 9541 H 876.674 3.79997 -0.174982 0
M  V30 9542 H 877.986 4.98799 -0.0100542 0
M  V30 9543 H 877.14 5.63199 2.25592 0
M  V30 9544 H 875.879 4.37008 2.16507 0
M  V30 9545 H 874.884 5.49585 0.153838 0
M  V30 9546 H 876.109 6.78584 0.264675 0
M  V30 9547 H 874.055 6.10417 2.40265 0
M  V30 9548 H 873.972 7.44587 1.3087 0
M  V30 9549 H 875.24 7.38448 2.49628 0
M  V30 9550 N 879.47 0.276058 1.55163 0
M  V30 9551 C 880.4 -0.604633 2.25536 0
M  V30 9552 C 881.381 -1.15813 1.24585 0
M  V30 9553 O 882.566 -1.1921 1.53306 0
M  V30 9554 C 879.696 -1.78836 2.97716 0
M  V30 9555 C 878.65 -1.36635 4.05604 0
M  V30 9556 C 877.976 -2.63325 4.65364 0
M  V30 9557 C 879.276 -0.515858 5.19746 0
M  V30 9558 H 880.97 -0.0177483 2.99395 0
M  V30 9559 H 878.516 -0.00709627 1.43998 0
M  V30 9560 H 880.469 -2.41036 3.45658 0
M  V30 9561 H 879.193 -2.40109 2.21394 0
M  V30 9562 H 877.852 -0.767541 3.58475 0
M  V30 9563 H 877.5 -3.22858 3.85709 0
M  V30 9564 H 877.2 -2.358 5.38212 0
M  V30 9565 H 878.724 -3.26372 5.16056 0
M  V30 9566 H 880.138 -1.04289 5.63735 0
M  V30 9567 H 878.535 -0.335449 5.99162 0
M  V30 9568 H 879.605 0.465137 4.82664 0
M  V30 9569 N 880.948 -1.576 0.00335426 0
M  V30 9570 C 882.196 -1.90336 -0.679446 0
M  V30 9571 C 882.517 -0.877777 -1.74127 0
M  V30 9572 O 881.787 0.0843585 -1.95718 0
M  V30 9573 H 880.367 -0.702509 -0.253948 0
M  V30 9574 H 883.029 -1.94848 0.0450731 0
M  V30 9575 H 882.125 -2.90197 -1.14857 0
M  V30 9576 N 882.426 0.269451 -1.5528 0
M  V30 9577 C 883.672 1.00206 -1.76314 0
M  V30 9578 C 884.005 1.85812 -0.564581 0
M  V30 9579 O 883.28 1.89509 0.437769 0
M  V30 9580 C 883.563 1.88163 -3.07029 0
M  V30 9581 C 883.416 1.05527 -4.37246 0
M  V30 9582 C 884.735 2.8681 -3.33808 0
M  V30 9583 H 881.854 0.36288 -0.641473 0
M  V30 9584 H 884.496 0.274188 -1.88011 0
M  V30 9585 H 882.646 2.50224 -2.97187 0
M  V30 9586 H 884.318 0.455094 -4.5905 0
M  V30 9587 H 882.561 0.358842 -4.32313 0
M  V30 9588 H 883.232 1.70397 -5.25042 0
M  V30 9589 H 885.708 2.34884 -3.43466 0
M  V30 9590 H 884.584 3.45492 -4.26528 0
M  V30 9591 H 884.845 3.62118 -2.5362 0
M  V30 9592 N 883.904 1.48273 0.534124 0
M  V30 9593 C 885.315 1.49667 1.1161 0
M  V30 9594 C 885.666 0.264139 1.94414 0
M  V30 9595 O 884.791 -0.629084 2.07054 0
M  V30 9596 C 885.386 2.71191 2.03079 0
M  V30 9597 C 883.945 2.7547 2.56502 0
M  V30 9598 C 883.092 2.43119 1.33373 0
M  V30 9599 H 886.043 1.55449 0.319578 0
M  V30 9600 H 886.064 2.49473 2.87304 0
M  V30 9601 H 885.576 3.60879 1.42785 0
M  V30 9602 H 883.677 1.89979 3.20529 0
M  V30 9603 H 883.79 3.76787 2.95919 0
M  V30 9604 H 882.154 1.94187 1.64813 0
M  V30 9605 H 882.937 3.35044 0.748375 0
M  V30 9606 N 885.382 -0.782676 1.36792 0
M  V30 9607 C 886.329 -1.89558 1.31667 0
M  V30 9608 C 887.299 -1.65076 0.184147 0
M  V30 9609 O 888.484 -1.87143 0.371753 0
M  V30 9610 C 885.624 -3.26469 1.11858 0
M  V30 9611 C 884.737 -3.62978 2.34245 0
M  V30 9612 C 883.872 -4.89041 2.07394 0
M  V30 9613 C 882.911 -5.18249 3.25706 0
M  V30 9614 N 882.048 -6.35497 2.98476 0
M  V30 9615 H 886.888 -1.93274 2.26824 0
M  V30 9616 H 884.425 -0.945057 1.12726 0
M  V30 9617 H 886.383 -4.05431 0.983968 0
M  V30 9618 H 885.013 -3.22158 0.203531 0
M  V30 9619 H 884.065 -2.79087 2.58485 0
M  V30 9620 H 885.377 -3.80507 3.22514 0
M  V30 9621 H 884.531 -5.75883 1.90901 0
M  V30 9622 H 883.27 -4.73594 1.16446 0
M  V30 9623 H 882.275 -4.29887 3.4275 0
M  V30 9624 H 883.5 -5.35611 4.1749 0
M  V30 9625 H 881.446 -6.21429 2.10146 0
M  V30 9626 H 881.363 -6.5339 3.80286 0
M  V30 9627 H 882.631 -7.25304 2.85577 0
M  V30 9628 N 886.86 -1.21182 -1.00761 0
M  V30 9629 C 888.137 -0.936297 -1.71735 0
M  V30 9630 C 888.517 0.552585 -2.03739 0
M  V30 9631 O 887.865 1.51672 -1.70903 0
M  V30 9632 C 888.075 -1.81867 -2.97868 0
M  V30 9633 C 889.423 -2.06594 -3.7095 0
M  V30 9634 O 890.447 -1.79194 -3.07844 0
M  V30 9635 O 889.306 -2.5292 -4.84452 0
M  V30 9636 H 886.4 -0.350867 -0.74888 0
M  V30 9637 H 888.946 -1.32098 -1.06527 0
M  V30 9638 H 887.718 -2.82643 -2.70607 0
M  V30 9639 H 887.341 -1.43463 -3.70815 0
M  V30 9640 N 888.338 1.20213 -1.01915 0
M  V30 9641 C 889.27 2.2251 -0.549725 0
M  V30 9642 C 890.283 1.58558 0.369235 0
M  V30 9643 O 891.472 1.77715 0.167176 0
M  V30 9644 C 888.572 3.38189 0.219432 0
M  V30 9645 C 887.745 4.31729 -0.702066 0
M  V30 9646 C 886.804 5.26196 0.0199624 0
M  V30 9647 O 885.83 5.65993 -0.60339 0
M  V30 9648 N 887.032 5.65895 1.29397 0
M  V30 9649 H 889.797 2.63412 -1.42948 0
M  V30 9650 H 887.358 1.3478 -0.896987 0
M  V30 9651 H 889.35 3.98392 0.711763 0
M  V30 9652 H 887.92 2.96156 1.00051 0
M  V30 9653 H 887.14 3.69455 -1.37466 0
M  V30 9654 H 888.428 4.91145 -1.3287 0
M  V30 9655 H 887.826 5.35579 1.8213 0
M  V30 9656 H 886.383 6.28395 1.73098 0
M  V30 9657 N 889.816 0.795718 1.36037 0
M  V30 9658 C 890.746 0.212803 2.32528 0
M  V30 9659 C 891.727 -0.655716 1.56953 0
M  V30 9660 O 892.912 -0.588238 1.85077 0
M  V30 9661 C 890.042 -0.648189 3.41198 0
M  V30 9662 C 888.996 0.120948 4.27829 0
M  V30 9663 C 888.322 -0.861044 5.27722 0
M  V30 9664 C 889.622 1.31375 5.05508 0
M  V30 9665 H 891.316 1.01893 2.81528 0
M  V30 9666 H 888.862 0.491422 1.35355 0
M  V30 9667 H 890.815 -1.06597 4.07695 0
M  V30 9668 H 889.539 -1.48709 2.9078 0
M  V30 9669 H 888.198 0.519777 3.62897 0
M  V30 9670 H 887.846 -1.69515 4.73575 0
M  V30 9671 H 887.546 -0.350808 5.86552 0
M  V30 9672 H 889.07 -1.27726 5.97092 0
M  V30 9673 H 890.484 0.971406 5.6501 0
M  V30 9674 H 888.881 1.75772 5.73781 0
M  V30 9675 H 889.951 2.10593 4.36782 0
M  V30 9676 N 891.294 -1.47756 0.548274 0
M  V30 9677 C 892.244 -2.26891 -0.224628 0
M  V30 9678 C 893.228 -1.33816 -0.893421 0
M  V30 9679 O 894.42 -1.58232 -0.793204 0
M  V30 9680 C 891.549 -3.19358 -1.25959 0
M  V30 9681 C 890.635 -4.1991 -0.594662 0
M  V30 9682 N 891.026 -5.04721 0.330148 0
M  V30 9683 C 889.324 -4.37832 -0.849672 0
M  V30 9684 C 890.025 -5.77282 0.71553 0
M  V30 9685 N 889.001 -5.43552 0.0723997 0
M  V30 9686 H 892.803 -2.89844 0.486561 0
M  V30 9687 H 890.317 -1.58185 0.367577 0
M  V30 9688 H 892.314 -3.74726 -1.82718 0
M  V30 9689 H 890.974 -2.57961 -1.97196 0
M  V30 9690 H 891.985 -5.13095 0.703811 0
M  V30 9691 H 888.662 -3.87612 -1.55123 0
M  V30 9692 H 890.052 -6.55512 1.47493 0
M  V30 9693 N 892.772 -0.284283 -1.55015 0
M  V30 9694 C 894.183 0.211681 -1.85496 0
M  V30 9695 C 894.534 1.54735 -1.2063 0
M  V30 9696 O 893.659 2.10594 -0.497918 0
M  V30 9697 C 894.254 0.390864 -3.36538 0
M  V30 9698 C 892.813 0.831055 -3.67111 0
M  V30 9699 C 891.96 -0.0703581 -2.77211 0
M  V30 9700 H 894.911 -0.505803 -1.50424 0
M  V30 9701 H 894.932 1.22803 -3.60138 0
M  V30 9702 H 894.444 -0.581409 -3.8372 0
M  V30 9703 H 892.545 1.81447 -3.25434 0
M  V30 9704 H 892.658 0.662026 -4.74504 0
M  V30 9705 H 891.022 0.447528 -2.50737 0
M  V30 9706 H 891.805 -1.03868 -3.2721 0
M  V30 9707 N 894.251 1.57596 -0.0117121 0
M  V30 9708 C 895.497 1.91355 0.671661 0
M  V30 9709 C 895.83 0.886818 1.72769 0
M  V30 9710 O 895.105 -0.0928813 1.94278 0
M  V30 9711 C 895.388 3.35657 1.30409 0
M  V30 9712 C 895.241 4.49055 0.2588 0
M  V30 9713 C 896.56 3.79595 2.22701 0
M  V30 9714 H 893.679 0.695893 0.242698 0
M  V30 9715 H 896.321 1.89887 -0.0654071 0
M  V30 9716 H 894.471 3.37038 1.9323 0
M  V30 9717 H 896.143 4.59809 -0.370631 0
M  V30 9718 H 894.386 4.31785 -0.417672 0
M  V30 9719 H 895.057 5.4701 0.740578 0
M  V30 9720 H 897.533 3.7984 1.69885 0
M  V30 9721 H 896.409 4.81292 2.63912 0
M  V30 9722 H 896.67 3.14118 3.11098 0
M  V30 9723 N 895.729 -0.261212 1.5542 0
M  V30 9724 C 897.14 -0.83138 1.67167 0
M  V30 9725 C 897.491 -1.8659 0.606525 0
M  V30 9726 O 896.616 -2.14953 -0.24985 0
M  V30 9727 C 897.211 -1.51475 3.03052 0
M  V30 9728 C 895.77 -2.0328 3.16787 0
M  V30 9729 C 894.917 -0.878903 2.63003 0
M  V30 9730 H 897.868 -0.0373102 1.58656 0
M  V30 9731 H 897.889 -2.38222 2.96699 0
M  V30 9732 H 897.401 -0.76157 3.80554 0
M  V30 9733 H 895.502 -2.81523 2.44082 0
M  V30 9734 H 895.615 -2.24001 4.2351 0
M  V30 9735 H 893.979 -1.27551 2.2046 0
M  V30 9736 H 894.762 -0.13904 3.43018 0
M  V30 9737 N 897.207 -1.48554 -0.526253 0
M  V30 9738 C 898.17 -1.62868 -1.61266 0
M  V30 9739 C 899.17 -0.501762 -1.52771 0
M  V30 9740 O 900.36 -0.76764 -1.56374 0
M  V30 9741 C 897.492 -1.60238 -3.00893 0
M  V30 9742 H 898.685 -2.59742 -1.49913 0
M  V30 9743 H 896.238 -1.37207 -0.748595 0
M  V30 9744 H 896.973 -0.648545 -3.17749 0
M  V30 9745 H 896.758 -2.42054 -3.08468 0
M  V30 9746 H 898.248 -1.73455 -3.79872 0
M  V30 9747 N 898.685 0.775411 -1.37205 0
M  V30 9748 C 899.618 1.8957 -1.27037 0
M  V30 9749 C 900.596 1.61891 -0.151643 0
M  V30 9750 O 901.78 1.85673 -0.325218 0
M  V30 9751 C 898.907 3.24712 -0.963316 0
M  V30 9752 C 897.953 3.71306 -2.09842 0
M  V30 9753 S 898.786 3.8541 -3.71778 0
M  V30 9754 C 899.942 5.23406 -3.43216 0
M  V30 9755 H 900.175 1.97905 -2.21857 0
M  V30 9756 H 897.708 0.936127 -1.22784 0
M  V30 9757 H 899.666 4.02768 -0.792983 0
M  V30 9758 H 898.327 3.14083 -0.0326561 0
M  V30 9759 H 897.52 4.69271 -1.83849 0
M  V30 9760 H 897.122 3.00341 -2.2287 0
M  V30 9761 H 899.414 6.08454 -2.97977 0
M  V30 9762 H 900.357 5.54409 -4.40495 0
M  V30 9763 H 900.765 4.9117 -2.78231 0
M  V30 9764 N 900.163 1.21714 1.00117 0
M  V30 9765 C 901.093 1.00397 2.10815 0
M  V30 9766 C 902.074 -0.0723502 1.69946 0
M  V30 9767 O 903.259 0.0882398 1.93999 0
M  V30 9768 C 900.389 0.572001 3.42557 0
M  V30 9769 C 899.343 1.59331 3.97237 0
M  V30 9770 C 898.669 1.01746 5.2493 0
M  V30 9771 C 899.969 2.98117 4.28863 0
M  V30 9772 H 901.663 1.92983 2.28906 0
M  V30 9773 H 899.209 0.929273 1.10002 0
M  V30 9774 H 901.162 0.410018 4.19401 0
M  V30 9775 H 899.886 -0.38951 3.24269 0
M  V30 9776 H 898.545 1.74293 3.22518 0
M  V30 9777 H 898.193 0.0475491 5.02978 0
M  V30 9778 H 897.893 1.69969 5.62481 0
M  V30 9779 H 899.417 0.866881 6.04415 0
M  V30 9780 H 900.831 2.86578 4.96534 0
M  V30 9781 H 899.228 3.63389 4.77565 0
M  V30 9782 H 900.298 3.48674 3.36979 0
M  V30 9783 N 901.641 -1.19671 1.02551 0
M  V30 9784 C 902.571 -2.25009 0.623965 0
M  V30 9785 C 903.552 -1.66129 -0.36538 0
M  V30 9786 O 904.737 -1.92599 -0.248842 0
M  V30 9787 C 901.867 -3.47287 -0.0294869 0
M  V30 9788 C 900.821 -4.18818 0.881781 0
M  V30 9789 C 900.147 -5.34618 0.0936189 0
M  V30 9790 C 901.447 -4.73986 2.19396 0
M  V30 9791 H 903.141 -2.58851 1.50454 0
M  V30 9792 H 900.687 -1.24425 0.724872 0
M  V30 9793 H 902.64 -4.20168 -0.322016 0
M  V30 9794 H 901.364 -3.12635 -0.944838 0
M  V30 9795 H 900.023 -3.47815 1.15845 0
M  V30 9796 H 899.671 -4.9621 -0.823661 0
M  V30 9797 H 899.371 -5.83409 0.700568 0
M  V30 9798 H 900.895 -6.10297 -0.192249 0
M  V30 9799 H 902.309 -5.38639 1.96319 0
M  V30 9800 H 900.706 -5.3325 2.75254 0
M  V30 9801 H 901.776 -3.92238 2.85092 0
M  V30 9802 N 903.119 -0.802921 -1.35613 0
M  V30 9803 C 904.367 -0.380822 -1.9848 0
M  V30 9804 C 904.688 1.05464 -1.6402 0
M  V30 9805 O 903.958 1.72908 -0.920854 0
M  V30 9806 H 902.538 -0.137824 -0.734176 0
M  V30 9807 H 905.2 -1.02795 -1.65587 0
M  V30 9808 H 904.296 -0.483565 -3.08331 0
M  V30 9809 N 904.597 1.47463 -0.556102 0
M  V30 9810 C 905.56 2.28478 0.181743 0
M  V30 9811 C 906.56 1.36886 0.843738 0
M  V30 9812 O 907.75 1.59527 0.69977 0
M  V30 9813 C 904.882 3.16534 1.26566 0
M  V30 9814 H 906.075 2.95182 -0.529892 0
M  V30 9815 H 903.628 1.53134 -0.313005 0
M  V30 9816 H 904.363 2.5452 2.00973 0
M  V30 9817 H 904.148 3.83939 0.795798 0
M  V30 9818 H 905.638 3.77579 1.78393 0
M  V30 9819 N 906.075 0.2925 1.54862 0
M  V30 9820 C 907.005 -0.580677 2.26165 0
M  V30 9821 C 907.986 -1.14485 1.25806 0
M  V30 9822 O 909.171 -1.17577 1.54562 0
M  V30 9823 C 906.301 -1.75668 2.99596 0
M  V30 9824 C 905.255 -1.32325 4.07031 0
M  V30 9825 C 904.581 -2.58374 4.68131 0
M  V30 9826 C 905.881 -0.460703 5.20264 0
M  V30 9827 H 907.575 0.0140075 2.99397 0
M  V30 9828 H 905.121 0.00817706 1.43998 0
M  V30 9829 H 907.074 -2.37356 3.48195 0
M  V30 9830 H 905.798 -2.37747 2.23928 0
M  V30 9831 H 904.457 -0.729477 3.59269 0
M  V30 9832 H 904.105 -3.18749 3.89112 0
M  V30 9833 H 903.805 -2.30078 5.40683 0
M  V30 9834 H 905.329 -3.2088 5.19489 0
M  V30 9835 H 906.743 -0.983037 5.64809 0
M  V30 9836 H 905.14 -0.271881 5.99484 0
M  V30 9837 H 906.21 0.516304 4.82143 0
M  V30 9838 N 907.553 -1.57587 0.0200696 0
M  V30 9839 C 908.501 -2.10814 -0.982868 0
M  V30 9840 C 909.495 -1.03263 -1.34287 0
M  V30 9841 O 910.701 -1.21708 -1.32617 0
M  V30 9842 H 907.076 -0.673409 -0.334701 0
M  V30 9843 H 909.047 -2.94034 -0.50856 0
M  V30 9844 C 907.796 -2.64301 -2.25921 0
M  V30 9845 H 907.119 -3.46703 -1.99091 0
M  V30 9846 H 908.559 -3.052 -2.94328 0
M  V30 9847 C 907.018 -1.56628 -2.98277 0
M  V30 9848 O 907.548 -0.960825 -3.9004 0
M  V30 9849 N 905.754 -1.28889 -2.60453 0
M  V30 9850 H 905.301 -1.7831 -1.85912 0
M  V30 9851 H 905.259 -0.570697 -3.09177 0
M  V30 9852 N 909.032 0.252966 -1.55557 0
M  V30 9853 C 909.962 1.31691 -1.9282 0
M  V30 9854 C 910.943 1.50516 -0.7924 0
M  V30 9855 O 912.128 1.63225 -1.05219 0
M  V30 9856 C 909.258 2.67281 -2.21762 0
M  V30 9857 C 908.212 2.6316 -3.37536 0
M  V30 9858 C 907.538 4.02488 -3.52005 0
M  V30 9859 C 908.838 2.20675 -4.73392 0
M  V30 9860 H 910.532 1.00751 -2.81939 0
M  V30 9861 H 908.078 0.483219 -1.3565 0
M  V30 9862 H 910.031 3.41842 -2.46419 0
M  V30 9863 H 908.755 2.99845 -1.29463 0
M  V30 9864 H 907.414 1.91057 -3.12878 0
M  V30 9865 H 907.062 4.32307 -2.57137 0
M  V30 9866 H 906.762 4.00621 -4.29857 0
M  V30 9867 H 908.286 4.78758 -3.78977 0
M  V30 9868 H 909.7 2.84965 -4.97461 0
M  V30 9869 H 908.097 2.29931 -5.54303 0
M  V30 9870 H 909.167 1.15831 -4.70862 0
M  V30 9871 N 910.51 1.48831 0.518367 0
M  V30 9872 C 911.738 1.6112 1.298 0
M  V30 9873 C 912.153 0.275872 1.86774 0
M  V30 9874 O 911.51 -0.736416 1.66983 0
M  V30 9875 C 911.561 2.66675 2.44063 0
M  V30 9876 O 911.282 3.95027 1.89434 0
M  V30 9877 C 912.783 2.8951 3.35706 0
M  V30 9878 H 910.003 0.542916 0.394314 0
M  V30 9879 H 912.547 1.94743 0.624142 0
M  V30 9880 H 910.702 2.35879 3.07311 0
M  V30 9881 H 911.116 4.53031 2.64316 0
M  V30 9882 H 912.59 3.67142 4.12202 0
M  V30 9883 H 913.067 1.98768 3.91648 0
M  V30 9884 H 913.673 3.21656 2.7824 0
M  V30 9885 N 911.988 -0.768124 1.37614 0
M  V30 9886 C 913.399 -1.34462 1.29525 0
M  V30 9887 C 913.75 -1.96121 -0.0555168 0
M  V30 9888 O 912.875 -1.94069 -0.957406 0
M  V30 9889 C 913.47 -2.44475 2.34558 0
M  V30 9890 C 912.029 -2.97883 2.30093 0
M  V30 9891 C 911.176 -1.71131 2.18196 0
M  V30 9892 H 914.127 -0.568103 1.48183 0
M  V30 9893 H 914.148 -3.24047 1.99434 0
M  V30 9894 H 913.66 -1.99568 3.32858 0
M  V30 9895 H 911.761 -3.47156 1.35328 0
M  V30 9896 H 911.874 -3.53251 3.23652 0
M  V30 9897 H 910.238 -1.94197 1.64802 0
M  V30 9898 H 911.021 -1.28323 3.18415 0
M  V30 9899 N 913.466 -1.22244 -0.994698 0
M  V30 9900 C 914.715 -1.04005 -1.72817 0
M  V30 9901 C 915.028 0.425413 -1.90918 0
M  V30 9902 O 916.234 0.727429 -2.61574 0
M  V30 9903 C 914.69 -1.81244 -3.10932 0
M  V30 9904 C 914.298 -3.32028 -3.00768 0
M  V30 9905 C 916.042 -1.71448 -3.88337 0
M  V30 9906 C 913.949 -4.01716 -4.34026 0
M  V30 9907 H 912.879 -0.385559 -0.647966 0
M  V30 9908 H 915.53 -1.46077 -1.11058 0
M  V30 9909 H 913.912 -1.3197 -3.73363 0
M  V30 9910 H 915.086 -3.88682 -2.47513 0
M  V30 9911 H 913.401 -3.4248 -2.36846 0
M  V30 9912 H 915.998 -2.20836 -4.86965 0
M  V30 9913 H 916.341 -0.674568 -4.10798 0
M  V30 9914 H 916.874 -2.18256 -3.3258 0
M  V30 9915 H 913.613 -5.05952 -4.16765 0
M  V30 9916 H 913.133 -3.49849 -4.87202 0
M  V30 9917 H 914.812 -4.0721 -5.02782 0
M  V30 9918 N 914.944 1.19125 -1.03184 0
M  V30 9919 C 915.854 2.26112 -0.625329 0
M  V30 9920 C 916.87 1.7056 0.344298 0
M  V30 9921 O 918.046 2.0039 0.20144 0
M  V30 9922 C 915.111 3.46697 0.0145169 0
M  V30 9923 C 914.172 4.17419 -1.00299 0
M  V30 9924 C 913.405 5.32247 -0.393581 0
M  V30 9925 O 913.628 5.64724 0.802659 0
M  V30 9926 O 912.562 5.91428 -1.1179 0
M  V30 9927 H 916.388 2.63131 -1.51643 0
M  V30 9928 H 913.973 1.26036 -0.802197 0
M  V30 9929 H 915.855 4.19762 0.371139 0
M  V30 9930 H 914.53 3.11521 0.879581 0
M  V30 9931 H 913.437 3.4646 -1.41125 0
M  V30 9932 H 914.77 4.56573 -1.83852 0
M  V30 9933 N 916.422 0.810101 1.35185 0
M  V30 9934 C 917.668 0.392698 1.98962 0
M  V30 9935 C 918.001 -1.03835 1.64109 0
M  V30 9936 O 917.276 -1.721 0.9062 0
M  V30 9937 C 917.559 0.580349 3.55393 0
M  V30 9938 C 917.412 2.05658 4.00031 0
M  V30 9939 C 918.731 0.00822618 4.40099 0
M  V30 9940 H 915.85 0.144157 0.722764 0
M  V30 9941 H 918.492 1.02029 1.60281 0
M  V30 9942 H 916.642 0.0461106 3.88473 0
M  V30 9943 H 918.314 2.65348 3.77344 0
M  V30 9944 H 916.557 2.55174 3.50811 0
M  V30 9945 H 917.228 2.13875 5.08883 0
M  V30 9946 H 919.704 0.464517 4.13499 0
M  V30 9947 H 918.58 0.169414 5.48638 0
M  V30 9948 H 918.841 -1.08576 4.2856 0
M  V30 9949 N 917.9 -1.47166 0.563914 0
M  V30 9950 C 918.863 -2.28571 -0.169624 0
M  V30 9951 C 919.863 -1.37331 -0.836467 0
M  V30 9952 O 921.053 -1.59896 -0.6913 0
M  V30 9953 C 918.185 -3.17201 -1.24886 0
M  V30 9954 H 919.378 -2.94896 0.545539 0
M  V30 9955 H 916.931 -1.52966 0.321121 0
M  V30 9956 H 917.666 -2.55582 -1.99621 0
M  V30 9957 H 917.451 -3.84356 -0.775426 0
M  V30 9958 H 918.941 -3.7852 -1.76388 0
M  V30 9959 N 919.378 -0.300708 -1.54705 0
M  V30 9960 C 920.31 0.609179 -2.20956 0
M  V30 9961 C 921.323 1.09776 -1.20221 0
M  V30 9962 O 922.512 1.01527 -1.46815 0
M  V30 9963 C 919.612 1.84595 -2.84214 0
M  V30 9964 C 918.785 1.49991 -4.10879 0
M  V30 9965 C 917.844 2.5918 -4.57943 0
M  V30 9966 O 916.87 2.24285 -5.23149 0
M  V30 9967 N 918.072 3.89714 -4.30236 0
M  V30 9968 H 920.837 0.0420111 -2.99671 0
M  V30 9969 H 918.398 -0.122896 -1.61433 0
M  V30 9970 H 920.39 2.56988 -3.12633 0
M  V30 9971 H 918.96 2.32152 -2.09342 0
M  V30 9972 H 918.18 0.608637 -3.89473 0
M  V30 9973 H 919.468 1.24409 -4.93356 0
M  V30 9974 H 918.866 4.20874 -3.77997 0
M  V30 9975 H 917.423 4.58406 -4.63365 0
M  V30 9976 N 920.856 1.57574 -0.0284266 0
M  V30 9977 C 921.819 2.09096 0.938691 0
M  V30 9978 C 922.819 1.00588 1.25454 0
M  V30 9979 O 924.009 1.2675 1.19499 0
M  V30 9980 C 921.141 2.55624 2.25542 0
M  V30 9981 H 922.334 2.95829 0.49248 0
M  V30 9982 H 919.887 1.5475 0.219594 0
M  V30 9983 H 920.622 1.72218 2.74793 0
M  V30 9984 H 920.407 3.34896 2.03929 0
M  V30 9985 H 921.897 2.95712 2.94863 0
M  V30 9986 N 922.334 -0.244713 1.55689 0
M  V30 9987 C 923.581 -0.972446 1.77622 0
M  V30 9988 C 923.909 -1.85235 0.593137 0
M  V30 9989 O 923.164 -1.91064 -0.423464 0
M  V30 9990 C 923.463 -1.8617 3.05083 0
M  V30 9991 C 923.129 -1.13696 4.3633 0
M  V30 9992 C 921.791 -0.936679 4.71996 0
M  V30 9993 C 924.143 -0.623451 5.17458 0
M  V30 9994 C 921.471 -0.210612 5.86322 0
M  V30 9995 C 923.823 0.0891587 6.32537 0
M  V30 9996 C 922.487 0.300904 6.66821 0
M  V30 9997 H 921.757 -0.355843 0.649967 0
M  V30 9998 H 924.404 -0.242372 1.8996 0
M  V30 9999 H 922.709 -2.6589 2.87767 0
M  V30 10000 H 924.406 -2.4265 3.19253 0
M  V30 10001 H 920.996 -1.30301 4.08313 0
M  V30 10002 H 925.18 -0.765725 4.90357 0
M  V30 10003 H 920.436 -0.0361062 6.11389 0
M  V30 10004 H 924.61 0.494685 6.94641 0
M  V30 10005 H 922.237 0.865466 7.55257 0
M  V30 10006 N 923.813 -1.49104 -0.510467 0
M  V30 10007 C 924.745 -1.61183 -1.6295 0
M  V30 10008 C 925.758 -0.495003 -1.55092 0
M  V30 10009 O 926.947 -0.766671 -1.61197 0
M  V30 10010 C 924.047 -1.54373 -3.01699 0
M  V30 10011 C 923.22 -2.81428 -3.34838 0
M  V30 10012 C 922.279 -2.67802 -4.52956 0
M  V30 10013 O 921.305 -3.41723 -4.55208 0
M  V30 10014 N 922.507 -1.78715 -5.52305 0
M  V30 10015 H 925.272 -2.57693 -1.53018 0
M  V30 10016 H 922.833 -1.46073 -0.698152 0
M  V30 10017 H 924.825 -1.42924 -3.78622 0
M  V30 10018 H 923.395 -0.657597 -3.05605 0
M  V30 10019 H 922.615 -3.07299 -2.46903 0
M  V30 10020 H 923.903 -3.6568 -3.53773 0
M  V30 10021 H 923.301 -1.17897 -5.53278 0
M  V30 10022 H 921.858 -1.73194 -6.28369 0
M  V30 10023 N 925.291 0.760815 -1.38019 0
M  V30 10024 C 926.519 1.55001 -1.37048 0
M  V30 10025 C 926.934 1.88754 0.0415261 0
M  V30 10026 O 926.291 1.52254 1.00624 0
M  V30 10027 C 926.342 2.8536 -2.21928 0
M  V30 10028 O 926.063 2.53049 -3.57628 0
M  V30 10029 C 927.564 3.79536 -2.29057 0
M  V30 10030 H 924.784 0.479844 -0.469032 0
M  V30 10031 H 927.328 0.942148 -1.81504 0
M  V30 10032 H 925.483 3.42542 -1.80953 0
M  V30 10033 H 925.897 3.36604 -4.02241 0
M  V30 10034 H 927.371 4.67977 -2.92749 0
M  V30 10035 H 927.848 4.19453 -1.30213 0
M  V30 10036 H 928.454 3.28281 -2.70392 0
M  V30 10037 N 926.769 1.22769 0.988202 0
M  V30 10038 C 928.018 1.0492 1.72263 0
M  V30 10039 C 928.331 -0.415282 1.91141 0
M  V30 10040 O 929.537 -0.713547 2.61956 0
M  V30 10041 C 927.993 1.82891 3.09966 0
M  V30 10042 C 927.601 3.33618 2.99003 0
M  V30 10043 C 929.345 1.73505 3.87423 0
M  V30 10044 C 927.252 4.04012 4.3189 0
M  V30 10045 H 926.182 0.38899 0.645912 0
M  V30 10046 H 928.833 1.46664 1.10281 0
M  V30 10047 H 927.215 1.33948 3.72658 0
M  V30 10048 H 928.389 3.8999 2.45448 0
M  V30 10049 H 926.704 3.43732 2.35027 0
M  V30 10050 H 929.301 2.23416 4.85787 0
M  V30 10051 H 929.644 0.696344 4.10435 0
M  V30 10052 H 930.177 2.20016 3.31418 0
M  V30 10053 H 926.916 5.08155 4.14075 0
M  V30 10054 H 926.436 3.52428 4.8534 0
M  V30 10055 H 928.115 4.0987 5.00615 0
M  V30 10056 N 928.247 -1.18576 1.03814 0
M  V30 10057 C 929.21 -2.2033 0.63146 0
M  V30 10058 C 930.21 -1.57787 -0.309816 0
M  V30 10059 O 931.4 -1.73938 -0.0955598 0
M  V30 10060 C 928.532 -3.40818 -0.0745963 0
M  V30 10061 H 929.725 -2.57824 1.53189 0
M  V30 10062 H 927.278 -1.32416 0.830398 0
M  V30 10063 H 928.013 -3.08853 -0.988947 0
M  V30 10064 H 927.798 -3.87453 0.6019 0
M  V30 10065 H 929.288 -4.16166 -0.345727 0
M  V30 10066 N 929.725 -0.817259 -1.34754 0
M  V30 10067 C 930.95 -0.414423 -2.03217 0
M  V30 10068 C 931.375 0.970037 -1.61158 0
M  V30 10069 O 930.733 1.63016 -0.793436 0
M  V30 10070 C 930.781 -0.518087 -3.56859 0
M  V30 10071 O 929.885 0.464314 -4.09778 0
M  V30 10072 H 929.226 -0.171454 -0.641482 0
M  V30 10073 H 931.756 -1.10611 -1.72123 0
M  V30 10074 H 931.766 -0.391779 -4.06115 0
M  V30 10075 H 930.441 -1.52786 -3.86819 0
M  V30 10076 H 929.018 0.297361 -3.71712 0
M  V30 10077 N 931.203 1.46865 -0.571711 0
M  V30 10078 C 932.451 2.0203 -0.0530022 0
M  V30 10079 C 932.772 1.44687 1.30731 0
M  V30 10080 O 932.042 0.627429 1.85581 0
M  V30 10081 H 930.622 0.746815 -0.0166035 0
M  V30 10082 H 933.284 1.80099 -0.745003 0
M  V30 10083 H 932.38 3.12091 0.0242538 0
M  V30 10084 N 932.681 0.308908 1.54543 0
M  V30 10085 C 933.929 -0.297447 1.99899 0
M  V30 10086 C 934.25 -1.53799 1.19878 0
M  V30 10087 O 933.52 -1.93639 0.29678 0
M  V30 10088 H 932.1 -0.112897 0.738419 0
M  V30 10089 H 934.762 0.422067 1.90275 0
M  V30 10090 H 933.858 -0.564016 3.06961 0
M  V30 10091 N 934.159 -1.57557 0.0367827 0
M  V30 10092 C 935.107 -2.11844 -0.960454 0
M  V30 10093 C 936.101 -1.04681 -1.33185 0
M  V30 10094 O 937.307 -1.23108 -1.31318 0
M  V30 10095 H 933.682 -0.676921 -0.32754 0
M  V30 10096 H 935.653 -2.94557 -0.477346 0
M  V30 10097 C 934.402 -2.66683 -2.23105 0
M  V30 10098 H 933.725 -3.48795 -1.95403 0
M  V30 10099 H 935.165 -3.08305 -2.91074 0
M  V30 10100 C 933.624 -1.59782 -2.96599 0
M  V30 10101 O 934.154 -1.00214 -3.88999 0
M  V30 10102 N 932.36 -1.31644 -2.59072 0
M  V30 10103 H 931.907 -1.80272 -1.8401 0
M  V30 10104 H 931.865 -0.603457 -3.08554 0
M  V30 10105 N 935.637 0.236453 -1.55816 0
M  V30 10106 C 937.053 0.585465 -1.48474 0
M  V30 10107 C 937.253 1.8785 -0.72902 0
M  V30 10108 O 936.309 2.51131 -0.262614 0
M  V30 10109 C 937.622 0.678506 -2.92945 0
M  V30 10110 C 939.17 0.770135 -3.03378 0
M  V30 10111 C 939.645 0.894649 -4.49177 0
M  V30 10112 N 941.136 0.959253 -4.53158 0
M  V30 10113 C 941.871 1.07505 -5.63232 0
M  V30 10114 N 941.367 1.15572 -6.83092 0
M  V30 10115 N 943.16 1.10902 -5.51051 0
M  V30 10116 H 935.311 -0.612241 -2.03385 0
M  V30 10117 H 937.574 -0.212796 -0.923808 0
M  V30 10118 H 937.28 -0.201757 -3.51121 0
M  V30 10119 H 937.154 1.54703 -3.44016 0
M  V30 10120 H 939.541 1.64085 -2.45276 0
M  V30 10121 H 939.622 -0.123753 -2.555 0
M  V30 10122 H 939.266 0.0284537 -5.07892 0
M  V30 10123 H 939.196 1.80373 -4.94745 0
M  V30 10124 H 941.687 0.907827 -3.66834 0
M  V30 10125 H 942 1.24343 -7.62731 0
M  V30 10126 H 940.345 1.12511 -6.85833 0
M  V30 10127 H 943.536 1.04255 -4.56343 0
M  V30 10128 H 943.709 1.19581 -6.36871 0
M  V30 10129 N 937.115 1.49373 0.502552 0
M  V30 10130 C 938.078 1.65413 1.58654 0
M  V30 10131 C 939.078 0.526003 1.51953 0
M  V30 10132 O 940.268 0.792421 1.55133 0
M  V30 10133 C 937.4 1.65005 2.98306 0
M  V30 10134 H 938.593 2.62095 1.45762 0
M  V30 10135 H 936.146 1.38381 0.726672 0
M  V30 10136 H 936.881 0.699014 3.16677 0
M  V30 10137 H 936.666 2.46931 3.04578 0
M  V30 10138 H 938.156 1.79477 3.77065 0
M  V30 10139 N 938.594 -0.753485 1.38421 0
M  V30 10140 C 940.005 -1.33081 1.30944 0
M  V30 10141 C 940.356 -1.96169 -0.0347124 0
M  V30 10142 O 939.481 -1.95073 -0.936768 0
M  V30 10143 C 940.076 -2.41973 2.37138 0
M  V30 10144 C 938.635 -2.95426 2.33239 0
M  V30 10145 C 937.782 -1.68808 2.19998 0
M  V30 10146 H 940.733 -0.552354 1.48777 0
M  V30 10147 H 940.754 -3.21913 2.02859 0
M  V30 10148 H 940.266 -1.96027 3.34956 0
M  V30 10149 H 938.367 -3.45701 1.39003 0
M  V30 10150 H 938.48 -3.49798 3.27381 0
M  V30 10151 H 936.844 -1.92438 1.66852 0
M  V30 10152 H 937.627 -1.24939 3.19758 0
M  V30 10153 N 940.072 -1.23292 -0.981677 0
M  V30 10154 C 941.002 -1.03738 -2.09191 0
M  V30 10155 C 941.983 0.0453041 -1.7004 0
M  V30 10156 O 943.168 -0.119092 -1.93834 0
M  V30 10157 C 940.298 -0.626426 -3.41604 0
M  V30 10158 C 939.252 -1.65631 -3.94652 0
M  V30 10159 C 938.578 -1.10084 -5.23245 0
M  V30 10160 C 939.878 -3.04903 -4.24066 0
M  V30 10161 H 941.572 -1.966 -2.25807 0
M  V30 10162 H 939.118 -0.946656 -1.0851 0
M  V30 10163 H 941.071 -0.476689 -4.18695 0
M  V30 10164 H 939.795 0.337873 -3.24848 0
M  V30 10165 H 938.454 -1.79402 -3.19704 0
M  V30 10166 H 938.102 -0.127562 -5.02838 0
M  V30 10167 H 937.802 -1.78896 -5.59705 0
M  V30 10168 H 939.326 -0.962928 -6.02959 0
M  V30 10169 H 940.74 -2.94441 -4.91912 0
M  V30 10170 H 939.137 -3.70941 -4.71724 0
M  V30 10171 H 940.207 -3.53991 -3.31389 0
M  V30 10172 N 941.55 1.18024 -1.04442 0
M  V30 10173 C 942.775 1.92573 -0.770097 0
M  V30 10174 C 943.2 1.75871 0.667169 0
M  V30 10175 O 942.558 1.07136 1.46258 0
M  V30 10176 C 942.606 3.41904 -1.14602 0
M  V30 10177 O 941.71 4.11491 -0.273712 0
M  V30 10178 H 941.051 0.600636 -0.283076 0
M  V30 10179 H 943.581 1.49645 -1.39526 0
M  V30 10180 H 943.591 3.92623 -1.10956 0
M  V30 10181 H 942.266 3.53382 -2.19304 0
M  V30 10182 H 940.843 3.71059 -0.370124 0
M  V30 10183 N 943.028 0.824394 1.34319 0
M  V30 10184 C 943.991 0.252696 2.27803 0
M  V30 10185 C 944.991 -0.570254 1.50349 0
M  V30 10186 O 946.181 -0.386145 1.69866 0
M  V30 10187 C 943.313 -0.645575 3.34731 0
M  V30 10188 H 944.506 1.07742 2.79878 0
M  V30 10189 H 942.059 0.596367 1.44475 0
M  V30 10190 H 942.794 -1.4933 2.87873 0
M  V30 10191 H 942.579 -0.0569478 3.92059 0
M  V30 10192 H 944.069 -1.03933 4.0446 0
M  V30 10193 N 944.506 -1.46559 0.579492 0
M  V30 10194 C 945.436 -2.33059 -0.143437 0
M  V30 10195 C 946.417 -1.4515 -0.886868 0
M  V30 10196 O 947.602 -1.73973 -0.862961 0
M  V30 10197 C 944.732 -3.27364 -1.15973 0
M  V30 10198 C 943.686 -4.24689 -0.531348 0
M  V30 10199 C 943.012 -5.08479 -1.65388 0
M  V30 10200 C 944.312 -5.1961 0.529391 0
M  V30 10201 H 946.006 -2.93753 0.578762 0
M  V30 10202 H 943.552 -1.41256 0.279775 0
M  V30 10203 H 945.505 -3.86732 -1.67382 0
M  V30 10204 H 944.229 -2.64771 -1.91217 0
M  V30 10205 H 942.888 -3.6658 -0.0383749 0
M  V30 10206 H 942.536 -4.42273 -2.3959 0
M  V30 10207 H 942.236 -5.74387 -1.23909 0
M  V30 10208 H 943.76 -5.70709 -2.17079 0
M  V30 10209 H 945.174 -5.73212 0.100506 0
M  V30 10210 H 943.571 -5.93843 0.86432 0
M  V30 10211 H 944.641 -4.63737 1.4169 0
M  V30 10212 N 945.984 -0.3171 -1.54377 0
M  V30 10213 C 947.4 0.035766 -1.5956 0
M  V30 10214 C 947.6 1.51038 -1.33378 0
M  V30 10215 O 946.656 2.26546 -1.11505 0
M  V30 10216 C 947.969 -0.376652 -2.98332 0
M  V30 10217 C 949.517 -0.326765 -3.1129 0
M  V30 10218 C 949.992 -0.714247 -4.52396 0
M  V30 10219 N 951.483 -0.667402 -4.58367 0
M  V30 10220 C 952.218 -0.939494 -5.65651 0
M  V30 10221 N 951.714 -1.27839 -6.80903 0
M  V30 10222 N 953.507 -0.865484 -5.55397 0
M  V30 10223 H 945.658 -1.27794 -1.69654 0
M  V30 10224 H 947.921 -0.5192 -0.79318 0
M  V30 10225 H 947.627 -1.40381 -3.22469 0
M  V30 10226 H 947.501 0.261611 -3.76292 0
M  V30 10227 H 949.888 0.69117 -2.86892 0
M  V30 10228 H 949.969 -0.999873 -2.35449 0
M  V30 10229 H 949.613 -1.73007 -4.77526 0
M  V30 10230 H 949.543 -0.0188962 -5.26597 0
M  V30 10231 H 952.034 -0.417062 -3.75592 0
M  V30 10232 H 952.347 -1.47155 -7.5866 0
M  V30 10233 H 950.692 -1.31658 -6.82416 0
M  V30 10234 H 953.883 -0.600265 -4.64235 0
M  V30 10235 H 954.056 -1.0809 -6.38921 0
M  V30 10236 N 947.462 1.57535 -0.0451378 0
M  V30 10237 C 948.687 1.97172 0.64326 0
M  V30 10238 C 949.112 0.922266 1.63939 0
M  V30 10239 O 948.47 -0.115155 1.80934 0
M  V30 10240 C 948.518 3.35889 1.3119 0
M  V30 10241 O 947.622 3.33387 2.42748 0
M  V30 10242 H 946.963 0.642469 0.167719 0
M  V30 10243 H 949.493 2.04295 -0.111747 0
M  V30 10244 H 949.503 3.72481 1.66499 0
M  V30 10245 H 948.178 4.1181 0.581823 0
M  V30 10246 H 946.755 3.08533 2.09432 0
M  V30 10247 N 948.94 -0.228186 1.55939 0
M  V30 10248 C 950.186 -0.954964 1.78909 0
M  V30 10249 C 950.519 -1.8425 0.613648 0
M  V30 10250 O 949.794 -1.90604 -0.38737 0
M  V30 10251 C 950.077 -1.79957 3.1191 0
M  V30 10252 C 949.93 -0.938968 4.3989 0
M  V30 10253 C 951.249 -2.77859 3.41295 0
M  V30 10254 H 948.368 -0.345745 0.650868 0
M  V30 10255 H 951.01 -0.224244 1.88672 0
M  V30 10256 H 949.16 -2.42256 3.03717 0
M  V30 10257 H 950.832 -0.333225 4.60095 0
M  V30 10258 H 949.075 -0.244096 4.33113 0
M  V30 10259 H 949.746 -1.56416 5.29375 0
M  V30 10260 H 952.222 -2.25695 3.49572 0
M  V30 10261 H 951.098 -3.34062 4.35538 0
M  V30 10262 H 951.359 -3.55266 2.63132 0
M  V30 10263 N 950.418 -1.49637 -0.494624 0
M  V30 10264 C 951.667 -1.58691 -1.24499 0
M  V30 10265 C 951.98 -0.281763 -1.9356 0
M  V30 10266 O 953.186 -0.250925 -2.70338 0
M  V30 10267 C 951.642 -2.8002 -2.26091 0
M  V30 10268 C 951.25 -4.17318 -1.6294 0
M  V30 10269 C 952.994 -2.98407 -3.01916 0
M  V30 10270 C 950.901 -5.29862 -2.62679 0
M  V30 10271 H 949.831 -0.590888 -0.468367 0
M  V30 10272 H 952.482 -1.76034 -0.518112 0
M  V30 10273 H 950.864 -2.56185 -3.01969 0
M  V30 10274 H 952.038 -4.51315 -0.930108 0
M  V30 10275 H 950.353 -4.04342 -0.994819 0
M  V30 10276 H 952.95 -3.79658 -3.76516 0
M  V30 10277 H 953.293 -2.09214 -3.5991 0
M  V30 10278 H 953.826 -3.22312 -2.33152 0
M  V30 10279 H 950.565 -6.21134 -2.09458 0
M  V30 10280 H 950.085 -5.00311 -3.3083 0
M  V30 10281 H 951.764 -5.59461 -3.2498 0
M  V30 10282 N 951.896 0.746133 -1.38819 0
M  V30 10283 C 952.859 1.84167 -1.36437 0
M  V30 10284 C 953.859 1.58626 -0.263499 0
M  V30 10285 O 955.049 1.66233 -0.520801 0
M  V30 10286 C 952.181 3.21769 -1.12596 0
M  V30 10287 H 953.374 1.87684 -2.33912 0
M  V30 10288 H 950.927 0.948625 -1.24221 0
M  V30 10289 H 951.662 3.23917 -0.15758 0
M  V30 10290 H 951.447 3.41702 -1.92307 0
M  V30 10291 H 952.937 4.0184 -1.13643 0
M  V30 10292 N 953.375 1.23811 0.975125 0
M  V30 10293 C 954.285 1.0408 2.10249 0
M  V30 10294 C 955.301 -0.0162404 1.73992 0
M  V30 10295 O 956.477 0.180346 2.00591 0
M  V30 10296 C 953.542 0.640013 3.40741 0
M  V30 10297 C 952.603 1.7727 3.90991 0
M  V30 10298 C 951.836 1.39094 5.15256 0
M  V30 10299 O 952.059 0.277483 5.69725 0
M  V30 10300 O 950.993 2.21392 5.59704 0
M  V30 10301 H 954.819 1.98575 2.29786 0
M  V30 10302 H 952.404 1.02563 1.08633 0
M  V30 10303 H 954.286 0.427684 4.19224 0
M  V30 10304 H 952.961 -0.27589 3.22522 0
M  V30 10305 H 951.868 2.03971 3.13602 0
M  V30 10306 H 953.201 2.66711 4.13674 0
M  V30 10307 N 954.853 -1.17469 1.05066 0
M  V30 10308 C 956.13 -1.83625 0.673872 0
M  V30 10309 C 956.51 -1.93412 -0.845871 0
M  V30 10310 O 955.858 -1.4677 -1.75131 0
M  V30 10311 C 956.068 -3.21352 1.36139 0
M  V30 10312 C 957.416 -3.97274 1.49863 0
M  V30 10313 O 958.44 -3.30827 1.3203 0
M  V30 10314 O 957.299 -5.16349 1.79013 0
M  V30 10315 H 954.393 -0.792297 0.237055 0
M  V30 10316 H 956.939 -1.24776 1.15017 0
M  V30 10317 H 955.711 -3.0919 2.39827 0
M  V30 10318 H 955.334 -3.87867 0.874364 0
M  V30 10319 N 956.331 -0.831506 -1.3388 0
M  V30 10320 C 957.579 -0.422837 -1.97627 0
M  V30 10321 C 957.9 1.01961 -1.6622 0
M  V30 10322 O 957.17 1.70916 -0.957323 0
M  V30 10323 H 955.75 -0.153365 -0.731087 0
M  V30 10324 H 958.412 -1.06284 -1.6337 0
M  V30 10325 H 957.508 -0.548858 -3.07236 0
M  V30 10326 N 957.809 1.4625 -0.587256 0
M  V30 10327 C 958.756 2.30354 0.143384 0
M  V30 10328 C 959.726 1.40891 0.879716 0
M  V30 10329 O 960.911 1.69837 0.869486 0
M  V30 10330 C 958.051 3.25441 1.14815 0
M  V30 10331 C 957.164 4.30004 0.414792 0
M  V30 10332 C 956.299 5.12214 1.40748 0
M  V30 10333 C 955.338 6.08523 0.660786 0
M  V30 10334 N 954.475 6.83585 1.60176 0
M  V30 10335 H 959.315 2.92304 -0.579866 0
M  V30 10336 H 956.852 1.44055 -0.29777 0
M  V30 10337 H 958.81 3.79018 1.7436 0
M  V30 10338 H 957.44 2.6529 1.83906 0
M  V30 10339 H 956.492 3.79248 -0.295787 0
M  V30 10340 H 957.804 4.98515 -0.168738 0
M  V30 10341 H 956.958 5.70091 2.0756 0
M  V30 10342 H 955.697 4.43675 2.02494 0
M  V30 10343 H 954.702 5.49796 -0.0210864 0
M  V30 10344 H 955.927 6.79083 0.0486551 0
M  V30 10345 H 953.873 6.17752 2.20724 0
M  V30 10346 H 953.79 7.48373 1.07115 0
M  V30 10347 H 955.058 7.46016 2.26009 0
M  V30 10348 N 959.287 0.325282 1.54207 0
M  V30 10349 C 960.533 -0.277185 2.00897 0
M  V30 10350 C 960.866 -1.51651 1.21308 0
M  V30 10351 O 960.141 -1.92237 0.295825 0
M  V30 10352 C 960.424 -0.60961 3.54902 0
M  V30 10353 C 960.277 0.640542 4.45216 0
M  V30 10354 C 961.596 -1.42656 4.16338 0
M  V30 10355 H 958.715 -0.0992722 0.730284 0
M  V30 10356 H 961.357 0.442201 1.84783 0
M  V30 10357 H 959.507 -1.22249 3.68765 0
M  V30 10358 H 961.179 1.27878 4.43221 0
M  V30 10359 H 959.422 1.26908 4.14821 0
M  V30 10360 H 960.093 0.363459 5.50802 0
M  V30 10361 H 962.569 -0.908494 4.06061 0
M  V30 10362 H 961.445 -1.62792 5.24204 0
M  V30 10363 H 961.706 -2.42321 3.69774 0
M  V30 10364 N 960.765 -1.57509 0.0534917 0
M  V30 10365 C 961.695 -2.14698 -0.917999 0
M  V30 10366 C 962.676 -1.06924 -1.32292 0
M  V30 10367 O 963.861 -1.34875 -1.39723 0
M  V30 10368 C 960.991 -2.69383 -2.19203 0
M  V30 10369 C 959.945 -3.82161 -1.9271 0
M  V30 10370 C 959.271 -4.23373 -3.26587 0
M  V30 10371 C 960.571 -5.07199 -1.24686 0
M  V30 10372 H 962.265 -2.96125 -0.44165 0
M  V30 10373 H 959.811 -1.42446 -0.210993 0
M  V30 10374 H 961.764 -3.08031 -2.87567 0
M  V30 10375 H 960.488 -1.85151 -2.69048 0
M  V30 10376 H 959.147 -3.43989 -1.26757 0
M  V30 10377 H 958.795 -3.36089 -3.74237 0
M  V30 10378 H 958.495 -4.99385 -3.09658 0
M  V30 10379 H 960.019 -4.64623 -3.96178 0
M  V30 10380 H 961.433 -5.43279 -1.83088 0
M  V30 10381 H 959.83 -5.88369 -1.18076 0
M  V30 10382 H 960.9 -4.84386 -0.223227 0
M  V30 10383 N 962.243 0.219913 -1.56058 0
M  V30 10384 C 963.473 0.959521 -1.82967 0
M  V30 10385 C 963.881 1.78382 -0.630602 0
M  V30 10386 O 963.224 1.79062 0.410203 0
M  V30 10387 C 963.286 1.92481 -3.0363 0
M  V30 10388 C 962.95 1.28487 -4.38566 0
M  V30 10389 C 963.947 0.673946 -5.15513 0
M  V30 10390 C 961.632 1.29615 -4.85289 0
M  V30 10391 C 963.626 0.0828324 -6.37346 0
M  V30 10392 C 961.313 0.701191 -6.07064 0
M  V30 10393 C 962.311 0.0955877 -6.82933 0
M  V30 10394 O 961.999 -0.490109 -8.02405 0
M  V30 10395 H 961.731 0.286709 -0.612188 0
M  V30 10396 H 964.285 0.239761 -2.03996 0
M  V30 10397 H 962.515 2.6836 -2.78424 0
M  V30 10398 H 964.204 2.5301 -3.17397 0
M  V30 10399 H 964.97 0.657548 -4.80522 0
M  V30 10400 H 960.849 1.75691 -4.26208 0
M  V30 10401 H 964.393 -0.390482 -6.96506 0
M  V30 10402 H 960.29 0.715007 -6.41528 0
M  V30 10403 H 961.058 -0.384588 -8.17596 0
M  V30 10404 N 963.721 1.49897 0.486681 0
M  V30 10405 C 964.653 1.63755 1.60365 0
M  V30 10406 C 965.666 0.519614 1.54285 0
M  V30 10407 O 966.855 0.792219 1.59957 0
M  V30 10408 C 963.955 1.59153 2.99205 0
M  V30 10409 C 963.128 2.8672 3.30319 0
M  V30 10410 C 962.187 2.74974 4.48638 0
M  V30 10411 O 961.213 3.48922 4.49714 0
M  V30 10412 N 962.415 1.87479 5.49392 0
M  V30 10413 H 965.18 2.60094 1.48899 0
M  V30 10414 H 962.741 1.47166 0.674825 0
M  V30 10415 H 964.733 1.4893 3.76301 0
M  V30 10416 H 963.303 0.706133 3.0452 0
M  V30 10417 H 962.523 3.11188 2.41983 0
M  V30 10418 H 963.811 3.71262 3.47911 0
M  V30 10419 H 963.209 1.26684 5.51333 0
M  V30 10420 H 961.766 1.83169 6.25534 0
M  V30 10421 N 965.199 -0.738761 1.39212 0
M  V30 10422 C 966.424 -1.5331 1.39681 0
M  V30 10423 C 966.849 -1.88098 -0.00768715 0
M  V30 10424 O 966.207 -1.51642 -0.993699 0
M  V30 10425 C 966.255 -2.79958 2.27279 0
M  V30 10426 O 965.359 -3.75727 1.70008 0
M  V30 10427 H 964.7 -0.463131 0.475821 0
M  V30 10428 H 967.23 -0.911768 1.83161 0
M  V30 10429 H 967.24 -3.28732 2.41659 0
M  V30 10430 H 965.915 -2.5397 3.29351 0
M  V30 10431 H 964.492 -3.34483 1.64851 0
M  V30 10432 N 966.677 -1.24326 -0.968545 0
M  V30 10433 C 967.924 -1.08245 -1.71141 0
M  V30 10434 C 968.252 0.378842 -1.90775 0
M  V30 10435 O 967.507 1.29634 -1.46607 0
M  V30 10436 C 967.806 -1.76644 -3.10695 0
M  V30 10437 C 967.472 -3.26572 -3.10905 0
M  V30 10438 C 966.134 -3.67475 -3.10669 0
M  V30 10439 C 968.486 -4.22422 -3.05302 0
M  V30 10440 C 965.814 -5.02666 -3.02562 0
M  V30 10441 C 968.166 -5.57619 -2.98737 0
M  V30 10442 C 966.83 -5.9787 -2.9683 0
M  V30 10443 H 966.1 -0.396098 -0.626249 0
M  V30 10444 H 968.747 -1.54418 -1.13258 0
M  V30 10445 H 967.052 -1.22864 -3.72037 0
M  V30 10446 H 968.749 -1.61668 -3.66967 0
M  V30 10447 H 965.339 -2.94017 -3.11852 0
M  V30 10448 H 969.523 -3.91821 -3.04614 0
M  V30 10449 H 964.779 -5.3305 -2.99446 0
M  V30 10450 H 968.953 -6.31595 -2.93361 0
M  V30 10451 H 966.58 -7.02587 -2.90303 0
M  V30 10452 N 968.156 1.1691 -1.05688 0
M  V30 10453 C 969.567 1.68915 -0.795273 0
M  V30 10454 C 969.918 1.83968 0.681925 0
M  V30 10455 O 969.043 1.53083 1.52953 0
M  V30 10456 C 969.638 3.06814 -1.43703 0
M  V30 10457 C 968.197 3.55965 -1.22335 0
M  V30 10458 C 967.344 2.32099 -1.51741 0
M  V30 10459 H 970.295 1.01357 -1.22116 0
M  V30 10460 H 970.316 3.70907 -0.849016 0
M  V30 10461 H 969.828 2.95826 -2.51214 0
M  V30 10462 H 967.929 3.72222 -0.16771 0
M  V30 10463 H 968.042 4.38427 -1.9318 0
M  V30 10464 H 966.406 2.36811 -0.937696 0
M  V30 10465 H 967.189 2.23715 -2.60397 0
M  V30 10466 N 969.634 0.838594 1.33437 0
M  V30 10467 C 970.566 0.229006 2.28053 0
M  V30 10468 C 971.579 -0.590103 1.51729 0
M  V30 10469 O 972.768 -0.417218 1.73556 0
M  V30 10470 C 969.868 -0.696251 3.31671 0
M  V30 10471 C 969.041 0.0834606 4.3732 0
M  V30 10472 C 968.1 -0.765097 5.20608 0
M  V30 10473 O 967.126 -0.2044 5.68833 0
M  V30 10474 N 968.328 -2.08249 5.4186 0
M  V30 10475 H 971.093 1.04196 2.81004 0
M  V30 10476 H 968.654 0.697031 1.46127 0
M  V30 10477 H 970.646 -1.26889 3.84293 0
M  V30 10478 H 969.216 -1.40992 2.78998 0
M  V30 10479 H 968.436 0.837481 3.85201 0
M  V30 10480 H 969.724 0.619613 5.05013 0
M  V30 10481 H 969.122 -2.56156 5.04381 0
M  V30 10482 H 967.679 -2.60362 5.97541 0
M  V30 10483 N 971.112 -1.45937 0.595003 0
M  V30 10484 C 972.075 -2.2888 -0.121102 0
M  V30 10485 C 973.075 -1.39075 -0.807149 0
M  V30 10486 O 974.265 -1.61326 -0.657228 0
M  V30 10487 C 971.397 -3.19778 -1.1813 0
M  V30 10488 H 972.59 -2.93673 0.607968 0
M  V30 10489 H 970.143 -1.5225 0.353495 0
M  V30 10490 H 970.878 -2.59759 -1.94154 0
M  V30 10491 H 970.663 -3.85914 -0.693724 0
M  V30 10492 H 972.153 -3.82176 -1.68319 0
M  V30 10493 N 972.59 -0.333456 -1.54032 0
M  V30 10494 C 973.5 0.536674 -2.28379 0
M  V30 10495 C 974.516 1.12068 -1.33104 0
M  V30 10496 O 975.692 1.13853 -1.66131 0
M  V30 10497 C 972.757 1.67677 -3.03456 0
M  V30 10498 C 971.818 1.12357 -4.14336 0
M  V30 10499 C 971.051 2.20933 -4.85823 0
M  V30 10500 O 971.274 3.41466 -4.569 0
M  V30 10501 O 970.208 1.85795 -5.72507 0
M  V30 10502 H 974.034 -0.0674003 -3.03625 0
M  V30 10503 H 971.619 -0.098823 -1.49073 0
M  V30 10504 H 973.501 2.34032 -3.50438 0
M  V30 10505 H 972.176 2.26684 -2.31076 0
M  V30 10506 H 971.083 0.424827 -3.7168 0
M  V30 10507 H 972.416 0.578497 -4.88789 0
M  V30 10508 N 974.068 1.57479 -0.061844 0
M  V30 10509 C 975.484 1.56855 0.294753 0
M  V30 10510 C 975.684 1.07042 1.70717 0
M  V30 10511 O 974.74 0.731817 2.41662 0
M  V30 10512 C 976.053 3.00486 0.113484 0
M  V30 10513 C 977.601 3.1246 0.183778 0
M  V30 10514 C 978.076 4.5799 0.0309092 0
M  V30 10515 N 979.567 4.63119 0.0868393 0
M  V30 10516 C 980.302 5.734 -0.00717446 0
M  V30 10517 N 979.798 6.92628 -0.154144 0
M  V30 10518 N 981.591 5.62078 0.0491763 0
M  V30 10519 H 973.742 1.88176 -0.985058 0
M  V30 10520 H 976.005 0.867051 -0.383309 0
M  V30 10521 H 975.711 3.41004 -0.86075 0
M  V30 10522 H 975.585 3.67029 0.870023 0
M  V30 10523 H 977.972 2.71834 1.14849 0
M  V30 10524 H 978.053 2.48574 -0.603697 0
M  V30 10525 H 977.697 4.99303 -0.930526 0
M  V30 10526 H 977.627 5.19895 0.837664 0
M  V30 10527 H 980.118 3.77374 0.199245 0
M  V30 10528 H 980.431 7.72492 -0.218296 0
M  V30 10529 H 978.776 6.94742 -0.189372 0
M  V30 10530 H 981.967 4.67817 0.162626 0
M  V30 10531 H 982.14 6.47994 -0.0275478 0
M  V30 10532 N 975.546 -0.211634 1.56173 0
M  V30 10533 C 976.509 -1.24588 1.92381 0
M  V30 10534 C 977.509 -1.39297 0.803311 0
M  V30 10535 O 978.699 -1.37392 1.07094 0
M  V30 10536 C 975.831 -2.61807 2.18335 0
M  V30 10537 H 977.024 -0.936814 2.84893 0
M  V30 10538 H 974.577 -0.452471 1.49607 0
M  V30 10539 H 975.312 -2.97795 1.28407 0
M  V30 10540 H 975.097 -2.52506 2.99972 0
M  V30 10541 H 976.587 -3.3642 2.4741 0
M  V30 10542 N 977.024 -1.50153 -0.478725 0
M  V30 10543 C 978.27 -1.60998 -1.23318 0
M  V30 10544 C 978.603 -0.305868 -1.91776 0
M  V30 10545 O 977.878 0.692158 -1.81767 0
M  V30 10546 C 978.161 -2.78495 -2.28282 0
M  V30 10547 C 978.014 -4.18767 -1.64178 0
M  V30 10548 C 979.333 -2.91569 -3.2966 0
M  V30 10549 H 976.452 -0.585983 -0.446982 0
M  V30 10550 H 979.094 -1.82514 -0.528063 0
M  V30 10551 H 977.244 -2.60281 -2.8842 0
M  V30 10552 H 978.916 -4.48552 -1.07696 0
M  V30 10553 H 977.159 -4.23379 -0.94514 0
M  V30 10554 H 977.83 -4.96894 -2.40417 0
M  V30 10555 H 980.306 -3.08219 -2.79536 0
M  V30 10556 H 979.182 -3.75419 -4.0044 0
M  V30 10557 H 979.443 -2.01859 -3.93326 0
M  V30 10558 N 978.502 0.731368 -1.39602 0
M  V30 10559 C 979.913 1.30981 -1.33045 0
M  V30 10560 C 980.264 1.962 0.00349918 0
M  V30 10561 O 979.389 1.96539 0.905615 0
M  V30 10562 C 979.984 2.3817 -2.40958 0
M  V30 10563 C 978.543 2.91678 -2.3791 0
M  V30 10564 C 977.69 1.65286 -2.22656 0
M  V30 10565 H 980.641 0.528615 -1.49637 0
M  V30 10566 H 980.662 3.18645 -2.07955 0
M  V30 10567 H 980.174 1.90673 -3.38032 0
M  V30 10568 H 978.275 3.43446 -1.44485 0
M  V30 10569 H 978.388 3.44545 -3.32904 0
M  V30 10570 H 976.752 1.89759 -1.69893 0
M  V30 10571 H 977.535 1.19836 -3.21705 0
M  V30 10572 N 979.98 1.24838 0.961938 0
M  V30 10573 C 980.943 1.04674 2.03902 0
M  V30 10574 C 981.943 0.00204674 1.608 0
M  V30 10575 O 983.133 0.243555 1.72489 0
M  V30 10576 C 980.265 0.587736 3.35795 0
M  V30 10577 H 981.458 2.00278 2.23223 0
M  V30 10578 H 979.011 1.07142 1.138 0
M  V30 10579 H 979.746 -0.371244 3.22168 0
M  V30 10580 H 979.531 1.34182 3.68426 0
M  V30 10581 H 981.021 0.467867 4.14971 0
M  V30 10582 N 981.458 -1.16348 1.06306 0
M  V30 10583 C 982.39 -2.20316 0.631929 0
M  V30 10584 C 983.403 -1.59819 -0.310133 0
M  V30 10585 O 984.592 -1.78213 -0.101103 0
M  V30 10586 C 981.692 -3.3877 -0.0937645 0
M  V30 10587 C 980.865 -4.28826 0.861816 0
M  V30 10588 C 979.924 -5.25908 0.175346 0
M  V30 10589 O 978.95 -5.63363 0.813039 0
M  V30 10590 N 980.152 -5.70307 -1.08305 0
M  V30 10591 H 982.917 -2.57925 1.52626 0
M  V30 10592 H 980.478 -1.31358 0.946392 0
M  V30 10593 H 982.47 -4.00759 -0.563412 0
M  V30 10594 H 981.04 -2.99666 -0.889904 0
M  V30 10595 H 980.26 -3.64098 1.51083 0
M  V30 10596 H 981.548 -4.85875 1.51007 0
M  V30 10597 H 980.946 -5.4197 -1.62127 0
M  V30 10598 H 979.503 -6.34387 -1.49656 0
M  V30 10599 N 982.937 -0.845659 -1.3299 0
M  V30 10600 C 983.9 -0.288905 -2.27372 0
M  V30 10601 C 984.9 0.546263 -1.51237 0
M  V30 10602 O 986.09 0.359072 -1.70459 0
M  V30 10603 C 983.222 0.59224 -3.35716 0
M  V30 10604 H 984.415 -1.12181 -2.78128 0
M  V30 10605 H 981.968 -0.619276 -1.43508 0
M  V30 10606 H 982.703 1.44732 -2.90212 0
M  V30 10607 H 982.488 -0.00543255 -3.921 0
M  V30 10608 H 983.978 0.974848 -4.06062 0
M  V30 10609 N 984.415 1.45619 -0.602734 0
M  V30 10610 C 985.378 2.28941 0.108962 0
M  V30 10611 C 986.378 1.39501 0.799762 0
M  V30 10612 O 987.568 1.61673 0.648663 0
M  V30 10613 C 984.7 3.204 1.16432 0
M  V30 10614 H 985.893 2.93346 -0.623534 0
M  V30 10615 H 983.446 1.52061 -0.361565 0
M  V30 10616 H 984.181 2.60785 1.92774 0
M  V30 10617 H 983.966 3.86277 0.673248 0
M  V30 10618 H 985.456 3.83063 1.6629 0
M  V30 10619 N 985.893 0.34162 1.53853 0
M  V30 10620 C 987.123 -0.256557 2.05001 0
M  V30 10621 C 987.531 -1.44916 1.21639 0
M  V30 10622 O 986.874 -1.8207 0.244138 0
M  V30 10623 C 986.936 -0.737109 3.51862 0
M  V30 10624 C 986.6 0.335584 4.55766 0
M  V30 10625 C 987.597 1.17765 5.06387 0
M  V30 10626 C 985.282 0.488958 4.99914 0
M  V30 10627 C 987.276 2.15865 5.99734 0
M  V30 10628 C 984.963 1.47336 5.93073 0
M  V30 10629 C 985.961 2.30666 6.4287 0
M  V30 10630 O 985.649 3.2743 7.34197 0
M  V30 10631 H 985.381 -0.0536867 0.673865 0
M  V30 10632 H 987.935 0.49123 1.99439 0
M  V30 10633 H 986.165 -1.53611 3.54881 0
M  V30 10634 H 987.854 -1.25562 3.85991 0
M  V30 10635 H 988.62 1.07023 4.73044 0
M  V30 10636 H 984.499 -0.149807 4.60757 0
M  V30 10637 H 988.043 2.80945 6.38526 0
M  V30 10638 H 983.94 1.58134 6.25831 0
M  V30 10639 H 984.708 3.22879 7.52125 0
M  V30 10640 N 987.371 -1.57444 0.0701946 0
M  V30 10641 C 988.301 -2.15659 -0.895176 0
M  V30 10642 C 989.282 -1.08321 -1.31151 0
M  V30 10643 O 990.467 -1.36349 -1.38284 0
M  V30 10644 C 987.597 -2.71693 -2.16334 0
M  V30 10645 C 986.551 -3.84183 -1.88645 0
M  V30 10646 C 985.877 -4.26814 -3.22078 0
M  V30 10647 C 987.177 -5.08493 -1.19299 0
M  V30 10648 H 988.871 -2.96576 -0.410217 0
M  V30 10649 H 986.417 -1.42662 -0.195872 0
M  V30 10650 H 988.37 -3.11064 -2.84284 0
M  V30 10651 H 987.094 -1.87994 -2.67069 0
M  V30 10652 H 985.753 -3.45314 -1.23101 0
M  V30 10653 H 985.401 -3.40039 -3.70651 0
M  V30 10654 H 985.101 -5.02642 -3.04344 0
M  V30 10655 H 986.625 -4.68799 -3.91228 0
M  V30 10656 H 988.039 -5.4519 -1.77316 0
M  V30 10657 H 986.436 -5.89588 -1.11828 0
M  V30 10658 H 987.506 -4.84595 -0.171839 0
M  V30 10659 N 988.849 0.203349 -1.56283 0
M  V30 10660 C 990.077 0.941426 -1.84241 0
M  V30 10661 C 990.492 1.77197 -0.651658 0
M  V30 10662 O 989.849 1.78506 0.379713 0
M  V30 10663 C 989.9 1.84429 -3.10915 0
M  V30 10664 O 989.621 1.04729 -4.25398 0
M  V30 10665 C 991.122 2.69474 -3.51993 0
M  V30 10666 H 988.342 0.27507 -0.612027 0
M  V30 10667 H 990.886 0.213088 -2.03387 0
M  V30 10668 H 989.041 2.52635 -2.93691 0
M  V30 10669 H 989.455 1.66179 -4.97478 0
M  V30 10670 H 990.929 3.28495 -4.43616 0
M  V30 10671 H 991.406 3.42775 -2.74594 0
M  V30 10672 H 992.012 2.06652 -3.71719 0
M  V30 10673 N 990.327 1.50405 0.470755 0
M  V30 10674 C 991.257 1.72222 1.57676 0
M  V30 10675 C 992.238 0.57121 1.60222 0
M  V30 10676 O 993.423 0.810381 1.76484 0
M  V30 10677 C 990.553 1.81666 2.95998 0
M  V30 10678 C 989.507 2.96857 3.08318 0
M  V30 10679 C 988.833 2.91445 4.4829 0
M  V30 10680 C 990.133 4.37361 2.85504 0
M  V30 10681 H 991.827 2.64825 1.39671 0
M  V30 10682 H 989.373 1.27438 0.67049 0
M  V30 10683 H 991.326 1.95514 3.73299 0
M  V30 10684 H 990.05 0.856856 3.1516 0
M  V30 10685 H 988.709 2.82661 2.33449 0
M  V30 10686 H 988.357 1.93309 4.64371 0
M  V30 10687 H 988.057 3.68776 4.57469 0
M  V30 10688 H 989.581 3.07341 5.27611 0
M  V30 10689 H 990.995 4.52081 3.52555 0
M  V30 10690 H 989.392 5.16145 3.06127 0
M  V30 10691 H 990.462 4.49708 1.81359 0
M  V30 10692 N 991.805 -0.723954 1.39988 0
M  V30 10693 C 993.051 -1.48476 1.3902 0
M  V30 10694 C 993.406 -1.92397 -0.0105439 0
M  V30 10695 O 992.699 -1.64683 -0.979294 0
M  V30 10696 C 992.893 -2.73004 2.30659 0
M  V30 10697 C 992.722 -2.41261 3.79504 0
M  V30 10698 C 991.492 -2.33013 4.48367 0
M  V30 10699 C 993.69 -2.06078 4.71207 0
M  V30 10700 N 991.672 -1.93856 5.82489 0
M  V30 10701 C 993.043 -1.77455 5.94062 0
M  V30 10702 C 995.098 -1.92642 4.59123 0
M  V30 10703 C 993.801 -1.36748 7.06182 0
M  V30 10704 C 995.827 -1.53338 5.71175 0
M  V30 10705 C 995.189 -1.25607 6.93111 0
M  V30 10706 H 991.288 -0.54172 0.563971 0
M  V30 10707 H 993.872 -0.840344 1.75631 0
M  V30 10708 H 992.043 -3.35209 1.96188 0
M  V30 10709 H 993.775 -3.39286 2.20606 0
M  V30 10710 H 990.53 -2.50476 4.01944 0
M  V30 10711 H 990.954 -1.7684 6.53496 0
M  V30 10712 H 995.596 -2.12745 3.65376 0
M  V30 10713 H 993.314 -1.15386 7.9982 0
M  V30 10714 H 996.9 -1.43532 5.63817 0
M  V30 10715 H 995.78 -0.956505 7.78345 0
M  V30 10716 N 993.283 -1.25346 -0.955304 0
M  V30 10717 C 994.511 -1.12793 -1.73451 0
M  V30 10718 C 994.926 0.318344 -1.86097 0
M  V30 10719 O 994.283 1.21897 -1.35821 0
M  V30 10720 C 994.334 -1.77603 -3.14864 0
M  V30 10721 O 994.055 -3.16577 -3.02837 0
M  V30 10722 C 995.556 -1.70821 -4.09066 0
M  V30 10723 H 992.776 -0.393457 -0.543537 0
M  V30 10724 H 995.32 -1.65696 -1.19855 0
M  V30 10725 H 993.475 -1.28673 -3.65407 0
M  V30 10726 H 993.889 -3.48433 -3.92039 0
M  V30 10727 H 995.363 -2.2083 -5.05903 0
M  V30 10728 H 995.84 -0.671858 -4.34031 0
M  V30 10729 H 996.446 -2.19237 -3.64438 0
M  V30 10730 N 994.761 1.15782 -1.06922 0
M  V30 10731 C 995.694 2.19336 -0.629837 0
M  V30 10732 C 996.672 1.58774 0.350663 0
M  V30 10733 O 997.856 1.86724 0.258124 0
M  V30 10734 C 994.983 3.38615 0.0757526 0
M  V30 10735 C 994.029 4.17688 -0.862503 0
M  V30 10736 S 994.862 4.80634 -2.36117 0
M  V30 10737 C 996.018 6.03286 -1.66725 0
M  V30 10738 H 996.251 2.56267 -1.50714 0
M  V30 10739 H 993.784 1.26674 -0.882776 0
M  V30 10740 H 995.742 4.07724 0.476611 0
M  V30 10741 H 994.403 3.00037 0.929332 0
M  V30 10742 H 993.596 5.03012 -0.315461 0
M  V30 10743 H 993.198 3.54106 -1.20354 0
M  V30 10744 H 995.49 6.70426 -0.976472 0
M  V30 10745 H 996.433 6.62551 -2.49864 0
M  V30 10746 H 996.841 5.52722 -1.14711 0
M  V30 10747 N 996.239 0.8527 1.3254 0
M  V30 10748 C 997.171 0.253181 2.27797 0
M  V30 10749 C 998.184 -0.573977 1.52346 0
M  V30 10750 O 999.373 -0.398786 1.73988 0
M  V30 10751 C 996.473 -0.661034 3.32391 0
M  V30 10752 C 995.646 0.12984 4.37207 0
M  V30 10753 C 994.705 -0.709837 5.2139 0
M  V30 10754 O 993.731 -0.144056 5.69018 0
M  V30 10755 N 994.933 -2.0249 5.44039 0
M  V30 10756 H 997.698 1.07171 2.79883 0
M  V30 10757 H 995.259 0.712491 1.45379 0
M  V30 10758 H 997.251 -1.22806 3.85617 0
M  V30 10759 H 995.821 -1.38025 2.80478 0
M  V30 10760 H 995.041 0.878289 3.84291 0
M  V30 10761 H 996.329 0.673141 5.04328 0
M  V30 10762 H 995.727 -2.50792 5.0707 0
M  V30 10763 H 994.284 -2.5401 6.00269 0
M  V30 10764 N 997.718 -1.45297 0.610449 0
M  V30 10765 C 998.65 -2.28742 -0.144884 0
M  V30 10766 C 999.663 -1.40114 -0.828977 0
M  V30 10767 O 1000.85 -1.64461 -0.693887 0
M  V30 10768 C 997.952 -3.15934 -1.22632 0
M  V30 10769 C 997.125 -4.32857 -0.628785 0
M  V30 10770 C 996.184 -5.01237 -1.60148 0
M  V30 10771 O 995.21 -5.57938 -1.12667 0
M  V30 10772 N 996.412 -5.00785 -2.9359 0
M  V30 10773 H 999.177 -2.94207 0.571145 0
M  V30 10774 H 996.738 -1.55517 0.450134 0
M  V30 10775 H 998.73 -3.58545 -1.87691 0
M  V30 10776 H 997.3 -2.52358 -1.84483 0
M  V30 10777 H 996.52 -3.93693 0.199951 0
M  V30 10778 H 997.808 -5.08367 -0.209845 0
M  V30 10779 H 997.206 -4.56014 -3.34765 0
M  V30 10780 H 995.763 -5.4725 -3.54064 0
M  V30 10781 N 999.196 -0.349774 -1.5367 0
M  V30 10782 C 1000.44 0.245189 -2.01312 0
M  V30 10783 C 1000.77 1.49702 -1.23705 0
M  V30 10784 O 1000.05 1.91742 -0.326371 0
M  V30 10785 C 1000.33 0.553071 -3.55827 0
M  V30 10786 C 1000.19 -0.71129 -4.4414 0
M  V30 10787 C 1001.5 1.36015 -4.18555 0
M  V30 10788 H 998.624 0.0876415 -0.73177 0
M  V30 10789 H 1001.27 -0.471543 -1.84056 0
M  V30 10790 H 999.416 1.16367 -3.70663 0
M  V30 10791 H 1001.09 -1.34913 -4.41131 0
M  V30 10792 H 999.331 -1.33491 -4.1275 0
M  V30 10793 H 1000 -0.45104 -5.50154 0
M  V30 10794 H 1002.48 0.843778 -4.07455 0
M  V30 10795 H 1001.35 1.54432 -5.26728 0
M  V30 10796 H 1001.61 2.36408 -3.73582 0
M  V30 10797 N 1000.67 1.57404 -0.0785433 0
M  V30 10798 C 1001.92 1.94031 0.589896 0
M  V30 10799 C 1002.25 0.959297 1.68852 0
M  V30 10800 O 1001.53 -0.0103978 1.94497 0
M  V30 10801 C 1001.81 3.40886 1.16055 0
M  V30 10802 C 1001.66 4.49748 0.0681072 0
M  V30 10803 C 1002.98 3.88699 2.06401 0
M  V30 10804 H 1000.1 0.70556 0.212965 0
M  V30 10805 H 1002.74 1.89439 -0.145886 0
M  V30 10806 H 1000.89 3.4493 1.78761 0
M  V30 10807 H 1002.57 4.57823 -0.565318 0
M  V30 10808 H 1000.81 4.29625 -0.600431 0
M  V30 10809 H 1001.48 5.49658 0.507906 0
M  V30 10810 H 1003.96 3.86703 1.53622 0
M  V30 10811 H 1002.83 4.92052 2.43261 0
M  V30 10812 H 1003.09 3.2703 2.97496 0
M  V30 10813 N 1002.15 -0.195058 1.56388 0
M  V30 10814 C 1003.08 -1.26581 1.91076 0
M  V30 10815 C 1004.1 -1.41707 0.801436 0
M  V30 10816 O 1005.29 -1.42132 1.07985 0
M  V30 10817 C 1002.39 -2.63794 2.12758 0
M  V30 10818 C 1001.56 -2.70275 3.43904 0
M  V30 10819 C 1000.62 -3.88685 3.54698 0
M  V30 10820 O 999.644 -3.75786 4.2752 0
M  V30 10821 N 1000.85 -5.04141 2.87789 0
M  V30 10822 H 1003.61 -0.971401 2.83521 0
M  V30 10823 H 1001.17 -0.384976 1.57256 0
M  V30 10824 H 1003.16 -3.41434 2.17267 0
M  V30 10825 H 1001.73 -2.85723 1.26812 0
M  V30 10826 H 1000.95 -1.78909 3.51262 0
M  V30 10827 H 1002.24 -2.71597 4.30247 0
M  V30 10828 H 1001.64 -5.17519 2.28452 0
M  V30 10829 H 1000.2 -5.79727 2.97925 0
M  V30 10830 N 1003.63 -1.50653 -0.462772 0
M  V30 10831 C 1005.05 -1.38263 -0.797213 0
M  V30 10832 C 1005.25 -0.445172 -1.96521 0
M  V30 10833 O 1004.3 0.10913 -2.52264 0
M  V30 10834 C 1005.61 -2.798 -1.10146 0
M  V30 10835 C 1007.16 -2.88774 -1.20742 0
M  V30 10836 C 1007.64 -4.31163 -1.54476 0
M  V30 10837 N 1009.13 -4.34152 -1.61451 0
M  V30 10838 C 1009.86 -5.4133 -1.89074 0
M  V30 10839 N 1009.36 -6.58705 -2.1466 0
M  V30 10840 N 1011.15 -5.28783 -1.90645 0
M  V30 10841 H 1003.3 -2.10172 0.30684 0
M  V30 10842 H 1005.57 -0.945046 0.0747862 0
M  V30 10843 H 1005.27 -3.50276 -0.316207 0
M  V30 10844 H 1005.15 -3.17559 -2.03559 0
M  V30 10845 H 1007.53 -2.18512 -1.98334 0
M  V30 10846 H 1007.61 -2.54547 -0.252904 0
M  V30 10847 H 1007.26 -5.01965 -0.774207 0
M  V30 10848 H 1007.19 -4.62883 -2.51092 0
M  V30 10849 H 1009.68 -3.49519 -1.43684 0
M  V30 10850 H 1009.99 -7.36192 -2.35035 0
M  V30 10851 H 1008.34 -6.61866 -2.12035 0
M  V30 10852 H 1011.53 -4.36078 -1.70158 0
M  V30 10853 H 1011.7 -6.12396 -2.11836 0
M  V30 10854 N 1005.11 0.71652 -1.4037 0
M  V30 10855 C 1006.36 1.47347 -1.38324 0
M  V30 10856 C 1006.68 1.94995 0.0139949 0
M  V30 10857 O 1005.95 1.7028 0.968585 0
M  V30 10858 H 1004.53 0.546662 -0.509087 0
M  V30 10859 H 1007.19 0.849455 -1.75415 0
M  V30 10860 H 1006.29 2.34675 -2.05752 0
M  V30 10861 N 1006.59 1.25851 0.948643 0
M  V30 10862 C 1007.81 1.13711 1.72851 0
M  V30 10863 C 1008.23 -0.308471 1.86263 0
M  V30 10864 O 1007.59 -1.21175 1.36465 0
M  V30 10865 C 1007.64 1.79271 3.13918 0
M  V30 10866 O 1007.36 3.18179 3.01154 0
M  V30 10867 C 1008.86 1.72988 4.08154 0
M  V30 10868 H 1006.08 0.396334 0.541443 0
M  V30 10869 H 1008.62 1.66329 1.18974 0
M  V30 10870 H 1006.78 1.30609 3.64719 0
M  V30 10871 H 1007.19 3.50507 3.90186 0
M  V30 10872 H 1008.67 2.2351 5.04725 0
M  V30 10873 H 1009.14 0.694866 4.33668 0
M  V30 10874 H 1009.75 2.21166 3.63271 0
M  V30 10875 N 1008.06 -1.15214 1.07534 0
M  V30 10876 C 1009.31 -1.85676 0.79805 0
M  V30 10877 C 1009.63 -1.82837 -0.677919 0
M  V30 10878 O 1008.9 -1.27059 -1.49107 0
M  V30 10879 H 1007.48 -0.687468 0.292227 0
M  V30 10880 H 1010.15 -1.39658 1.35947 0
M  V30 10881 H 1009.24 -2.9076 1.13423 0
M  V30 10882 N 1009.54 -0.859717 -1.32086 0
M  V30 10883 C 1010.96 -0.55025 -1.49815 0
M  V30 10884 C 1011.16 0.917966 -1.79376 0
M  V30 10885 O 1010.21 1.70073 -1.86632 0
M  V30 10886 C 1011.53 -1.44161 -2.6389 0
M  V30 10887 C 1013.08 -1.44257 -2.77775 0
M  V30 10888 C 1013.55 -2.31926 -3.94936 0
M  V30 10889 N 1015.04 -2.2975 -4.02206 0
M  V30 10890 C 1015.78 -2.9431 -4.92107 0
M  V30 10891 N 1015.27 -3.68001 -5.86981 0
M  V30 10892 N 1017.07 -2.83671 -4.8527 0
M  V30 10893 H 1009.22 -1.80987 -1.11164 0
M  V30 10894 H 1011.48 -0.773313 -0.548353 0
M  V30 10895 H 1011.19 -2.48588 -2.4879 0
M  V30 10896 H 1011.06 -1.13268 -3.59792 0
M  V30 10897 H 1013.45 -0.405923 -2.92295 0
M  V30 10898 H 1013.53 -1.79169 -1.82571 0
M  V30 10899 H 1013.17 -3.35661 -3.81174 0
M  V30 10900 H 1013.1 -1.94344 -4.89426 0
M  V30 10901 H 1015.59 -1.76177 -3.3432 0
M  V30 10902 H 1015.91 -4.14417 -6.52287 0
M  V30 10903 H 1014.25 -3.72109 -5.86992 0
M  V30 10904 H 1017.44 -2.25647 -4.10123 0
M  V30 10905 H 1017.61 -3.34267 -5.5513 0
M  V30 10906 N 1011.02 1.44971 -0.618145 0
M  V30 10907 C 1011.95 2.28815 0.132751 0
M  V30 10908 C 1012.97 1.40551 0.821535 0
M  V30 10909 O 1014.15 1.64827 0.685155 0
M  V30 10910 C 1011.25 3.1658 1.20955 0
M  V30 10911 C 1010.43 4.33184 0.605821 0
M  V30 10912 C 1009.49 5.0208 1.57488 0
M  V30 10913 O 1008.51 5.58528 1.09706 0
M  V30 10914 N 1009.71 5.02335 2.9093 0
M  V30 10915 H 1012.48 2.939 -0.58674 0
M  V30 10916 H 1010.04 1.55276 -0.458375 0
M  V30 10917 H 1012.03 3.59535 1.85787 0
M  V30 10918 H 1010.6 2.53333 1.83143 0
M  V30 10919 H 1009.82 3.93581 -0.220827 0
M  V30 10920 H 1011.11 5.08471 0.182883 0
M  V30 10921 H 1010.51 4.57783 3.32342 0
M  V30 10922 H 1009.07 5.49119 3.51157 0
M  V30 10923 N 1012.5 0.357919 1.53482 0
M  V30 10924 C 1013.43 -0.484231 2.28424 0
M  V30 10925 C 1014.41 -1.09046 1.30548 0
M  V30 10926 O 1015.59 -1.10916 1.59409 0
M  V30 10927 C 1012.72 -1.62803 3.06778 0
M  V30 10928 C 1011.68 -1.14943 4.12277 0
M  V30 10929 C 1011 -2.38287 4.78669 0
M  V30 10930 C 1012.3 -0.239627 5.2175 0
M  V30 10931 H 1014 0.140979 2.99068 0
M  V30 10932 H 1011.54 0.069244 1.43833 0
M  V30 10933 H 1013.5 -2.22374 3.57949 0
M  V30 10934 H 1012.22 -2.28036 2.3381 0
M  V30 10935 H 1010.88 -0.576442 3.6204 0
M  V30 10936 H 1010.53 -3.01959 4.02281 0
M  V30 10937 H 1010.23 -2.06939 5.49955 0
M  V30 10938 H 1011.75 -2.98558 5.32631 0
M  V30 10939 H 1013.17 -0.742597 5.6847 0
M  V30 10940 H 1011.56 -0.0173747 6.00097 0
M  V30 10941 H 1012.63 0.720333 4.7952 0
M  V30 10942 N 1013.98 -1.5736 0.0868897 0
M  V30 10943 C 1015.22 -1.9367 -0.577598 0
M  V30 10944 C 1015.55 -0.968844 -1.69229 0
M  V30 10945 O 1014.82 -0.0195061 -1.9589 0
M  V30 10946 H 1013.4 -0.714983 -0.216353 0
M  V30 10947 H 1016.06 -1.94335 0.148294 0
M  V30 10948 H 1015.15 -2.95877 -0.993128 0
M  V30 10949 N 1015.45 0.186762 -1.56489 0
M  V30 10950 C 1016.42 1.21511 -1.94339 0
M  V30 10951 C 1017.42 1.38001 -0.82537 0
M  V30 10952 O 1018.61 1.3567 -1.09266 0
M  V30 10953 C 1015.74 2.583 -2.22472 0
M  V30 10954 H 1016.93 0.891371 -2.86347 0
M  V30 10955 H 1014.49 0.428612 -1.50308 0
M  V30 10956 H 1015.22 2.95715 -1.33129 0
M  V30 10957 H 1015.01 2.47701 -3.03951 0
M  V30 10958 H 1016.5 3.32441 -2.5273 0
M  V30 10959 N 1016.93 1.50896 0.454776 0
M  V30 10960 C 1017.88 1.70947 1.55067 0
M  V30 10961 C 1018.85 0.550899 1.56698 0
M  V30 10962 O 1020.03 0.783352 1.73978 0
M  V30 10963 C 1017.17 1.82455 2.92924 0
M  V30 10964 C 1016.29 3.09919 3.00956 0
M  V30 10965 C 1015.42 3.12125 4.29827 0
M  V30 10966 C 1014.46 4.33975 4.31662 0
M  V30 10967 N 1013.6 4.33828 5.5203 0
M  V30 10968 H 1018.44 2.645 1.37273 0
M  V30 10969 H 1015.98 1.31101 0.667148 0
M  V30 10970 H 1017.93 1.87108 3.72889 0
M  V30 10971 H 1016.56 0.92327 3.09315 0
M  V30 10972 H 1015.62 3.14659 2.13761 0
M  V30 10973 H 1016.93 3.99869 2.98172 0
M  V30 10974 H 1016.08 3.15598 5.18154 0
M  V30 10975 H 1014.82 2.20033 4.35243 0
M  V30 10976 H 1013.83 4.30697 3.41731 0
M  V30 10977 H 1015.05 5.27312 4.27924 0
M  V30 10978 H 1013 3.44598 5.58201 0
M  V30 10979 H 1012.91 5.17566 5.51055 0
M  V30 10980 H 1014.18 4.4147 6.42437 0
M  V30 10981 N 1018.41 -0.709066 1.40748 0
M  V30 10982 C 1019.64 -1.49591 1.425 0
M  V30 10983 C 1020.05 -1.89184 0.0248343 0
M  V30 10984 O 1019.39 -1.56429 -0.963109 0
M  V30 10985 C 1019.45 -2.79735 2.25807 0
M  V30 10986 C 1019.12 -2.62426 3.74141 0
M  V30 10987 C 1020.11 -2.29256 4.66624 0
M  V30 10988 C 1017.8 -2.78487 4.18032 0
M  V30 10989 C 1019.79 -2.12366 6.00982 0
M  V30 10990 C 1017.48 -2.61215 5.52458 0
M  V30 10991 C 1018.48 -2.28203 6.43749 0
M  V30 10992 O 1018.17 -2.11069 7.75697 0
M  V30 10993 H 1017.9 -0.467994 0.487809 0
M  V30 10994 H 1020.45 -0.881694 1.85514 0
M  V30 10995 H 1018.68 -3.43513 1.77584 0
M  V30 10996 H 1020.37 -3.41481 2.19421 0
M  V30 10997 H 1021.14 -2.16474 4.34009 0
M  V30 10998 H 1017.02 -3.03168 3.4729 0
M  V30 10999 H 1020.56 -1.86522 6.72202 0
M  V30 11000 H 1016.46 -2.73582 5.84656 0
M  V30 11001 H 1017.23 -2.25938 7.86698 0
M  V30 11002 N 1019.89 -1.26353 -0.941956 0
M  V30 11003 C 1021.3 -1.10774 -1.50287 0
M  V30 11004 C 1021.65 0.312229 -1.937 0
M  V30 11005 O 1020.78 1.20364 -1.79838 0
M  V30 11006 C 1021.37 -2.00473 -2.73123 0
M  V30 11007 C 1019.93 -1.89042 -3.25485 0
M  V30 11008 C 1019.08 -1.93869 -1.98267 0
M  V30 11009 H 1022.03 -1.39454 -0.757523 0
M  V30 11010 H 1022.05 -1.55216 -3.47402 0
M  V30 11011 H 1021.56 -3.03812 -2.41495 0
M  V30 11012 H 1019.66 -0.886341 -3.61904 0
M  V30 11013 H 1019.78 -2.74533 -3.92643 0
M  V30 11014 H 1018.14 -1.37912 -2.14132 0
M  V30 11015 H 1018.92 -2.98837 -1.68972 0
M  V30 11016 N 1021.37 1.14642 -1.08144 0
M  V30 11017 C 1022.32 2.21708 -0.703448 0
M  V30 11018 C 1023.31 1.66907 0.289535 0
M  V30 11019 O 1024.52 1.79354 0.152387 0
M  V30 11020 H 1020.89 0.722247 -0.209437 0
M  V30 11021 H 1022.86 2.50862 -1.61588 0
M  V30 11022 C 1021.61 3.47472 -0.125975 0
M  V30 11023 H 1020.93 3.89967 -0.881216 0
M  V30 11024 H 1022.37 4.2388 0.100737 0
M  V30 11025 C 1020.83 3.17189 1.13546 0
M  V30 11026 O 1021.36 3.34733 2.22073 0
M  V30 11027 N 1019.57 2.71169 1.04479 0
M  V30 11028 H 1019.12 2.57093 0.161566 0
M  V30 11029 H 1019.07 2.51282 1.88957 0
M  V30 11030 N 1022.85 0.866709 1.31628 0
M  V30 11031 C 1023.78 0.335762 2.31073 0
M  V30 11032 C 1024.76 -0.571597 1.60209 0
M  V30 11033 O 1025.94 -0.489306 1.87935 0
M  V30 11034 C 1023.07 -0.466416 3.44154 0
M  V30 11035 C 1022.03 0.347561 4.26586 0
M  V30 11036 C 1021.35 -0.5801 5.31544 0
M  V30 11037 C 1022.65 1.57986 4.97833 0
M  V30 11038 H 1024.35 1.16673 2.75731 0
M  V30 11039 H 1021.89 0.56248 1.3256 0
M  V30 11040 H 1023.84 -0.84836 4.12772 0
M  V30 11041 H 1022.57 -1.33086 2.98254 0
M  V30 11042 H 1021.23 0.71141 3.59631 0
M  V30 11043 H 1020.88 -1.44174 4.81895 0
M  V30 11044 H 1020.58 -0.0393965 5.87587 0
M  V30 11045 H 1022.1 -0.958958 6.03023 0
M  V30 11046 H 1023.51 1.26954 5.59067 0
M  V30 11047 H 1021.91 2.05939 5.63657 0
M  V30 11048 H 1022.98 2.3345 4.25005 0
M  V30 11049 N 1024.32 -1.44642 0.625825 0
M  V30 11050 C 1025.27 -2.27762 -0.104042 0
M  V30 11051 C 1026.26 -1.38364 -0.821232 0
M  V30 11052 O 1027.45 -1.62214 -0.708213 0
M  V30 11053 C 1024.58 -3.25585 -1.08853 0
M  V30 11054 C 1023.66 -4.22472 -0.371241 0
M  V30 11055 N 1024.06 -5.02262 0.597226 0
M  V30 11056 C 1022.35 -4.4172 -0.616392 0
M  V30 11057 C 1023.05 -5.72678 1.02053 0
M  V30 11058 N 1022.03 -5.42404 0.360423 0
M  V30 11059 H 1025.83 -2.86858 0.639517 0
M  V30 11060 H 1023.35 -1.56015 0.450911 0
M  V30 11061 H 1025.34 -3.83885 -1.62597 0
M  V30 11062 H 1024 -2.68051 -1.83245 0
M  V30 11063 H 1025.01 -5.08643 0.974803 0
M  V30 11064 H 1021.69 -3.9529 -1.34359 0
M  V30 11065 H 1023.08 -6.46772 1.82033 0
M  V30 11066 N 1025.8 -0.366053 -1.5329 0
M  V30 11067 C 1026.73 0.47211 -2.28677 0
M  V30 11068 C 1027.71 1.08353 -1.31125 0
M  V30 11069 O 1028.9 1.10069 -1.59995 0
M  V30 11070 C 1026.03 1.61174 -3.07637 0
M  V30 11071 C 1024.98 1.12755 -4.12881 0
M  V30 11072 C 1024.31 2.35745 -4.79925 0
M  V30 11073 C 1025.61 0.211954 -5.2187 0
M  V30 11074 H 1027.3 -0.156838 -2.98989 0
M  V30 11075 H 1024.85 -0.0768709 -1.43795 0
M  V30 11076 H 1026.8 2.20473 -3.59123 0
M  V30 11077 H 1025.52 2.26793 -2.35016 0
M  V30 11078 H 1024.18 0.557234 -3.6234 0
M  V30 11079 H 1023.83 2.99821 -4.03877 0
M  V30 11080 H 1023.53 2.04019 -5.51044 0
M  V30 11081 H 1025.06 2.95729 -5.34207 0
M  V30 11082 H 1026.47 0.71244 -5.68856 0
M  V30 11083 H 1024.87 -0.0144501 -6.00098 0
M  V30 11084 H 1025.94 -0.745753 -4.79131 0
M  V30 11085 N 1027.28 1.57312 -0.0952337 0
M  V30 11086 C 1028.24 2.12889 0.849161 0
M  V30 11087 C 1029.24 1.05819 1.21075 0
M  V30 11088 O 1030.43 1.31704 1.14016 0
M  V30 11089 C 1027.56 2.6496 2.14498 0
M  V30 11090 H 1028.76 2.97651 0.366566 0
M  V30 11091 H 1026.31 1.55542 0.153762 0
M  V30 11092 H 1027.05 1.83718 2.67242 0
M  V30 11093 H 1026.83 3.43244 1.89542 0
M  V30 11094 H 1028.32 3.07952 2.82056 0
M  V30 11095 N 1028.76 -0.17846 1.56586 0
M  V30 11096 C 1030.01 -0.894464 1.81228 0
M  V30 11097 C 1030.33 -1.83089 0.671062 0
M  V30 11098 O 1029.6 -1.93439 -0.309557 0
M  V30 11099 H 1028.18 -0.333288 0.668527 0
M  V30 11100 H 1030.84 -0.179986 1.94067 0
M  V30 11101 H 1029.93 -1.47565 2.75011 0
M  V30 11102 N 1030.24 -1.51135 -0.446768 0
M  V30 11103 C 1031.18 -1.71767 -1.54158 0
M  V30 11104 C 1032.15 -0.559201 -1.56404 0
M  V30 11105 O 1033.34 -0.792567 -1.7356 0
M  V30 11106 C 1030.48 -1.84006 -2.91952 0
M  V30 11107 C 1029.59 -3.11511 -2.99308 0
M  V30 11108 C 1028.73 -3.144 -4.28166 0
M  V30 11109 C 1027.76 -4.36258 -4.29355 0
M  V30 11110 N 1026.9 -4.3675 -5.49722 0
M  V30 11111 H 1031.74 -2.65224 -1.35869 0
M  V30 11112 H 1029.28 -1.31453 -0.660186 0
M  V30 11113 H 1031.24 -1.89083 -3.71892 0
M  V30 11114 H 1029.87 -0.939661 -3.08821 0
M  V30 11115 H 1028.92 -3.15788 -2.12089 0
M  V30 11116 H 1030.23 -4.01445 -2.96047 0
M  V30 11117 H 1029.38 -3.18341 -5.16473 0
M  V30 11118 H 1028.12 -2.22338 -4.3407 0
M  V30 11119 H 1027.13 -4.32503 -3.39442 0
M  V30 11120 H 1028.35 -5.29574 -4.25122 0
M  V30 11121 H 1026.3 -3.47554 -5.56365 0
M  V30 11122 H 1026.22 -5.20481 -5.48302 0
M  V30 11123 H 1027.48 -4.4487 -6.40086 0
M  V30 11124 N 1031.71 0.701592 -1.41122 0
M  V30 11125 C 1032.94 1.49049 -1.43499 0
M  V30 11126 C 1033.36 1.88761 -0.0385684 0
M  V30 11127 O 1032.71 1.56384 0.940755 0
M  V30 11128 C 1032.76 2.7569 -2.33832 0
M  V30 11129 O 1032.49 2.37653 -3.68039 0
M  V30 11130 C 1033.99 3.69479 -2.44949 0
M  V30 11131 H 1031.21 0.459519 -0.488961 0
M  V30 11132 H 1033.75 0.864318 -1.85337 0
M  V30 11133 H 1031.91 3.34559 -1.95318 0
M  V30 11134 H 1032.32 3.19241 -4.16156 0
M  V30 11135 H 1033.79 4.55139 -3.12334 0
M  V30 11136 H 1034.27 4.13553 -1.47887 0
M  V30 11137 H 1034.88 3.16517 -2.84072 0
M  V30 11138 N 1033.19 1.2685 0.935242 0
M  V30 11139 C 1034.44 1.12522 1.67878 0
M  V30 11140 C 1034.76 -0.330894 1.92172 0
M  V30 11141 O 1034.03 -1.23259 1.52263 0
M  V30 11142 H 1032.61 0.413418 0.622169 0
M  V30 11143 H 1035.27 1.59267 1.12339 0
M  V30 11144 H 1034.37 1.64853 2.65009 0
M  V30 11145 N 1034.67 -1.14067 1.0875 0
M  V30 11146 C 1035.9 -1.89041 0.840902 0
M  V30 11147 C 1036.31 -1.78768 -0.60725 0
M  V30 11148 O 1035.67 -1.14945 -1.41753 0
M  V30 11149 C 1035.72 -3.38891 1.25838 0
M  V30 11150 O 1035.44 -3.48886 2.64972 0
M  V30 11151 C 1036.94 -4.30852 1.04315 0
M  V30 11152 H 1034.16 -0.598685 0.303014 0
M  V30 11153 H 1036.71 -1.44438 1.44769 0
M  V30 11154 H 1034.86 -3.81103 0.695627 0
M  V30 11155 H 1035.28 -4.41989 2.82393 0
M  V30 11156 H 1036.75 -5.34353 1.38461 0
M  V30 11157 H 1037.23 -4.39196 -0.0195784 0
M  V30 11158 H 1037.83 -3.944 1.59151 0
M  V30 11159 N 1036.15 -0.873678 -1.31166 0
M  V30 11160 C 1037.38 -0.501043 -2.00742 0
M  V30 11161 C 1037.79 0.907477 -1.65561 0
M  V30 11162 O 1037.15 1.59507 -0.886771 0
M  V30 11163 C 1037.2 -0.652877 -3.55556 0
M  V30 11164 O 1036.92 -2.00593 -3.89479 0
M  V30 11165 C 1038.42 -0.281742 -4.42404 0
M  V30 11166 H 1035.64 -0.194829 -0.642092 0
M  V30 11167 H 1038.19 -1.17587 -1.67313 0
M  V30 11168 H 1036.34 -0.0255627 -3.87392 0
M  V30 11169 H 1036.75 -2.01638 -4.84193 0
M  V30 11170 H 1038.23 -0.43892 -5.50252 0
M  V30 11171 H 1038.71 0.779389 -4.32229 0
M  V30 11172 H 1039.31 -0.88491 -4.15992 0
M  V30 11173 N 1037.63 1.44308 -0.633487 0
M  V30 11174 C 1038.57 2.32455 0.0821956 0
M  V30 11175 C 1039.57 1.47482 0.833388 0
M  V30 11176 O 1040.77 1.63812 0.746021 0
M  V30 11177 H 1037.15 0.750631 0.045352 0
M  V30 11178 H 1039.12 2.90566 -0.679282 0
M  V30 11179 C 1037.87 3.31512 1.04858 0
M  V30 11180 H 1037.19 3.96908 0.479979 0
M  V30 11181 H 1038.63 3.95865 1.51879 0
M  V30 11182 C 1037.09 2.60615 2.13498 0
M  V30 11183 O 1037.62 2.40682 3.21613 0
M  V30 11184 N 1035.83 2.20315 1.89499 0
M  V30 11185 H 1035.37 2.36726 1.01581 0
M  V30 11186 H 1035.33 1.73205 2.62388 0
M  V30 11187 N 1039.1 0.374177 1.53094 0
M  V30 11188 C 1040.05 -0.48326 2.27524 0
M  V30 11189 C 1041.05 -1.07606 1.30833 0
M  V30 11190 O 1042.25 -1.01827 1.48429 0
M  V30 11191 H 1038.63 -0.174578 0.731455 0
M  V30 11192 H 1040.6 0.166156 2.97937 0
M  V30 11193 C 1039.35 -1.6065 3.08362 0
M  V30 11194 H 1038.67 -1.15966 3.82612 0
M  V30 11195 H 1040.11 -2.18099 3.63606 0
M  V30 11196 C 1038.57 -2.55381 2.19732 0
M  V30 11197 O 1039.1 -3.58414 1.8139 0
M  V30 11198 N 1037.31 -2.24769 1.84194 0
M  V30 11199 H 1036.85 -1.41018 2.15573 0
M  V30 11200 H 1036.81 -2.88404 1.25181 0
M  V30 11201 N 1040.58 -1.57259 0.103575 0
M  V30 11202 C 1041.53 -2.15727 -0.869739 0
M  V30 11203 C 1042.52 -1.10236 -1.28625 0
M  V30 11204 O 1043.73 -1.28567 -1.25979 0
M  V30 11205 H 1040.11 -0.690204 -0.298535 0
M  V30 11206 H 1042.08 -2.96317 -0.351984 0
M  V30 11207 C 1040.83 -2.75905 -2.11593 0
M  V30 11208 H 1040.15 -3.56768 -1.80434 0
M  V30 11209 H 1041.59 -3.20373 -2.77736 0
M  V30 11210 C 1040.05 -1.72218 -2.89556 0
M  V30 11211 O 1040.58 -1.16623 -3.84398 0
M  V30 11212 N 1038.78 -1.42514 -2.53255 0
M  V30 11213 H 1038.33 -1.87914 -1.76198 0
M  V30 11214 H 1038.29 -0.733782 -3.05717 0
M  V30 11215 N 1042.06 0.170153 -1.56679 0
M  V30 11216 C 1043.31 0.887906 -1.8233 0
M  V30 11217 C 1043.64 1.81845 -0.681608 0
M  V30 11218 O 1042.91 1.9191 0.316362 0
M  V30 11219 C 1043.2 1.68256 -3.18374 0
M  V30 11220 C 1043.05 0.775059 -4.43072 0
M  V30 11221 C 1044.37 2.65001 -3.51372 0
M  V30 11222 H 1041.49 0.32135 -0.663252 0
M  V30 11223 H 1044.13 0.154065 -1.89374 0
M  V30 11224 H 1042.28 2.30817 -3.12499 0
M  V30 11225 H 1043.95 0.162234 -4.61015 0
M  V30 11226 H 1042.2 0.0831809 -4.3372 0
M  V30 11227 H 1042.87 1.36661 -5.34816 0
M  V30 11228 H 1045.34 2.12566 -3.57708 0
M  V30 11229 H 1044.22 3.17667 -4.47637 0
M  V30 11230 H 1044.48 3.45255 -2.76136 0
M  V30 11231 N 1043.54 1.5137 0.438746 0
M  V30 11232 C 1044.82 1.54508 1.19944 0
M  V30 11233 C 1045.2 0.308525 2.08833 0
M  V30 11234 O 1044.54 -0.706461 2.17305 0
M  V30 11235 C 1044.75 2.85833 2.00251 0
M  V30 11236 C 1046.1 3.37729 2.5734 0
M  V30 11237 O 1047.13 2.87374 2.10463 0
M  V30 11238 O 1045.98 4.25589 3.42836 0
M  V30 11239 H 1043.08 0.621132 0.546007 0
M  V30 11240 H 1045.62 1.63682 0.447931 0
M  V30 11241 H 1044.4 3.67291 1.34955 0
M  V30 11242 H 1044.02 2.79815 2.8247 0
M  V30 11243 N 1045.02 -0.694098 1.41492 0
M  V30 11244 C 1046.24 -1.48286 1.44288 0
M  V30 11245 C 1046.66 -1.88737 0.0485783 0
M  V30 11246 O 1046.02 -1.56881 -0.932449 0
M  V30 11247 C 1046.07 -2.74446 2.3529 0
M  V30 11248 O 1045.79 -2.35698 3.69294 0
M  V30 11249 C 1047.29 -3.68175 2.46905 0
M  V30 11250 H 1044.51 -0.45692 0.491391 0
M  V30 11251 H 1047.05 -0.854477 1.85793 0
M  V30 11252 H 1045.21 -3.33518 1.9709 0
M  V30 11253 H 1045.62 -3.17029 4.17843 0
M  V30 11254 H 1047.1 -4.53476 3.14743 0
M  V30 11255 H 1047.57 -4.12763 1.50078 0
M  V30 11256 H 1048.18 -3.15006 2.85747 0
M  V30 11257 N 1046.49 -1.27344 -0.928501 0
M  V30 11258 C 1047.74 -1.14813 -1.67897 0
M  V30 11259 C 1048.1 0.303129 -1.89997 0
M  V30 11260 O 1047.39 1.21844 -1.47867 0
M  V30 11261 C 1047.58 -1.86439 -3.04918 0
M  V30 11262 C 1047.41 -3.38381 -2.96189 0
M  V30 11263 C 1046.18 -4.07698 -2.98514 0
M  V30 11264 C 1048.38 -4.3437 -2.75367 0
M  V30 11265 N 1046.36 -5.46215 -2.80218 0
M  V30 11266 C 1047.73 -5.60149 -2.65768 0
M  V30 11267 C 1049.79 -4.2447 -2.60249 0
M  V30 11268 C 1048.49 -6.77157 -2.42593 0
M  V30 11269 C 1050.52 -5.41198 -2.3845 0
M  V30 11270 C 1049.88 -6.65933 -2.29593 0
M  V30 11271 H 1045.98 -0.47499 -0.621215 0
M  V30 11272 H 1048.56 -1.60802 -1.09776 0
M  V30 11273 H 1046.73 -1.42907 -3.61154 0
M  V30 11274 H 1048.46 -1.6642 -3.68899 0
M  V30 11275 H 1045.22 -3.59158 -3.08711 0
M  V30 11276 H 1045.64 -6.18985 -2.74203 0
M  V30 11277 H 1050.29 -3.28756 -2.65856 0
M  V30 11278 H 1048 -7.72955 -2.35725 0
M  V30 11279 H 1051.59 -5.35417 -2.27639 0
M  V30 11280 H 1050.47 -7.54732 -2.12952 0
M  V30 11281 N 1047.97 1.13488 -1.09353 0
M  V30 11282 C 1049.22 1.84748 -0.829126 0
M  V30 11283 C 1049.55 1.83485 0.645247 0
M  V30 11284 O 1048.8 1.26767 1.49093 0
M  V30 11285 C 1049.1 3.32584 -1.30854 0
M  V30 11286 C 1048.77 3.54028 -2.7924 0
M  V30 11287 C 1047.43 3.59588 -3.19765 0
M  V30 11288 C 1049.78 3.62058 -3.74918 0
M  V30 11289 C 1047.11 3.70712 -4.54741 0
M  V30 11290 C 1049.46 3.7471 -5.09682 0
M  V30 11291 C 1048.13 3.78523 -5.49797 0
M  V30 11292 H 1047.4 0.67604 -0.303399 0
M  V30 11293 H 1050.04 1.33989 -1.36818 0
M  V30 11294 H 1048.35 3.85689 -0.689275 0
M  V30 11295 H 1050.04 3.86166 -1.08059 0
M  V30 11296 H 1046.63 3.50354 -2.4688 0
M  V30 11297 H 1050.82 3.57043 -3.44723 0
M  V30 11298 H 1046.07 3.71931 -4.8526 0
M  V30 11299 H 1050.25 3.79866 -5.83674 0
M  V30 11300 H 1047.88 3.86895 -6.54382 0
M  V30 11301 N 1049.45 0.880621 1.30701 0
M  V30 11302 C 1050.41 0.349087 2.26526 0
M  V30 11303 C 1051.41 -0.505973 1.52632 0
M  V30 11304 O 1052.6 -0.313751 1.71351 0
M  V30 11305 C 1049.74 -0.503023 3.37168 0
M  V30 11306 H 1050.93 1.19516 2.75056 0
M  V30 11307 H 1048.48 0.657107 1.41816 0
M  V30 11308 H 1049.22 -1.36986 2.93948 0
M  V30 11309 H 1049 0.109389 3.91947 0
M  V30 11310 H 1050.49 -0.866845 4.08504 0
M  V30 11311 N 1050.93 -1.4397 0.641131 0
M  V30 11312 C 1052.18 -2.01548 0.149333 0
M  V30 11313 C 1052.5 -1.50759 -1.23679 0
M  V30 11314 O 1051.77 -0.715257 -1.82376 0
M  V30 11315 H 1050.35 -0.745173 0.0522161 0
M  V30 11316 H 1053.01 -1.7634 0.830082 0
M  V30 11317 H 1052.11 -3.11851 0.124676 0
M  V30 11318 N 1052.41 -0.382291 -1.52893 0
M  V30 11319 C 1053.66 0.203342 -2.00672 0
M  V30 11320 C 1053.97 1.48487 -1.27322 0
M  V30 11321 O 1055.18 2.15013 -1.65776 0
M  V30 11322 C 1053.63 0.412922 -3.57523 0
M  V30 11323 C 1053.24 -0.854949 -4.39767 0
M  V30 11324 C 1054.98 0.955301 -4.13611 0
M  V30 11325 C 1052.89 -0.614033 -5.88204 0
M  V30 11326 H 1051.82 0.0797635 -0.749769 0
M  V30 11327 H 1054.47 -0.50361 -1.76454 0
M  V30 11328 H 1052.85 1.18155 -3.77962 0
M  V30 11329 H 1054.03 -1.62765 -4.31096 0
M  V30 11330 H 1052.34 -1.32176 -3.94865 0
M  V30 11331 H 1054.94 1.15114 -5.22162 0
M  V30 11332 H 1055.28 1.92233 -3.69259 0
M  V30 11333 H 1055.82 0.24642 -3.97036 0
M  V30 11334 H 1052.55 -1.55187 -6.36865 0
M  V30 11335 H 1052.07 0.119865 -5.9968 0
M  V30 11336 H 1053.75 -0.245895 -6.46533 0
M  V30 11337 N 1053.89 1.57202 -0.111913 0
M  V30 11338 C 1055.16 1.86459 0.590972 0
M  V30 11339 C 1055.54 1.01182 1.85271 0
M  V30 11340 O 1054.89 0.0887891 2.28327 0
M  V30 11341 C 1055.1 3.37455 0.890225 0
M  V30 11342 C 1056.45 4.05895 1.24638 0
M  V30 11343 O 1057.47 3.42433 0.980713 0
M  V30 11344 O 1056.33 5.17903 1.74466 0
M  V30 11345 H 1053.43 0.771652 0.297459 0
M  V30 11346 H 1055.97 1.69072 -0.145882 0
M  V30 11347 H 1054.74 3.913 -0.00419012 0
M  V30 11348 H 1054.37 3.60248 1.68248 0
M  V30 11349 N 1055.36 -0.161842 1.56767 0
M  V30 11350 C 1056.61 -0.875192 1.82167 0
M  V30 11351 C 1056.93 -1.82367 0.690444 0
M  V30 11352 O 1056.2 -1.93756 -0.289023 0
M  V30 11353 H 1054.78 -0.326178 0.672024 0
M  V30 11354 H 1057.44 -0.159392 1.94247 0
M  V30 11355 H 1056.54 -1.44639 2.76561 0
M  V30 11356 N 1056.84 -1.516 -0.430713 0
M  V30 11357 C 1058.07 -1.687 -1.20644 0
M  V30 11358 C 1058.49 -0.386555 -1.84085 0
M  V30 11359 O 1057.85 0.653952 -1.69095 0
M  V30 11360 C 1057.9 -2.80887 -2.2613 0
M  V30 11361 O 1057 -2.44952 -3.31772 0
M  V30 11362 H 1056.34 -0.562289 -0.353167 0
M  V30 11363 H 1058.87 -1.98198 -0.507807 0
M  V30 11364 H 1058.88 -3.05167 -2.70809 0
M  V30 11365 H 1057.56 -3.75249 -1.79334 0
M  V30 11366 H 1056.13 -2.31267 -2.92523 0
M  V30 11367 N 1058.32 0.686584 -1.41858 0
M  V30 11368 C 1059.55 1.47519 -1.45072 0
M  V30 11369 C 1059.96 1.88709 -0.0585868 0
M  V30 11370 O 1059.32 1.57373 0.924116 0
M  V30 11371 C 1059.37 2.73195 -2.36742 0
M  V30 11372 O 1059.09 2.33736 -3.70539 0
M  V30 11373 C 1060.59 3.66861 -2.48854 0
M  V30 11374 H 1057.81 0.454307 -0.493808 0
M  V30 11375 H 1060.36 0.844612 -1.86243 0
M  V30 11376 H 1058.51 3.32468 -1.98856 0
M  V30 11377 H 1058.93 3.14809 -4.19518 0
M  V30 11378 H 1060.4 4.51801 -3.17143 0
M  V30 11379 H 1060.88 4.11961 -1.52265 0
M  V30 11380 H 1061.48 3.13486 -2.87414 0
M  V30 11381 N 1059.8 1.27835 0.921735 0
M  V30 11382 C 1061.04 1.14692 1.67253 0
M  V30 11383 C 1061.38 -0.305384 1.91784 0
M  V30 11384 O 1060.65 -1.22286 1.51249 0
M  V30 11385 C 1060.93 1.93743 3.03539 0
M  V30 11386 C 1060.79 3.46991 2.86212 0
M  V30 11387 C 1062.11 1.74658 4.03959 0
M  V30 11388 H 1059.23 0.418021 0.606983 0
M  V30 11389 H 1061.87 1.5706 1.06922 0
M  V30 11390 H 1060.02 1.57738 3.55037 0
M  V30 11391 H 1061.69 3.92858 2.41785 0
M  V30 11392 H 1059.93 3.73029 2.21432 0
M  V30 11393 H 1060.6 3.97551 3.82958 0
M  V30 11394 H 1063.08 2.06063 3.61493 0
M  V30 11395 H 1061.96 2.32353 4.97296 0
M  V30 11396 H 1062.22 0.696019 4.36587 0
M  V30 11397 N 1061.28 -1.12907 1.09954 0
M  V30 11398 C 1062.5 -1.88138 0.860905 0
M  V30 11399 C 1062.92 -1.79402 -0.588256 0
M  V30 11400 O 1062.28 -1.16442 -1.40526 0
M  V30 11401 C 1062.33 -3.37537 1.29425 0
M  V30 11402 O 1062.05 -3.46056 2.68658 0
M  V30 11403 C 1063.55 -4.29721 1.08879 0
M  V30 11404 H 1060.77 -0.595437 0.309347 0
M  V30 11405 H 1063.31 -1.42894 1.46292 0
M  V30 11406 H 1061.47 -3.80344 0.736009 0
M  V30 11407 H 1061.88 -4.38969 2.87065 0
M  V30 11408 H 1063.36 -5.32854 1.4412 0
M  V30 11409 H 1063.83 -4.39192 0.0270053 0
M  V30 11410 H 1064.44 -3.9269 1.63325 0
M  V30 11411 N 1062.75 -0.88754 -1.30232 0
M  V30 11412 C 1064 -0.503322 -1.95319 0
M  V30 11413 C 1064.32 0.952817 -1.70824 0
M  V30 11414 O 1065.52 1.444 -2.29915 0
M  V30 11415 C 1063.98 -0.849216 -3.49738 0
M  V30 11416 C 1063.59 -2.3233 -3.83049 0
M  V30 11417 C 1065.33 -0.53432 -4.21124 0
M  V30 11418 C 1063.24 -2.61069 -5.30657 0
M  V30 11419 H 1062.17 -0.1845 -0.731078 0
M  V30 11420 H 1064.82 -1.08287 -1.48143 0
M  V30 11421 H 1063.2 -0.198729 -3.95501 0
M  V30 11422 H 1064.37 -3.01832 -3.48187 0
M  V30 11423 H 1062.69 -2.60599 -3.24773 0
M  V30 11424 H 1065.29 -0.726039 -5.29748 0
M  V30 11425 H 1065.63 0.526434 -4.12958 0
M  V30 11426 H 1066.16 -1.14211 -3.81052 0
M  V30 11427 H 1062.9 -3.65895 -5.43876 0
M  V30 11428 H 1062.42 -1.96179 -5.6681 0
M  V30 11429 H 1064.1 -2.46703 -5.98119 0
M  V30 11430 N 1064.23 1.43628 -0.648757 0
M  V30 11431 C 1065.46 2.06217 -0.167945 0
M  V30 11432 C 1065.88 1.486 1.16462 0
M  V30 11433 O 1065.23 0.61559 1.71804 0
M  V30 11434 C 1065.28 3.6144 -0.0660114 0
M  V30 11435 O 1065 4.16914 -1.34589 0
M  V30 11436 C 1066.51 4.41097 0.441408 0
M  V30 11437 H 1063.73 0.665228 -0.0878237 0
M  V30 11438 H 1066.27 1.84207 -0.888144 0
M  V30 11439 H 1064.42 3.82651 0.604722 0
M  V30 11440 H 1064.84 5.10537 -1.20218 0
M  V30 11441 H 1066.31 5.50066 0.461697 0
M  V30 11442 H 1066.79 4.13803 1.47187 0
M  V30 11443 H 1067.4 4.24845 -0.19668 0
M  V30 11444 N 1065.71 0.390394 1.52688 0
M  V30 11445 C 1066.96 -0.184195 2.02564 0
M  V30 11446 C 1067.31 -1.44379 1.27171 0
M  V30 11447 O 1066.6 -1.88112 0.36395 0
M  V30 11448 C 1066.8 -0.50468 3.53819 0
M  V30 11449 C 1066.63 0.722304 4.43861 0
M  V30 11450 C 1065.4 1.24189 4.89801 0
M  V30 11451 C 1067.6 1.59494 4.88944 0
M  V30 11452 N 1065.58 2.42631 5.63918 0
M  V30 11453 C 1066.95 2.62577 5.61652 0
M  V30 11454 C 1069 1.61491 4.70983 0
M  V30 11455 C 1067.71 3.67544 6.18307 0
M  V30 11456 C 1069.73 2.65365 5.28522 0
M  V30 11457 C 1069.09 3.6717 6.01137 0
M  V30 11458 H 1065.19 -0.0294605 0.781445 0
M  V30 11459 H 1067.78 0.54053 1.87046 0
M  V30 11460 H 1065.95 -1.19846 3.69448 0
M  V30 11461 H 1067.68 -1.06652 3.90394 0
M  V30 11462 H 1064.44 0.802731 4.66747 0
M  V30 11463 H 1064.86 3.02564 6.05627 0
M  V30 11464 H 1069.5 0.841291 4.14345 0
M  V30 11465 H 1067.22 4.45773 6.74027 0
M  V30 11466 H 1070.81 2.67795 5.16505 0
M  V30 11467 H 1069.69 4.46228 6.44864 0
M  V30 11468 N 1067.19 -1.57141 0.120249 0
M  V30 11469 C 1068.43 -1.95527 -0.538245 0
M  V30 11470 C 1068.77 -1.00373 -1.6625 0
M  V30 11471 O 1068.04 -0.0411734 -1.94456 0
M  V30 11472 C 1068.33 -3.43843 -1.06976 0
M  V30 11473 C 1068.18 -4.49771 0.0511596 0
M  V30 11474 C 1069.5 -3.94035 -1.96022 0
M  V30 11475 H 1066.62 -0.710958 -0.194183 0
M  V30 11476 H 1069.26 -1.88986 0.196061 0
M  V30 11477 H 1067.41 -3.49548 -1.69553 0
M  V30 11478 H 1069.08 -4.56163 0.686503 0
M  V30 11479 H 1067.32 -4.27882 0.714127 0
M  V30 11480 H 1067.99 -5.50812 -0.361995 0
M  V30 11481 H 1070.47 -3.9064 -1.43315 0
M  V30 11482 H 1069.35 -4.98329 -2.3013 0
M  V30 11483 H 1069.61 -3.34803 -2.8872 0
M  V30 11484 N 1068.67 0.153526 -1.5685 0
M  V30 11485 C 1069.91 0.865519 -1.82629 0
M  V30 11486 C 1070.24 1.81999 -0.700105 0
M  V30 11487 O 1069.51 1.93907 0.278744 0
M  V30 11488 H 1068.09 0.32261 -0.673745 0
M  V30 11489 H 1070.75 0.149088 -1.94329 0
M  V30 11490 H 1069.84 1.43171 -2.77324 0
M  V30 11491 N 1070.14 1.51827 0.422667 0
M  V30 11492 C 1071.56 1.40328 0.760275 0
M  V30 11493 C 1071.76 0.497119 1.95272 0
M  V30 11494 O 1070.82 -0.0422083 2.52465 0
M  V30 11495 C 1072.13 2.82622 1.02689 0
M  V30 11496 C 1073.68 2.91874 1.13044 0
M  V30 11497 C 1074.15 4.35107 1.4299 0
M  V30 11498 N 1075.64 4.3828 1.49883 0
M  V30 11499 C 1076.38 5.46153 1.74655 0
M  V30 11500 N 1075.87 6.64165 1.9712 0
M  V30 11501 N 1077.67 5.33651 1.76558 0
M  V30 11502 H 1069.82 2.09285 -0.362455 0
M  V30 11503 H 1072.08 0.94273 -0.0998161 0
M  V30 11504 H 1071.79 3.50991 0.223226 0
M  V30 11505 H 1071.66 3.22844 1.95068 0
M  V30 11506 H 1074.05 2.23694 1.92471 0
M  V30 11507 H 1074.13 2.55128 0.185326 0
M  V30 11508 H 1073.77 5.03841 0.640848 0
M  V30 11509 H 1073.7 4.69377 2.38731 0
M  V30 11510 H 1076.19 3.53206 1.34366 0
M  V30 11511 H 1076.51 7.42165 2.15434 0
M  V30 11512 H 1074.85 6.67255 1.94413 0
M  V30 11513 H 1078.04 4.40436 1.58536 0
M  V30 11514 H 1078.22 6.17798 1.95525 0
M  V30 11515 N 1071.62 -0.679052 1.4222 0
M  V30 11516 C 1072.9 -1.43473 1.32947 0
M  V30 11517 C 1073.28 -2.11071 -0.0351689 0
M  V30 11518 O 1072.63 -2.02925 -1.05042 0
M  V30 11519 C 1072.84 -2.44065 2.49466 0
M  V30 11520 C 1074.19 -3.08834 2.91387 0
M  V30 11521 O 1075.21 -2.54392 2.49325 0
M  V30 11522 O 1074.07 -4.07478 3.64175 0
M  V30 11523 H 1071.16 -0.639743 0.524078 0
M  V30 11524 H 1073.71 -0.708134 1.54219 0
M  V30 11525 H 1072.48 -1.92884 3.40457 0
M  V30 11526 H 1072.1 -3.24212 2.30158 0
M  V30 11527 N 1073.1 -1.28322 -0.914942 0
M  V30 11528 C 1074.05 -1.12003 -2.03858 0
M  V30 11529 C 1075.04 -0.0396287 -1.69354 0
M  V30 11530 O 1076.25 -0.198309 -1.78904 0
M  V30 11531 H 1072.62 -0.34552 -0.667922 0
M  V30 11532 H 1074.59 -2.07168 -2.14765 0
M  V30 11533 C 1073.34 -0.797402 -3.38433 0
M  V30 11534 H 1072.67 -1.62071 -3.65476 0
M  V30 11535 H 1074.11 -0.723165 -4.17787 0
M  V30 11536 C 1072.57 0.498807 -3.33187 0
M  V30 11537 O 1073.1 1.52946 -3.71444 0
M  V30 11538 N 1071.3 0.499101 -2.86282 0
M  V30 11539 H 1070.85 -0.340056 -2.55346 0
M  V30 11540 H 1070.81 1.36641 -2.83155 0
M  V30 11541 N 1074.58 1.12322 -1.10551 0
M  V30 11542 C 1075.53 2.20166 -0.750317 0
M  V30 11543 C 1076.52 1.67484 0.254066 0
M  V30 11544 O 1077.73 1.79637 0.114309 0
M  V30 11545 H 1074.1 0.717642 -0.22471 0
M  V30 11546 H 1076.07 2.47378 -1.66873 0
M  V30 11547 C 1074.82 3.47126 -0.199651 0
M  V30 11548 H 1074.14 3.88011 -0.963735 0
M  V30 11549 H 1075.58 4.23999 0.0108033 0
M  V30 11550 C 1074.04 3.19526 1.06792 0
M  V30 11551 O 1074.57 3.39368 2.14923 0
M  V30 11552 N 1072.78 2.73324 0.987032 0
M  V30 11553 H 1072.33 2.57378 0.106997 0
M  V30 11554 H 1072.28 2.55234 1.83584 0
M  V30 11555 N 1076.06 0.894434 1.2976 0
M  V30 11556 C 1076.99 0.325525 2.26877 0
M  V30 11557 C 1078 -0.525218 1.54095 0
M  V30 11558 O 1079.19 -0.343231 1.75169 0
M  V30 11559 C 1076.29 -0.554952 3.34325 0
M  V30 11560 C 1075.46 0.268868 4.36573 0
M  V30 11561 C 1074.52 -0.543601 5.23385 0
M  V30 11562 O 1073.55 0.0370454 5.69188 0
M  V30 11563 N 1074.75 -1.85079 5.50205 0
M  V30 11564 H 1077.52 1.16021 2.76332 0
M  V30 11565 H 1075.08 0.758382 1.43039 0
M  V30 11566 H 1077.07 -1.10476 3.89329 0
M  V30 11567 H 1075.64 -1.29031 2.84727 0
M  V30 11568 H 1074.86 1.0001 3.81302 0
M  V30 11569 H 1076.15 0.833248 5.01931 0
M  V30 11570 H 1075.54 -2.34533 5.14792 0
M  V30 11571 H 1074.1 -2.34784 6.08046 0
M  V30 11572 N 1077.53 -1.43282 0.656365 0
M  V30 11573 C 1078.95 -1.85012 0.250475 0
M  V30 11574 C 1079.3 -1.54944 -1.20361 0
M  V30 11575 O 1078.42 -0.999983 -1.9191 0
M  V30 11576 C 1079.02 -3.35827 0.447815 0
M  V30 11577 C 1077.58 -3.76277 0.0962151 0
M  V30 11578 C 1076.72 -2.66988 0.749168 0
M  V30 11579 H 1079.67 -1.3339 0.85982 0
M  V30 11580 H 1079.69 -3.7927 -0.305726 0
M  V30 11581 H 1079.21 -3.5768 1.5062 0
M  V30 11582 H 1077.31 -3.60035 -0.959449 0
M  V30 11583 H 1077.42 -4.76227 0.523875 0
M  V30 11584 H 1075.78 -2.54048 0.18212 0
M  V30 11585 H 1076.57 -2.91669 1.81064 0
M  V30 11586 N 1079.01 -0.398486 -1.52479 0
M  V30 11587 C 1080.24 0.180557 -2.06111 0
M  V30 11588 C 1080.66 1.39751 -1.26945 0
M  V30 11589 O 1080.01 1.79699 -0.318497 0
M  V30 11590 C 1080.06 0.541573 -3.5742 0
M  V30 11591 O 1079.79 -0.627043 -4.33589 0
M  V30 11592 C 1081.29 1.17549 -4.27431 0
M  V30 11593 H 1078.51 0.0250754 -0.670531 0
M  V30 11594 H 1081.05 -0.566368 -1.96501 0
M  V30 11595 H 1079.21 1.23839 -3.67073 0
M  V30 11596 H 1079.62 -0.328233 -5.23472 0
M  V30 11597 H 1081.09 1.37839 -5.34513 0
M  V30 11598 H 1081.57 2.14553 -3.83228 0
M  V30 11599 H 1082.18 0.51918 -4.22119 0
M  V30 11600 N 1080.49 1.57075 -0.12858 0
M  V30 11601 C 1081.44 2.15816 0.818064 0
M  V30 11602 C 1082.41 1.08581 1.25696 0
M  V30 11603 O 1083.59 1.36535 1.33277 0
M  V30 11604 C 1080.73 2.76943 2.05905 0
M  V30 11605 C 1079.85 3.98514 1.66764 0
M  V30 11606 C 1078.98 4.47698 2.85902 0
M  V30 11607 C 1078.02 5.61778 2.43047 0
M  V30 11608 N 1077.16 6.05662 3.5513 0
M  V30 11609 H 1082 2.9638 0.310318 0
M  V30 11610 H 1079.53 1.46418 0.141472 0
M  V30 11611 H 1081.49 3.10519 2.78629 0
M  V30 11612 H 1080.12 1.99053 2.54122 0
M  V30 11613 H 1079.17 3.71038 0.838766 0
M  V30 11614 H 1080.49 4.81215 1.31277 0
M  V30 11615 H 1079.64 4.83233 3.66839 0
M  V30 11616 H 1078.38 3.63967 3.24622 0
M  V30 11617 H 1077.38 5.25838 1.60544 0
M  V30 11618 H 1078.61 6.47282 2.05433 0
M  V30 11619 H 1076.56 5.2487 3.93506 0
M  V30 11620 H 1076.47 6.83242 3.23598 0
M  V30 11621 H 1077.74 6.45838 4.36479 0
M  V30 11622 N 1081.97 -0.145205 1.5693 0
M  V30 11623 C 1082.9 -1.18096 2.01434 0
M  V30 11624 C 1083.88 -1.447 0.894204 0
M  V30 11625 O 1085.07 -1.55589 1.16214 0
M  V30 11626 C 1082.2 -2.51369 2.39647 0
M  V30 11627 C 1081.15 -2.39283 3.54863 0
M  V30 11628 C 1080.48 -3.77283 3.78895 0
M  V30 11629 C 1081.78 -1.8754 4.87469 0
M  V30 11630 H 1083.47 -0.810897 2.8821 0
M  V30 11631 H 1081.02 -0.388624 1.38657 0
M  V30 11632 H 1082.97 -3.24054 2.69382 0
M  V30 11633 H 1081.69 -2.90214 1.49811 0
M  V30 11634 H 1080.35 -1.6905 3.25296 0
M  V30 11635 H 1080 -4.13567 2.86307 0
M  V30 11636 H 1079.7 -3.70057 4.56433 0
M  V30 11637 H 1081.22 -4.51514 4.11057 0
M  V30 11638 H 1082.64 -2.50019 5.1591 0
M  V30 11639 H 1081.03 -1.912 5.68826 0
M  V30 11640 H 1082.1 -0.831194 4.77723 0
M  V30 11641 N 1083.45 -1.52049 -0.414609 0
M  V30 11642 C 1084.68 -1.69433 -1.18221 0
M  V30 11643 C 1085.09 -0.40104 -1.84901 0
M  V30 11644 O 1084.43 0.632342 -1.72474 0
M  V30 11645 C 1084.49 -2.76986 -2.2917 0
M  V30 11646 C 1084.15 -4.18903 -1.82671 0
M  V30 11647 C 1085.15 -5.02929 -1.31751 0
M  V30 11648 C 1082.84 -4.65113 -1.89672 0
M  V30 11649 C 1084.83 -6.31234 -0.884461 0
M  V30 11650 C 1082.52 -5.93408 -1.45978 0
M  V30 11651 C 1083.52 -6.76297 -0.9545 0
M  V30 11652 O 1083.2 -8.02191 -0.523852 0
M  V30 11653 H 1082.94 -0.571228 -0.36149 0
M  V30 11654 H 1085.49 -1.99355 -0.494643 0
M  V30 11655 H 1083.72 -2.42428 -3.01273 0
M  V30 11656 H 1085.41 -2.83023 -2.90951 0
M  V30 11657 H 1086.17 -4.68422 -1.2572 0
M  V30 11658 H 1082.05 -4.00702 -2.27945 0
M  V30 11659 H 1085.6 -6.95881 -0.489383 0
M  V30 11660 H 1081.49 -6.27424 -1.51687 0
M  V30 11661 H 1082.26 -8.15934 -0.647656 0
M  V30 11662 N 1084.93 0.6715 -1.42579 0
M  V30 11663 C 1086.17 1.42871 -1.42941 0
M  V30 11664 C 1086.49 1.94941 -0.0480483 0
M  V30 11665 O 1085.76 1.73275 0.913921 0
M  V30 11666 H 1084.34 0.530189 -0.526221 0
M  V30 11667 H 1087.01 0.793219 -1.78028 0
M  V30 11668 H 1086.1 2.2801 -2.13114 0
M  V30 11669 N 1086.4 1.28806 0.908124 0
M  V30 11670 C 1087.37 1.13228 1.99279 0
M  V30 11671 C 1088.37 0.0702456 1.60646 0
M  V30 11672 O 1089.56 0.316494 1.71301 0
M  V30 11673 C 1086.69 0.729629 3.33 0
M  V30 11674 H 1087.88 2.09566 2.14528 0
M  V30 11675 H 1085.43 1.11872 1.09153 0
M  V30 11676 H 1086.17 -0.234268 3.23453 0
M  V30 11677 H 1085.95 1.49688 3.62403 0
M  V30 11678 H 1087.44 0.643449 4.12613 0
M  V30 11679 N 1087.88 -1.11734 1.11145 0
M  V30 11680 C 1089.11 -1.87755 0.881062 0
M  V30 11681 C 1089.53 -1.79461 -0.563496 0
M  V30 11682 O 1088.89 -1.15481 -1.39763 0
M  V30 11683 C 1088.94 -3.34641 1.34342 0
M  V30 11684 O 1088.04 -4.09195 0.513157 0
M  V30 11685 H 1087.38 -0.583111 0.317613 0
M  V30 11686 H 1089.91 -1.41256 1.48013 0
M  V30 11687 H 1089.92 -3.85486 1.33658 0
M  V30 11688 H 1088.6 -3.39994 2.39534 0
M  V30 11689 H 1087.17 -3.68269 0.585833 0
M  V30 11690 N 1089.36 -0.901303 -1.29284 0
M  V30 11691 C 1090.61 -0.527 -1.95108 0
M  V30 11692 C 1090.93 0.930065 -1.71391 0
M  V30 11693 O 1090.2 1.65601 -1.04658 0
M  V30 11694 H 1088.78 -0.191903 -0.721929 0
M  V30 11695 H 1091.44 -1.14795 -1.57506 0
M  V30 11696 H 1090.54 -0.710945 -3.03895 0
M  V30 11697 N 1090.84 1.42931 -0.663954 0
M  V30 11698 C 1091.8 2.29197 0.0117626 0
M  V30 11699 C 1092.8 1.42767 0.739875 0
M  V30 11700 O 1093.99 1.64278 0.579509 0
M  V30 11701 C 1091.12 3.2505 1.02738 0
M  V30 11702 H 1092.32 2.90438 -0.747391 0
M  V30 11703 H 1089.87 1.5039 -0.425733 0
M  V30 11704 H 1090.6 2.68726 1.8154 0
M  V30 11705 H 1090.39 3.88785 0.508809 0
M  V30 11706 H 1091.88 3.89771 1.49893 0
M  V30 11707 N 1092.32 0.406567 1.52266 0
M  V30 11708 C 1093.25 -0.464709 2.23418 0
M  V30 11709 C 1094.23 -1.05008 1.24146 0
M  V30 11710 O 1095.41 -1.09843 1.53188 0
M  V30 11711 C 1092.54 -1.64481 2.96081 0
M  V30 11712 C 1091.58 -1.18307 4.09763 0
M  V30 11713 S 1092.42 -0.150326 5.35289 0
M  V30 11714 C 1093.57 -1.3358 6.11479 0
M  V30 11715 H 1093.81 0.139455 2.96973 0
M  V30 11716 H 1091.34 0.19085 1.53216 0
M  V30 11717 H 1093.3 -2.3215 3.38551 0
M  V30 11718 H 1091.96 -2.22031 2.22174 0
M  V30 11719 H 1091.15 -2.06466 4.59769 0
M  V30 11720 H 1090.75 -0.58505 3.69396 0
M  V30 11721 H 1093.04 -2.25986 6.38699 0
M  V30 11722 H 1093.99 -0.876328 7.02656 0
M  V30 11723 H 1094.4 -1.56044 5.42504 0
M  V30 11724 N 1093.79 -1.57004 0.136909 0
M  V30 11725 C 1095.02 -2.00587 -0.527209 0
M  V30 11726 C 1095.44 -1.01628 -1.58283 0
M  V30 11727 O 1094.8 0.00946934 -1.81298 0
M  V30 11728 C 1094.85 -3.42967 -1.11384 0
M  V30 11729 O 1093.95 -3.46973 -2.22898 0
M  V30 11730 H 1093.3 -0.651155 -0.129976 0
M  V30 11731 H 1095.83 -2.03296 0.230667 0
M  V30 11732 H 1095.84 -3.81555 -1.44499 0
M  V30 11733 H 1094.51 -4.14502 -0.340736 0
M  V30 11734 H 1093.09 -3.20219 -1.91087 0
M  V30 11735 N 1095.27 0.136881 -1.57004 0
M  V30 11736 C 1096.52 0.846257 -1.83088 0
M  V30 11737 C 1096.83 1.81876 -0.719765 0
M  V30 11738 O 1098.04 2.57302 -0.866494 0
M  V30 11739 C 1096.5 1.55559 -3.24545 0
M  V30 11740 C 1096.1 0.624989 -4.43619 0
M  V30 11741 C 1097.85 2.25115 -3.59893 0
M  V30 11742 C 1095.76 1.33653 -5.761 0
M  V30 11743 H 1094.69 0.319768 -0.682836 0
M  V30 11744 H 1097.34 0.0989741 -1.83233 0
M  V30 11745 H 1095.72 2.34887 -3.18817 0
M  V30 11746 H 1096.89 -0.133783 -4.60606 0
M  V30 11747 H 1095.21 0.0373216 -4.16383 0
M  V30 11748 H 1097.8 2.79008 -4.56134 0
M  V30 11749 H 1098.15 3.02084 -2.86446 0
M  V30 11750 H 1098.68 1.52696 -3.67327 0
M  V30 11751 H 1095.42 0.608495 -6.5267 0
M  V30 11752 H 1094.94 2.06776 -5.63031 0
M  V30 11753 H 1096.62 1.87467 -6.19246 0
M  V30 11754 N 1096.75 1.52266 0.40654 0
M  V30 11755 C 1097.98 1.70057 1.1732 0
M  V30 11756 C 1098.39 0.41084 1.84686 0
M  V30 11757 O 1097.73 -0.623187 1.72806 0
M  V30 11758 C 1097.79 2.78197 2.27698 0
M  V30 11759 C 1097.46 4.19866 1.80447 0
M  V30 11760 C 1098.45 5.03621 1.29082 0
M  V30 11761 C 1096.14 4.66112 1.87202 0
M  V30 11762 C 1098.13 6.31694 0.850973 0
M  V30 11763 C 1095.82 5.94174 1.42829 0
M  V30 11764 C 1096.82 6.76794 0.918621 0
M  V30 11765 O 1096.51 8.02458 0.481302 0
M  V30 11766 H 1096.24 0.573137 0.358455 0
M  V30 11767 H 1098.79 1.99615 0.484064 0
M  V30 11768 H 1097.02 2.44022 2.99983 0
M  V30 11769 H 1098.71 2.84562 2.89446 0
M  V30 11770 H 1099.48 4.69083 1.23234 0
M  V30 11771 H 1095.36 4.01905 2.25816 0
M  V30 11772 H 1098.9 6.96131 0.452471 0
M  V30 11773 H 1094.8 6.2822 1.48358 0
M  V30 11774 H 1095.57 8.16266 0.604376 0
M  V30 11775 N 1098.23 -0.663929 1.42933 0
M  V30 11776 C 1099.16 -1.78946 1.43217 0
M  V30 11777 C 1100.17 -1.59426 0.329727 0
M  V30 11778 O 1101.36 -1.68344 0.5935 0
M  V30 11779 C 1098.46 -3.16217 1.21902 0
M  V30 11780 C 1097.64 -3.6249 2.44785 0
M  V30 11781 C 1096.69 -4.78529 2.18853 0
M  V30 11782 O 1095.72 -4.88516 2.92131 0
M  V30 11783 N 1096.92 -5.67994 1.19845 0
M  V30 11784 H 1099.69 -1.79184 2.40236 0
M  V30 11785 H 1097.25 -0.847404 1.37952 0
M  V30 11786 H 1099.24 -3.91517 1.02454 0
M  V30 11787 H 1097.81 -3.10814 0.333676 0
M  V30 11788 H 1097.03 -2.77751 2.79729 0
M  V30 11789 H 1098.32 -3.90151 3.26588 0
M  V30 11790 H 1097.72 -5.62588 0.59259 0
M  V30 11791 H 1096.27 -6.4306 1.06382 0
M  V30 11792 N 1099.71 -1.29285 -0.901281 0
M  V30 11793 C 1101.12 -1.07263 -1.18182 0
M  V30 11794 C 1101.32 0.177087 -2.0072 0
M  V30 11795 O 1100.38 0.875292 -2.36844 0
M  V30 11796 C 1101.69 -2.32717 -1.9043 0
M  V30 11797 C 1103.24 -2.3802 -2.03262 0
M  V30 11798 C 1103.71 -3.63273 -2.7892 0
M  V30 11799 N 1105.21 -3.63986 -2.86475 0
M  V30 11800 C 1105.94 -4.57585 -3.45549 0
M  V30 11801 N 1105.44 -5.61513 -4.05801 0
M  V30 11802 N 1107.23 -4.45157 -3.43208 0
M  V30 11803 H 1099.38 -2.09487 -0.350536 0
M  V30 11804 H 1101.64 -0.922647 -0.217778 0
M  V30 11805 H 1101.35 -3.23828 -1.37216 0
M  V30 11806 H 1101.22 -2.40102 -2.90913 0
M  V30 11807 H 1103.61 -1.47398 -2.55652 0
M  V30 11808 H 1103.69 -2.3462 -1.01916 0
M  V30 11809 H 1103.34 -4.54246 -2.27206 0
M  V30 11810 H 1103.27 -3.6393 -3.80608 0
M  V30 11811 H 1105.76 -2.8884 -2.43679 0
M  V30 11812 H 1106.07 -6.29058 -4.48894 0
M  V30 11813 H 1104.41 -5.65325 -4.04268 0
M  V30 11814 H 1107.61 -3.63158 -2.95354 0
M  V30 11815 H 1107.78 -5.18286 -3.88952 0
M  V30 11816 N 1101.18 1.11143 -1.11736 0
M  V30 11817 C 1102.41 1.86474 -0.889435 0
M  V30 11818 C 1102.82 1.80584 0.564438 0
M  V30 11819 O 1102.17 1.18743 1.40163 0
M  V30 11820 C 1102.23 3.36066 -1.27671 0
M  V30 11821 C 1101.89 3.65721 -2.74038 0
M  V30 11822 C 1102.89 3.62941 -3.7225 0
M  V30 11823 C 1100.57 3.94629 -3.10762 0
M  V30 11824 C 1102.57 3.88651 -5.05202 0
M  V30 11825 C 1100.25 4.19997 -4.43899 0
M  V30 11826 C 1101.25 4.16996 -5.40928 0
M  V30 11827 O 1100.94 4.41724 -6.71666 0
M  V30 11828 H 1100.67 0.596438 -0.318178 0
M  V30 11829 H 1103.23 1.41465 -1.48918 0
M  V30 11830 H 1101.46 3.81695 -0.620124 0
M  V30 11831 H 1103.15 3.92769 -1.02409 0
M  V30 11832 H 1103.91 3.40655 -3.45223 0
M  V30 11833 H 1099.79 3.96099 -2.35853 0
M  V30 11834 H 1103.33 3.86224 -5.80927 0
M  V30 11835 H 1099.23 4.4176 -4.70657 0
M  V30 11836 H 1100 4.59276 -6.77501 0
M  V30 11837 N 1102.66 0.908147 1.28804 0
M  V30 11838 C 1103.59 0.409106 2.29888 0
M  V30 11839 C 1104.57 -0.520338 1.61946 0
M  V30 11840 O 1105.76 -0.429268 1.89396 0
M  V30 11841 C 1102.89 -0.35669 3.45463 0
M  V30 11842 C 1101.84 0.4831 4.25265 0
M  V30 11843 C 1101.17 -0.4107 5.3312 0
M  V30 11844 C 1102.47 1.73744 4.92555 0
M  V30 11845 H 1104.16 1.25386 2.7188 0
M  V30 11846 H 1101.71 0.604368 1.30703 0
M  V30 11847 H 1103.66 -0.71661 4.15262 0
M  V30 11848 H 1102.39 -1.2353 3.02337 0
M  V30 11849 H 1101.04 0.825464 3.57186 0
M  V30 11850 H 1100.69 -1.28769 4.86238 0
M  V30 11851 H 1100.39 0.14756 5.87415 0
M  V30 11852 H 1101.92 -0.766626 6.05768 0
M  V30 11853 H 1103.33 1.44676 5.54745 0
M  V30 11854 H 1101.73 2.23767 5.5682 0
M  V30 11855 H 1102.8 2.46853 4.17363 0
M  V30 11856 N 1104.14 -1.42577 0.671525 0
M  V30 11857 C 1105.1 -2.292 0.000392482 0
M  V30 11858 C 1106.1 -1.43158 -0.732294 0
M  V30 11859 O 1107.29 -1.64583 -0.570789 0
M  V30 11860 C 1104.43 -3.25591 -1.01013 0
M  V30 11861 H 1105.62 -2.90037 0.762783 0
M  V30 11862 H 1103.17 -1.50162 0.433703 0
M  V30 11863 H 1103.91 -2.69685 -1.80112 0
M  V30 11864 H 1103.69 -3.89049 -0.488183 0
M  V30 11865 H 1105.18 -3.90561 -1.47824 0
M  V30 11866 N 1105.62 -0.414636 -1.52048 0
M  V30 11867 C 1106.57 0.422766 -2.28726 0
M  V30 11868 C 1107.56 1.04099 -1.3364 0
M  V30 11869 O 1108.77 0.978559 -1.51077 0
M  V30 11870 H 1105.14 0.155123 -0.735827 0
M  V30 11871 H 1107.11 -0.245091 -2.97392 0
M  V30 11872 C 1105.86 1.52418 -3.12513 0
M  V30 11873 H 1105.18 1.05781 -3.85552 0
M  V30 11874 H 1106.62 2.08382 -3.6926 0
M  V30 11875 C 1105.08 2.49465 -2.26426 0
M  V30 11876 O 1105.61 3.53479 -1.90829 0
M  V30 11877 N 1103.82 2.19806 -1.90088 0
M  V30 11878 H 1103.37 1.35253 -2.19236 0
M  V30 11879 H 1103.32 2.84984 -1.32783 0
M  V30 11880 N 1107.1 1.56929 -0.145233 0
M  V30 11881 C 1108.03 2.13796 0.826078 0
M  V30 11882 C 1109.04 1.08697 1.21197 0
M  V30 11883 O 1110.23 1.3598 1.15635 0
M  V30 11884 C 1107.33 2.6443 2.11967 0
M  V30 11885 C 1106.5 3.9391 1.90142 0
M  V30 11886 C 1105.56 4.29872 3.03474 0
M  V30 11887 O 1104.59 4.98227 2.75242 0
M  V30 11888 N 1105.79 3.8931 4.30602 0
M  V30 11889 H 1108.56 2.97764 0.340073 0
M  V30 11890 H 1106.12 1.61854 0.0383928 0
M  V30 11891 H 1108.11 2.85502 2.86829 0
M  V30 11892 H 1106.68 1.85196 2.51836 0
M  V30 11893 H 1105.9 3.81481 0.993268 0
M  V30 11894 H 1107.19 4.78523 1.72896 0
M  V30 11895 H 1106.58 3.34229 4.56407 0
M  V30 11896 H 1105.14 4.15438 5.0225 0
M  V30 11897 N 1108.58 -0.128553 1.57075 0
M  V30 11898 C 1109.8 -0.85245 1.88523 0
M  V30 11899 C 1110.22 -1.73886 0.735459 0
M  V30 11900 O 1109.58 -1.80114 -0.294113 0
M  V30 11901 C 1109.63 -1.69384 3.19361 0
M  V30 11902 O 1109.35 -0.84313 4.2991 0
M  V30 11903 C 1110.85 -2.52373 3.64449 0
M  V30 11904 H 1108.07 -0.245556 0.624454 0
M  V30 11905 H 1110.61 -0.115807 2.04172 0
M  V30 11906 H 1108.77 -2.38335 3.0541 0
M  V30 11907 H 1109.18 -1.42255 5.0484 0
M  V30 11908 H 1110.66 -3.06955 4.58784 0
M  V30 11909 H 1111.13 -3.29283 2.90636 0
M  V30 11910 H 1111.74 -1.88681 3.81155 0
M  V30 11911 N 1110.05 -1.5248 -0.398459 0
M  V30 11912 C 1111.46 -1.59107 -0.976817 0
M  V30 11913 C 1111.82 -0.438104 -1.91246 0
M  V30 11914 O 1110.94 0.440111 -2.11877 0
M  V30 11915 C 1111.54 -2.88373 -1.77838 0
M  V30 11916 C 1110.09 -2.97445 -2.30659 0
M  V30 11917 C 1109.24 -2.5414 -1.10942 0
M  V30 11918 H 1112.19 -1.57695 -0.178324 0
M  V30 11919 H 1112.21 -2.74327 -2.63676 0
M  V30 11920 H 1111.73 -3.72269 -1.09714 0
M  V30 11921 H 1109.83 -2.18066 -3.02123 0
M  V30 11922 H 1109.94 -4.019 -2.60794 0
M  V30 11923 H 1108.3 -2.08237 -1.46661 0
M  V30 11924 H 1109.09 -3.40421 -0.443684 0
M  V30 11925 N 1111.53 0.65634 -1.43283 0
M  V30 11926 C 1112.76 1.44408 -1.48168 0
M  V30 11927 C 1113.17 1.88542 -0.0986016 0
M  V30 11928 O 1112.53 1.59298 0.890527 0
M  V30 11929 C 1112.58 2.68111 -2.42484 0
M  V30 11930 O 1112.3 2.25824 -3.75413 0
M  V30 11931 C 1113.8 3.61499 -2.56579 0
M  V30 11932 H 1111.02 0.443731 -0.503333 0
M  V30 11933 H 1113.57 0.804917 -1.87993 0
M  V30 11934 H 1111.72 3.28175 -2.05863 0
M  V30 11935 H 1112.14 3.05839 -4.26102 0
M  V30 11936 H 1113.61 4.44972 -3.26655 0
M  V30 11937 H 1114.09 4.08639 -1.60969 0
M  V30 11938 H 1114.69 3.07319 -2.93998 0
M  V30 11939 N 1113.01 1.29761 0.894412 0
M  V30 11940 C 1114.42 1.16275 1.46072 0
M  V30 11941 C 1114.77 -0.240123 1.94725 0
M  V30 11942 O 1113.9 -1.13606 1.84181 0
M  V30 11943 C 1114.49 2.10471 2.65494 0
M  V30 11944 C 1113.05 2.00992 3.18244 0
M  V30 11945 C 1112.2 2.01094 1.90936 0
M  V30 11946 H 1115.15 1.42169 0.705243 0
M  V30 11947 H 1115.17 1.68003 3.41402 0
M  V30 11948 H 1114.68 3.12566 2.30053 0
M  V30 11949 H 1112.78 1.02005 3.58365 0
M  V30 11950 H 1112.9 2.88916 3.82184 0
M  V30 11951 H 1111.26 1.45764 2.08866 0
M  V30 11952 H 1112.04 3.04902 1.57764 0
M  V30 11953 N 1114.49 -1.10549 1.12324 0
M  V30 11954 C 1115.42 -2.18911 0.812416 0
M  V30 11955 C 1116.4 -1.68628 -0.22327 0
M  V30 11956 O 1117.58 -1.94015 -0.0847184 0
M  V30 11957 C 1114.71 -3.46288 0.264947 0
M  V30 11958 C 1113.67 -4.09838 1.23356 0
M  V30 11959 C 1112.99 -5.31901 0.546374 0
M  V30 11960 C 1114.29 -4.53686 2.58778 0
M  V30 11961 H 1115.99 -2.45169 1.71851 0
M  V30 11962 H 1113.53 -1.17834 0.827715 0
M  V30 11963 H 1115.49 -4.21385 0.0352364 0
M  V30 11964 H 1114.21 -3.19517 -0.676479 0
M  V30 11965 H 1112.87 -3.36746 1.44906 0
M  V30 11966 H 1112.52 -5.01406 -0.400157 0
M  V30 11967 H 1112.22 -5.75372 1.19249 0
M  V30 11968 H 1113.74 -6.09731 0.325673 0
M  V30 11969 H 1115.16 -5.20063 2.41263 0
M  V30 11970 H 1113.55 -5.08003 3.19457 0
M  V30 11971 H 1114.62 -3.66665 3.17309 0
M  V30 11972 N 1115.97 -0.914965 -1.28321 0
M  V30 11973 C 1116.91 -0.394477 -2.29231 0
M  V30 11974 C 1117.91 0.514481 -1.61398 0
M  V30 11975 O 1119.11 0.395591 -1.75599 0
M  V30 11976 H 1115.49 -0.108969 -0.744063 0
M  V30 11977 H 1117.46 -1.25862 -2.70557 0
M  V30 11978 C 1116.21 0.349134 -3.45943 0
M  V30 11979 H 1115.53 -0.341087 -3.98342 0
M  V30 11980 H 1116.97 0.677944 -4.18545 0
M  V30 11981 C 1115.43 1.55747 -2.98738 0
M  V30 11982 O 1115.96 2.65654 -3.01315 0
M  V30 11983 N 1114.17 1.40488 -2.54384 0
M  V30 11984 H 1113.71 0.510716 -2.52487 0
M  V30 11985 H 1113.67 2.21464 -2.23161 0
M  V30 11986 N 1117.44 1.42219 -0.679077 0
M  V30 11987 C 1118.37 2.33493 -0.0174528 0
M  V30 11988 C 1119.35 1.50915 0.78477 0
M  V30 11989 O 1120.54 1.79504 0.741065 0
M  V30 11990 C 1117.67 3.34576 0.931463 0
M  V30 11991 C 1116.62 4.2734 0.237527 0
M  V30 11992 C 1115.95 5.18664 1.29967 0
M  V30 11993 C 1117.25 5.14729 -0.886082 0
M  V30 11994 H 1118.94 2.89068 -0.779748 0
M  V30 11995 H 1116.49 1.38993 -0.376419 0
M  V30 11996 H 1118.44 3.97343 1.40343 0
M  V30 11997 H 1117.17 2.77315 1.72523 0
M  V30 11998 H 1115.83 3.65973 -0.214245 0
M  V30 11999 H 1115.47 4.57727 2.08554 0
M  V30 12000 H 1115.17 5.81558 0.840463 0
M  V30 12001 H 1116.7 5.84308 1.77249 0
M  V30 12002 H 1118.11 5.71158 -0.495141 0
M  V30 12003 H 1116.51 5.86478 -1.27135 0
M  V30 12004 H 1117.58 4.52874 -1.733 0
M  V30 12005 N 1118.92 0.422693 1.51826 0
M  V30 12006 C 1120.17 -0.148861 2.02253 0
M  V30 12007 C 1120.5 -1.43629 1.30707 0
M  V30 12008 O 1119.78 -1.89967 0.417482 0
M  V30 12009 C 1120.06 -0.382672 3.58061 0
M  V30 12010 C 1119.91 0.922386 4.40241 0
M  V30 12011 C 1121.23 -1.1589 4.24567 0
M  V30 12012 H 1118.35 -0.0526279 0.735119 0
M  V30 12013 H 1120.99 0.558821 1.81596 0
M  V30 12014 H 1119.14 -0.985495 3.75793 0
M  V30 12015 H 1120.81 1.55806 4.34191 0
M  V30 12016 H 1119.06 1.53032 4.05911 0
M  V30 12017 H 1119.73 0.713012 5.47376 0
M  V30 12018 H 1122.2 -0.648415 4.11017 0
M  V30 12019 H 1121.08 -1.29125 5.33496 0
M  V30 12020 H 1121.34 -2.18315 3.84436 0
M  V30 12021 N 1120.4 -1.5685 0.153553 0
M  V30 12022 C 1121.81 -1.83074 -0.36618 0
M  V30 12023 C 1122.16 -1.07257 -1.64288 0
M  V30 12024 O 1121.29 -0.319925 -2.14022 0
M  V30 12025 C 1121.88 -3.32086 -0.671142 0
M  V30 12026 C 1120.44 -3.58868 -1.13537 0
M  V30 12027 C 1119.59 -2.76827 -0.161887 0
M  V30 12028 H 1122.54 -1.54129 0.378139 0
M  V30 12029 H 1122.56 -3.48598 -1.52512 0
M  V30 12030 H 1122.07 -3.8724 0.258234 0
M  V30 12031 H 1120.17 -3.09107 -2.08047 0
M  V30 12032 H 1120.29 -4.67299 -1.05682 0
M  V30 12033 H 1118.65 -2.46112 -0.6558 0
M  V30 12034 H 1119.43 -3.34755 0.761195 0
M  V30 12035 N 1121.88 0.120221 -1.57141 0
M  V30 12036 C 1123.29 0.677497 -1.73974 0
M  V30 12037 C 1123.64 1.80371 -0.772055 0
M  V30 12038 O 1122.76 2.16329 0.0553062 0
M  V30 12039 C 1123.36 1.23575 -3.1546 0
M  V30 12040 C 1121.92 1.73933 -3.33803 0
M  V30 12041 C 1121.07 0.638542 -2.69848 0
M  V30 12042 H 1124.02 -0.105685 -1.58348 0
M  V30 12043 H 1124.04 2.10542 -3.16942 0
M  V30 12044 H 1123.55 0.415851 -3.85866 0
M  V30 12045 H 1121.65 2.58404 -2.68437 0
M  V30 12046 H 1121.76 1.84961 -4.41957 0
M  V30 12047 H 1120.13 1.07185 -2.31049 0
M  V30 12048 H 1120.91 -0.170356 -3.42877 0
M  V30 12049 N 1123.36 1.52689 0.390367 0
M  V30 12050 C 1124.27 1.8029 1.50108 0
M  V30 12051 C 1125.28 0.689582 1.59752 0
M  V30 12052 O 1126.46 0.977024 1.76114 0
M  V30 12053 C 1123.52 1.96475 2.85654 0
M  V30 12054 C 1122.58 3.2039 2.85743 0
M  V30 12055 C 1121.82 3.35793 4.14824 0
M  V30 12056 O 1122.04 2.56033 5.09709 0
M  V30 12057 O 1120.97 4.2904 4.22147 0
M  V30 12058 H 1124.8 2.74605 1.29715 0
M  V30 12059 H 1122.39 1.37763 0.578074 0
M  V30 12060 H 1124.27 2.08835 3.66013 0
M  V30 12061 H 1122.94 1.05351 3.06077 0
M  V30 12062 H 1121.85 3.13473 2.0417 0
M  V30 12063 H 1123.18 4.11356 2.70272 0
M  V30 12064 N 1124.83 -0.648732 1.43629 0
M  V30 12065 C 1126.11 -1.4062 1.35961 0
M  V30 12066 C 1126.49 -2.11098 0.00961023 0
M  V30 12067 O 1125.84 -2.05107 -1.00714 0
M  V30 12068 C 1126.05 -2.38719 2.54586 0
M  V30 12069 C 1127.4 -3.02584 2.97873 0
M  V30 12070 O 1128.42 -2.49046 2.54665 0
M  V30 12071 O 1127.28 -3.99662 3.72736 0
M  V30 12072 H 1124.37 -0.628483 0.53753 0
M  V30 12073 H 1126.92 -0.675263 1.55687 0
M  V30 12074 H 1125.69 -1.85619 3.44472 0
M  V30 12075 H 1125.32 -3.19257 2.36983 0
M  V30 12076 N 1126.31 -1.30234 -0.887518 0
M  V30 12077 C 1127.56 -1.18277 -1.63381 0
M  V30 12078 C 1127.87 0.262079 -1.93836 0
M  V30 12079 O 1129.08 0.503127 -2.66797 0
M  V30 12080 C 1127.54 -2.06944 -2.94452 0
M  V30 12081 C 1127.14 -3.56323 -2.71547 0
M  V30 12082 C 1128.89 -2.03743 -3.7241 0
M  V30 12083 C 1126.8 -4.37054 -3.98419 0
M  V30 12084 H 1125.73 -0.439087 -0.612959 0
M  V30 12085 H 1128.38 -1.54964 -0.982779 0
M  V30 12086 H 1126.76 -1.63138 -3.60835 0
M  V30 12087 H 1127.93 -4.08261 -2.13681 0
M  V30 12088 H 1126.25 -3.61321 -2.06969 0
M  V30 12089 H 1128.84 -2.61312 -4.66497 0
M  V30 12090 H 1129.19 -1.02029 -4.03603 0
M  V30 12091 H 1129.72 -2.45657 -3.12886 0
M  V30 12092 H 1126.46 -5.39453 -3.72385 0
M  V30 12093 H 1125.98 -3.89881 -4.55799 0
M  V30 12094 H 1127.66 -4.48356 -4.66462 0
M  V30 12095 N 1127.79 1.09952 -1.12909 0
M  V30 12096 C 1128.75 2.14615 -0.804548 0
M  V30 12097 C 1129.75 1.5975 0.18345 0
M  V30 12098 O 1130.94 1.74147 -0.0429623 0
M  V30 12099 C 1128.08 3.40333 -0.196471 0
M  V30 12100 H 1129.27 2.44835 -1.73193 0
M  V30 12101 H 1126.82 1.25399 -0.932997 0
M  V30 12102 H 1127.56 3.15735 0.740388 0
M  V30 12103 H 1127.34 3.81444 -0.907886 0
M  V30 12104 H 1128.83 4.17598 0.0139264 0
M  V30 12105 N 1129.27 0.921757 1.27833 0
M  V30 12106 C 1130.55 0.477706 1.89677 0
M  V30 12107 C 1130.93 -1.04392 1.83481 0
M  V30 12108 O 1130.27 -1.89549 1.27606 0
M  V30 12109 C 1130.48 1.01709 3.33851 0
M  V30 12110 C 1131.83 1.074 4.10792 0
M  V30 12111 O 1132.86 0.966295 3.42843 0
M  V30 12112 O 1131.71 1.23909 5.32268 0
M  V30 12113 H 1128.81 0.15271 0.812778 0
M  V30 12114 H 1131.35 1.01306 1.36144 0
M  V30 12115 H 1130.13 2.061 3.32623 0
M  V30 12116 H 1129.75 0.463031 3.94895 0
M  V30 12117 N 1130.75 -1.41857 0.686609 0
M  V30 12118 C 1131.68 -2.28174 -0.0347358 0
M  V30 12119 C 1132.66 -1.41732 -0.796928 0
M  V30 12120 O 1133.84 -1.71165 -0.789607 0
M  V30 12121 C 1130.97 -3.21801 -1.0565 0
M  V30 12122 C 1130.01 -4.24727 -0.388523 0
M  V30 12123 S 1130.85 -5.28508 0.862546 0
M  V30 12124 C 1132 -6.25701 -0.157849 0
M  V30 12125 H 1132.24 -2.89005 0.697381 0
M  V30 12126 H 1129.77 -1.46861 0.476562 0
M  V30 12127 H 1131.73 -3.76278 -1.64089 0
M  V30 12128 H 1130.39 -2.60082 -1.76114 0
M  V30 12129 H 1129.58 -4.90471 -1.15991 0
M  V30 12130 H 1129.18 -3.73799 0.122567 0
M  V30 12131 H 1131.48 -6.6987 -1.01393 0
M  V30 12132 H 1132.42 -7.06569 0.465437 0
M  V30 12133 H 1132.83 -5.62204 -0.508614 0
M  V30 12134 N 1132.22 -0.430739 -1.51599 0
M  V30 12135 C 1133.47 0.137657 -2.01631 0
M  V30 12136 C 1133.79 1.43787 -1.31721 0
M  V30 12137 O 1133.06 1.90668 -0.449717 0
M  V30 12138 H 1131.64 0.0538611 -0.745056 0
M  V30 12139 H 1134.31 -0.571935 -1.86319 0
M  V30 12140 H 1133.4 0.318305 -3.10473 0
M  V30 12141 N 1133.7 1.56767 -0.161869 0
M  V30 12142 C 1134.95 1.96885 0.486215 0
M  V30 12143 C 1135.28 1.04745 1.6353 0
M  V30 12144 O 1134.56 0.0927156 1.94279 0
M  V30 12145 C 1134.84 3.46559 0.97822 0
M  V30 12146 C 1134.69 4.49477 -0.17039 0
M  V30 12147 C 1136.01 3.99093 1.85506 0
M  V30 12148 H 1133.13 0.715857 0.175265 0
M  V30 12149 H 1135.77 1.88399 -0.246098 0
M  V30 12150 H 1133.92 3.53921 1.60225 0
M  V30 12151 H 1135.59 4.54183 -0.807205 0
M  V30 12152 H 1133.84 4.25838 -0.827322 0
M  V30 12153 H 1134.51 5.51578 0.21583 0
M  V30 12154 H 1136.98 3.94303 1.32908 0
M  V30 12155 H 1135.86 5.04255 2.16837 0
M  V30 12156 H 1136.12 3.4234 2.79742 0
M  V30 12157 N 1135.18 -0.111886 1.57202 0
M  V30 12158 C 1136.46 -0.849125 1.76208 0
M  V30 12159 C 1136.84 -1.97735 0.73919 0
M  V30 12160 O 1136.19 -2.27283 -0.235523 0
M  V30 12161 C 1136.4 -1.35924 3.21443 0
M  V30 12162 C 1137.74 -1.80874 3.84148 0
M  V30 12163 O 1138.77 -1.45587 3.25089 0
M  V30 12164 O 1137.63 -2.46065 4.87969 0
M  V30 12165 H 1134.72 -0.403761 0.721738 0
M  V30 12166 H 1137.27 -0.0950726 1.69433 0
M  V30 12167 H 1136.04 -0.550113 3.87414 0
M  V30 12168 H 1135.66 -2.17579 3.32784 0
M  V30 12169 N 1136.66 -1.52894 -0.382264 0
M  V30 12170 C 1137.89 -1.71902 -1.146 0
M  V30 12171 C 1138.3 -0.44017 -1.84009 0
M  V30 12172 O 1137.64 0.595616 -1.73776 0
M  V30 12173 C 1137.7 -2.81785 -2.23244 0
M  V30 12174 C 1137.37 -4.22684 -1.73745 0
M  V30 12175 C 1138.36 -5.05611 -1.21054 0
M  V30 12176 C 1136.05 -4.69031 -1.79763 0
M  V30 12177 C 1138.04 -6.32968 -0.750368 0
M  V30 12178 C 1135.73 -5.96371 -1.33358 0
M  V30 12179 C 1136.73 -6.7817 -0.810832 0
M  V30 12180 O 1136.41 -8.03122 -0.353577 0
M  V30 12181 H 1136.15 -0.578767 -0.349292 0
M  V30 12182 H 1138.7 -2.00359 -0.452246 0
M  V30 12183 H 1136.93 -2.48764 -2.96063 0
M  V30 12184 H 1138.62 -2.89131 -2.84883 0
M  V30 12185 H 1139.39 -4.70984 -1.15755 0
M  V30 12186 H 1135.26 -4.05447 -2.19394 0
M  V30 12187 H 1138.81 -6.96763 -0.341666 0
M  V30 12188 H 1134.71 -6.30501 -1.38344 0
M  V30 12189 H 1135.47 -8.17124 -0.474439 0
M  V30 12190 N 1138.14 0.641106 -1.43971 0
M  V30 12191 C 1139.41 1.39897 -1.36704 0
M  V30 12192 C 1139.79 2.1109 -0.0208051 0
M  V30 12193 O 1139.14 2.05638 0.99625 0
M  V30 12194 C 1139.35 2.37366 -2.55849 0
M  V30 12195 C 1140.7 3.01 -2.99473 0
M  V30 12196 O 1141.72 2.47692 -2.55982 0
M  V30 12197 O 1140.58 3.9768 -3.74851 0
M  V30 12198 H 1137.68 0.625623 -0.540855 0
M  V30 12199 H 1140.22 0.666997 -1.56042 0
M  V30 12200 H 1139 1.8379 -3.45452 0
M  V30 12201 H 1138.62 3.17995 -2.38673 0
M  V30 12202 N 1139.62 1.30703 0.880598 0
M  V30 12203 C 1140.86 1.19541 1.62955 0
M  V30 12204 C 1141.18 -0.249089 1.93403 0
M  V30 12205 O 1140.45 -1.1669 1.57354 0
M  V30 12206 H 1139.03 0.439434 0.604075 0
M  V30 12207 H 1141.7 1.63888 1.05483 0
M  V30 12208 H 1140.79 1.75945 2.57779 0
M  V30 12209 N 1141.09 -1.09351 1.1349 0
M  V30 12210 C 1142.04 -2.18099 0.808426 0
M  V30 12211 C 1143.04 -1.68099 -0.209571 0
M  V30 12212 O 1144.24 -1.79877 -0.0666417 0
M  V30 12213 H 1140.62 -0.711432 0.243658 0
M  V30 12214 H 1142.59 -2.42867 1.73373 0
M  V30 12215 C 1141.34 -3.46475 0.291615 0
M  V30 12216 H 1140.66 -3.85319 1.06627 0
M  V30 12217 H 1142.1 -4.23878 0.101616 0
M  V30 12218 C 1140.56 -3.22245 -0.982827 0
M  V30 12219 O 1141.09 -3.44947 -2.0585 0
M  V30 12220 N 1139.29 -2.75845 -0.914218 0
M  V30 12221 H 1138.84 -2.57571 -0.03872 0
M  V30 12222 H 1138.8 -2.60011 -1.76753 0
M  V30 12223 N 1142.57 -0.928524 -1.27343 0
M  V30 12224 C 1143.82 -0.569392 -1.9433 0
M  V30 12225 C 1144.15 0.889481 -1.7297 0
M  V30 12226 O 1143.4 1.6499 -1.05247 0
M  V30 12227 C 1143.7 -0.84269 -3.47323 0
M  V30 12228 C 1143.37 -2.28344 -3.88806 0
M  V30 12229 C 1142.03 -2.67731 -3.99842 0
M  V30 12230 C 1144.38 -3.22031 -4.09811 0
M  V30 12231 C 1141.71 -3.99928 -4.29272 0
M  V30 12232 C 1144.06 -4.5381 -4.40725 0
M  V30 12233 C 1142.72 -4.93031 -4.49975 0
M  V30 12234 H 1141.99 -0.208355 -0.711104 0
M  V30 12235 H 1144.64 -1.17264 -1.51398 0
M  V30 12236 H 1142.95 -0.156775 -3.91486 0
M  V30 12237 H 1144.64 -0.543779 -3.97296 0
M  V30 12238 H 1141.23 -1.96787 -3.80753 0
M  V30 12239 H 1145.42 -2.92803 -4.00724 0
M  V30 12240 H 1140.67 -4.29996 -4.34642 0
M  V30 12241 H 1144.85 -5.26407 -4.55926 0
M  V30 12242 H 1142.47 -5.95497 -4.72533 0
M  V30 12243 N 1144.05 1.41491 -0.694123 0
M  V30 12244 C 1145.3 2.0155 -0.224809 0
M  V30 12245 C 1145.63 1.54844 1.17205 0
M  V30 12246 O 1144.9 0.75899 1.7908 0
M  V30 12247 C 1145.19 3.59003 -0.280884 0
M  V30 12248 C 1145.04 4.15839 -1.71458 0
M  V30 12249 C 1146.36 4.38624 0.360122 0
M  V30 12250 H 1143.48 0.732293 -0.0831632 0
M  V30 12251 H 1146.12 1.68258 -0.882569 0
M  V30 12252 H 1144.27 3.87496 0.279164 0
M  V30 12253 H 1145.94 3.98227 -2.32837 0
M  V30 12254 H 1144.18 3.70936 -2.2492 0
M  V30 12255 H 1144.86 5.24997 -1.70536 0
M  V30 12256 H 1147.33 4.15936 -0.11683 0
M  V30 12257 H 1146.21 5.48132 0.290337 0
M  V30 12258 H 1146.47 4.1797 1.44062 0
M  V30 12259 N 1145.53 0.438773 1.51369 0
M  V30 12260 C 1146.77 -0.126367 2.04009 0
M  V30 12261 C 1147.13 -1.39837 1.31566 0
M  V30 12262 O 1148.33 -2.04384 1.74587 0
M  V30 12263 C 1146.6 -0.338531 3.55793 0
M  V30 12264 S 1148.16 -0.866869 4.30152 0
M  V30 12265 H 1144.98 -0.0311763 0.710316 0
M  V30 12266 H 1147.58 0.598507 1.86113 0
M  V30 12267 H 1146.29 0.593555 4.06085 0
M  V30 12268 H 1145.82 -1.09044 3.77985 0
M  V30 12269 H 1147.83 -2.14427 4.47477 0
M  V30 12270 N 1147.01 -1.56678 0.170181 0
M  V30 12271 C 1148.23 -2.0166 -0.484543 0
M  V30 12272 C 1148.66 -1.04962 -1.56091 0
M  V30 12273 O 1148.01 -0.0289887 -1.81277 0
M  V30 12274 C 1148.06 -3.45252 -1.04084 0
M  V30 12275 O 1147.17 -3.51623 -2.15488 0
M  V30 12276 H 1146.51 -0.653765 -0.116135 0
M  V30 12277 H 1149.04 -2.02761 0.273737 0
M  V30 12278 H 1149.05 -3.84534 -1.36373 0
M  V30 12279 H 1147.72 -4.15131 -0.252738 0
M  V30 12280 H 1146.3 -3.242 -1.84252 0
M  V30 12281 N 1148.48 0.103547 -1.57259 0
M  V30 12282 C 1149.73 0.806979 -1.8529 0
M  V30 12283 C 1150.05 1.79679 -0.757653 0
M  V30 12284 O 1149.32 1.94695 0.216913 0
M  V30 12285 H 1147.9 0.301012 -0.683667 0
M  V30 12286 H 1150.56 0.0871886 -1.94705 0
M  V30 12287 H 1149.66 1.34275 -2.81738 0
M  V30 12288 N 1149.96 1.53094 0.37415 0
M  V30 12289 C 1151.21 1.68527 1.11548 0
M  V30 12290 C 1151.53 0.435253 1.9008 0
M  V30 12291 O 1150.8 -0.550594 1.88003 0
M  V30 12292 H 1149.38 0.621255 0.41479 0
M  V30 12293 H 1152.04 1.90258 0.422844 0
M  V30 12294 H 1151.14 2.54248 1.81009 0
M  V30 12295 N 1151.44 -0.633461 1.44309 0
M  V30 12296 C 1152.37 -1.7583 1.45462 0
M  V30 12297 C 1153.35 -1.59545 0.313723 0
M  V30 12298 O 1154.53 -1.8146 0.51034 0
M  V30 12299 C 1151.66 -3.13375 1.28506 0
M  V30 12300 C 1150.71 -3.48315 2.46128 0
M  V30 12301 S 1151.54 -3.46058 4.08662 0
M  V30 12302 C 1152.7 -4.86226 3.94125 0
M  V30 12303 H 1152.93 -1.74585 2.4064 0
M  V30 12304 H 1150.46 -0.807868 1.31578 0
M  V30 12305 H 1152.42 -3.92748 1.19411 0
M  V30 12306 H 1151.08 -3.12161 0.348432 0
M  V30 12307 H 1150.27 -4.48397 2.30122 0
M  V30 12308 H 1149.88 -2.76399 2.51951 0
M  V30 12309 H 1152.17 -5.75393 3.57671 0
M  V30 12310 H 1153.11 -5.07287 4.9403 0
M  V30 12311 H 1153.52 -4.60691 3.26227 0
M  V30 12312 N 1152.92 -1.31168 -0.873655 0
M  V30 12313 C 1154.33 -1.09745 -1.1588 0
M  V30 12314 C 1154.53 0.134471 -2.01051 0
M  V30 12315 O 1153.59 0.824857 -2.38647 0
M  V30 12316 C 1154.9 -2.36704 -1.85451 0
M  V30 12317 C 1156.45 -2.42278 -1.98167 0
M  V30 12318 C 1156.93 -3.69108 -2.71152 0
M  V30 12319 N 1158.42 -3.69981 -2.7869 0
M  V30 12320 C 1159.15 -4.64811 -3.35765 0
M  V30 12321 N 1158.65 -5.69995 -3.938 0
M  V30 12322 N 1160.44 -4.52337 -3.33688 0
M  V30 12323 H 1152.59 -2.10184 -0.306021 0
M  V30 12324 H 1154.86 -0.927058 -0.198159 0
M  V30 12325 H 1154.56 -3.26666 -1.30316 0
M  V30 12326 H 1154.44 -2.46219 -2.85755 0
M  V30 12327 H 1156.82 -1.52787 -2.52468 0
M  V30 12328 H 1156.9 -2.3673 -0.969164 0
M  V30 12329 H 1156.55 -4.58963 -2.1752 0
M  V30 12330 H 1156.48 -3.71922 -3.72803 0
M  V30 12331 H 1158.97 -2.93944 -2.37498 0
M  V30 12332 H 1159.28 -6.38438 -4.3545 0
M  V30 12333 H 1157.63 -5.73773 -3.92186 0
M  V30 12334 H 1160.82 -3.69341 -2.87584 0
M  V30 12335 H 1160.99 -5.2642 -3.77871 0
M  V30 12336 N 1154.4 1.08748 -1.14068 0
M  V30 12337 C 1155.65 1.8044 -0.901352 0
M  V30 12338 C 1155.96 1.86995 0.573791 0
M  V30 12339 O 1157.16 2.55065 0.930275 0
M  V30 12340 C 1155.62 3.24185 -1.56308 0
M  V30 12341 C 1155.23 3.25875 -3.07424 0
M  V30 12342 C 1156.97 4.00584 -1.40473 0
M  V30 12343 C 1154.88 4.64186 -3.66449 0
M  V30 12344 H 1153.81 0.676201 -0.333569 0
M  V30 12345 H 1156.46 1.22169 -1.3692 0
M  V30 12346 H 1154.84 3.82561 -1.0229 0
M  V30 12347 H 1156.02 2.77225 -3.6808 0
M  V30 12348 H 1154.33 2.62969 -3.22856 0
M  V30 12349 H 1156.93 5.02781 -1.81976 0
M  V30 12350 H 1157.27 4.14823 -0.350408 0
M  V30 12351 H 1157.8 3.48668 -1.91508 0
M  V30 12352 H 1154.54 4.5515 -4.71719 0
M  V30 12353 H 1154.06 5.13132 -3.10574 0
M  V30 12354 H 1155.74 5.33161 -3.66536 0
M  V30 12355 N 1155.87 0.935264 1.26849 0
M  V30 12356 C 1156.8 0.457776 2.28969 0
M  V30 12357 C 1157.79 -0.48587 1.63013 0
M  V30 12358 O 1158.97 -0.388998 1.90264 0
M  V30 12359 C 1156.1 -0.283332 3.46142 0
M  V30 12360 C 1155.05 0.573196 4.24144 0
M  V30 12361 C 1154.38 -0.297525 5.33872 0
M  V30 12362 C 1155.68 1.84153 4.88759 0
M  V30 12363 H 1157.37 1.31125 2.69159 0
M  V30 12364 H 1154.92 0.631956 1.29392 0
M  V30 12365 H 1156.87 -0.628366 4.16689 0
M  V30 12366 H 1155.6 -1.1709 3.04889 0
M  V30 12367 H 1154.26 0.901043 3.55354 0
M  V30 12368 H 1153.9 -1.18427 4.8886 0
M  V30 12369 H 1153.6 0.272126 5.8697 0
M  V30 12370 H 1155.13 -0.637961 6.07258 0
M  V30 12371 H 1156.54 1.5641 5.51551 0
M  V30 12372 H 1154.94 2.35528 5.51948 0
M  V30 12373 H 1156.01 2.5565 4.12033 0
M  V30 12374 N 1157.35 -1.41121 0.701616 0
M  V30 12375 C 1158.76 -1.84122 0.309208 0
M  V30 12376 C 1159.11 -1.58695 -1.15371 0
M  V30 12377 O 1158.24 -1.06053 -1.88631 0
M  V30 12378 C 1158.83 -3.34233 0.554429 0
M  V30 12379 C 1157.39 -3.7578 0.215876 0
M  V30 12380 C 1156.54 -2.6447 0.833729 0
M  V30 12381 H 1159.49 -1.30587 0.901822 0
M  V30 12382 H 1159.51 -3.8005 -0.18491 0
M  V30 12383 H 1159.02 -3.52707 1.61923 0
M  V30 12384 H 1157.13 -3.62905 -0.844421 0
M  V30 12385 H 1157.24 -4.74319 0.675118 0
M  V30 12386 H 1155.6 -2.5334 0.262851 0
M  V30 12387 H 1156.39 -2.85761 1.90252 0
M  V30 12388 N 1158.83 -0.446794 -1.51134 0
M  V30 12389 C 1160.08 0.116666 -2.02464 0
M  V30 12390 C 1160.41 1.41532 -1.32975 0
M  V30 12391 O 1159.68 1.89278 -0.447651 0
M  V30 12392 C 1159.97 0.325659 -3.58624 0
M  V30 12393 C 1159.82 -0.992307 -4.38718 0
M  V30 12394 C 1161.14 1.09121 -4.26357 0
M  V30 12395 H 1158.26 0.0409262 -0.735863 0
M  V30 12396 H 1160.9 -0.587641 -1.80684 0
M  V30 12397 H 1159.05 0.925585 -3.77313 0
M  V30 12398 H 1160.72 -1.62694 -4.31658 0
M  V30 12399 H 1158.97 -1.5947 -4.03425 0
M  V30 12400 H 1159.64 -0.800005 -5.46172 0
M  V30 12401 H 1162.11 0.582944 -4.11996 0
M  V30 12402 H 1160.99 1.20621 -5.35483 0
M  V30 12403 H 1161.25 2.12171 -3.87861 0
M  V30 12404 N 1160.31 1.56586 -0.178487 0
M  V30 12405 C 1161.55 1.98159 0.45876 0
M  V30 12406 C 1161.91 1.0629 1.60375 0
M  V30 12407 O 1161.2 0.103975 1.91318 0
M  V30 12408 C 1161.4 3.43629 0.982552 0
M  V30 12409 C 1161.23 4.49565 -0.110152 0
M  V30 12410 C 1160 5.02162 -0.562228 0
M  V30 12411 C 1162.19 5.06129 -0.913143 0
M  V30 12412 N 1160.18 5.91741 -1.63449 0
M  V30 12413 C 1161.55 5.92217 -1.83517 0
M  V30 12414 C 1163.6 4.88608 -0.957421 0
M  V30 12415 C 1162.3 6.6266 -2.79775 0
M  V30 12416 C 1164.33 5.59777 -1.90798 0
M  V30 12417 C 1163.69 6.45599 -2.81747 0
M  V30 12418 H 1159.79 0.770124 0.13577 0
M  V30 12419 H 1162.38 1.92671 -0.280358 0
M  V30 12420 H 1160.55 3.49649 1.69117 0
M  V30 12421 H 1162.28 3.72199 1.58902 0
M  V30 12422 H 1159.03 4.73334 -0.158612 0
M  V30 12423 H 1159.46 6.41235 -2.17132 0
M  V30 12424 H 1164.1 4.21948 -0.268285 0
M  V30 12425 H 1161.82 7.28529 -3.49673 0
M  V30 12426 H 1165.4 5.48204 -1.94844 0
M  V30 12427 H 1164.28 6.99701 -3.54102 0
M  V30 12428 N 1161.79 -0.095206 1.57312 0
M  V30 12429 C 1163.01 -0.81227 1.90289 0
M  V30 12430 C 1163.43 -1.72287 0.772178 0
M  V30 12431 O 1162.79 -1.80698 -0.255841 0
M  V30 12432 C 1162.84 -1.62572 3.22882 0
M  V30 12433 O 1162.56 -0.75175 4.31602 0
M  V30 12434 C 1164.06 -2.44585 3.6972 0
M  V30 12435 H 1161.28 -0.232256 0.629522 0
M  V30 12436 H 1163.82 -0.0724733 2.04372 0
M  V30 12437 H 1161.98 -2.31803 3.10397 0
M  V30 12438 H 1162.39 -1.31514 5.07744 0
M  V30 12439 H 1163.87 -2.97155 4.65191 0
M  V30 12440 H 1164.34 -3.23044 2.97555 0
M  V30 12441 H 1164.95 -1.80554 3.85072 0
M  V30 12442 N 1163.26 -1.53291 -0.366026 0
M  V30 12443 C 1164.49 -1.73665 -1.13381 0
M  V30 12444 C 1164.91 -0.464284 -1.8228 0
M  V30 12445 O 1164.27 0.581645 -1.71717 0
M  V30 12446 C 1164.32 -2.90225 -2.14013 0
M  V30 12447 O 1163.42 -2.58803 -3.21084 0
M  V30 12448 H 1162.77 -0.576762 -0.329 0
M  V30 12449 H 1165.3 -2.00174 -0.423287 0
M  V30 12450 H 1165.31 -3.16378 -2.57622 0
M  V30 12451 H 1163.98 -3.82518 -1.63257 0
M  V30 12452 H 1162.56 -2.43466 -2.82451 0
M  V30 12453 N 1164.74 0.6258 -1.44643 0
M  V30 12454 C 1166.02 1.38439 -1.38181 0
M  V30 12455 C 1166.4 2.11056 -0.0431928 0
M  V30 12456 O 1165.75 2.06683 0.974383 0
M  V30 12457 C 1165.96 2.34639 -2.58352 0
M  V30 12458 C 1167.31 2.97807 -3.02649 0
M  V30 12459 O 1168.33 2.44963 -2.58595 0
M  V30 12460 O 1167.19 3.93682 -3.79048 0
M  V30 12461 H 1164.28 0.619852 -0.54746 0
M  V30 12462 H 1166.83 0.650409 -1.56741 0
M  V30 12463 H 1165.6 1.80116 -3.47382 0
M  V30 12464 H 1165.22 3.15446 -2.42032 0
M  V30 12465 N 1166.22 1.31629 0.866686 0
M  V30 12466 C 1167.63 1.19347 1.43573 0
M  V30 12467 C 1167.98 -0.198765 1.95191 0
M  V30 12468 O 1167.11 -1.09674 1.86549 0
M  V30 12469 C 1167.7 2.16055 2.6097 0
M  V30 12470 C 1166.26 2.07697 3.13909 0
M  V30 12471 C 1165.41 2.05099 1.86627 0
M  V30 12472 H 1168.36 1.43633 0.674929 0
M  V30 12473 H 1168.38 1.75207 3.37761 0
M  V30 12474 H 1167.89 3.17375 2.23371 0
M  V30 12475 H 1165.99 1.09583 3.56121 0
M  V30 12476 H 1166.11 2.96958 3.75969 0
M  V30 12477 H 1164.47 1.50162 2.05727 0
M  V30 12478 H 1165.25 3.0818 1.51261 0
M  V30 12479 N 1167.7 -1.08142 1.14644 0
M  V30 12480 C 1168.63 -2.15022 0.793614 0
M  V30 12481 C 1169.64 -1.61679 -0.190729 0
M  V30 12482 O 1170.83 -1.78472 0.0313696 0
M  V30 12483 C 1167.93 -3.38532 0.157785 0
M  V30 12484 C 1167.11 -4.21252 1.17753 0
M  V30 12485 C 1166.17 -5.23158 0.564968 0
M  V30 12486 O 1165.19 -5.5578 1.22869 0
M  V30 12487 N 1166.39 -5.7677 -0.657022 0
M  V30 12488 H 1169.16 -2.45893 1.71338 0
M  V30 12489 H 1166.72 -1.23976 1.04122 0
M  V30 12490 H 1168.71 -4.03834 -0.264586 0
M  V30 12491 H 1167.28 -3.05441 -0.665168 0
M  V30 12492 H 1166.5 -3.51888 1.77675 0
M  V30 12493 H 1167.79 -4.73335 1.86632 0
M  V30 12494 H 1167.19 -5.52503 -1.21478 0
M  V30 12495 H 1165.74 -6.4374 -1.02186 0
M  V30 12496 N 1169.18 -0.941978 -1.26351 0
M  V30 12497 C 1170.4 -0.606231 -1.98342 0
M  V30 12498 C 1170.83 0.812014 -1.6967 0
M  V30 12499 O 1170.19 1.54712 -0.9452 0
M  V30 12500 C 1170.23 -0.855864 -3.50296 0
M  V30 12501 O 1169.34 0.0716251 -4.12338 0
M  V30 12502 H 1168.68 -0.231815 -0.62222 0
M  V30 12503 H 1171.21 -1.26513 -1.60797 0
M  V30 12504 H 1171.22 -0.777079 -4.00531 0
M  V30 12505 H 1169.89 -1.8896 -3.70496 0
M  V30 12506 H 1168.47 -0.0582866 -3.72854 0
M  V30 12507 N 1170.66 1.40747 -0.709091 0
M  V30 12508 C 1171.59 2.33404 -0.0669763 0
M  V30 12509 C 1172.57 1.52546 0.752582 0
M  V30 12510 O 1173.75 1.81036 0.702823 0
M  V30 12511 C 1170.88 3.36476 0.860285 0
M  V30 12512 C 1169.84 4.27748 0.146828 0
M  V30 12513 C 1169.16 5.21304 1.18937 0
M  V30 12514 C 1170.46 5.12734 -0.995064 0
M  V30 12515 H 1172.16 2.87349 -0.840888 0
M  V30 12516 H 1169.7 1.38163 -0.405817 0
M  V30 12517 H 1171.65 4.00231 1.31883 0
M  V30 12518 H 1170.38 2.80912 1.66602 0
M  V30 12519 H 1169.04 3.65437 -0.291826 0
M  V30 12520 H 1168.69 4.62048 1.98798 0
M  V30 12521 H 1168.39 5.8321 0.716917 0
M  V30 12522 H 1169.91 5.87936 1.64815 0
M  V30 12523 H 1171.32 5.69979 -0.61618 0
M  V30 12524 H 1169.72 5.83649 -1.39547 0
M  V30 12525 H 1170.79 4.49097 -1.82867 0
M  V30 12526 N 1172.13 0.454803 1.50895 0
M  V30 12527 C 1173.37 -0.104722 2.04132 0
M  V30 12528 C 1173.74 -1.38434 1.33042 0
M  V30 12529 O 1174.94 -2.02521 1.76745 0
M  V30 12530 C 1173.21 -0.300775 3.56132 0
M  V30 12531 S 1174.77 -0.821197 4.31047 0
M  V30 12532 H 1171.59 -0.0236407 0.710607 0
M  V30 12533 H 1174.19 0.618213 1.85468 0
M  V30 12534 H 1172.89 0.636592 4.05433 0
M  V30 12535 H 1172.42 -1.05029 3.79121 0
M  V30 12536 H 1174.44 -2.09669 4.49726 0
M  V30 12537 N 1173.61 -1.56489 0.186789 0
M  V30 12538 C 1174.54 -2.15911 -0.769104 0
M  V30 12539 C 1175.56 -1.11872 -1.18273 0
M  V30 12540 O 1176.75 -1.38999 -1.1199 0
M  V30 12541 C 1173.85 -2.69957 -2.04882 0
M  V30 12542 C 1173.02 -3.98812 -1.79631 0
M  V30 12543 C 1172.08 -4.37767 -2.9197 0
M  V30 12544 O 1171.1 -5.0535 -2.61935 0
M  V30 12545 N 1172.31 -4.0059 -4.20128 0
M  V30 12546 H 1175.07 -2.98561 -0.261007 0
M  V30 12547 H 1172.63 -1.61899 0.00453357 0
M  V30 12548 H 1174.62 -2.93006 -2.79158 0
M  V30 12549 H 1173.19 -1.91808 -2.46837 0
M  V30 12550 H 1172.41 -3.8398 -0.891776 0
M  V30 12551 H 1173.7 -4.82939 -1.60148 0
M  V30 12552 H 1173.1 -3.46213 -4.47385 0
M  V30 12553 H 1171.66 -4.28608 -4.91059 0
M  V30 12554 N 1175.09 0.086862 -1.5736 0
M  V30 12555 C 1176.02 1.13117 -1.99342 0
M  V30 12556 C 1177.03 1.35849 -0.897151 0
M  V30 12557 O 1178.22 1.34356 -1.17519 0
M  V30 12558 C 1175.32 2.48511 -2.30425 0
M  V30 12559 C 1174.5 2.45942 -3.61706 0
M  V30 12560 C 1173.56 3.63327 -3.80631 0
M  V30 12561 O 1172.58 3.45443 -4.52392 0
M  V30 12562 N 1173.78 4.83118 -3.21835 0
M  V30 12563 H 1176.55 0.773782 -2.89539 0
M  V30 12564 H 1174.11 0.275731 -1.59535 0
M  V30 12565 H 1176.1 3.25656 -2.40272 0
M  V30 12566 H 1174.67 2.76308 -1.46194 0
M  V30 12567 H 1173.89 1.54287 -3.62752 0
M  V30 12568 H 1175.18 2.41313 -4.47935 0
M  V30 12569 H 1174.58 5.00552 -2.6356 0
M  V30 12570 H 1173.13 5.57827 -3.37154 0
M  V30 12571 N 1176.57 1.53483 0.357892 0
M  V30 12572 C 1177.79 1.74264 1.12458 0
M  V30 12573 C 1178.22 0.473944 1.82031 0
M  V30 12574 O 1177.58 -0.57253 1.72023 0
M  V30 12575 C 1177.62 2.91356 2.12471 0
M  V30 12576 O 1176.73 2.60502 3.19707 0
M  V30 12577 H 1176.07 0.578499 0.325937 0
M  V30 12578 H 1178.6 2.00395 0.412666 0
M  V30 12579 H 1178.61 3.1774 2.5594 0
M  V30 12580 H 1177.28 3.83378 1.61226 0
M  V30 12581 H 1175.86 2.44961 2.81156 0
M  V30 12582 N 1178.05 -0.61812 1.44973 0
M  V30 12583 C 1178.96 -1.7579 1.55355 0
M  V30 12584 C 1179.97 -1.68384 0.438512 0
M  V30 12585 O 1181.15 -1.88928 0.697715 0
M  V30 12586 C 1178.21 -3.1222 1.50729 0
M  V30 12587 C 1177.27 -3.3116 2.73188 0
M  V30 12588 C 1176.51 -4.61082 2.68774 0
M  V30 12589 O 1176.73 -5.42728 1.75507 0
M  V30 12590 O 1175.66 -4.82506 3.59821 0
M  V30 12591 H 1179.49 -1.69983 2.51674 0
M  V30 12592 H 1177.07 -0.780934 1.27365 0
M  V30 12593 H 1178.96 -3.93524 1.5072 0
M  V30 12594 H 1177.63 -3.18541 0.575587 0
M  V30 12595 H 1176.54 -2.49485 2.78762 0
M  V30 12596 H 1177.87 -3.29709 3.65449 0
M  V30 12597 N 1179.52 -1.32087 -0.859693 0
M  V30 12598 C 1180.46 -1.14934 -1.97143 0
M  V30 12599 C 1181.43 -0.0501084 -1.62523 0
M  V30 12600 O 1182.62 -0.208472 -1.87344 0
M  V30 12601 C 1179.75 -0.758374 -3.30101 0
M  V30 12602 C 1178.79 -1.86212 -3.83702 0
M  V30 12603 S 1179.62 -3.46949 -4.07905 0
M  V30 12604 C 1180.78 -3.09813 -5.43844 0
M  V30 12605 H 1181.01 -2.09047 -2.11392 0
M  V30 12606 H 1178.55 -1.1669 -1.01108 0
M  V30 12607 H 1180.5 -0.539563 -4.06939 0
M  V30 12608 H 1179.17 0.163817 -3.13673 0
M  V30 12609 H 1178.36 -1.54144 -4.7985 0
M  V30 12610 H 1177.96 -2.03652 -3.13691 0
M  V30 12611 H 1180.25 -2.59345 -6.25897 0
M  V30 12612 H 1181.2 -4.04963 -5.8087 0
M  V30 12613 H 1181.6 -2.46971 -5.07607 0
M  V30 12614 N 1181 1.07532 -1.15215 0
M  V30 12615 C 1181.93 2.14598 -0.805006 0
M  V30 12616 C 1182.95 1.61778 0.182152 0
M  V30 12617 O 1184.14 1.78453 -0.040834 0
M  V30 12618 C 1181.24 3.38444 -0.175736 0
M  V30 12619 C 1180.41 4.20621 -1.19986 0
M  V30 12620 C 1179.47 5.22851 -0.592705 0
M  V30 12621 O 1178.49 5.55121 -1.25815 0
M  V30 12622 N 1179.7 5.7711 0.626425 0
M  V30 12623 H 1182.46 2.44981 -1.7264 0
M  V30 12624 H 1180.02 1.23423 -1.04778 0
M  V30 12625 H 1182.01 4.03969 0.243166 0
M  V30 12626 H 1180.58 3.0579 0.64896 0
M  V30 12627 H 1179.8 3.50941 -1.79539 0
M  V30 12628 H 1181.09 4.72339 -1.89139 0
M  V30 12629 H 1180.49 5.53139 1.18546 0
M  V30 12630 H 1179.05 6.44273 0.98771 0
M  V30 12631 N 1182.48 0.948665 1.2585 0
M  V30 12632 C 1183.41 0.421458 2.25292 0
M  V30 12633 C 1184.43 -0.459389 1.56184 0
M  V30 12634 O 1185.61 -0.268627 1.76467 0
M  V30 12635 C 1182.71 -0.412653 3.36378 0
M  V30 12636 C 1181.89 0.453792 4.3504 0
M  V30 12637 C 1180.95 -0.321127 5.25219 0
M  V30 12638 O 1179.97 0.278424 5.68519 0
M  V30 12639 N 1181.17 -1.61576 5.5756 0
M  V30 12640 H 1183.94 1.27636 2.71162 0
M  V30 12641 H 1181.5 0.818367 1.39694 0
M  V30 12642 H 1183.49 -0.938637 3.93664 0
M  V30 12643 H 1182.06 -1.16839 2.89944 0
M  V30 12644 H 1181.28 1.16093 3.76718 0
M  V30 12645 H 1182.57 1.04538 4.97945 0
M  V30 12646 H 1181.97 -2.12488 5.24276 0
M  V30 12647 H 1180.53 -2.08783 6.17457 0
M  V30 12648 N 1183.96 -1.40369 0.716545 0
M  V30 12649 C 1184.89 -2.29186 0.0251905 0
M  V30 12650 C 1185.9 -1.45877 -0.722761 0
M  V30 12651 O 1187.09 -1.69155 -0.569982 0
M  V30 12652 C 1184.19 -3.24161 -0.988589 0
M  V30 12653 C 1183.37 -4.36329 -0.30597 0
M  V30 12654 C 1182.42 -5.11736 -1.22527 0
M  V30 12655 O 1181.45 -5.64758 -0.7097 0
M  V30 12656 N 1182.65 -5.21183 -2.55634 0
M  V30 12657 H 1185.42 -2.8916 0.787808 0
M  V30 12658 H 1182.98 -1.51749 0.564253 0
M  V30 12659 H 1184.97 -3.71479 -1.60578 0
M  V30 12660 H 1183.54 -2.65347 -1.65256 0
M  V30 12661 H 1182.76 -3.91125 0.491432 0
M  V30 12662 H 1184.05 -5.08523 0.167827 0
M  V30 12663 H 1183.45 -4.7959 -3.00017 0
M  V30 12664 H 1182 -5.72005 -3.12495 0
M  V30 12665 N 1185.44 -0.462799 -1.50652 0
M  V30 12666 C 1186.85 -0.00568907 -1.86699 0
M  V30 12667 C 1187.2 1.39641 -1.37822 0
M  V30 12668 O 1186.32 2.03366 -0.739679 0
M  V30 12669 C 1186.92 -0.00354783 -3.388 0
M  V30 12670 C 1185.48 0.398061 -3.74289 0
M  V30 12671 C 1184.62 -0.392574 -2.74507 0
M  V30 12672 H 1187.58 -0.677469 -1.43513 0
M  V30 12673 H 1187.6 0.800456 -3.71985 0
M  V30 12674 H 1187.11 -1.02414 -3.74344 0
M  V30 12675 H 1185.21 1.42331 -3.44344 0
M  V30 12676 H 1185.32 0.105168 -4.78985 0
M  V30 12677 H 1183.69 0.152608 -2.54242 0
M  V30 12678 H 1184.47 -1.41252 -3.12894 0
M  V30 12679 N 1186.91 1.56388 -0.195085 0
M  V30 12680 C 1188.14 2.02406 0.452399 0
M  V30 12681 C 1188.56 1.07432 1.54402 0
M  V30 12682 O 1187.92 0.0578246 1.81208 0
M  V30 12683 C 1187.97 3.46864 0.985778 0
M  V30 12684 O 1187.07 3.55007 2.09867 0
M  V30 12685 H 1186.42 0.65553 0.105719 0
M  V30 12686 H 1188.95 2.02299 -0.30596 0
M  V30 12687 H 1188.96 3.86655 1.30238 0
M  V30 12688 H 1187.63 4.15481 0.186662 0
M  V30 12689 H 1186.21 3.2709 1.79071 0
M  V30 12690 N 1188.39 -0.0785156 1.57404 0
M  V30 12691 C 1189.64 -0.777399 1.8655 0
M  V30 12692 C 1189.96 -1.78451 0.786142 0
M  V30 12693 O 1189.23 -1.95016 -0.185911 0
M  V30 12694 H 1187.81 -0.290097 0.688369 0
M  V30 12695 H 1190.47 -0.0562017 1.94819 0
M  V30 12696 H 1189.57 -1.29776 2.83839 0
M  V30 12697 N 1189.87 -1.5367 -0.349747 0
M  V30 12698 C 1190.82 -1.81914 -1.44948 0
M  V30 12699 C 1191.81 -0.689218 -1.54745 0
M  V30 12700 O 1193.02 -0.872448 -1.57443 0
M  V30 12701 H 1189.39 -0.576234 -0.483176 0
M  V30 12702 H 1191.36 -2.73932 -1.18338 0
M  V30 12703 C 1190.11 -2.04005 -2.81562 0
M  V30 12704 H 1189.44 -2.90399 -2.74788 0
M  V30 12705 H 1190.88 -2.27737 -3.57648 0
M  V30 12706 C 1189.34 -0.823748 -3.26674 0
M  V30 12707 O 1189.87 -0.0201351 -4.01695 0
M  V30 12708 N 1188.07 -0.642716 -2.83403 0
M  V30 12709 H 1187.62 -1.29783 -2.22517 0
M  V30 12710 H 1187.58 0.169654 -3.13942 0
M  V30 12711 N 1191.35 0.610423 -1.45298 0
M  V30 12712 C 1192.76 1.19234 -1.43667 0
M  V30 12713 C 1193.11 1.95523 -0.162794 0
M  V30 12714 O 1192.24 2.03507 0.735789 0
M  V30 12715 C 1192.83 2.16892 -2.60276 0
M  V30 12716 C 1191.39 2.70465 -2.61774 0
M  V30 12717 C 1190.54 1.45821 -2.35863 0
M  V30 12718 H 1193.49 0.399895 -1.53579 0
M  V30 12719 H 1193.51 2.99875 -2.34212 0
M  V30 12720 H 1193.02 1.61339 -3.52975 0
M  V30 12721 H 1191.12 3.29965 -1.73072 0
M  V30 12722 H 1191.23 3.15092 -3.60907 0
M  V30 12723 H 1189.6 1.74678 -1.85364 0
M  V30 12724 H 1190.38 0.921403 -3.30704 0
M  V30 12725 N 1192.83 1.32541 0.852676 0
M  V30 12726 C 1194.07 1.23214 1.607 0
M  V30 12727 C 1194.4 -0.205542 1.93411 0
M  V30 12728 O 1193.66 -1.15907 1.57683 0
M  V30 12729 C 1193.96 2.039 2.9353 0
M  V30 12730 C 1193.62 3.53237 2.8024 0
M  V30 12731 C 1192.28 3.93953 2.76323 0
M  V30 12732 C 1194.64 4.48194 2.6603 0
M  V30 12733 C 1191.96 5.27865 2.56077 0
M  V30 12734 C 1194.32 5.82251 2.47319 0
M  V30 12735 C 1192.98 6.22166 2.41796 0
M  V30 12736 H 1192.25 0.450873 0.588043 0
M  V30 12737 H 1194.9 1.63988 0.988954 0
M  V30 12738 H 1193.2 1.55861 3.59464 0
M  V30 12739 H 1194.9 1.94051 3.50921 0
M  V30 12740 H 1191.49 3.209 2.84114 0
M  V30 12741 H 1195.67 4.17656 2.681 0
M  V30 12742 H 1190.93 5.57845 2.50237 0
M  V30 12743 H 1195.1 6.55442 2.35305 0
M  V30 12744 H 1192.73 7.2587 2.25868 0
M  V30 12745 N 1194.3 -1.0692 1.15784 0
M  V30 12746 C 1195.58 -1.76367 0.845825 0
M  V30 12747 C 1195.96 -2.00594 -0.657672 0
M  V30 12748 O 1195.31 -1.62794 -1.60345 0
M  V30 12749 C 1195.52 -3.06913 1.66149 0
M  V30 12750 C 1196.87 -3.81181 1.87046 0
M  V30 12751 O 1197.89 -3.16737 1.62961 0
M  V30 12752 O 1196.75 -4.96936 2.27413 0
M  V30 12753 H 1193.84 -0.766095 0.311493 0
M  V30 12754 H 1196.39 -1.13246 1.26386 0
M  V30 12755 H 1195.16 -2.84924 2.68205 0
M  V30 12756 H 1194.79 -3.77767 1.24007 0
M  V30 12757 N 1195.78 -0.955326 -1.25345 0
M  V30 12758 C 1196.71 -0.4334 -2.25065 0
M  V30 12759 C 1197.73 0.451099 -1.56425 0
M  V30 12760 O 1198.92 0.259265 -1.76607 0
M  V30 12761 C 1196.02 0.394809 -3.36592 0
M  V30 12762 C 1195.19 -0.476856 -4.34793 0
M  V30 12763 C 1194.25 0.293269 -5.25382 0
M  V30 12764 O 1193.27 -0.30857 -5.68363 0
M  V30 12765 N 1194.48 1.58617 -5.58409 0
M  V30 12766 H 1197.24 -1.29073 -2.70482 0
M  V30 12767 H 1194.8 -0.825764 -1.39258 0
M  V30 12768 H 1196.79 0.917747 -3.94157 0
M  V30 12769 H 1195.36 1.153 -2.90559 0
M  V30 12770 H 1194.58 -1.18089 -3.76097 0
M  V30 12771 H 1195.87 -1.07178 -4.97384 0
M  V30 12772 H 1195.27 2.09705 -5.25395 0
M  V30 12773 H 1193.83 2.05506 -6.18555 0
M  V30 12774 N 1197.26 1.39987 -0.723979 0
M  V30 12775 C 1198.49 2.0556 -0.275634 0
M  V30 12776 C 1198.91 1.54207 1.07711 0
M  V30 12777 O 1198.27 0.681041 1.68022 0
M  V30 12778 C 1198.32 3.59551 -0.27485 0
M  V30 12779 O 1197.42 4.05685 0.741182 0
M  V30 12780 H 1196.76 0.651634 -0.12755 0
M  V30 12781 H 1199.29 1.79229 -0.986814 0
M  V30 12782 H 1199.3 4.07837 -0.115425 0
M  V30 12783 H 1197.98 3.96291 -1.26198 0
M  V30 12784 H 1196.55 3.6884 0.548795 0
M  V30 12785 N 1198.74 0.470782 1.50404 0
M  V30 12786 C 1199.96 -0.084284 2.07229 0
M  V30 12787 C 1200.39 -1.32774 1.33239 0
M  V30 12788 O 1199.75 -1.77274 0.379971 0
M  V30 12789 C 1199.8 -0.351565 3.58882 0
M  V30 12790 O 1198.9 -1.43211 3.86736 0
M  V30 12791 H 1198.24 0.0128479 0.663876 0
M  V30 12792 H 1200.77 0.661735 1.93603 0
M  V30 12793 H 1200.78 -0.592151 4.0368 0
M  V30 12794 H 1199.46 0.557084 4.12152 0
M  V30 12795 H 1198.03 -1.17886 3.53776 0
M  V30 12796 N 1200.22 -1.56282 0.203376 0
M  V30 12797 C 1201.15 -2.16714 -0.74616 0
M  V30 12798 C 1202.16 -1.13121 -1.17079 0
M  V30 12799 O 1203.35 -1.40179 -1.10509 0
M  V30 12800 C 1200.45 -2.72115 -2.02007 0
M  V30 12801 C 1199.62 -4.00695 -1.75391 0
M  V30 12802 C 1198.68 -4.40839 -2.8731 0
M  V30 12803 O 1197.71 -5.081 -2.56561 0
M  V30 12804 N 1198.91 -4.05024 -4.15856 0
M  V30 12805 H 1201.68 -2.98821 -0.229326 0
M  V30 12806 H 1199.24 -1.61885 0.0217049 0
M  V30 12807 H 1201.23 -2.95951 -2.76035 0
M  V30 12808 H 1199.8 -1.94415 -2.44789 0
M  V30 12809 H 1199.02 -3.84905 -0.851 0
M  V30 12810 H 1200.31 -4.8461 -1.55017 0
M  V30 12811 H 1199.71 -3.50938 -4.43688 0
M  V30 12812 H 1198.26 -4.33792 -4.86485 0
M  V30 12813 N 1201.7 0.070167 -1.57444 0
M  V30 12814 C 1203.11 0.621805 -1.76041 0
M  V30 12815 C 1203.46 1.77824 -0.829047 0
M  V30 12816 O 1202.58 2.16396 -0.0135453 0
M  V30 12817 C 1203.18 1.13476 -3.19231 0
M  V30 12818 C 1201.74 1.63225 -3.39167 0
M  V30 12819 C 1200.88 0.552369 -2.71743 0
M  V30 12820 H 1203.83 -0.156009 -1.57931 0
M  V30 12821 H 1203.86 2.00352 -3.2348 0
M  V30 12822 H 1203.37 0.29288 -3.86993 0
M  V30 12823 H 1201.47 2.49733 -2.76522 0
M  V30 12824 H 1201.58 1.70807 -4.47618 0
M  V30 12825 H 1199.95 0.997797 -2.34342 0
M  V30 12826 H 1200.73 -0.279354 -3.42162 0
M  V30 12827 N 1203.17 1.53854 0.341593 0
M  V30 12828 C 1204.11 1.78295 1.44027 0
M  V30 12829 C 1205.12 0.664303 1.4863 0
M  V30 12830 O 1206.31 0.941073 1.51678 0
M  V30 12831 C 1203.41 1.86947 2.82673 0
M  V30 12832 C 1202.58 3.16898 3.01487 0
M  V30 12833 C 1201.64 3.16483 4.20386 0
M  V30 12834 O 1200.67 3.90197 4.14409 0
M  V30 12835 N 1201.87 2.3899 5.29022 0
M  V30 12836 H 1204.63 2.73102 1.23431 0
M  V30 12837 H 1202.19 1.52928 0.531483 0
M  V30 12838 H 1204.19 1.84118 3.60392 0
M  V30 12839 H 1202.76 0.993169 2.96403 0
M  V30 12840 H 1201.98 3.32835 2.11221 0
M  V30 12841 H 1203.26 4.02733 3.1094 0
M  V30 12842 H 1202.66 1.78657 5.36748 0
M  V30 12843 H 1201.22 2.41957 6.05227 0
M  V30 12844 N 1204.65 -0.602709 1.4562 0
M  V30 12845 C 1205.58 -1.7271 1.50678 0
M  V30 12846 C 1206.6 -1.57884 0.397048 0
M  V30 12847 O 1207.79 -1.65676 0.664367 0
M  V30 12848 C 1204.89 -3.10762 1.35204 0
M  V30 12849 C 1204.06 -3.51782 2.59939 0
M  V30 12850 C 1203.12 -4.68816 2.38952 0
M  V30 12851 O 1202.14 -4.75686 3.12588 0
M  V30 12852 N 1203.35 -5.624 1.43827 0
M  V30 12853 H 1206.11 -1.68833 2.47619 0
M  V30 12854 H 1203.67 -0.788131 1.41422 0
M  V30 12855 H 1205.66 -3.86819 1.18967 0
M  V30 12856 H 1204.23 -3.09119 0.465203 0
M  V30 12857 H 1203.45 -2.65637 2.91257 0
M  V30 12858 H 1204.74 -3.75948 3.42842 0
M  V30 12859 H 1204.14 -5.59568 0.830669 0
M  V30 12860 H 1202.7 -6.37969 1.33561 0
M  V30 12861 N 1206.13 -1.32992 -0.845635 0
M  V30 12862 C 1207.06 -1.18513 -1.96182 0
M  V30 12863 C 1208.07 -0.11781 -1.62373 0
M  V30 12864 O 1209.26 -0.36761 -1.74674 0
M  V30 12865 C 1206.36 -0.793812 -3.29472 0
M  V30 12866 C 1205.54 -1.95134 -3.91461 0
M  V30 12867 C 1204.6 -1.54209 -5.03096 0
M  V30 12868 O 1203.62 -2.25545 -5.22607 0
M  V30 12869 N 1204.82 -0.443235 -5.78805 0
M  V30 12870 H 1207.59 -2.14663 -2.09141 0
M  V30 12871 H 1205.15 -1.25648 -1.02099 0
M  V30 12872 H 1207.14 -0.502263 -4.01571 0
M  V30 12873 H 1205.71 0.0768031 -3.12506 0
M  V30 12874 H 1204.93 -2.40889 -3.12035 0
M  V30 12875 H 1206.22 -2.72604 -4.2961 0
M  V30 12876 H 1205.62 0.150298 -5.655 0
M  V30 12877 H 1204.17 -0.211331 -6.51457 0
M  V30 12878 N 1207.61 1.06304 -1.1635 0
M  V30 12879 C 1209.02 1.60566 -0.952652 0
M  V30 12880 C 1209.37 1.8963 0.503473 0
M  V30 12881 O 1208.49 1.66964 1.37666 0
M  V30 12882 C 1209.09 2.9172 -1.72292 0
M  V30 12883 C 1207.65 3.42684 -1.55707 0
M  V30 12884 C 1206.8 2.16579 -1.73172 0
M  V30 12885 H 1209.75 0.892563 -1.31221 0
M  V30 12886 H 1209.77 3.61126 -1.19868 0
M  V30 12887 H 1209.28 2.70535 -2.78267 0
M  V30 12888 H 1207.38 3.68929 -0.521726 0
M  V30 12889 H 1207.49 4.18018 -2.34088 0
M  V30 12890 H 1205.86 2.26795 -1.15914 0
M  V30 12891 H 1206.64 1.97877 -2.80535 0
M  V30 12892 N 1209.09 0.96196 1.24836 0
M  V30 12893 C 1210.02 0.445329 2.24832 0
M  V30 12894 C 1211.03 -0.442797 1.56663 0
M  V30 12895 O 1212.22 -0.249896 1.76742 0
M  V30 12896 C 1209.32 -0.376953 3.36797 0
M  V30 12897 C 1208.49 0.499908 4.34534 0
M  V30 12898 C 1207.55 -0.265402 5.2553 0
M  V30 12899 O 1206.58 0.338707 5.68191 0
M  V30 12900 N 1207.78 -1.55654 5.59243 0
M  V30 12901 H 1210.54 1.30505 2.69793 0
M  V30 12902 H 1208.11 0.833137 1.38818 0
M  V30 12903 H 1210.1 -0.896831 3.94638 0
M  V30 12904 H 1208.67 -1.13757 2.91167 0
M  V30 12905 H 1207.89 1.20082 3.75465 0
M  V30 12906 H 1209.18 1.09814 4.96808 0
M  V30 12907 H 1208.57 -2.06916 5.265 0
M  V30 12908 H 1207.13 -2.02223 6.19636 0
M  V30 12909 N 1210.56 -1.39601 0.731392 0
M  V30 12910 C 1211.5 -2.29147 0.0494974 0
M  V30 12911 C 1212.51 -1.46635 -0.707248 0
M  V30 12912 O 1213.7 -1.6975 -0.552008 0
M  V30 12913 C 1210.8 -3.25191 -0.954152 0
M  V30 12914 C 1209.97 -4.36629 -0.259674 0
M  V30 12915 C 1209.03 -5.13007 -1.17092 0
M  V30 12916 O 1208.06 -5.65479 -0.64976 0
M  V30 12917 N 1209.26 -5.23865 -2.50092 0
M  V30 12918 H 1212.02 -2.88308 0.818433 0
M  V30 12919 H 1209.58 -1.51142 0.580316 0
M  V30 12920 H 1211.58 -3.73161 -1.56629 0
M  V30 12921 H 1210.15 -2.67085 -1.62432 0
M  V30 12922 H 1209.37 -3.90582 0.532888 0
M  V30 12923 H 1210.65 -5.08317 0.221753 0
M  V30 12924 H 1210.05 -4.82745 -2.94913 0
M  V30 12925 H 1208.61 -5.75288 -3.0641 0
M  V30 12926 N 1212.04 -0.478751 -1.50152 0
M  V30 12927 C 1212.97 0.347829 -2.26545 0
M  V30 12928 C 1213.99 0.950354 -1.32182 0
M  V30 12929 O 1215.18 0.837462 -1.57635 0
M  V30 12930 C 1212.28 1.50255 -3.0377 0
M  V30 12931 C 1211.45 1.01142 -4.25546 0
M  V30 12932 C 1210.51 2.0411 -4.85 0
M  V30 12933 O 1209.53 1.61862 -5.45701 0
M  V30 12934 N 1210.74 3.36982 -4.72677 0
M  V30 12935 H 1213.5 -0.307113 -2.98122 0
M  V30 12936 H 1211.06 -0.309981 -1.58905 0
M  V30 12937 H 1213.05 2.18848 -3.40423 0
M  V30 12938 H 1211.62 2.06205 -2.34943 0
M  V30 12939 H 1210.84 0.151124 -3.9391 0
M  V30 12940 H 1212.13 0.661326 -5.04484 0
M  V30 12941 H 1211.53 3.74011 -4.2442 0
M  V30 12942 H 1210.09 4.0135 -5.13577 0
M  V30 12943 N 1213.52 1.56172 -0.211661 0
M  V30 12944 C 1214.93 1.84307 0.297982 0
M  V30 12945 C 1215.28 1.1328 1.60194 0
M  V30 12946 O 1214.41 0.399137 2.12687 0
M  V30 12947 C 1215 3.34348 0.547428 0
M  V30 12948 C 1213.56 3.62835 1.0014 0
M  V30 12949 C 1212.71 2.77237 0.0590326 0
M  V30 12950 H 1215.66 1.5262 -0.435083 0
M  V30 12951 H 1215.68 3.54018 1.39469 0
M  V30 12952 H 1215.19 3.86015 -0.401778 0
M  V30 12953 H 1213.29 3.16616 1.96431 0
M  V30 12954 H 1213.41 4.70899 0.882653 0
M  V30 12955 H 1211.77 2.48377 0.564005 0
M  V30 12956 H 1212.55 3.31699 -0.884913 0
M  V30 12957 N 1215 -0.0618163 1.57479 0
M  V30 12958 C 1215.96 -1.05684 2.0338 0
M  V30 12959 C 1216.96 -1.31006 0.932423 0
M  V30 12960 O 1218.15 -1.26559 1.19702 0
M  V30 12961 C 1215.28 -2.39805 2.42294 0
M  V30 12962 H 1216.48 -0.661006 2.92525 0
M  V30 12963 H 1214.03 -0.307814 1.53239 0
M  V30 12964 H 1214.76 -2.84201 1.56207 0
M  V30 12965 H 1214.55 -2.22764 3.22674 0
M  V30 12966 H 1216.04 -3.11307 2.78349 0
M  V30 12967 N 1216.48 -1.54033 -0.333429 0
M  V30 12968 C 1217.41 -1.79056 -1.43079 0
M  V30 12969 C 1218.42 -0.672176 -1.48276 0
M  V30 12970 O 1219.61 -0.949103 -1.51176 0
M  V30 12971 C 1216.71 -1.88443 -2.81678 0
M  V30 12972 C 1215.88 -3.18493 -2.99802 0
M  V30 12973 C 1214.94 -3.18708 -4.18702 0
M  V30 12974 O 1213.97 -3.92389 -4.12334 0
M  V30 12975 N 1215.17 -2.41792 -5.27747 0
M  V30 12976 H 1217.94 -2.73753 -1.21981 0
M  V30 12977 H 1215.5 -1.53207 -0.523365 0
M  V30 12978 H 1217.49 -1.86027 -3.59411 0
M  V30 12979 H 1216.06 -1.00887 -2.95872 0
M  V30 12980 H 1215.28 -3.33951 -2.09453 0
M  V30 12981 H 1216.57 -4.04376 -3.088 0
M  V30 12982 H 1215.96 -1.81501 -5.35793 0
M  V30 12983 H 1214.52 -2.45163 -6.03936 0
M  V30 12984 N 1217.95 0.594978 -1.45938 0
M  V30 12985 C 1218.89 1.71909 -1.51591 0
M  V30 12986 C 1219.9 1.57671 -0.405416 0
M  V30 12987 O 1221.09 1.65321 -0.673144 0
M  V30 12988 C 1218.19 3.10041 -1.3685 0
M  V30 12989 C 1217.36 3.50399 -2.61801 0
M  V30 12990 C 1216.42 4.67542 -2.41435 0
M  V30 12991 O 1215.45 4.74022 -3.15106 0
M  V30 12992 N 1216.65 5.6163 -1.46808 0
M  V30 12993 H 1219.41 1.67518 -2.48511 0
M  V30 12994 H 1216.97 0.78062 -1.41838 0
M  V30 12995 H 1218.97 3.86183 -1.21017 0
M  V30 12996 H 1217.54 3.08868 -0.481589 0
M  V30 12997 H 1216.76 2.64088 -2.92662 0
M  V30 12998 H 1218.04 3.74125 -3.44831 0
M  V30 12999 H 1217.44 5.5912 -0.860333 0
M  V30 13000 H 1216 6.37252 -1.36942 0
M  V30 13001 N 1219.43 1.33438 0.838571 0
M  V30 13002 C 1220.34 1.25753 1.98049 0
M  V30 13003 C 1221.36 0.168051 1.73187 0
M  V30 13004 O 1222.53 0.391691 1.97554 0
M  V30 13005 C 1219.6 0.997148 3.32051 0
M  V30 13006 C 1218.66 2.17667 3.70027 0
M  V30 13007 C 1217.89 1.92861 4.97635 0
M  V30 13008 O 1218.12 0.879072 5.63585 0
M  V30 13009 O 1217.05 2.79402 5.33121 0
M  V30 13010 H 1220.88 2.21786 2.07472 0
M  V30 13011 H 1218.46 1.13488 0.971645 0
M  V30 13012 H 1220.34 0.869099 4.1234 0
M  V30 13013 H 1219.02 0.0671036 3.2363 0
M  V30 13014 H 1217.93 2.36025 2.90246 0
M  V30 13015 H 1219.26 3.09006 3.83114 0
M  V30 13016 N 1220.91 -1.05686 1.16912 0
M  V30 13017 C 1221.84 -2.1329 0.839044 0
M  V30 13018 C 1222.86 -1.62047 -0.156392 0
M  V30 13019 O 1224.04 -1.78366 0.0692192 0
M  V30 13020 C 1221.14 -3.38122 0.229558 0
M  V30 13021 C 1220.32 -4.18659 1.26662 0
M  V30 13022 C 1219.38 -5.21842 0.675811 0
M  V30 13023 O 1218.4 -5.53049 1.3463 0
M  V30 13024 N 1219.6 -5.78034 -0.534532 0
M  V30 13025 H 1222.37 -2.42203 1.76515 0
M  V30 13026 H 1219.93 -1.2174 1.06729 0
M  V30 13027 H 1221.92 -4.04305 -0.178868 0
M  V30 13028 H 1220.49 -3.06783 -0.60023 0
M  V30 13029 H 1219.71 -3.4804 1.85099 0
M  V30 13030 H 1221 -4.6927 1.9663 0
M  V30 13031 H 1220.4 -5.54955 -1.09731 0
M  V30 13032 H 1218.96 -6.45763 -0.885087 0
M  V30 13033 N 1222.39 -0.968567 -1.24324 0
M  V30 13034 C 1223.34 -0.498817 -2.25345 0
M  V30 13035 C 1224.31 0.456082 -1.59716 0
M  V30 13036 O 1225.49 0.366254 -1.87252 0
M  V30 13037 C 1222.63 0.204027 -3.44496 0
M  V30 13038 C 1221.74 -0.789741 -4.2472 0
M  V30 13039 C 1220.88 -0.0629156 -5.31163 0
M  V30 13040 C 1219.92 -1.04669 -6.03084 0
M  V30 13041 N 1219.05 -0.349812 -7.01228 0
M  V30 13042 H 1223.89 -1.36511 -2.64894 0
M  V30 13043 H 1221.43 -0.684288 -1.30215 0
M  V30 13044 H 1223.39 0.628223 -4.12443 0
M  V30 13045 H 1222.02 1.03426 -3.05782 0
M  V30 13046 H 1221.07 -1.33237 -3.56303 0
M  V30 13047 H 1222.38 -1.53988 -4.74436 0
M  V30 13048 H 1221.54 0.419233 -6.0525 0
M  V30 13049 H 1220.28 0.719915 -4.82357 0
M  V30 13050 H 1219.28 -1.53971 -5.278 0
M  V30 13051 H 1220.51 -1.82998 -6.53979 0
M  V30 13052 H 1218.45 0.414026 -6.54692 0
M  V30 13053 H 1218.37 -1.03881 -7.48829 0
M  V30 13054 H 1219.64 0.11034 -7.79422 0
M  V30 13055 N 1223.87 1.39211 -0.738786 0
M  V30 13056 C 1225.14 1.9442 -0.214533 0
M  V30 13057 C 1225.52 1.67528 1.28443 0
M  V30 13058 O 1224.87 1.0056 2.05183 0
M  V30 13059 C 1225.08 3.44603 -0.552232 0
M  V30 13060 C 1226.43 4.21602 -0.503663 0
M  V30 13061 O 1227.45 3.52819 -0.489647 0
M  V30 13062 O 1226.31 5.44194 -0.50153 0
M  V30 13063 H 1223.41 0.826011 -0.0404247 0
M  V30 13064 H 1225.95 1.48689 -0.817902 0
M  V30 13065 H 1224.72 3.57626 -1.58806 0
M  V30 13066 H 1224.35 3.9752 0.0799096 0
M  V30 13067 N 1225.34 0.486708 1.49896 0
M  V30 13068 C 1226.57 -0.0622999 2.07306 0
M  V30 13069 C 1226.99 -1.31353 1.3464 0
M  V30 13070 O 1226.35 -1.76861 0.398752 0
M  V30 13071 C 1226.4 -0.313481 3.59235 0
M  V30 13072 O 1225.5 -1.39101 3.88233 0
M  V30 13073 H 1224.85 0.0198885 0.663702 0
M  V30 13074 H 1227.38 0.682232 1.92891 0
M  V30 13075 H 1227.39 -0.549302 4.04285 0
M  V30 13076 H 1226.06 0.600767 4.11538 0
M  V30 13077 H 1224.64 -1.14127 3.55006 0
M  V30 13078 N 1226.82 -1.56058 0.219941 0
M  V30 13079 C 1228.1 -1.90087 -0.46112 0
M  V30 13080 C 1228.48 -1.13705 -1.77861 0
M  V30 13081 O 1227.83 -0.245868 -2.27173 0
M  V30 13082 C 1228.04 -3.42786 -0.655644 0
M  V30 13083 C 1229.39 -4.13517 -0.963803 0
M  V30 13084 O 1230.41 -3.48376 -0.742488 0
M  V30 13085 O 1229.27 -5.28692 -1.38374 0
M  V30 13086 H 1226.36 -0.790311 -0.243595 0
M  V30 13087 H 1228.91 -1.67665 0.262005 0
M  V30 13088 H 1227.68 -3.90341 0.273738 0
M  V30 13089 H 1227.3 -3.70982 -1.43032 0
M  V30 13090 N 1228.3 0.053464 -1.57509 0
M  V30 13091 C 1229.55 0.747622 -1.87763 0
M  V30 13092 C 1229.87 1.77178 -0.814433 0
M  V30 13093 O 1229.14 1.95287 0.154862 0
M  V30 13094 H 1227.72 0.279109 -0.692898 0
M  V30 13095 H 1230.38 0.0252006 -1.94884 0
M  V30 13096 H 1229.48 1.25244 -2.85868 0
M  V30 13097 N 1229.78 1.54207 0.325255 0
M  V30 13098 C 1231.03 1.72587 1.06497 0
M  V30 13099 C 1231.36 0.497228 1.87727 0
M  V30 13100 O 1230.63 -0.505804 1.87808 0
M  V30 13101 C 1230.92 3.00046 1.99109 0
M  V30 13102 C 1230.77 4.33158 1.21221 0
M  V30 13103 C 1232.09 3.23251 2.98658 0
M  V30 13104 H 1229.21 0.627974 0.38577 0
M  V30 13105 H 1231.85 1.869 0.34179 0
M  V30 13106 H 1230 2.87973 2.60775 0
M  V30 13107 H 1231.67 4.57111 0.620289 0
M  V30 13108 H 1229.91 4.30739 0.514462 0
M  V30 13109 H 1230.59 5.18558 1.89214 0
M  V30 13110 H 1233.06 3.34774 2.47114 0
M  V30 13111 H 1231.94 4.13796 3.60645 0
M  V30 13112 H 1232.2 2.40401 3.71026 0
M  V30 13113 N 1231.26 -0.58723 1.46251 0
M  V30 13114 C 1232.22 -1.67863 1.5606 0
M  V30 13115 C 1233.22 -1.54715 0.438162 0
M  V30 13116 O 1234.41 -1.59415 0.702323 0
M  V30 13117 C 1231.54 -3.07262 1.47659 0
M  V30 13118 H 1232.74 -1.60525 2.53321 0
M  V30 13119 H 1230.29 -0.804691 1.33994 0
M  V30 13120 H 1231.02 -3.20159 0.5166 0
M  V30 13121 H 1230.81 -3.18213 2.29092 0
M  V30 13122 H 1232.3 -3.8672 1.57599 0
M  V30 13123 N 1232.74 -1.33881 -0.831482 0
M  V30 13124 C 1233.98 -1.25507 -1.58406 0
M  V30 13125 C 1234.3 0.177137 -1.94194 0
M  V30 13126 O 1233.57 1.10769 -1.61576 0
M  V30 13127 H 1232.15 -0.461551 -0.587349 0
M  V30 13128 H 1234.82 -1.6769 -0.99328 0
M  V30 13129 H 1233.91 -1.85391 -2.51071 0
M  V30 13130 N 1234.21 1.05064 -1.1747 0
M  V30 13131 C 1235.46 1.78491 -0.975314 0
M  V30 13132 C 1235.81 1.86036 0.490734 0
M  V30 13133 O 1235.11 1.35005 1.35956 0
M  V30 13134 C 1235.3 3.21961 -1.55164 0
M  V30 13135 C 1235.13 3.28399 -3.0722 0
M  V30 13136 C 1233.9 3.37611 -3.75962 0
M  V30 13137 C 1236.1 3.17234 -4.04805 0
M  V30 13138 N 1234.08 3.33193 -5.15612 0
M  V30 13139 C 1235.45 3.20202 -5.30915 0
M  V30 13140 C 1237.51 3.01205 -3.96459 0
M  V30 13141 C 1236.21 3.08787 -6.49648 0
M  V30 13142 C 1238.24 2.91133 -5.14777 0
M  V30 13143 C 1237.6 2.94735 -6.39774 0
M  V30 13144 H 1233.7 0.665407 -0.4108 0
M  V30 13145 H 1236.28 1.25236 -1.49077 0
M  V30 13146 H 1234.45 3.73585 -1.0625 0
M  V30 13147 H 1236.18 3.83632 -1.28876 0
M  V30 13148 H 1232.94 3.42926 -3.26648 0
M  V30 13149 H 1233.36 3.3445 -5.88619 0
M  V30 13150 H 1238 2.97258 -3.00662 0
M  V30 13151 H 1235.72 3.11489 -7.45654 0
M  V30 13152 H 1239.31 2.798 -5.10101 0
M  V30 13153 H 1238.19 2.87016 -7.29789 0
M  V30 13154 N 1235.69 0.975146 1.23809 0
M  V30 13155 C 1236.94 0.636678 1.91388 0
M  V30 13156 C 1237.25 -0.832876 1.76982 0
M  V30 13157 O 1238.46 -1.28218 2.39316 0
M  V30 13158 C 1236.92 1.08813 3.43057 0
M  V30 13159 C 1236.52 2.58165 3.66135 0
M  V30 13160 C 1238.27 0.823154 4.16443 0
M  V30 13161 C 1236.17 2.97004 5.11412 0
M  V30 13162 H 1235.1 0.234424 0.716632 0
M  V30 13163 H 1237.76 1.18235 1.40331 0
M  V30 13164 H 1236.14 0.470709 3.93192 0
M  V30 13165 H 1237.31 3.25101 3.26567 0
M  V30 13166 H 1235.63 2.82353 3.06049 0
M  V30 13167 H 1238.22 1.08925 5.23488 0
M  V30 13168 H 1238.57 -0.240705 4.15604 0
M  V30 13169 H 1239.1 1.4019 3.72279 0
M  V30 13170 H 1235.84 4.02492 5.17378 0
M  V30 13171 H 1235.36 2.34759 5.51949 0
M  V30 13172 H 1237.04 2.8732 5.79704 0
M  V30 13173 N 1237.17 -1.38817 0.746158 0
M  V30 13174 C 1238.12 -2.30521 0.113517 0
M  V30 13175 C 1239.09 -1.49795 -0.717682 0
M  V30 13176 O 1240.27 -1.78448 -0.675345 0
M  V30 13177 C 1237.41 -3.36185 -0.779343 0
M  V30 13178 C 1236.52 -4.3195 0.0656784 0
M  V30 13179 C 1235.66 -5.24684 -0.829492 0
M  V30 13180 C 1234.7 -6.12097 0.0196112 0
M  V30 13181 N 1233.84 -6.97152 -0.832107 0
M  V30 13182 H 1238.68 -2.84048 0.901136 0
M  V30 13183 H 1236.21 -1.39853 0.456025 0
M  V30 13184 H 1238.17 -3.96048 -1.31156 0
M  V30 13185 H 1236.8 -2.84085 -1.53282 0
M  V30 13186 H 1235.85 -3.73611 0.715445 0
M  V30 13187 H 1237.16 -4.93551 0.721735 0
M  V30 13188 H 1236.32 -5.89627 -1.42915 0
M  V30 13189 H 1235.06 -4.63431 -1.5193 0
M  V30 13190 H 1234.06 -5.46156 0.631991 0
M  V30 13191 H 1235.29 -6.75416 0.706369 0
M  V30 13192 H 1233.23 -6.38456 -1.507 0
M  V30 13193 H 1233.15 -7.55642 -0.232782 0
M  V30 13194 H 1234.42 -7.66513 -1.41697 0
M  V30 13195 N 1238.65 -0.49465 -1.49636 0
M  V30 13196 C 1239.92 0.114829 -1.95263 0
M  V30 13197 C 1240.3 1.54739 -1.43593 0
M  V30 13198 O 1239.65 2.1915 -0.646953 0
M  V30 13199 C 1239.86 0.0339912 -3.48983 0
M  V30 13200 C 1241.21 0.211108 -4.24075 0
M  V30 13201 O 1242.23 0.109478 -3.56032 0
M  V30 13202 O 1241.09 0.418971 -5.44892 0
M  V30 13203 H 1238.19 0.0987883 -0.821078 0
M  V30 13204 H 1240.73 -0.556736 -1.60308 0
M  V30 13205 H 1239.51 -0.965287 -3.79207 0
M  V30 13206 H 1239.13 0.745982 -3.90539 0
M  V30 13207 N 1240.13 1.55939 -0.228214 0
M  V30 13208 C 1241.06 2.16566 0.719321 0
M  V30 13209 C 1242.04 1.11204 1.18627 0
M  V30 13210 O 1243.22 1.39495 1.2678 0
M  V30 13211 C 1240.35 2.75132 1.97536 0
M  V30 13212 C 1239.39 3.93381 1.64783 0
M  V30 13213 S 1240.23 5.29982 0.76678 0
M  V30 13214 C 1241.38 5.91989 2.03223 0
M  V30 13215 H 1241.62 2.96599 0.204035 0
M  V30 13216 H 1239.15 1.54395 -0.0128406 0
M  V30 13217 H 1241.11 3.09512 2.69652 0
M  V30 13218 H 1239.77 1.95079 2.46176 0
M  V30 13219 H 1238.96 4.32884 2.58122 0
M  V30 13220 H 1238.56 3.60181 1.00724 0
M  V30 13221 H 1240.85 6.08368 2.98152 0
M  V30 13222 H 1241.8 6.87858 1.68099 0
M  V30 13223 H 1242.21 5.20883 2.1758 0
M  V30 13224 N 1241.6 -0.0451101 1.57535 0
M  V30 13225 C 1242.85 -0.739114 1.88529 0
M  V30 13226 C 1243.18 -1.76208 0.823468 0
M  V30 13227 O 1242.43 -1.94893 -0.177512 0
M  V30 13228 C 1242.73 -1.45938 3.26247 0
M  V30 13229 C 1242.4 -0.57391 4.47233 0
M  V30 13230 C 1241.06 -0.329974 4.80067 0
M  V30 13231 C 1243.41 0.0384272 5.21186 0
M  V30 13232 C 1240.74 0.535339 5.84253 0
M  V30 13233 C 1243.09 0.891349 6.26289 0
M  V30 13234 C 1241.76 1.1449 6.57608 0
M  V30 13235 H 1241.03 -0.270461 0.689878 0
M  V30 13236 H 1243.67 0.000714103 1.915 0
M  V30 13237 H 1241.98 -2.27212 3.1919 0
M  V30 13238 H 1243.68 -2.00162 3.47471 0
M  V30 13239 H 1240.27 -0.774181 4.2155 0
M  V30 13240 H 1244.45 -0.137096 4.96111 0
M  V30 13241 H 1239.71 0.740253 6.06902 0
M  V30 13242 H 1243.88 1.37243 6.82743 0
M  V30 13243 H 1241.51 1.81715 7.38162 0
M  V30 13244 N 1243.08 -1.54377 -0.317073 0
M  V30 13245 C 1244.33 -1.72551 -1.05216 0
M  V30 13246 C 1244.65 -0.5055 -1.88334 0
M  V30 13247 O 1243.92 0.480439 -1.89917 0
M  V30 13248 H 1242.5 -0.636222 -0.391447 0
M  V30 13249 H 1245.16 -1.91696 -0.35194 0
M  V30 13250 H 1244.26 -2.60791 -1.71448 0
M  V30 13251 N 1244.56 0.579466 -1.4656 0
M  V30 13252 C 1245.79 1.36837 -1.55854 0
M  V30 13253 C 1246.21 1.87019 -0.20141 0
M  V30 13254 O 1245.57 1.61746 0.81901 0
M  V30 13255 C 1245.62 2.52965 -2.56985 0
M  V30 13256 O 1244.72 3.54505 -2.10713 0
M  V30 13257 H 1244.06 0.407379 -0.524345 0
M  V30 13258 H 1246.59 0.702558 -1.9216 0
M  V30 13259 H 1246.6 2.99838 -2.76697 0
M  V30 13260 H 1245.28 2.15793 -3.55536 0
M  V30 13261 H 1243.85 3.14089 -2.01003 0
M  V30 13262 N 1246.04 1.3432 0.824371 0
M  V30 13263 C 1246.99 1.2578 1.95658 0
M  V30 13264 C 1247.98 0.156199 1.68678 0
M  V30 13265 O 1249.19 0.321081 1.77113 0
M  V30 13266 H 1245.56 0.390711 0.642533 0
M  V30 13267 H 1247.53 2.21471 1.99983 0
M  V30 13268 C 1246.28 1.02865 3.32136 0
M  V30 13269 H 1245.6 1.86863 3.53443 0
M  V30 13270 H 1247.04 1.00925 4.11813 0
M  V30 13271 C 1245.5 -0.268097 3.35832 0
M  V30 13272 O 1246.03 -1.26995 3.81097 0
M  V30 13273 N 1244.24 -0.300702 2.8904 0
M  V30 13274 H 1243.79 0.51515 2.52396 0
M  V30 13275 H 1243.74 -1.16811 2.91895 0
M  V30 13276 O 1247.56 -0.962736 1.29667 0
M  V30 13277 H 1248.25 -1.58973 1.10668 0
M  V30 END ATOM
M  V30 BEGIN BOND
M  V30 END BOND
M  V30 END CTAB
M  END
$$$$
