drugbank_target|P51691 Arylsulfatase (DB02289)
 OpenBabel12092119553D

  0  0  0     0  0            999 V3000
M  V30 BEGIN CTAB
M  V30 COUNTS 8363 8481 0 0 0
M  V30 BEGIN ATOM
M  V30 1 H -0.908 1.98254 -0.117106 0
M  V30 2 N 0 1.576 0 0
M  V30 3 C 0.933 2.03868 1.02534 0
M  V30 4 C 1.911 0.928543 1.3348 0
M  V30 5 O 3.095 1.19667 1.45644 0
M  V30 6 C 0.222 2.43627 2.35294 0
M  V30 7 C -0.732 3.65373 2.2001 0
M  V30 8 S 0.101 5.13292 1.52614 0
M  V30 9 C 1.257 5.56322 2.86805 0
M  V30 10 H 1.49 2.90518 0.631377 0
M  V30 11 H -0.977 1.52953 0.210867 0
M  V30 12 H 0.981 2.67203 3.11629 0
M  V30 13 H -0.358 1.57376 2.7183 0
M  V30 14 H -1.165 3.90944 3.18086 0
M  V30 15 H -1.563 3.418 1.51819 0
M  V30 16 H 0.729 5.58782 3.83104 0
M  V30 17 H 1.672 6.56266 2.65933 0
M  V30 18 H 2.08 4.83886 2.90714 0
M  V30 19 N 1.4781 -0.272755 1.55222 0
M  V30 20 C 2.7031 -1.02683 1.80197 0
M  V30 21 C 3.1281 -1.79142 0.573551 0
M  V30 22 O 2.4861 -1.74917 -0.476849 0
M  V30 23 C 2.5341 -1.9609 3.02624 0
M  V30 24 O 1.6381 -3.04863 2.77727 0
M  V30 25 H 0.9791 -0.293557 0.595584 0
M  V30 26 H 3.5091 -0.30159 2.02365 0
M  V30 27 H 3.5191 -2.38039 3.31363 0
M  V30 28 H 2.1941 -1.39851 3.91682 0
M  V30 29 H 0.7711 -2.67228 2.60084 0
M  V30 30 N 2.9562 -1.48159 -0.537278 0
M  V30 31 C 3.9032 -1.62138 -1.64256 0
M  V30 32 C 4.8732 -0.463668 -1.59497 0
M  V30 33 O 6.0582 -0.686241 -1.78032 0
M  V30 34 C 3.1982 -1.66028 -3.02537 0
M  V30 35 C 2.3112 -2.92855 -3.17585 0
M  V30 36 C 1.4462 -2.87952 -4.46382 0
M  V30 37 C 0.4852 -4.09516 -4.54932 0
M  V30 38 N -0.3778 -4.02733 -5.75109 0
M  V30 39 H 4.4622 -2.56529 -1.51647 0
M  V30 40 H 1.9992 -1.27224 -0.738414 0
M  V30 41 H 3.9572 -1.66265 -3.82638 0
M  V30 42 H 2.5872 -0.751331 -3.13934 0
M  V30 43 H 1.6392 -3.02395 -2.30784 0
M  V30 44 H 2.9512 -3.82822 -3.19764 0
M  V30 45 H 2.1052 -2.8655 -5.34765 0
M  V30 46 H 0.8442 -1.95702 -4.46712 0
M  V30 47 H -0.1508 -4.11201 -3.64957 0
M  V30 48 H 1.0742 -5.02917 -4.56346 0
M  V30 49 H -0.9798 -3.13299 -5.76351 0
M  V30 50 H -1.0628 -4.86397 -5.78752 0
M  V30 51 H 0.2052 -4.05379 -6.65799 0
M  V30 52 N 4.4343 0.785586 -1.36625 0
M  V30 53 C 5.8503 1.08419 -1.17122 0
M  V30 54 C 6.0503 2.015 0.00208491 0
M  V30 55 O 5.1063 2.43551 0.666278 0
M  V30 56 C 6.4193 1.69498 -2.48377 0
M  V30 57 C 7.9673 1.81821 -2.54775 0
M  V30 58 C 8.4423 2.46315 -3.86126 0
M  V30 59 N 9.9333 2.53779 -3.87492 0
M  V30 60 C 10.6683 3.045 -4.85868 0
M  V30 61 N 10.1643 3.55499 -5.94637 0
M  V30 62 N 11.9573 3.03247 -4.73284 0
M  V30 63 H 4.1083 0.167264 -2.1174 0
M  V30 64 H 6.3713 0.13682 -0.938075 0
M  V30 65 H 6.0773 1.08571 -3.34522 0
M  V30 66 H 5.9513 2.6896 -2.64462 0
M  V30 67 H 8.3383 2.41884 -1.69045 0
M  V30 68 H 8.4193 0.811532 -2.42586 0
M  V30 69 H 8.0633 1.86895 -4.72263 0
M  V30 70 H 7.9933 3.47561 -3.95612 0
M  V30 71 H 10.4843 2.17672 -3.08913 0
M  V30 72 H 10.7973 3.92562 -6.65669 0
M  V30 73 H 9.1423 3.5364 -5.98301 0
M  V30 74 H 12.3333 2.62696 -3.87438 0
M  V30 75 H 12.5063 3.42467 -5.50109 0
M  V30 76 N 5.9124 1.20967 1.01018 0
M  V30 77 C 7.3234 1.02319 1.56165 0
M  V30 78 C 7.6744 -0.418546 1.91684 0
M  V30 79 O 6.7994 -1.30096 1.72928 0
M  V30 80 C 7.3944 1.85109 2.8376 0
M  V30 81 C 5.9534 1.70809 3.35412 0
M  V30 82 C 5.1004 1.82643 2.08655 0
M  V30 83 H 8.0514 1.35065 0.833255 0
M  V30 84 H 8.0724 1.35827 3.55431 0
M  V30 85 H 7.5844 2.90035 2.57878 0
M  V30 86 H 5.6854 0.685464 3.66241 0
M  V30 87 H 5.7984 2.52467 4.07182 0
M  V30 88 H 4.1624 1.25896 2.21409 0
M  V30 89 H 4.9454 2.89066 1.85191 0
M  V30 90 N 7.3905 -1.2043 1.01659 0
M  V30 91 C 8.3385 -2.25249 0.580143 0
M  V30 92 C 9.3325 -1.65057 -0.381115 0
M  V30 93 O 10.5385 -1.78241 -0.251039 0
M  V30 94 H 6.9135 -0.732695 0.169299 0
M  V30 95 H 8.8845 -2.59389 1.47512 0
M  V30 96 C 7.6335 -3.47638 -0.065788 0
M  V30 97 H 6.9565 -3.94233 0.664874 0
M  V30 98 H 8.3965 -4.2268 -0.334282 0
M  V30 99 C 6.8555 -3.10447 -1.3086 0
M  V30 100 O 7.3855 -3.21981 -2.4019 0
M  V30 101 N 5.5915 -2.64996 -1.1927 0
M  V30 102 H 5.1385 -2.55811 -0.303064 0
M  V30 103 H 5.0965 -2.40482 -2.02523 0
M  V30 104 N 8.8686 -0.792821 -1.36206 0
M  V30 105 C 10.1156 -0.366786 -1.99151 0
M  V30 106 C 10.4436 1.06243 -1.62919 0
M  V30 107 O 9.6986 1.74927 -0.877442 0
M  V30 108 C 9.9976 -0.481501 -3.54142 0
M  V30 109 C 9.6636 -1.87202 -4.10203 0
M  V30 110 C 8.3256 -2.25248 -4.25226 0
M  V30 111 C 10.6776 -2.78237 -4.40719 0
M  V30 112 C 8.0056 -3.53723 -4.68078 0
M  V30 113 C 10.3576 -4.06144 -4.85005 0
M  V30 114 C 9.0216 -4.44207 -4.98234 0
M  V30 115 H 8.2916 -0.134217 -0.728743 0
M  V30 116 H 10.9386 -1.01094 -1.62641 0
M  V30 117 H 9.2436 0.246146 -3.91026 0
M  V30 118 H 10.9406 -0.132844 -4.0078 0
M  V30 119 H 7.5306 -1.56639 -3.98951 0
M  V30 120 H 11.7146 -2.50097 -4.28679 0
M  V30 121 H 6.9706 -3.8308 -4.76508 0
M  V30 122 H 11.1446 -4.76796 -5.07581 0
M  V30 123 H 8.7716 -5.43814 -5.31197 0
M  V30 124 N 10.3467 1.47872 -0.545128 0
M  V30 125 C 11.2767 2.32661 0.197793 0
M  V30 126 C 12.2577 1.43041 0.920504 0
M  V30 127 O 13.4427 1.71912 0.90333 0
M  V30 128 C 10.5727 3.24569 1.23582 0
M  V30 129 C 9.5267 4.23333 0.630323 0
M  V30 130 C 8.8527 5.0448 1.77211 0
M  V30 131 C 10.1527 5.20704 -0.407974 0
M  V30 132 H 11.8467 2.95024 -0.510045 0
M  V30 133 H 9.3927 1.4187 -0.246731 0
M  V30 134 H 11.3457 3.8272 1.76362 0
M  V30 135 H 10.0697 2.60236 1.97344 0
M  V30 136 H 8.7287 3.6639 0.123922 0
M  V30 137 H 8.3767 4.36561 2.49847 0
M  V30 138 H 8.0767 5.71339 1.37281 0
M  V30 139 H 9.6007 5.65487 2.3034 0
M  V30 140 H 11.0147 5.7329 0.033305 0
M  V30 141 H 9.4117 5.95699 -0.725486 0
M  V30 142 H 10.4817 4.66917 -1.30828 0
M  V30 143 N 11.8248 0.280983 1.55075 0
M  V30 144 C 13.0708 -0.33461 2.00021 0
M  V30 145 C 13.4038 -1.55063 1.16915 0
M  V30 146 O 12.6788 -1.93006 0.240646 0
M  V30 147 C 12.9618 -0.711007 3.53011 0
M  V30 148 C 12.8148 0.512766 4.46868 0
M  V30 149 C 14.1338 -1.54522 4.12081 0
M  V30 150 H 11.2528 -0.120147 0.727141 0
M  V30 151 H 13.8948 0.389097 1.85973 0
M  V30 152 H 12.0448 -1.32761 3.65112 0
M  V30 153 H 13.7168 1.15131 4.46702 0
M  V30 154 H 11.9598 1.14975 4.18286 0
M  V30 155 H 12.6308 0.205556 5.51617 0
M  V30 156 H 15.1068 -1.02442 4.03293 0
M  V30 157 H 13.9828 -1.77739 5.19327 0
M  V30 158 H 14.2438 -2.52813 3.62682 0
M  V30 159 N 13.3029 -1.57598 0.00835791 0
M  V30 160 C 14.5519 -1.90107 -0.673968 0
M  V30 161 C 14.8649 -0.884275 -1.7447 0
M  V30 162 O 16.0709 -1.09987 -2.48224 0
M  V30 163 C 14.5269 -3.37497 -1.24995 0
M  V30 164 C 14.1349 -4.47491 -0.2136 0
M  V30 165 C 15.8789 -3.79104 -1.90999 0
M  V30 166 C 13.7859 -5.85963 -0.80005 0
M  V30 167 H 12.7159 -0.709393 -0.255495 0
M  V30 168 H 15.3669 -1.83365 0.0702693 0
M  V30 169 H 13.7489 -3.39102 -2.04513 0
M  V30 170 H 14.9229 -4.57414 0.557596 0
M  V30 171 H 13.2379 -4.14956 0.346474 0
M  V30 172 H 15.8349 -4.79901 -2.35795 0
M  V30 173 H 16.1779 -3.1306 -2.74407 0
M  V30 174 H 16.7109 -3.79833 -1.18203 0
M  V30 175 H 13.4499 -6.555 -0.00456708 0
M  V30 176 H 12.9699 -5.79687 -1.54021 0
M  V30 177 H 14.6489 -6.33884 -1.29615 0
M  V30 178 N 14.781 0.264519 -1.55364 0
M  V30 179 C 16.027 0.99646 -1.76631 0
M  V30 180 C 16.36 1.85632 -0.570478 0
M  V30 181 O 15.635 1.89647 0.43175 0
M  V30 182 C 15.918 1.87187 -3.07625 0
M  V30 183 C 15.771 1.04138 -4.37579 0
M  V30 184 C 17.09 2.85749 -3.34717 0
M  V30 185 H 14.209 0.360841 -0.642622 0
M  V30 186 H 16.851 0.268218 -1.88097 0
M  V30 187 H 15.001 2.49279 -2.9798 0
M  V30 188 H 16.673 0.440517 -4.59192 0
M  V30 189 H 14.916 0.345115 -4.32425 0
M  V30 190 H 15.587 1.68729 -5.2558 0
M  V30 191 H 18.063 2.33793 -3.4421 0
M  V30 192 H 16.939 3.44136 -4.27623 0
M  V30 193 H 17.2 3.61311 -2.54768 0
M  V30 194 N 16.2591 1.48442 0.529413 0
M  V30 195 C 17.2221 1.62524 1.61612 0
M  V30 196 C 18.2221 0.498509 1.52877 0
M  V30 197 O 19.4121 0.76431 1.56537 0
M  V30 198 C 16.5441 1.59597 3.01233 0
M  V30 199 H 17.7371 2.59423 1.50465 0
M  V30 200 H 15.2901 1.37047 0.751514 0
M  V30 201 H 16.0251 0.641781 3.17886 0
M  V30 202 H 15.8101 2.41397 3.08982 0
M  V30 203 H 17.3001 1.72646 3.80241 0
M  V30 204 N 17.7372 -0.778329 1.37039 0
M  V30 205 C 19.0142 -1.52551 1.22424 0
M  V30 206 C 19.3942 -2.10288 -0.184964 0
M  V30 207 O 18.7422 -1.94953 -1.19187 0
M  V30 208 C 18.9522 -2.61164 2.31504 0
M  V30 209 C 20.3002 -3.28746 2.68721 0
M  V30 210 O 21.3242 -2.71455 2.30631 0
M  V30 211 O 20.1832 -4.3231 3.3432 0
M  V30 212 H 17.2772 -0.675343 0.477326 0
M  V30 213 H 19.8232 -0.815859 1.48801 0
M  V30 214 H 18.5952 -2.16574 3.25901 0
M  V30 215 H 18.2182 -3.39737 2.06554 0
M  V30 216 N 19.2153 -1.21501 -1.00376 0
M  V30 217 C 20.4923 -0.941745 -1.71437 0
M  V30 218 C 20.8723 0.546114 -2.03914 0
M  V30 219 O 20.2203 1.51128 -1.71384 0
M  V30 220 C 20.4303 -1.82812 -2.97289 0
M  V30 221 C 21.7783 -2.07771 -3.70292 0
M  V30 222 O 22.8023 -1.80171 -3.07273 0
M  V30 223 O 21.6613 -2.54456 -4.83647 0
M  V30 224 H 18.7553 -0.353243 -0.747762 0
M  V30 225 H 21.3013 -1.32436 -1.06108 0
M  V30 226 H 20.0733 -2.83501 -2.69709 0
M  V30 227 H 19.6963 -1.4464 -3.70358 0
M  V30 228 N 20.6934 1.19889 -1.02296 0
M  V30 229 C 21.6234 2.25141 -0.619174 0
M  V30 230 C 22.6044 1.66051 0.368915 0
M  V30 231 O 23.7894 1.92546 0.252941 0
M  V30 232 C 20.9194 3.4728 0.0368783 0
M  V30 233 C 19.8734 4.19005 -0.872865 0
M  V30 234 C 19.1994 5.34637 -0.0822402 0
M  V30 235 C 20.4994 4.74452 -2.18387 0
M  V30 236 H 22.1934 2.59171 -1.49903 0
M  V30 237 H 19.7394 1.24579 -0.722222 0
M  V30 238 H 21.6924 4.20098 0.330958 0
M  V30 239 H 20.4164 3.12433 0.95149 0
M  V30 240 H 19.0754 3.48061 -1.15105 0
M  V30 241 H 18.7234 4.96034 0.83422 0
M  V30 242 H 18.4234 5.83557 -0.688149 0
M  V30 243 H 19.9474 6.10255 0.205238 0
M  V30 244 H 21.3614 5.39055 -1.95172 0
M  V30 245 H 19.7584 5.33834 -2.74119 0
M  V30 246 H 20.8284 3.92844 -2.84257 0
M  V30 247 N 22.1715 0.800033 1.35784 0
M  V30 248 C 23.4195 0.376597 1.9856 0
M  V30 249 C 23.7405 -1.05812 1.63795 0
M  V30 250 O 23.0105 -1.73103 0.917171 0
M  V30 251 H 21.5905 0.136261 0.734467 0
M  V30 252 H 24.2525 1.02442 1.65806 0
M  V30 253 H 23.3485 0.477002 3.08433 0
M  V30 254 N 23.6496 -1.47581 0.552962 0
M  V30 255 C 24.8966 -2.02482 0.0273243 0
M  V30 256 C 25.2246 -1.42776 -1.32081 0
M  V30 257 O 24.4796 -0.571393 -1.87173 0
M  V30 258 C 24.7786 -3.57199 -0.119728 0
M  V30 259 C 24.4446 -4.35804 1.15697 0
M  V30 260 C 23.1066 -4.57 1.50681 0
M  V30 261 C 25.4586 -4.81167 2.00319 0
M  V30 262 C 22.7866 -5.20807 2.70142 0
M  V30 263 C 25.1386 -5.46293 3.18978 0
M  V30 264 C 23.8026 -5.65722 3.54281 0
M  V30 265 H 23.0726 -0.740933 0.00999866 0
M  V30 266 H 25.7196 -1.77302 0.72362 0
M  V30 267 H 24.0246 -3.81348 -0.89896 0
M  V30 268 H 25.7216 -3.97324 -0.541718 0
M  V30 269 H 22.3116 -4.19582 0.874561 0
M  V30 270 H 26.4956 -4.64574 1.74599 0
M  V30 271 H 21.7516 -5.34045 2.97668 0
M  V30 272 H 25.9256 -5.80407 3.84838 0
M  V30 273 H 23.5526 -6.14936 4.46942 0
M  V30 274 N 25.1277 -0.289203 -1.54924 0
M  V30 275 C 26.3527 0.329299 -2.04769 0
M  V30 276 C 26.7777 1.4763 -1.16564 0
M  V30 277 O 26.1357 1.80527 -0.167186 0
M  V30 278 C 26.1837 0.774438 -3.52186 0
M  V30 279 O 25.2877 1.88038 -3.67036 0
M  V30 280 H 24.6287 0.0659259 -0.660719 0
M  V30 281 H 27.1587 -0.42761 -2.00082 0
M  V30 282 H 27.1687 1.06642 -3.93816 0
M  V30 283 H 25.8437 -0.0646707 -4.1585 0
M  V30 284 H 24.4207 1.58985 -3.3731 0
M  V30 285 N 26.6058 1.57591 -0.0167156 0
M  V30 286 C 27.8828 1.82547 0.702564 0
M  V30 287 C 28.2628 0.898018 1.91047 0
M  V30 288 O 27.6108 -0.0493456 2.28447 0
M  V30 289 C 27.8208 3.31459 1.09251 0
M  V30 290 C 29.1688 3.97622 1.48937 0
M  V30 291 O 30.1928 3.35881 1.18584 0
M  V30 292 O 29.0518 5.06415 2.05442 0
M  V30 293 H 26.1458 0.752268 0.343544 0
M  V30 294 H 28.6918 1.69644 -0.0434495 0
M  V30 295 H 27.4638 3.9061 0.23227 0
M  V30 296 H 27.0868 3.49422 1.89709 0
M  V30 297 N 28.0839 -0.256276 1.55502 0
M  V30 298 C 29.3329 -0.983486 1.76098 0
M  V30 299 C 29.6459 -1.86837 0.578896 0
M  V30 300 O 30.8519 -2.63163 0.667648 0
M  V30 301 C 29.3079 -1.79868 3.1173 0
M  V30 302 C 28.9159 -0.961648 4.37557 0
M  V30 303 C 30.6599 -2.51919 3.41668 0
M  V30 304 C 28.5669 -1.77219 5.64223 0
M  V30 305 H 27.4969 -0.370936 0.656447 0
M  V30 306 H 30.1479 -0.238492 1.81944 0
M  V30 307 H 28.5299 -2.58527 2.99966 0
M  V30 308 H 29.7039 -0.218048 4.60284 0
M  V30 309 H 28.0189 -0.354913 4.14885 0
M  V30 310 H 30.6159 -3.12998 4.33516 0
M  V30 311 H 30.9589 -3.23059 2.62562 0
M  V30 312 H 31.4919 -1.80278 3.54605 0
M  V30 313 H 28.2309 -1.10471 6.46124 0
M  V30 314 H 27.7509 -2.49132 5.45613 0
M  V30 315 H 29.4299 -2.34169 6.03137 0
M  V30 316 N 29.562 -1.4872 -0.521534 0
M  V30 317 C 30.81 -1.56857 -1.27437 0
M  V30 318 C 31.131 -0.247982 -1.93417 0
M  V30 319 O 30.401 0.731151 -1.81744 0
M  V30 320 H 28.981 -0.577885 -0.473347 0
M  V30 321 H 31.643 -1.85233 -0.606205 0
M  V30 322 H 30.739 -2.35402 -2.0492 0
M  V30 323 N 31.0401 0.771051 -1.3745 0
M  V30 324 C 32.0031 1.86598 -1.33093 0
M  V30 325 C 33.0031 1.59076 -0.234845 0
M  V30 326 O 34.1931 1.67145 -0.490732 0
M  V30 327 C 31.3251 3.23747 -1.06773 0
M  V30 328 H 32.5181 1.91873 -2.30488 0
M  V30 329 H 30.0711 0.970876 -1.2249 0
M  V30 330 H 30.8061 3.24148 -0.099129 0
M  V30 331 H 30.5911 3.45115 -1.86112 0
M  V30 332 H 32.0811 4.03824 -1.06377 0
M  V30 333 N 32.5182 1.22032 0.997298 0
M  V30 334 C 33.7652 1.04222 1.73621 0
M  V30 335 C 34.0932 -0.423264 1.89839 0
M  V30 336 O 33.3482 -1.3302 1.43542 0
M  V30 337 C 33.6472 1.69345 3.14733 0
M  V30 338 C 33.3132 3.19226 3.18442 0
M  V30 339 C 31.9752 3.60124 3.19161 0
M  V30 340 C 34.3272 4.15181 3.15078 0
M  V30 341 C 31.6552 4.95467 3.14212 0
M  V30 342 C 34.0072 5.50495 3.1167 0
M  V30 343 C 32.6712 5.90779 3.10703 0
M  V30 344 H 31.9412 0.381374 0.635323 0
M  V30 345 H 34.5882 1.51732 1.16831 0
M  V30 346 H 32.8932 1.14147 3.74803 0
M  V30 347 H 34.5902 1.53059 3.7064 0
M  V30 348 H 31.1802 2.86659 3.18629 0
M  V30 349 H 35.3642 3.84605 3.13676 0
M  V30 350 H 30.6202 5.25916 3.11805 0
M  V30 351 H 34.7942 6.24576 3.08022 0
M  V30 352 H 32.4212 6.9562 3.06622 0
M  V30 353 N 33.9963 -1.19345 1.0293 0
M  V30 354 C 35.2443 -1.88665 0.724574 0
M  V30 355 C 35.5653 -1.80036 -0.749144 0
M  V30 356 O 34.8353 -1.2111 -1.53978 0
M  V30 357 H 33.4153 -0.698406 0.265025 0
M  V30 358 H 36.0773 -1.44885 1.30362 0
M  V30 359 H 35.1733 -2.94987 1.01926 0
M  V30 360 N 35.4744 -0.807222 -1.35358 0
M  V30 361 C 36.7224 -0.387122 -1.98358 0
M  V30 362 C 37.0434 1.04942 -1.64354 0
M  V30 363 O 36.3134 1.72615 -0.926339 0
M  V30 364 H 34.8934 -0.140154 -0.733734 0
M  V30 365 H 37.5554 -1.0332 -1.6526 0
M  V30 366 H 36.6514 -0.493352 -3.08176 0
M  V30 367 N 36.9525 1.47285 -0.560781 0
M  V30 368 C 37.8625 2.33846 0.187954 0
M  V30 369 C 38.8785 1.48412 0.908293 0
M  V30 370 O 40.0545 1.81332 0.876388 0
M  V30 371 C 37.1195 3.25178 1.2025 0
M  V30 372 C 36.1805 4.26504 0.489208 0
M  V30 373 C 35.4135 5.13472 1.45542 0
M  V30 374 O 35.6365 5.02959 2.6905 0
M  V30 375 O 34.5705 5.93902 0.977963 0
M  V30 376 H 38.3965 2.99177 -0.522177 0
M  V30 377 H 35.9815 1.45903 -0.321364 0
M  V30 378 H 37.8635 3.81584 1.78805 0
M  V30 379 H 36.5385 2.6247 1.89449 0
M  V30 380 H 35.4455 3.73847 -0.137627 0
M  V30 381 H 36.7785 4.91935 -0.161399 0
M  V30 382 N 38.4306 0.297415 1.54768 0
M  V30 383 C 39.6796 -0.313669 1.99246 0
M  V30 384 C 39.9926 -1.55281 1.18942 0
M  V30 385 O 41.1986 -2.23825 1.5367 0
M  V30 386 C 39.6546 -0.609407 3.54703 0
M  V30 387 C 39.2626 0.611192 4.43811 0
M  V30 388 C 41.0066 -1.18188 4.07715 0
M  V30 389 C 38.9136 0.288805 5.90694 0
M  V30 390 H 37.8436 -0.120979 0.744231 0
M  V30 391 H 40.4946 0.40556 1.78962 0
M  V30 392 H 38.8766 -1.38813 3.70873 0
M  V30 393 H 40.0506 1.3875 4.39414 0
M  V30 394 H 38.3656 1.10205 4.01552 0
M  V30 395 H 40.9626 -1.43727 5.15021 0
M  V30 396 H 41.3056 -2.12299 3.58099 0
M  V30 397 H 41.8386 -0.464944 3.95074 0
M  V30 398 H 38.5776 1.19838 6.44453 0
M  V30 399 H 38.0976 -0.450305 5.98107 0
M  V30 400 H 39.7766 -0.110933 6.46905 0
M  V30 401 N 39.9087 -1.5758 0.0250728 0
M  V30 402 C 40.8717 -2.08896 -0.943139 0
M  V30 403 C 41.8717 -1.00321 -1.25668 0
M  V30 404 O 43.0617 -1.26495 -1.19769 0
M  V30 405 C 40.1937 -2.55143 -2.26086 0
M  V30 406 H 41.3867 -2.95723 -0.498775 0
M  V30 407 H 38.9397 -1.54703 -0.222888 0
M  V30 408 H 39.6747 -1.71633 -2.75159 0
M  V30 409 H 39.4597 -3.34461 -2.04641 0
M  V30 410 H 40.9497 -2.95083 -2.95492 0
M  V30 411 N 41.3868 0.248026 -1.55636 0
M  V30 412 C 42.6148 0.993808 -1.81469 0
M  V30 413 C 43.0298 1.78991 -0.60064 0
M  V30 414 O 42.3868 1.77345 0.430682 0
M  V30 415 C 42.4378 1.93258 -3.05506 0
M  V30 416 O 42.1588 1.16869 -4.22224 0
M  V30 417 C 43.6598 2.79444 -3.4413 0
M  V30 418 H 40.8798 0.292486 -0.603898 0
M  V30 419 H 43.4238 0.271253 -2.02693 0
M  V30 420 H 41.5788 2.60943 -2.86335 0
M  V30 421 H 41.9928 1.80359 -4.92515 0
M  V30 422 H 43.4668 3.41066 -4.34026 0
M  V30 423 H 43.9438 3.50499 -2.64665 0
M  V30 424 H 44.5498 2.17214 -3.65648 0
M  V30 425 N 42.8649 1.48995 0.513639 0
M  V30 426 C 44.2759 1.5119 1.09537 0
M  V30 427 C 44.6269 0.290906 1.94031 0
M  V30 428 O 43.7519 -0.60049 2.07902 0
M  V30 429 C 44.3469 2.73964 1.99322 0
M  V30 430 C 42.9059 2.78978 2.52682 0
M  V30 431 C 42.0529 2.44934 1.30009 0
M  V30 432 H 45.0039 1.55875 0.298125 0
M  V30 433 H 45.0249 2.53409 2.83838 0
M  V30 434 H 44.5369 3.62813 1.37799 0
M  V30 435 H 42.6379 1.94378 3.1788 0
M  V30 436 H 42.7509 3.8083 2.90698 0
M  V30 437 H 41.1149 1.9644 1.62122 0
M  V30 438 H 41.8979 3.36043 0.702131 0
M  V30 439 N 44.343 -0.763751 1.37857 0
M  V30 440 C 45.291 -1.89864 1.34367 0
M  V30 441 C 46.285 -1.67816 0.231143 0
M  V30 442 O 47.491 -1.75508 0.399617 0
M  V30 443 H 43.866 -0.624501 0.41893 0
M  V30 444 H 45.837 -1.89925 2.30155 0
M  V30 445 C 44.586 -3.27227 1.1755 0
M  V30 446 H 43.909 -3.44773 2.02414 0
M  V30 447 H 45.349 -4.06911 1.1916 0
M  V30 448 C 43.808 -3.36692 -0.118311 0
M  V30 449 O 44.338 -3.86374 -1.09902 0
M  V30 450 N 42.544 -2.90092 -0.171717 0
M  V30 451 H 42.091 -2.49853 0.627012 0
M  V30 452 H 42.049 -2.96806 -1.03699 0
M  V30 453 N 45.8211 -1.22559 -0.990812 0
M  V30 454 C 46.7511 -1.0218 -2.09956 0
M  V30 455 C 47.7321 0.0579394 -1.70001 0
M  V30 456 O 48.9171 -0.104684 -1.93918 0
M  V30 457 C 46.0471 -0.601023 -3.4206 0
M  V30 458 C 45.0011 -1.62694 -3.95872 0
M  V30 459 C 44.3271 -1.06193 -5.24049 0
M  V30 460 C 45.6271 -3.01743 -4.2632 0
M  V30 461 H 47.3211 -1.94916 -2.27262 0
M  V30 462 H 44.8671 -0.938566 -1.09211 0
M  V30 463 H 46.8201 -0.445561 -4.19038 0
M  V30 464 H 45.5441 0.362005 -3.24588 0
M  V30 465 H 44.2031 -1.77021 -3.21028 0
M  V30 466 H 43.8511 -0.0901903 -5.02919 0
M  V30 467 H 43.5511 -1.74732 -5.61019 0
M  V30 468 H 45.0751 -0.918092 -6.03658 0
M  V30 469 H 46.4891 -2.90777 -4.94087 0
M  V30 470 H 44.8861 -3.67425 -4.74467 0
M  V30 471 H 45.9561 -3.51518 -3.34011 0
M  V30 472 N 47.2992 1.18797 -1.03562 0
M  V30 473 C 48.5762 1.84469 -0.650434 0
M  V30 474 C 48.9562 1.92319 0.870433 0
M  V30 475 O 48.3042 1.44528 1.76986 0
M  V30 476 C 48.5142 3.2306 -1.32036 0
M  V30 477 C 49.8622 3.9915 -1.44792 0
M  V30 478 O 50.8862 3.32481 -1.27806 0
M  V30 479 O 49.7452 5.18587 -1.72423 0
M  V30 480 H 46.8392 0.795251 -0.226946 0
M  V30 481 H 49.3852 1.26231 -1.13419 0
M  V30 482 H 48.1572 3.1222 -2.3587 0
M  V30 483 H 47.7802 3.88949 -0.8249 0
M  V30 484 N 48.7773 0.814389 1.34928 0
M  V30 485 C 49.7403 0.235759 2.27984 0
M  V30 486 C 50.7403 -0.581412 1.49921 0
M  V30 487 O 51.9303 -0.398758 1.69575 0
M  V30 488 C 49.0623 -0.670433 3.34242 0
M  V30 489 H 50.2553 1.05659 2.80671 0
M  V30 490 H 47.8083 0.585614 1.44915 0
M  V30 491 H 48.5433 -1.51466 2.86755 0
M  V30 492 H 48.3283 -0.0860822 3.92005 0
M  V30 493 H 49.8183 -1.06935 4.03676 0
M  V30 494 N 50.2554 -1.46986 0.568584 0
M  V30 495 C 51.1854 -2.32946 -0.160753 0
M  V30 496 C 52.1664 -1.44487 -0.897631 0
M  V30 497 O 53.3514 -1.73327 -0.875867 0
M  V30 498 C 50.4814 -3.26494 -1.18403 0
M  V30 499 C 49.4354 -4.24282 -0.562895 0
M  V30 500 C 48.7614 -5.07236 -1.69163 0
M  V30 501 C 50.0614 -5.19989 0.490761 0
M  V30 502 H 51.7554 -2.94175 0.556916 0
M  V30 503 H 49.3014 -1.4146 0.26927 0
M  V30 504 H 51.2544 -3.85477 -1.70251 0
M  V30 505 H 49.9784 -2.63343 -1.93179 0
M  V30 506 H 48.6374 -3.66541 -0.0656164 0
M  V30 507 H 48.2854 -4.4048 -2.42871 0
M  V30 508 H 47.9854 -5.7345 -1.28174 0
M  V30 509 H 49.5094 -5.6908 -2.21314 0
M  V30 510 H 50.9234 -5.73271 0.0579047 0
M  V30 511 H 49.3204 -5.94469 0.820165 0
M  V30 512 H 50.3904 -4.64777 1.3824 0
M  V30 513 N 51.7335 -0.305618 -1.54608 0
M  V30 514 C 52.6965 0.555591 -2.22364 0
M  V30 515 C 53.6965 1.05768 -1.21119 0
M  V30 516 O 54.8865 0.952972 -1.45822 0
M  V30 517 C 52.0185 1.76974 -2.91364 0
M  V30 518 H 53.2115 -0.0364572 -2.99878 0
M  V30 519 H 50.7645 -0.0565007 -1.56198 0
M  V30 520 H 51.4995 2.40151 -2.17941 0
M  V30 521 H 51.2845 1.41732 -3.65588 0
M  V30 522 H 52.7745 2.38148 -3.43038 0
M  V30 523 N 53.2116 1.57565 -0.0334293 0
M  V30 524 C 54.4606 1.91155 0.643639 0
M  V30 525 C 54.7736 0.91192 1.73042 0
M  V30 526 O 55.9796 1.13923 2.46442 0
M  V30 527 C 54.4356 3.39443 1.1961 0
M  V30 528 C 54.0436 4.47774 0.142381 0
M  V30 529 C 55.7876 3.82094 1.84944 0
M  V30 530 C 53.6946 5.87162 0.706727 0
M  V30 531 H 52.6246 0.713368 0.244176 0
M  V30 532 H 55.2756 1.8323 -0.0994323 0
M  V30 533 H 53.6576 3.42313 1.99092 0
M  V30 534 H 54.8316 4.56469 -0.630296 0
M  V30 535 H 53.1466 4.14352 -0.412446 0
M  V30 536 H 55.7436 4.83591 2.2813 0
M  V30 537 H 56.0866 3.17386 2.69392 0
M  V30 538 H 56.6196 3.81665 1.12145 0
M  V30 539 H 53.3586 6.55424 -0.0997178 0
M  V30 540 H 52.8786 5.82064 1.44779 0
M  V30 541 H 54.5576 6.35866 1.19514 0
M  V30 542 N 54.6897 -0.239769 1.55765 0
M  V30 543 C 55.6527 -1.28038 1.90103 0
M  V30 544 C 56.6527 -1.40723 0.778055 0
M  V30 545 O 57.8427 -1.39301 1.04599 0
M  V30 546 C 54.9747 -2.65702 2.13577 0
M  V30 547 H 56.1677 -0.988048 2.83157 0
M  V30 548 H 53.7207 -0.479382 1.48767 0
M  V30 549 H 54.4557 -3.00063 1.23015 0
M  V30 550 H 54.2407 -2.57875 2.95369 0
M  V30 551 H 55.7307 -3.40828 2.41301 0
M  V30 552 N 56.1678 -1.49265 -0.50573 0
M  V30 553 C 57.4158 -1.582 -1.25766 0
M  V30 554 C 57.7368 -0.268482 -1.93143 0
M  V30 555 O 57.0068 0.711833 -1.8251 0
M  V30 556 H 55.5868 -0.582873 -0.467191 0
M  V30 557 H 58.2488 -1.85865 -0.586525 0
M  V30 558 H 57.3448 -2.37563 -2.02412 0
M  V30 559 N 57.6459 0.756429 -1.3826 0
M  V30 560 C 58.5759 1.88374 -1.37976 0
M  V30 561 C 59.5569 1.68311 -0.246082 0
M  V30 562 O 60.7419 1.88944 -0.44874 0
M  V30 563 C 57.8719 3.25864 -1.20125 0
M  V30 564 C 56.8259 3.60523 -2.30666 0
M  V30 565 C 56.1519 4.9672 -1.97923 0
M  V30 566 C 57.4519 3.65692 -3.72916 0
M  V30 567 H 59.1459 1.88869 -2.32312 0
M  V30 568 H 56.6919 0.907272 -1.11824 0
M  V30 569 H 58.6449 4.0438 -1.18552 0
M  V30 570 H 57.3689 3.25841 -0.222498 0
M  V30 571 H 56.0279 2.84324 -2.3142 0
M  V30 572 H 55.6759 4.93253 -0.985393 0
M  V30 573 H 55.3759 5.20878 -2.71955 0
M  V30 574 H 56.8999 5.77618 -1.97964 0
M  V30 575 H 58.3139 4.34328 -3.74208 0
M  V30 576 H 56.7109 4.01358 -4.4613 0
M  V30 577 H 57.7809 2.65987 -4.05436 0
M  V30 578 N 59.124 1.23083 0.984299 0
M  V30 579 C 60.54 0.992637 1.24975 0
M  V30 580 C 60.74 -0.308618 1.99123 0
M  V30 581 O 59.796 -1.02905 2.30579 0
M  V30 582 C 61.109 2.19698 2.05312 0
M  V30 583 C 62.657 2.24147 2.18465 0
M  V30 584 C 63.132 3.44157 3.02192 0
M  V30 585 N 64.623 3.44372 3.09777 0
M  V30 586 C 65.358 4.33886 3.74874 0
M  V30 587 N 64.854 5.3363 4.41827 0
M  V30 588 N 66.647 4.21639 3.71721 0
M  V30 589 H 58.798 2.06731 0.487453 0
M  V30 590 H 61.061 0.906339 0.277944 0
M  V30 591 H 60.767 3.1411 1.58201 0
M  V30 592 H 60.641 2.20465 3.06064 0
M  V30 593 H 63.028 1.30277 2.64786 0
M  V30 594 H 63.109 2.27415 1.17115 0
M  V30 595 H 62.753 4.38332 2.56568 0
M  V30 596 H 62.683 3.3813 4.03702 0
M  V30 597 H 65.174 2.72201 2.62135 0
M  V30 598 H 65.487 5.98196 4.89266 0
M  V30 599 H 63.832 5.37534 4.40548 0
M  V30 600 H 67.023 3.42962 3.18582 0
M  V30 601 H 67.196 4.91604 4.22173 0
M  V30 602 N 60.6021 -1.18246 1.0419 0
M  V30 603 C 61.5321 -2.24127 0.654914 0
M  V30 604 C 62.5131 -1.66617 -0.342451 0
M  V30 605 O 63.6981 -1.92924 -0.222277 0
M  V30 606 C 60.8281 -3.47295 0.0183757 0
M  V30 607 C 59.7821 -4.17563 0.939414 0
M  V30 608 C 59.1081 -5.34438 0.167286 0
M  V30 609 C 60.4081 -4.70917 2.25908 0
M  V30 610 H 62.1021 -2.56753 1.54007 0
M  V30 611 H 59.6481 -1.23414 0.74195 0
M  V30 612 H 61.6011 -4.20572 -0.264082 0
M  V30 613 H 60.3251 -3.13907 -0.901664 0
M  V30 614 H 58.9841 -3.46186 1.20628 0
M  V30 615 H 58.6321 -4.97298 -0.7552 0
M  V30 616 H 58.3321 -5.82388 0.780901 0
M  V30 617 H 59.8561 -6.10504 -0.108125 0
M  V30 618 H 61.2701 -5.35882 2.03724 0
M  V30 619 H 59.6671 -5.29406 2.82577 0
M  V30 620 H 60.7371 -3.88272 2.9047 0
M  V30 621 N 62.0802 -0.821533 -1.34494 0
M  V30 622 C 63.3082 -0.421884 -2.02553 0
M  V30 623 C 63.7232 0.971745 -1.61872 0
M  V30 624 O 63.0802 1.62864 -0.823496 0
M  V30 625 C 63.1312 -0.51285 -3.57844 0
M  V30 626 O 62.8522 -1.85155 -3.97051 0
M  V30 627 C 64.3532 -0.107921 -4.43169 0
M  V30 628 H 61.5732 -0.169482 -0.649243 0
M  V30 629 H 64.1172 -1.1093 -1.71798 0
M  V30 630 H 62.2722 0.126474 -3.87193 0
M  V30 631 H 62.6862 -1.82482 -4.91732 0
M  V30 632 H 64.1602 -0.222657 -5.51551 0
M  V30 633 H 64.6372 0.948401 -4.28838 0
M  V30 634 H 65.2432 -0.720989 -4.19144 0
M  V30 635 N 63.5583 1.46682 -0.576371 0
M  V30 636 C 64.8353 1.95599 0.00703437 0
M  V30 637 C 65.2153 1.51904 1.46589 0
M  V30 638 O 64.5633 0.766755 2.15251 0
M  V30 639 C 64.7733 3.4864 -0.158404 0
M  V30 640 C 66.1213 4.24594 -0.0229439 0
M  V30 641 O 67.1453 3.56094 -0.0869173 0
M  V30 642 O 66.0043 5.46373 0.118015 0
M  V30 643 H 63.0983 0.825275 0.053384 0
M  V30 644 H 65.6443 1.56996 -0.644244 0
M  V30 645 H 64.4163 3.7331 -1.17282 0
M  V30 646 H 64.0393 3.94057 0.5296 0
M  V30 647 N 65.0364 0.313813 1.54444 0
M  V30 648 C 66.2834 -0.291675 2.00388 0
M  V30 649 C 66.6114 -1.52904 1.2021 0
M  V30 650 O 65.8664 -1.93833 0.269707 0
M  V30 651 C 66.1654 -0.680386 3.50864 0
M  V30 652 C 65.8314 0.456699 4.48581 0
M  V30 653 C 64.4934 0.768824 4.75018 0
M  V30 654 C 66.8454 1.22098 5.06697 0
M  V30 655 C 64.1734 1.84812 5.56831 0
M  V30 656 C 66.5254 2.29029 5.89685 0
M  V30 657 C 65.1894 2.60834 6.14428 0
M  V30 658 H 64.4594 -0.106732 0.733273 0
M  V30 659 H 67.1064 0.43557 1.86481 0
M  V30 660 H 65.4114 -1.48791 3.62448 0
M  V30 661 H 67.1084 -1.16026 3.83847 0
M  V30 662 H 63.6984 0.203337 4.28117 0
M  V30 663 H 67.8824 0.993096 4.86263 0
M  V30 664 H 63.1384 2.09912 5.74236 0
M  V30 665 H 67.3124 2.887 6.33739 0
M  V30 666 H 64.9394 3.44596 6.77612 0
M  V30 667 N 66.5145 -1.57545 0.0417849 0
M  V30 668 C 67.4645 -2.07483 -0.945247 0
M  V30 669 C 68.4485 -0.977983 -1.27767 0
M  V30 670 O 69.6405 -1.24142 -1.26166 0
M  V30 671 C 66.7695 -2.61576 -2.22335 0
M  V30 672 C 65.8555 -3.78213 -1.91874 0
M  V30 673 N 66.2465 -4.88344 -1.31733 0
M  V30 674 C 64.5445 -3.8694 -2.21796 0
M  V30 675 C 65.2455 -5.69462 -1.1869 0
M  V30 676 N 64.2215 -5.16771 -1.68666 0
M  V30 677 H 68.0235 -2.90029 -0.475441 0
M  V30 678 H 65.5375 -1.61581 -0.162911 0
M  V30 679 H 67.5345 -2.95651 -2.93932 0
M  V30 680 H 66.1945 -1.80465 -2.69931 0
M  V30 681 H 67.2055 -5.08335 -0.990729 0
M  V30 682 H 63.8825 -3.16757 -2.71977 0
M  V30 683 H 65.2725 -6.68023 -0.720793 0
M  V30 684 N 67.9926 0.231505 -1.5589 0
M  V30 685 C 69.2206 0.974505 -1.82513 0
M  V30 686 C 69.6356 1.78344 -0.619591 0
M  V30 687 O 68.9926 1.77792 0.411848 0
M  V30 688 C 69.0436 1.90007 -3.07538 0
M  V30 689 O 68.7646 1.12385 -4.2344 0
M  V30 690 C 70.2656 2.75779 -3.47075 0
M  V30 691 H 67.4856 0.286065 -0.606966 0
M  V30 692 H 70.0296 0.249739 -2.02969 0
M  V30 693 H 68.1846 2.57891 -2.89086 0
M  V30 694 H 68.5986 1.75125 -4.944 0
M  V30 695 H 70.0726 3.36443 -4.37619 0
M  V30 696 H 70.5496 3.47672 -2.68367 0
M  V30 697 H 71.1556 2.13323 -3.67931 0
M  V30 698 N 69.4707 1.49531 0.497807 0
M  V30 699 C 70.4337 1.65916 1.58128 0
M  V30 700 C 71.4337 0.530825 1.51786 0
M  V30 701 O 72.6237 0.797342 1.54881 0
M  V30 702 C 69.7557 1.65951 2.9778 0
M  V30 703 H 70.9487 2.62556 1.44929 0
M  V30 704 H 68.5017 1.38611 0.722275 0
M  V30 705 H 69.2367 0.709065 3.16453 0
M  V30 706 H 69.0217 2.47897 3.03792 0
M  V30 707 H 70.5117 1.80673 3.76493 0
M  V30 708 N 70.9488 -0.749086 1.3866 0
M  V30 709 C 72.1738 -1.54344 1.38538 0
M  V30 710 C 72.5988 -1.88088 -0.0216655 0
M  V30 711 O 71.9568 -1.50899 -1.00494 0
M  V30 712 C 72.0048 -2.8164 2.25192 0
M  V30 713 O 71.1088 -3.7698 1.67212 0
M  V30 714 H 70.4498 -0.466654 0.472367 0
M  V30 715 H 72.9798 -0.925355 1.82478 0
M  V30 716 H 72.9898 -3.30519 2.3921 0
M  V30 717 H 71.6648 -2.56411 3.27454 0
M  V30 718 H 70.2418 -3.35699 1.6236 0
M  V30 719 N 72.4269 -1.23603 -0.977757 0
M  V30 720 C 73.6549 -1.09646 -1.75458 0
M  V30 721 C 74.0699 0.351859 -1.85492 0
M  V30 722 O 73.4269 1.24327 -1.336 0
M  V30 723 C 73.4779 -1.71895 -3.18016 0
M  V30 724 O 73.1989 -3.11063 -3.08498 0
M  V30 725 C 74.6999 -1.63415 -4.12081 0
M  V30 726 H 71.9199 -0.38359 -0.550545 0
M  V30 727 H 74.4639 -1.63507 -1.22824 0
M  V30 728 H 72.6189 -1.22061 -3.67668 0
M  V30 729 H 73.0329 -3.41305 -3.9826 0
M  V30 730 H 74.5069 -2.11669 -5.09804 0
M  V30 731 H 74.9839 -0.593462 -4.35172 0
M  V30 732 H 75.5899 -2.12628 -3.68334 0
M  V30 733 N 73.905 1.17692 -1.04816 0
M  V30 734 C 75.145 1.89545 -0.764979 0
M  V30 735 C 75.509 1.78979 0.695028 0
M  V30 736 O 76.71 2.45613 1.09215 0
M  V30 737 C 74.981 3.35659 -1.22751 0
M  V30 738 S 76.54 4.25526 -1.07112 0
M  V30 739 H 73.358 0.654432 -0.27792 0
M  V30 740 H 75.96 1.42163 -1.34201 0
M  V30 741 H 74.664 3.40882 -2.28533 0
M  V30 742 H 74.195 3.88083 -0.644594 0
M  V30 743 H 76.21 4.962 0.00697508 0
M  V30 744 N 75.3831 0.828654 1.34056 0
M  V30 745 C 76.6081 0.431637 2.02859 0
M  V30 746 C 77.0331 -0.956339 1.61975 0
M  V30 747 O 76.3911 -1.62338 0.807228 0
M  V30 748 C 76.4391 0.548323 3.56407 0
M  V30 749 O 75.5431 -0.429556 4.10157 0
M  V30 750 H 74.8841 0.176886 0.640006 0
M  V30 751 H 77.4141 1.12066 1.71179 0
M  V30 752 H 77.4241 0.426196 4.05768 0
M  V30 753 H 76.0991 1.5606 3.8551 0
M  V30 754 H 74.6761 -0.265836 3.71951 0
M  V30 755 N 76.8612 -1.46375 0.584142 0
M  V30 756 C 78.2722 -1.86031 0.157959 0
M  V30 757 C 78.6232 -1.48753 -1.27933 0
M  V30 758 O 77.7482 -0.903098 -1.96655 0
M  V30 759 C 78.3432 -3.37642 0.279892 0
M  V30 760 C 76.9022 -3.76289 -0.09143 0
M  V30 761 C 76.0492 -2.7039 0.615178 0
M  V30 762 H 79.0002 -1.37509 0.792274 0
M  V30 763 H 79.0212 -3.77275 -0.494364 0
M  V30 764 H 78.5332 -3.64742 1.32607 0
M  V30 765 H 76.6342 -3.54806 -1.13769 0
M  V30 766 H 76.7472 -4.78246 0.285886 0
M  V30 767 H 75.1112 -2.5464 0.0552833 0
M  V30 768 H 75.8942 -3.0033 1.66303 0
M  V30 769 N 78.3393 -0.321999 -1.54275 0
M  V30 770 C 79.5673 0.283052 -2.04955 0
M  V30 771 C 79.9823 1.45904 -1.19823 0
M  V30 772 O 79.3393 1.81063 -0.228545 0
M  V30 773 C 79.3903 0.719028 -3.54277 0
M  V30 774 O 79.1113 -0.410175 -4.36176 0
M  V30 775 C 80.6123 1.38705 -4.21041 0
M  V30 776 H 77.8323 0.0584616 -0.668448 0
M  V30 777 H 80.3763 -0.467734 -1.99079 0
M  V30 778 H 78.5313 1.41979 -3.60445 0
M  V30 779 H 78.9453 -0.0669416 -5.24457 0
M  V30 780 H 80.4193 1.64306 -5.2698 0
M  V30 781 H 80.8963 2.33385 -3.72059 0
M  V30 782 H 81.5023 0.728906 -4.19007 0
M  V30 783 N 79.8174 1.5752 -0.0501392 0
M  V30 784 C 81.2334 1.56631 0.306402 0
M  V30 785 C 81.4334 1.0577 1.71508 0
M  V30 786 O 80.4894 0.713837 2.422 0
M  V30 787 C 81.8024 3.00393 0.135811 0
M  V30 788 C 83.3504 3.12315 0.206993 0
M  V30 789 C 83.8254 4.57954 0.064944 0
M  V30 790 N 85.3164 4.63041 0.121254 0
M  V30 791 C 86.0514 5.73389 0.0354381 0
M  V30 792 N 85.5474 6.92724 -0.102666 0
M  V30 793 N 87.3404 5.62026 0.090946 0
M  V30 794 H 79.4914 1.88903 -0.971046 0
M  V30 795 H 81.7544 0.869876 -0.376855 0
M  V30 796 H 81.4604 3.41635 -0.835384 0
M  V30 797 H 81.3344 3.66373 0.897275 0
M  V30 798 H 83.7214 2.70973 1.16866 0
M  V30 799 H 83.8024 2.49016 -0.585208 0
M  V30 800 H 83.4464 4.99981 -0.893394 0
M  V30 801 H 83.3764 5.19258 0.876277 0
M  V30 802 H 85.8674 3.77216 0.227284 0
M  V30 803 H 86.1804 7.72633 -0.160882 0
M  V30 804 H 84.5254 6.94864 -0.137737 0
M  V30 805 H 87.7164 4.67684 0.197388 0
M  V30 806 H 87.8894 6.47997 0.0206089 0
M  V30 807 N 81.2955 -0.223234 1.56011 0
M  V30 808 C 82.5205 -0.968978 1.83373 0
M  V30 809 C 82.9455 -1.77227 0.630254 0
M  V30 810 O 82.3035 -1.76345 -0.420959 0
M  V30 811 C 82.3515 -1.86363 3.08709 0
M  V30 812 O 81.4555 -2.95873 2.87285 0
M  V30 813 H 80.7965 -0.274461 0.604622 0
M  V30 814 H 83.3265 -0.237056 2.03222 0
M  V30 815 H 83.3365 -2.27376 3.38768 0
M  V30 816 H 82.0115 -1.27319 3.95933 0
M  V30 817 H 80.5885 -2.58818 2.68454 0
M  V30 818 N 82.7736 -1.49793 -0.48987 0
M  V30 819 C 83.7066 -1.61898 -1.60823 0
M  V30 820 C 84.6846 -0.467651 -1.5573 0
M  V30 821 O 85.8686 -0.684682 -1.75626 0
M  V30 822 C 82.9956 -1.58422 -2.99366 0
M  V30 823 C 82.0416 -2.78889 -3.22682 0
M  V30 824 S 82.8746 -4.40429 -3.04602 0
M  V30 825 C 84.0306 -4.39617 -4.4552 0
M  V30 826 H 84.2636 -2.56502 -1.50312 0
M  V30 827 H 81.7966 -1.38822 -0.675849 0
M  V30 828 H 83.7546 -1.57103 -3.79248 0
M  V30 829 H 82.4156 -0.650866 -3.07283 0
M  V30 830 H 81.6086 -2.72708 -4.23847 0
M  V30 831 H 81.2106 -2.77678 -2.50541 0
M  V30 832 H 83.5026 -4.12022 -5.37814 0
M  V30 833 H 84.4456 -5.41097 -4.56749 0
M  V30 834 H 84.8536 -3.69554 -4.2672 0
M  V30 835 N 84.2517 0.741722 -1.39055 0
M  V30 836 C 85.1817 1.869 -1.39966 0
M  V30 837 C 86.1627 1.6804 -0.26392 0
M  V30 838 O 87.3477 1.88458 -0.468755 0
M  V30 839 C 84.4777 3.24572 -1.23574 0
M  V30 840 C 83.4317 3.58056 -2.34477 0
M  V30 841 C 82.7577 4.94593 -2.0318 0
M  V30 842 C 84.0577 3.61716 -3.76774 0
M  V30 843 H 85.7517 1.86395 -2.34302 0
M  V30 844 H 83.2977 0.895361 -1.1278 0
M  V30 845 H 85.2507 4.031 -1.22834 0
M  V30 846 H 83.9747 3.25587 -0.257045 0
M  V30 847 H 82.6337 2.81854 -2.34423 0
M  V30 848 H 82.2817 4.92181 -1.03765 0
M  V30 849 H 81.9817 5.17964 -2.77465 0
M  V30 850 H 83.5057 5.75486 -2.04079 0
M  V30 851 H 84.9197 4.30335 -3.78794 0
M  V30 852 H 83.3167 3.96603 -4.50362 0
M  V30 853 H 84.3867 2.61672 -4.08235 0
M  V30 854 N 85.7298 1.2412 0.971189 0
M  V30 855 C 86.6598 1.05508 2.08304 0
M  V30 856 C 87.6408 -0.0308864 1.70072 0
M  V30 857 O 88.8258 0.135521 1.93727 0
M  V30 858 C 85.9558 0.655365 3.4106 0
M  V30 859 C 84.9098 1.68971 3.93234 0
M  V30 860 C 84.2358 1.14516 5.22293 0
M  V30 861 C 85.5358 3.08487 4.21465 0
M  V30 862 H 87.2298 1.98507 2.24132 0
M  V30 863 H 84.7758 0.955821 1.07704 0
M  V30 864 H 86.7288 0.51217 4.18276 0
M  V30 865 H 85.4528 -0.31032 3.25122 0
M  V30 866 H 84.1118 1.82106 3.18171 0
M  V30 867 H 83.7598 0.170189 5.02712 0
M  V30 868 H 83.4598 1.83635 5.58168 0
M  V30 869 H 84.9838 1.01401 6.02121 0
M  V30 870 H 86.3978 2.98601 4.89398 0
M  V30 871 H 84.7948 3.74926 4.68562 0
M  V30 872 H 85.8648 3.56787 3.28376 0
M  V30 873 N 87.2079 -1.17134 1.05439 0
M  V30 874 C 88.4359 -1.91372 0.786414 0
M  V30 875 C 88.8509 -1.76955 -0.658202 0
M  V30 876 O 88.2079 -1.10838 -1.44987 0
M  V30 877 C 88.2589 -3.42356 1.1608 0
M  V30 878 O 87.9799 -3.56332 2.54871 0
M  V30 879 C 89.4809 -4.33663 0.919322 0
M  V30 880 H 86.7009 -0.607118 0.285743 0
M  V30 881 H 89.2449 -1.48525 1.40572 0
M  V30 882 H 87.3999 -3.82939 0.586191 0
M  V30 883 H 87.8139 -4.49896 2.69618 0
M  V30 884 H 89.2879 -5.38099 1.231 0
M  V30 885 H 89.7649 -4.38959 -0.145359 0
M  V30 886 H 90.3709 -3.98796 1.47789 0
M  V30 887 N 88.686 -0.835752 -1.33615 0
M  V30 888 C 89.934 -0.429109 -1.97492 0
M  V30 889 C 90.255 1.01433 -1.66543 0
M  V30 890 O 89.525 1.70611 -0.962744 0
M  V30 891 H 88.105 -0.155686 -0.730596 0
M  V30 892 H 90.767 -1.06802 -1.63031 0
M  V30 893 H 89.863 -0.55861 -3.0706 0
M  V30 894 N 90.1641 1.46063 -0.591896 0
M  V30 895 C 91.3921 2.06717 -0.0868936 0
M  V30 896 C 91.8071 1.43916 1.22203 0
M  V30 897 O 91.1641 0.547698 1.74088 0
M  V30 898 C 91.2151 3.6142 0.0758725 0
M  V30 899 O 90.9361 4.21874 -1.18126 0
M  V30 900 C 92.4371 4.39025 0.61416 0
M  V30 901 H 89.6571 0.668162 -0.0616518 0
M  V30 902 H 92.2011 1.8755 -0.815175 0
M  V30 903 H 90.3561 3.79983 0.754413 0
M  V30 904 H 90.7701 5.14861 -1.00092 0
M  V30 905 H 92.2441 5.4783 0.677193 0
M  V30 906 H 92.7211 4.07708 1.63312 0
M  V30 907 H 93.3271 4.2529 -0.0298142 0
M  V30 908 N 91.6422 0.330177 1.54103 0
M  V30 909 C 92.9192 -0.325007 1.92881 0
M  V30 910 C 93.2992 -1.6934 1.26045 0
M  V30 911 O 92.6472 -2.24855 0.406526 0
M  V30 912 C 92.8572 -0.410634 3.46576 0
M  V30 913 C 94.2052 -0.667801 4.19316 0
M  V30 914 O 95.2292 -0.49329 3.52768 0
M  V30 915 O 94.0882 -1.00491 5.37181 0
M  V30 916 H 91.1822 -0.186873 0.80561 0
M  V30 917 H 93.7282 0.380376 1.65382 0
M  V30 918 H 92.5002 0.550164 3.87413 0
M  V30 919 H 92.1232 -1.16333 3.802 0
M  V30 920 N 93.1203 -1.57491 0.0584922 0
M  V30 921 C 94.0703 -2.08474 -0.923188 0
M  V30 922 C 95.0543 -0.991479 -1.26722 0
M  V30 923 O 96.2463 -1.25473 -1.24842 0
M  V30 924 C 93.3753 -2.6392 -2.19548 0
M  V30 925 C 92.4613 -3.80227 -1.87852 0
M  V30 926 N 92.8523 -4.89714 -1.26546 0
M  V30 927 C 91.1503 -3.89271 -2.17679 0
M  V30 928 C 91.8513 -5.70689 -1.12644 0
M  V30 929 N 90.8273 -5.18531 -1.63176 0
M  V30 930 H 94.6293 -2.90517 -0.444653 0
M  V30 931 H 92.1433 -1.61745 -0.145764 0
M  V30 932 H 94.1403 -2.98752 -2.9078 0
M  V30 933 H 92.8003 -1.83318 -2.68001 0
M  V30 934 H 93.8113 -5.09358 -0.936757 0
M  V30 935 H 90.4883 -3.19623 -2.68602 0
M  V30 936 H 91.8783 -6.6875 -0.6499 0
M  V30 937 N 94.5984 0.214957 -1.56127 0
M  V30 938 C 95.5484 1.27006 -1.8935 0
M  V30 939 C 96.5324 1.41969 -0.757202 0
M  V30 940 O 97.7244 1.44673 -1.01973 0
M  V30 941 C 94.8534 2.61911 -2.2194 0
M  V30 942 C 93.9394 2.50822 -3.41978 0
M  V30 943 N 94.3304 2.09391 -4.60423 0
M  V30 944 C 92.6284 2.81765 -3.45723 0
M  V30 945 C 93.3294 2.09712 -5.42582 0
M  V30 946 N 92.3054 2.50454 -4.82466 0
M  V30 947 H 96.1074 0.940734 -2.78437 0
M  V30 948 H 93.6214 0.423492 -1.56781 0
M  V30 949 H 95.6184 3.38096 -2.43919 0
M  V30 950 H 94.2784 2.95684 -1.34169 0
M  V30 951 H 95.2894 1.80416 -4.85459 0
M  V30 952 H 91.9664 3.19865 -2.68314 0
M  V30 953 H 93.3564 1.79748 -6.4741 0
M  V30 954 N 96.0765 1.50051 0.48192 0
M  V30 955 C 97.3255 1.59741 1.23149 0
M  V30 956 C 97.6385 0.298163 1.93314 0
M  V30 957 O 98.8445 0.273835 2.70116 0
M  V30 958 C 97.3005 2.81926 2.23708 0
M  V30 959 C 96.9085 4.18685 1.59396 0
M  V30 960 C 98.6525 3.00956 2.99375 0
M  V30 961 C 96.5595 5.3207 2.58178 0
M  V30 962 H 95.4895 0.594838 0.46334 0
M  V30 963 H 98.1405 1.76467 0.503169 0
M  V30 964 H 96.5225 2.58736 2.99786 0
M  V30 965 H 97.6965 4.52088 0.891811 0
M  V30 966 H 96.0115 4.05171 0.960503 0
M  V30 967 H 98.6085 3.82836 3.73283 0
M  V30 968 H 98.9515 2.12258 3.58123 0
M  V30 969 H 99.4845 3.24277 2.30411 0
M  V30 970 H 96.2235 6.22888 2.04184 0
M  V30 971 H 95.7435 5.03098 3.26577 0
M  V30 972 H 97.4225 5.62196 3.20225 0
M  V30 973 N 97.5546 -0.734337 1.39446 0
M  V30 974 C 98.5176 -1.83004 1.37994 0
M  V30 975 C 99.5176 -1.58397 0.276938 0
M  V30 976 O 100.708 -1.65785 0.534875 0
M  V30 977 C 97.8396 -3.20802 1.1532 0
M  V30 978 H 99.0326 -1.85694 2.35494 0
M  V30 979 H 96.5856 -0.938059 1.25021 0
M  V30 980 H 97.3206 -3.23772 0.185036 0
M  V30 981 H 97.1056 -3.4006 1.95197 0
M  V30 982 H 98.5956 -4.00862 1.17046 0
M  V30 983 N 99.0327 -1.24633 -0.964593 0
M  V30 984 C 100.281 -1.08573 -1.70459 0
M  V30 985 C 100.602 0.375655 -1.91347 0
M  V30 986 O 99.8717 1.26779 -1.49345 0
M  V30 987 H 98.4517 -0.398784 -0.631649 0
M  V30 988 H 101.114 -1.56601 -1.16026 0
M  V30 989 H 100.21 -1.58623 -2.68785 0
M  V30 990 N 100.511 1.16574 -1.06058 0
M  V30 991 C 101.76 1.86385 -0.770944 0
M  V30 992 C 102.073 1.82448 0.705129 0
M  V30 993 O 103.279 2.47815 1.10905 0
M  V30 994 C 101.735 3.34466 -1.32893 0
M  V30 995 C 101.343 3.46883 -2.83507 0
M  V30 996 C 103.087 4.09548 -1.11672 0
M  V30 997 C 100.994 4.89036 -3.32562 0
M  V30 998 H 99.9238 0.698181 -0.284709 0
M  V30 999 H 102.575 1.31583 -1.27899 0
M  V30 1000 H 100.957 3.88859 -0.748662 0
M  V30 1001 H 102.131 3.02663 -3.47465 0
M  V30 1002 H 100.446 2.85232 -3.03368 0
M  V30 1003 H 103.043 5.14434 -1.45814 0
M  V30 1004 H 103.386 4.16264 -0.0549535 0
M  V30 1005 H 103.919 3.61387 -1.66265 0
M  V30 1006 H 100.658 4.87499 -4.38207 0
M  V30 1007 H 100.178 5.3389 -2.73351 0
M  V30 1008 H 101.857 5.57843 -3.2775 0
M  V30 1009 N 101.989 0.842826 1.3317 0
M  V30 1010 C 103.237 0.439577 1.97262 0
M  V30 1011 C 103.558 -1.00548 1.67078 0
M  V30 1012 O 102.828 -1.70098 0.971779 0
M  V30 1013 H 101.408 0.159558 0.72976 0
M  V30 1014 H 104.07 1.07665 1.62463 0
M  V30 1015 H 103.166 0.574886 3.0676 0
M  V30 1016 N 103.467 -1.45747 0.599634 0
M  V30 1017 C 104.695 -2.06668 0.0978551 0
M  V30 1018 C 105.11 -1.44562 -1.21439 0
M  V30 1019 O 104.467 -0.556923 -1.73795 0
M  V30 1020 C 104.518 -3.61456 -0.0567044 0
M  V30 1021 O 104.239 -4.21242 1.20361 0
M  V30 1022 C 105.74 -4.39345 -0.590869 0
M  V30 1023 H 102.96 -0.667825 0.0651943 0
M  V30 1024 H 105.504 -1.87115 0.82511 0
M  V30 1025 H 103.659 -3.80378 -0.734251 0
M  V30 1026 H 104.073 -5.14323 1.02821 0
M  V30 1027 H 105.547 -5.48182 -0.648131 0
M  V30 1028 H 106.024 -4.08568 -1.61147 0
M  V30 1029 H 106.63 -4.25268 0.0523679 0
M  V30 1030 N 104.945 -0.338344 -1.53925 0
M  V30 1031 C 105.878 0.563758 -2.21127 0
M  V30 1032 C 106.856 1.10433 -1.19345 0
M  V30 1033 O 108.04 1.16557 -1.48144 0
M  V30 1034 C 105.167 1.77505 -2.88461 0
M  V30 1035 C 104.213 1.3644 -4.04087 0
M  V30 1036 S 105.046 0.388593 -5.34088 0
M  V30 1037 C 106.202 1.60683 -6.04923 0
M  V30 1038 H 106.435 -0.00704546 -2.97299 0
M  V30 1039 H 103.968 -0.122418 -1.53914 0
M  V30 1040 H 105.926 2.46999 -3.27875 0
M  V30 1041 H 104.587 2.31706 -2.12064 0
M  V30 1042 H 103.78 2.26739 -4.50117 0
M  V30 1043 H 103.382 0.748998 -3.66423 0
M  V30 1044 H 105.674 2.54209 -6.28 0
M  V30 1045 H 106.617 1.18842 -6.98056 0
M  V30 1046 H 107.025 1.80052 -5.35015 0
M  V30 1047 N 106.423 1.57458 -0.0668435 0
M  V30 1048 C 107.386 2.11323 0.887422 0
M  V30 1049 C 108.386 1.03618 1.22964 0
M  V30 1050 O 109.576 1.29626 1.16373 0
M  V30 1051 C 106.708 2.61048 2.19242 0
M  V30 1052 H 107.901 2.96942 0.420194 0
M  V30 1053 H 105.454 1.55239 0.181793 0
M  V30 1054 H 106.189 1.78868 2.70512 0
M  V30 1055 H 105.974 3.39769 1.95702 0
M  V30 1056 H 107.464 3.02814 2.87565 0
M  V30 1057 N 107.901 -0.206675 1.56239 0
M  V30 1058 C 108.811 -1.27686 1.96808 0
M  V30 1059 C 109.827 -1.50455 0.874035 0
M  V30 1060 O 111.003 -1.63295 1.17884 0
M  V30 1061 C 108.068 -2.60358 2.28942 0
M  V30 1062 C 107.129 -2.45762 3.51994 0
M  V30 1063 C 106.362 -3.72108 3.82585 0
M  V30 1064 O 106.585 -4.75776 3.14631 0
M  V30 1065 O 105.519 -3.6833 4.76043 0
M  V30 1066 H 109.345 -0.962593 2.88041 0
M  V30 1067 H 106.93 -0.410746 1.43643 0
M  V30 1068 H 108.812 -3.38687 2.50737 0
M  V30 1069 H 107.487 -2.91435 1.4088 0
M  V30 1070 H 106.394 -1.65584 3.35459 0
M  V30 1071 H 107.727 -2.19621 4.40486 0
M  V30 1072 N 109.379 -1.50304 -0.473955 0
M  V30 1073 C 110.342 -1.6841 -1.55469 0
M  V30 1074 C 111.342 -0.554905 -1.50922 0
M  V30 1075 O 112.532 -0.821882 -1.53593 0
M  V30 1076 C 109.664 -1.70667 -2.95102 0
M  V30 1077 H 110.857 -2.64828 -1.40733 0
M  V30 1078 H 108.41 -1.39742 -0.700132 0
M  V30 1079 H 109.145 -0.75932 -3.15285 0
M  V30 1080 H 108.93 -2.52698 -2.9981 0
M  V30 1081 H 110.42 -1.8664 -3.73571 0
M  V30 1082 N 110.857 0.726932 -1.39834 0
M  V30 1083 C 111.787 1.85405 -1.41941 0
M  V30 1084 C 112.768 1.67751 -0.281728 0
M  V30 1085 O 113.953 1.8795 -0.488717 0
M  V30 1086 C 111.083 3.23243 -1.2701 0
M  V30 1087 C 110.037 3.55549 -2.38262 0
M  V30 1088 C 109.363 4.9241 -2.08415 0
M  V30 1089 C 110.663 3.577 -3.80589 0
M  V30 1090 H 112.357 1.83899 -2.36266 0
M  V30 1091 H 109.903 0.883349 -1.13723 0
M  V30 1092 H 111.856 4.01775 -1.27103 0
M  V30 1093 H 110.58 3.25296 -0.291564 0
M  V30 1094 H 109.239 2.79351 -2.37399 0
M  V30 1095 H 108.887 4.91052 -1.0898 0
M  V30 1096 H 108.587 5.14992 -2.82943 0
M  V30 1097 H 110.111 5.73289 -2.10171 0
M  V30 1098 H 111.525 4.26293 -3.83337 0
M  V30 1099 H 109.922 3.91804 -4.54543 0
M  V30 1100 H 110.992 2.57328 -4.10987 0
M  V30 1101 N 112.336 1.25143 0.95797 0
M  V30 1102 C 113.564 1.12424 1.73691 0
M  V30 1103 C 113.979 -0.322304 1.86029 0
M  V30 1104 O 113.336 -1.22186 1.35561 0
M  V30 1105 C 113.387 1.76933 3.15241 0
M  V30 1106 O 113.108 3.15932 3.03511 0
M  V30 1107 C 114.609 1.6995 4.09429 0
M  V30 1108 H 111.829 0.3923 0.544373 0
M  V30 1109 H 114.373 1.6544 1.20207 0
M  V30 1110 H 112.528 1.27895 3.6568 0
M  V30 1111 H 112.942 3.47598 3.9278 0
M  V30 1112 H 114.416 2.19753 5.06372 0
M  V30 1113 H 114.893 0.662619 4.34173 0
M  V30 1114 H 115.499 2.18461 3.64904 0
M  V30 1115 N 113.814 -1.1601 1.06675 0
M  V30 1116 C 115.225 -1.68235 0.809565 0
M  V30 1117 C 115.576 -1.8454 -0.666303 0
M  V30 1118 O 114.701 -1.54374 -1.5165 0
M  V30 1119 C 115.296 -3.05585 1.46299 0
M  V30 1120 C 113.855 -3.54915 1.25349 0
M  V30 1121 C 113.002 -2.30804 1.53703 0
M  V30 1122 H 115.953 -1.00318 1.22971 0
M  V30 1123 H 115.974 -3.70174 0.880431 0
M  V30 1124 H 115.486 -2.93686 2.53713 0
M  V30 1125 H 113.587 -3.72067 0.199261 0
M  V30 1126 H 113.7 -4.36774 1.9689 0
M  V30 1127 H 112.064 -2.36007 0.957739 0
M  V30 1128 H 112.847 -2.21499 2.62284 0
M  V30 1129 N 115.292 -0.849877 -1.32721 0
M  V30 1130 C 116.202 -0.293791 -2.32753 0
M  V30 1131 C 117.218 0.585906 -1.63839 0
M  V30 1132 O 118.394 0.487413 -1.95413 0
M  V30 1133 C 115.459 0.512752 -3.42887 0
M  V30 1134 C 114.52 -0.39252 -4.27502 0
M  V30 1135 C 113.753 0.375625 -5.32377 0
M  V30 1136 O 113.976 1.60613 -5.4732 0
M  V30 1137 O 112.91 -0.256094 -6.01355 0
M  V30 1138 H 116.736 -1.12242 -2.82197 0
M  V30 1139 H 114.321 -0.612685 -1.36259 0
M  V30 1140 H 116.203 0.970704 -4.10067 0
M  V30 1141 H 114.878 1.31826 -2.95641 0
M  V30 1142 H 113.785 -0.898547 -3.63149 0
M  V30 1143 H 115.118 -1.16309 -4.7826 0
M  V30 1144 N 116.77 1.45427 -0.607355 0
M  V30 1145 C 117.7 2.3329 0.0989352 0
M  V30 1146 C 118.681 1.46816 0.859007 0
M  V30 1147 O 119.866 1.75588 0.829604 0
M  V30 1148 C 116.996 3.29518 1.09705 0
M  V30 1149 C 115.95 4.25626 0.450206 0
M  V30 1150 C 115.276 5.11542 1.55655 0
M  V30 1151 C 116.576 5.18505 -0.628455 0
M  V30 1152 H 118.27 2.92595 -0.634716 0
M  V30 1153 H 115.816 1.40696 -0.306681 0
M  V30 1154 H 117.769 3.89855 1.59971 0
M  V30 1155 H 116.493 2.68372 1.86129 0
M  V30 1156 H 115.152 3.66586 -0.0315886 0
M  V30 1157 H 114.8 4.46765 2.31107 0
M  V30 1158 H 114.5 5.76647 1.12925 0
M  V30 1159 H 116.024 5.74748 2.06148 0
M  V30 1160 H 117.438 5.72916 -0.209877 0
M  V30 1161 H 115.835 5.92085 -0.977489 0
M  V30 1162 H 116.905 4.60948 -1.50514 0
M  V30 1163 N 118.248 0.346503 1.53744 0
M  V30 1164 C 119.158 -0.517293 2.28826 0
M  V30 1165 C 120.174 -1.10935 1.3405 0
M  V30 1166 O 121.35 -1.1244 1.6709 0
M  V30 1167 C 118.415 -1.65098 3.04866 0
M  V30 1168 C 117.476 -1.0884 4.15274 0
M  V30 1169 C 116.709 -2.16806 4.87679 0
M  V30 1170 O 116.932 -3.3758 4.59778 0
M  V30 1171 O 115.866 -1.80934 5.74061 0
M  V30 1172 H 119.692 0.0931396 3.03557 0
M  V30 1173 H 117.277 0.111458 1.48984 0
M  V30 1174 H 119.159 -2.31053 3.5241 0
M  V30 1175 H 117.834 -2.24717 2.32989 0
M  V30 1176 H 116.741 -0.3933 3.72027 0
M  V30 1177 H 118.074 -0.537036 4.89261 0
M  V30 1178 N 119.726 -1.57421 0.075193 0
M  V30 1179 C 120.974 -1.93236 -0.591974 0
M  V30 1180 C 121.295 -0.956241 -1.69944 0
M  V30 1181 O 120.565 -0.00494792 -1.95899 0
M  V30 1182 H 119.145 -0.713355 -0.22166 0
M  V30 1183 H 121.807 -1.9444 0.133848 0
M  V30 1184 H 120.903 -2.95131 -1.01509 0
M  V30 1185 N 121.204 0.198386 -1.56346 0
M  V30 1186 C 122.151 1.24589 -1.94284 0
M  V30 1187 C 123.121 1.454 -0.802997 0
M  V30 1188 O 124.306 1.58588 -1.06087 0
M  V30 1189 C 121.446 2.58631 -2.28482 0
M  V30 1190 C 120.559 2.45426 -3.55514 0
M  V30 1191 C 119.694 3.7215 -3.79049 0
M  V30 1192 C 118.733 3.53763 -4.99518 0
M  V30 1193 N 117.87 4.72491 -5.19323 0
M  V30 1194 H 122.71 0.915356 -2.83593 0
M  V30 1195 H 120.247 0.440629 -1.40346 0
M  V30 1196 H 122.205 3.3672 -2.46324 0
M  V30 1197 H 120.835 2.89734 -1.42317 0
M  V30 1198 H 119.887 1.58652 -3.45737 0
M  V30 1199 H 121.199 2.27772 -4.43758 0
M  V30 1200 H 120.353 4.58679 -3.97113 0
M  V30 1201 H 119.092 3.92754 -2.89129 0
M  V30 1202 H 118.097 2.65619 -4.8138 0
M  V30 1203 H 119.322 3.34607 -5.90944 0
M  V30 1204 H 117.268 4.93365 -4.3235 0
M  V30 1205 H 117.185 4.5765 -6.01741 0
M  V30 1206 H 118.453 5.6038 -5.41843 0
M  V30 1207 N 122.682 1.50554 0.465978 0
M  V30 1208 C 124.093 1.54599 1.04671 0
M  V30 1209 C 124.444 0.352488 1.93008 0
M  V30 1210 O 123.569 -0.534044 2.09707 0
M  V30 1211 C 124.164 2.80166 1.90505 0
M  V30 1212 C 122.723 2.86876 2.43678 0
M  V30 1213 C 121.87 2.48947 1.22151 0
M  V30 1214 H 124.821 1.56744 0.248384 0
M  V30 1215 H 124.842 2.62311 2.75633 0
M  V30 1216 H 124.354 3.67013 1.26186 0
M  V30 1217 H 122.455 2.04393 3.11536 0
M  V30 1218 H 122.568 3.89885 2.78436 0
M  V30 1219 H 120.932 2.01498 1.5579 0
M  V30 1220 H 121.715 3.38107 0.594866 0
M  V30 1221 N 124.16 -0.719506 1.40217 0
M  V30 1222 C 125.408 -1.47641 1.3801 0
M  V30 1223 C 125.729 -1.94992 -0.018145 0
M  V30 1224 O 124.999 -1.70073 -0.972207 0
M  V30 1225 H 123.579 -0.547744 0.507923 0
M  V30 1226 H 126.241 -0.853187 1.75233 0
M  V30 1227 H 125.337 -2.35112 2.05253 0
M  V30 1228 N 125.638 -1.25649 -0.95132 0
M  V30 1229 C 126.868 -1.13179 -1.72841 0
M  V30 1230 C 127.276 0.316827 -1.86528 0
M  V30 1231 O 126.619 1.22948 -1.3649 0
M  V30 1232 C 126.681 -1.71644 -3.15878 0
M  V30 1233 C 126.345 -3.20667 -3.25609 0
M  V30 1234 C 127.342 -4.17616 -3.09666 0
M  V30 1235 C 125.027 -3.6094 -3.49324 0
M  V30 1236 C 127.021 -5.52817 -3.17289 0
M  V30 1237 C 124.708 -4.96278 -3.56584 0
M  V30 1238 C 125.706 -5.92025 -3.40581 0
M  V30 1239 O 125.394 -7.24899 -3.47528 0
M  V30 1240 H 125.126 -0.395389 -0.54831 0
M  V30 1241 H 127.68 -1.66566 -1.20187 0
M  V30 1242 H 125.91 -1.12707 -3.69911 0
M  V30 1243 H 127.599 -1.54225 -3.75459 0
M  V30 1244 H 128.365 -3.87842 -2.91211 0
M  V30 1245 H 124.244 -2.86907 -3.6084 0
M  V30 1246 H 127.788 -6.2753 -3.04716 0
M  V30 1247 H 123.685 -5.25716 -3.74556 0
M  V30 1248 H 124.453 -7.33039 -3.64138 0
M  V30 1249 N 127.117 1.15442 -1.07289 0
M  V30 1250 C 128.027 2.23786 -0.704057 0
M  V30 1251 C 129.043 1.7166 0.284413 0
M  V30 1252 O 130.219 2.00972 0.131205 0
M  V30 1253 C 127.284 3.46535 -0.106792 0
M  V30 1254 C 126.345 4.13654 -1.14842 0
M  V30 1255 C 125.578 5.30544 -0.57956 0
M  V30 1256 O 125.801 5.67187 0.604585 0
M  V30 1257 O 124.735 5.87154 -1.32414 0
M  V30 1258 H 128.561 2.57664 -1.60757 0
M  V30 1259 H 126.146 1.23152 -0.845803 0
M  V30 1260 H 128.028 4.20804 0.224048 0
M  V30 1261 H 126.703 3.14407 0.770049 0
M  V30 1262 H 125.61 3.4131 -1.5316 0
M  V30 1263 H 126.943 4.49861 -1.99714 0
M  V30 1264 N 128.595 0.856903 1.32268 0
M  V30 1265 C 129.843 0.460474 1.96784 0
M  V30 1266 C 130.164 -0.987701 1.68135 0
M  V30 1267 O 129.434 -1.69058 0.989765 0
M  V30 1268 H 128.014 0.167289 0.728027 0
M  V30 1269 H 130.676 1.09383 1.61312 0
M  V30 1270 H 129.772 0.60739 3.06133 0
M  V30 1271 N 130.073 -1.45103 0.615059 0
M  V30 1272 C 131.023 -2.27679 -0.120966 0
M  V30 1273 C 132.007 -1.3775 -0.831491 0
M  V30 1274 O 133.199 -1.61683 -0.720249 0
M  V30 1275 C 130.328 -3.24767 -1.1127 0
M  V30 1276 C 129.414 -4.22184 -0.402627 0
M  V30 1277 N 129.805 -5.02692 0.559884 0
M  V30 1278 C 128.103 -4.4125 -0.649202 0
M  V30 1279 C 128.804 -5.73421 0.977942 0
M  V30 1280 N 127.78 -5.42657 0.320104 0
M  V30 1281 H 131.582 -2.87325 0.618181 0
M  V30 1282 H 129.096 -1.56345 0.439304 0
M  V30 1283 H 131.093 -3.82666 -1.65446 0
M  V30 1284 H 129.753 -2.66682 -1.85232 0
M  V30 1285 H 130.764 -5.09354 0.936976 0
M  V30 1286 H 127.441 -3.9428 -1.37293 0
M  V30 1287 H 128.831 -6.48107 1.77222 0
M  V30 1288 N 131.551 -0.354651 -1.53558 0
M  V30 1289 C 132.481 0.489091 -2.2832 0
M  V30 1290 C 133.462 1.09324 -1.30316 0
M  V30 1291 O 134.647 1.11255 -1.59173 0
M  V30 1292 C 131.777 1.63456 -3.0643 0
M  V30 1293 C 130.731 1.1582 -4.12031 0
M  V30 1294 C 130.057 2.39305 -4.7816 0
M  V30 1295 C 131.357 0.250731 -5.21698 0
M  V30 1296 H 133.051 -0.134614 -2.99097 0
M  V30 1297 H 130.597 -0.0661826 -1.43848 0
M  V30 1298 H 132.55 2.23136 -3.57475 0
M  V30 1299 H 131.274 2.28533 -2.33325 0
M  V30 1300 H 129.933 0.584146 -3.61916 0
M  V30 1301 H 129.581 3.02814 -4.01637 0
M  V30 1302 H 129.281 2.08109 -5.49513 0
M  V30 1303 H 130.805 2.99691 -5.31994 0
M  V30 1304 H 132.219 0.754695 -5.68311 0
M  V30 1305 H 130.616 0.0301468 -6.00092 0
M  V30 1306 H 131.686 -0.710125 -4.79672 0
M  V30 1307 N 133.029 1.57378 -0.0835403 0
M  V30 1308 C 133.977 2.14602 0.89714 0
M  V30 1309 C 134.971 1.08589 1.30018 0
M  V30 1310 O 136.177 1.26952 1.27606 0
M  V30 1311 H 132.552 0.686346 0.3073 0
M  V30 1312 H 134.523 2.95845 0.38969 0
M  V30 1313 C 133.272 2.73188 2.15089 0
M  V30 1314 H 132.595 3.54442 1.84962 0
M  V30 1315 H 134.035 3.1681 2.81793 0
M  V30 1316 C 132.494 1.68517 2.91725 0
M  V30 1317 O 133.024 1.11718 3.85852 0
M  V30 1318 N 131.23 1.39277 2.55049 0
M  V30 1319 H 130.777 1.85655 1.78577 0
M  V30 1320 H 130.735 0.694791 3.06627 0
M  V30 1321 N 134.507 -0.190092 1.56449 0
M  V30 1322 C 135.417 -1.25591 1.98152 0
M  V30 1323 C 136.433 -1.49519 0.889944 0
M  V30 1324 O 137.609 -1.62036 1.19609 0
M  V30 1325 C 134.674 -2.57916 2.3169 0
M  V30 1326 C 133.735 -2.42015 3.5458 0
M  V30 1327 C 132.968 -3.6803 3.8651 0
M  V30 1328 O 133.191 -4.72413 3.1966 0
M  V30 1329 O 132.125 -3.6326 4.79923 0
M  V30 1330 H 135.951 -0.931988 2.89046 0
M  V30 1331 H 133.536 -0.395488 1.4407 0
M  V30 1332 H 135.418 -3.36008 2.54316 0
M  V30 1333 H 134.093 -2.89925 1.43963 0
M  V30 1334 H 133 -1.62017 3.37196 0
M  V30 1335 H 134.333 -2.14937 4.4279 0
M  V30 1336 N 135.985 -1.50799 -0.457987 0
M  V30 1337 C 137.401 -1.38515 -0.792819 0
M  V30 1338 C 137.601 -0.451409 -1.96379 0
M  V30 1339 O 136.657 0.10112 -2.52297 0
M  V30 1340 C 137.97 -2.80149 -1.09258 0
M  V30 1341 C 139.518 -2.89156 -1.19825 0
M  V30 1342 C 139.993 -4.31651 -1.53106 0
M  V30 1343 N 141.484 -4.34662 -1.60072 0
M  V30 1344 C 142.219 -5.41928 -1.87354 0
M  V30 1345 N 141.715 -6.59384 -2.12568 0
M  V30 1346 N 143.508 -5.29385 -1.88965 0
M  V30 1347 H 135.659 -2.10073 0.313511 0
M  V30 1348 H 137.922 -0.944803 0.0777862 0
M  V30 1349 H 137.628 -3.50374 -0.305084 0
M  V30 1350 H 137.502 -3.18204 -2.02549 0
M  V30 1351 H 139.889 -2.19141 -1.97639 0
M  V30 1352 H 139.97 -2.54626 -0.244821 0
M  V30 1353 H 139.614 -5.02208 -0.758266 0
M  V30 1354 H 139.544 -4.63678 -2.49621 0
M  V30 1355 H 142.035 -3.49973 -1.42573 0
M  V30 1356 H 142.348 -7.36934 -2.32696 0
M  V30 1357 H 140.693 -6.62535 -2.09933 0
M  V30 1358 H 143.884 -4.36616 -1.68772 0
M  V30 1359 H 144.057 -6.13066 -2.09891 0
M  V30 1360 N 137.463 0.71206 -1.40597 0
M  V30 1361 C 138.709 1.47416 -1.39271 0
M  V30 1362 C 139.042 1.942 0.00388791 0
M  V30 1363 O 138.317 1.68403 0.973179 0
M  V30 1364 C 138.6 2.69774 -2.38525 0
M  V30 1365 C 138.453 2.28861 -3.87224 0
M  V30 1366 C 139.772 3.71939 -2.35264 0
M  V30 1367 H 136.891 0.534713 -0.5072 0
M  V30 1368 H 139.533 0.812375 -1.71757 0
M  V30 1369 H 137.683 3.26238 -2.10953 0
M  V30 1370 H 139.355 1.77852 -4.25636 0
M  V30 1371 H 137.598 1.60824 -4.02887 0
M  V30 1372 H 138.269 3.16584 -4.52193 0
M  V30 1373 H 140.745 3.25113 -2.59694 0
M  V30 1374 H 139.621 4.55186 -3.06753 0
M  V30 1375 H 139.882 4.20484 -1.36549 0
M  V30 1376 N 138.941 1.26152 0.944643 0
M  V30 1377 C 140.187 1.11657 1.69294 0
M  V30 1378 C 140.52 -0.339926 1.91202 0
M  V30 1379 O 139.795 -1.24994 1.49019 0
M  V30 1380 C 140.078 1.88236 3.06984 0
M  V30 1381 C 139.931 3.41772 2.92424 0
M  V30 1382 C 141.25 1.67343 4.07043 0
M  V30 1383 H 138.369 0.407004 0.614424 0
M  V30 1384 H 141.011 1.55106 1.09737 0
M  V30 1385 H 139.161 1.51308 3.57824 0
M  V30 1386 H 140.833 3.88433 2.48832 0
M  V30 1387 H 139.076 3.68974 2.28124 0
M  V30 1388 H 139.747 3.90579 3.90067 0
M  V30 1389 H 142.223 1.99509 3.65151 0
M  V30 1390 H 141.099 2.23346 5.01406 0
M  V30 1391 H 141.36 0.617158 4.37771 0
M  V30 1392 N 140.419 -1.14872 1.07899 0
M  V30 1393 C 141.382 -2.17986 0.708161 0
M  V30 1394 C 142.382 -1.58775 -0.25442 0
M  V30 1395 O 143.572 -1.74166 -0.034645 0
M  V30 1396 C 140.704 -3.40871 0.0446929 0
M  V30 1397 H 141.897 -2.52306 1.62116 0
M  V30 1398 H 139.45 -1.2943 0.876218 0
M  V30 1399 H 140.185 -3.12124 -0.880281 0
M  V30 1400 H 139.97 -3.8511 0.737091 0
M  V30 1401 H 141.46 -4.17121 -0.19991 0
M  V30 1402 N 141.898 -0.863906 -1.31812 0
M  V30 1403 C 142.828 -0.330843 -2.31144 0
M  V30 1404 C 143.809 0.575005 -1.60087 0
M  V30 1405 O 144.994 0.493304 -1.8783 0
M  V30 1406 C 142.124 0.47374 -3.44054 0
M  V30 1407 C 141.078 -0.338481 -4.26659 0
M  V30 1408 C 140.404 0.591412 -5.31419 0
M  V30 1409 C 141.704 -1.56926 -4.98168 0
M  V30 1410 H 143.398 -1.16086 -2.75979 0
M  V30 1411 H 140.944 -0.559657 -1.32679 0
M  V30 1412 H 142.897 0.857143 -4.12591 0
M  V30 1413 H 141.621 1.33721 -2.9797 0
M  V30 1414 H 140.28 -0.703754 -3.59782 0
M  V30 1415 H 139.928 1.45199 -4.81587 0
M  V30 1416 H 139.628 0.0519022 -5.87577 0
M  V30 1417 H 141.152 0.97179 -6.02817 0
M  V30 1418 H 142.566 -1.25764 -5.59336 0
M  V30 1419 H 140.963 -2.04739 -5.64094 0
M  V30 1420 H 142.033 -2.32544 -4.25501 0
M  V30 1421 N 143.376 1.44774 -0.622745 0
M  V30 1422 C 144.787 1.85546 -0.207226 0
M  V30 1423 C 145.138 1.52093 1.23944 0
M  V30 1424 O 144.263 0.95492 1.94191 0
M  V30 1425 C 144.858 3.36781 -0.369313 0
M  V30 1426 C 143.417 3.76399 -0.00836847 0
M  V30 1427 C 142.564 2.68664 -0.686651 0
M  V30 1428 H 145.515 1.3536 -0.828454 0
M  V30 1429 H 145.536 3.78453 0.394162 0
M  V30 1430 H 145.048 3.61098 -1.42231 0
M  V30 1431 H 143.149 3.57698 1.04322 0
M  V30 1432 H 143.262 4.7732 -0.412584 0
M  V30 1433 H 141.626 2.54404 -0.122777 0
M  V30 1434 H 142.409 2.95815 -1.74208 0
M  V30 1435 N 144.854 0.36279 1.53368 0
M  V30 1436 C 145.764 -0.492994 2.29362 0
M  V30 1437 C 146.78 -1.09507 1.35219 0
M  V30 1438 O 147.956 -1.10662 1.68273 0
M  V30 1439 C 145.021 -1.61855 3.066 0
M  V30 1440 C 144.082 -1.04429 4.16405 0
M  V30 1441 C 143.315 -2.11621 4.89951 0
M  V30 1442 O 143.538 -3.32684 4.63333 0
M  V30 1443 O 142.472 -1.74835 5.75948 0
M  V30 1444 H 146.298 0.125331 3.03441 0
M  V30 1445 H 143.883 0.127253 1.48857 0
M  V30 1446 H 145.765 -2.27302 3.54841 0
M  V30 1447 H 144.44 -2.22233 2.3536 0
M  V30 1448 H 143.347 -0.353819 3.72423 0
M  V30 1449 H 144.68 -0.485113 4.89804 0
M  V30 1450 N 146.332 -1.57332 0.0918853 0
M  V30 1451 C 147.262 -2.16872 -0.865371 0
M  V30 1452 C 148.243 -1.10118 -1.29646 0
M  V30 1453 O 149.428 -1.38242 -1.36392 0
M  V30 1454 C 146.558 -2.74649 -2.12569 0
M  V30 1455 C 145.512 -3.86747 -1.83333 0
M  V30 1456 C 144.838 -4.31212 -3.16166 0
M  V30 1457 C 146.138 -5.10089 -1.1228 0
M  V30 1458 H 147.832 -2.97114 -0.369307 0
M  V30 1459 H 145.378 -1.42918 -0.176194 0
M  V30 1460 H 147.331 -3.14952 -2.7997 0
M  V30 1461 H 146.055 -1.91657 -2.64452 0
M  V30 1462 H 144.714 -3.46978 -1.18331 0
M  V30 1463 H 144.362 -3.45115 -3.6593 0
M  V30 1464 H 144.062 -5.06788 -2.97388 0
M  V30 1465 H 145.586 -4.74146 -3.84731 0
M  V30 1466 H 147 -5.47582 -1.69785 0
M  V30 1467 H 145.397 -5.91073 -1.03693 0
M  V30 1468 H 146.467 -4.84786 -0.105041 0
M  V30 1469 N 147.81 0.181792 -1.56548 0
M  V30 1470 C 148.74 1.22765 -1.98623 0
M  V30 1471 C 149.721 1.46747 -0.860189 0
M  V30 1472 O 150.906 1.58259 -1.12551 0
M  V30 1473 C 148.036 2.56894 -2.33715 0
M  V30 1474 C 146.99 2.475 -3.49182 0
M  V30 1475 C 146.316 3.86023 -3.69986 0
M  V30 1476 C 147.616 1.98866 -4.82959 0
M  V30 1477 H 149.31 0.877942 -2.86239 0
M  V30 1478 H 146.856 0.42088 -1.37712 0
M  V30 1479 H 148.809 3.30253 -2.61746 0
M  V30 1480 H 147.533 2.93632 -1.42997 0
M  V30 1481 H 146.192 1.76596 -3.21262 0
M  V30 1482 H 145.84 4.20136 -2.76576 0
M  V30 1483 H 145.54 3.80609 -4.47672 0
M  V30 1484 H 147.064 4.60984 -4.00407 0
M  V30 1485 H 148.478 2.61992 -5.09934 0
M  V30 1486 H 146.875 2.04424 -5.64208 0
M  V30 1487 H 147.945 0.942465 -4.75653 0
M  V30 1488 N 149.288 1.51039 0.449983 0
M  V30 1489 C 150.704 1.38934 0.785462 0
M  V30 1490 C 150.904 0.461817 1.96136 0
M  V30 1491 O 149.96 -0.0877389 2.52348 0
M  V30 1492 C 151.273 2.80724 1.0777 0
M  V30 1493 C 152.821 2.89787 1.1829 0
M  V30 1494 C 153.296 4.32457 1.50815 0
M  V30 1495 N 154.787 4.35505 1.57764 0
M  V30 1496 C 155.522 5.42914 1.84477 0
M  V30 1497 N 155.018 6.60502 2.09068 0
M  V30 1498 N 156.811 5.3038 1.86155 0
M  V30 1499 H 148.962 2.09904 -0.324647 0
M  V30 1500 H 151.225 0.944378 -0.0827957 0
M  V30 1501 H 150.931 3.50531 0.286498 0
M  V30 1502 H 150.805 3.19273 2.00859 0
M  V30 1503 H 153.192 2.20186 1.96474 0
M  V30 1504 H 153.273 2.54752 0.231314 0
M  V30 1505 H 152.917 5.02603 0.731622 0
M  V30 1506 H 152.847 4.64995 2.47158 0
M  V30 1507 H 155.338 3.50724 1.40715 0
M  V30 1508 H 155.651 7.38158 2.28785 0
M  V30 1509 H 153.996 6.63639 2.06416 0
M  V30 1510 H 157.187 4.37505 1.66454 0
M  V30 1511 H 157.36 6.1417 2.06637 0
M  V30 1512 N 150.766 -0.704594 1.40972 0
M  V30 1513 C 151.676 -1.84856 1.44448 0
M  V30 1514 C 152.692 -1.70726 0.335961 0
M  V30 1515 O 153.868 -1.92799 0.582276 0
M  V30 1516 C 150.933 -3.20758 1.31587 0
M  V30 1517 C 149.994 -3.47063 2.52677 0
M  V30 1518 C 149.227 -4.76481 2.4042 0
M  V30 1519 O 149.45 -5.52341 1.42391 0
M  V30 1520 O 148.384 -5.03367 3.30007 0
M  V30 1521 H 152.21 -1.8488 2.40942 0
M  V30 1522 H 149.795 -0.85647 1.22413 0
M  V30 1523 H 151.677 -4.01913 1.26665 0
M  V30 1524 H 150.352 -3.21438 0.382049 0
M  V30 1525 H 149.259 -2.65873 2.63177 0
M  V30 1526 H 150.592 -3.5119 3.44858 0
M  V30 1527 N 152.244 -1.26651 -0.937939 0
M  V30 1528 C 153.207 -1.08546 -2.01867 0
M  V30 1529 C 154.207 -0.0327327 -1.60767 0
M  V30 1530 O 155.397 -0.276427 -1.71993 0
M  V30 1531 C 152.529 -0.651711 -3.34613 0
M  V30 1532 H 153.722 -2.04502 -2.1936 0
M  V30 1533 H 151.275 -1.09294 -1.11734 0
M  V30 1534 H 152.01 0.309696 -3.22818 0
M  V30 1535 H 151.795 -1.41189 -3.65798 0
M  V30 1536 H 153.285 -0.546973 -4.14002 0
M  V30 1537 N 153.722 1.14298 -1.08507 0
M  V30 1538 C 154.97 1.84993 -0.813763 0
M  V30 1539 C 155.291 1.83405 0.662393 0
M  V30 1540 O 154.561 1.28319 1.48024 0
M  V30 1541 H 153.141 0.684966 -0.298045 0
M  V30 1542 H 155.803 1.385 -1.37126 0
M  V30 1543 H 154.899 2.89788 -1.15884 0
M  V30 1544 N 155.201 0.870884 1.31352 0
M  V30 1545 C 156.431 0.496049 2.00557 0
M  V30 1546 C 156.839 -0.916241 1.65534 0
M  V30 1547 O 156.182 -1.61188 0.881134 0
M  V30 1548 C 156.244 0.574418 3.54881 0
M  V30 1549 C 155.908 1.94849 4.1338 0
M  V30 1550 C 156.905 2.91611 4.30417 0
M  V30 1551 C 154.59 2.25005 4.49086 0
M  V30 1552 C 156.584 4.16672 4.82352 0
M  V30 1553 C 154.271 3.50315 5.00722 0
M  V30 1554 C 155.269 4.45964 5.17306 0
M  V30 1555 O 154.957 5.69052 5.67833 0
M  V30 1556 H 154.689 0.191664 0.64826 0
M  V30 1557 H 157.243 1.17409 1.68536 0
M  V30 1558 H 155.473 -0.160549 3.86367 0
M  V30 1559 H 157.162 0.212879 4.05341 0
M  V30 1560 H 157.928 2.69622 4.03149 0
M  V30 1561 H 153.807 1.51332 4.35453 0
M  V30 1562 H 157.351 4.91336 4.95211 0
M  V30 1563 H 153.248 3.72147 5.27424 0
M  V30 1564 H 154.016 5.71236 5.86201 0
M  V30 1565 N 156.679 -1.44442 0.630414 0
M  V30 1566 C 157.611 -2.2892 -0.113347 0
M  V30 1567 C 158.624 -1.41243 -0.80959 0
M  V30 1568 O 159.813 -1.65402 -0.671156 0
M  V30 1569 C 156.913 -3.17594 -1.18266 0
M  V30 1570 C 156.086 -4.33682 -0.569073 0
M  V30 1571 C 155.145 -5.03397 -1.53226 0
M  V30 1572 O 154.171 -5.59438 -1.04967 0
M  V30 1573 N 155.373 -5.04783 -2.86661 0
M  V30 1574 H 158.138 -2.93392 0.611636 0
M  V30 1575 H 155.699 -1.54881 0.471523 0
M  V30 1576 H 157.691 -3.61097 -1.82732 0
M  V30 1577 H 156.261 -2.54876 -1.80988 0
M  V30 1578 H 155.481 -3.9338 0.254187 0
M  V30 1579 H 156.769 -5.08608 -0.139767 0
M  V30 1580 H 156.167 -4.60584 -3.28449 0
M  V30 1581 H 154.724 -5.52077 -3.46489 0
M  V30 1582 N 158.157 -0.370918 -1.53173 0
M  V30 1583 C 159.385 0.217704 -2.05751 0
M  V30 1584 C 159.8 1.42018 -1.24404 0
M  V30 1585 O 159.157 1.80245 -0.286033 0
M  V30 1586 C 159.208 0.605954 -3.56385 0
M  V30 1587 O 158.929 -0.548734 -4.3465 0
M  V30 1588 C 160.43 1.2524 -4.25241 0
M  V30 1589 H 157.65 0.0371659 -0.66997 0
M  V30 1590 H 160.194 -0.530832 -1.9749 0
M  V30 1591 H 158.349 1.3044 -3.6478 0
M  V30 1592 H 158.763 -0.23376 -5.23979 0
M  V30 1593 H 160.237 1.47458 -5.3194 0
M  V30 1594 H 160.714 2.2143 -3.79296 0
M  V30 1595 H 161.32 0.595233 -4.21114 0
M  V30 1596 N 159.635 1.57281 -0.100228 0
M  V30 1597 C 160.565 2.17328 0.853857 0
M  V30 1598 C 161.546 1.10804 1.2906 0
M  V30 1599 O 162.731 1.38963 1.35657 0
M  V30 1600 C 159.861 2.75772 2.11109 0
M  V30 1601 C 158.815 3.87713 1.81279 0
M  V30 1602 C 158.141 4.32882 3.13874 0
M  V30 1603 C 159.441 5.10677 1.09574 0
M  V30 1604 H 161.135 2.97305 0.353545 0
M  V30 1605 H 158.681 1.43009 0.168612 0
M  V30 1606 H 160.634 3.16433 2.78296 0
M  V30 1607 H 159.358 1.93057 2.63432 0
M  V30 1608 H 158.017 3.476 1.16489 0
M  V30 1609 H 157.665 3.47051 3.64095 0
M  V30 1610 H 157.365 5.08358 2.94696 0
M  V30 1611 H 158.889 4.7618 3.82211 0
M  V30 1612 H 160.303 5.48474 1.66879 0
M  V30 1613 H 158.7 5.91615 1.00557 0
M  V30 1614 H 159.77 4.84835 0.0793299 0
M  V30 1615 N 161.113 -0.173488 1.56642 0
M  V30 1616 C 162.046 -1.24353 1.91342 0
M  V30 1617 C 163.024 -1.4289 0.775965 0
M  V30 1618 O 164.208 -1.57932 1.02907 0
M  V30 1619 C 161.335 -2.60683 2.16245 0
M  V30 1620 C 160.381 -2.58894 3.38934 0
M  V30 1621 S 161.214 -2.0819 4.93373 0
M  V30 1622 C 162.37 -3.46302 5.21369 0
M  V30 1623 H 162.603 -0.947345 2.81803 0
M  V30 1624 H 160.136 -0.377958 1.49703 0
M  V30 1625 H 162.094 -3.39149 2.31275 0
M  V30 1626 H 160.755 -2.87502 1.26496 0
M  V30 1627 H 159.948 -3.59188 3.53553 0
M  V30 1628 H 159.55 -1.88522 3.2301 0
M  V30 1629 H 161.842 -4.42287 5.13214 0
M  V30 1630 H 162.785 -3.3656 6.23003 0
M  V30 1631 H 163.193 -3.42214 4.48943 0
M  V30 1632 N 162.591 -1.51276 -0.441967 0
M  V30 1633 C 163.554 -1.7167 -1.51862 0
M  V30 1634 C 164.554 -0.586793 -1.49711 0
M  V30 1635 O 165.744 -0.854276 -1.51815 0
M  V30 1636 C 162.876 -1.76889 -2.91416 0
M  V30 1637 H 164.069 -2.67754 -1.35084 0
M  V30 1638 H 161.622 -1.41196 -0.670333 0
M  V30 1639 H 162.357 -0.826026 -3.13604 0
M  V30 1640 H 162.142 -2.59001 -2.94382 0
M  V30 1641 H 163.632 -1.94522 -3.69528 0
M  V30 1642 N 164.069 0.697108 -1.41344 0
M  V30 1643 C 165.317 1.45426 -1.40341 0
M  V30 1644 C 165.638 1.94996 -0.0128787 0
M  V30 1645 O 164.908 1.71599 0.945027 0
M  V30 1646 H 163.488 0.539594 -0.516573 0
M  V30 1647 H 166.15 0.825201 -1.76569 0
M  V30 1648 H 165.246 2.31817 -2.08967 0
M  V30 1649 N 165.547 1.27147 0.931209 0
M  V30 1650 C 166.494 1.09568 2.03134 0
M  V30 1651 C 167.464 -0.00222433 1.661 0
M  V30 1652 O 168.649 0.159439 1.90133 0
M  V30 1653 C 165.789 0.745231 3.36957 0
M  V30 1654 C 164.902 1.92041 3.86968 0
M  V30 1655 C 164.037 1.51216 5.09222 0
M  V30 1656 C 163.076 2.65504 5.5152 0
M  V30 1657 N 162.213 2.25291 6.64972 0
M  V30 1658 H 167.053 2.03708 2.17502 0
M  V30 1659 H 164.59 1.01411 1.06556 0
M  V30 1660 H 166.548 0.522878 4.1391 0
M  V30 1661 H 165.178 -0.159202 3.22407 0
M  V30 1662 H 164.23 2.25541 3.06326 0
M  V30 1663 H 165.542 2.77787 4.1429 0
M  V30 1664 H 164.696 1.25084 5.93666 0
M  V30 1665 H 163.435 0.625749 4.83669 0
M  V30 1666 H 162.44 2.92354 4.65628 0
M  V30 1667 H 163.665 3.54761 5.7907 0
M  V30 1668 H 161.611 1.39098 6.41083 0
M  V30 1669 H 161.528 3.04577 6.91931 0
M  V30 1670 H 162.796 2.02398 7.52765 0
M  V30 1671 N 167.025 -1.13721 1.09112 0
M  V30 1672 C 168.271 -1.85413 0.836283 0
M  V30 1673 C 168.626 -1.8175 -0.631249 0
M  V30 1674 O 167.919 -1.24238 -1.45861 0
M  V30 1675 C 168.113 -3.32861 1.30146 0
M  V30 1676 C 167.942 -3.50882 2.81268 0
M  V30 1677 C 166.712 -3.65312 3.49106 0
M  V30 1678 C 168.91 -3.47196 3.7942 0
M  V30 1679 N 166.892 -3.71563 4.88686 0
M  V30 1680 C 168.263 -3.59777 5.04936 0
M  V30 1681 C 170.318 -3.30577 3.72321 0
M  V30 1682 C 169.021 -3.57455 6.24194 0
M  V30 1683 C 171.047 -3.29562 4.91063 0
M  V30 1684 C 170.409 -3.42691 6.15421 0
M  V30 1685 H 166.508 -0.694812 0.358832 0
M  V30 1686 H 169.092 -1.36246 1.39087 0
M  V30 1687 H 167.263 -3.80602 0.774361 0
M  V30 1688 H 168.995 -3.92346 0.99229 0
M  V30 1689 H 165.75 -3.6685 2.9953 0
M  V30 1690 H 166.174 -3.78387 5.61384 0
M  V30 1691 H 170.816 -3.19332 2.77105 0
M  V30 1692 H 168.534 -3.67475 7.19714 0
M  V30 1693 H 172.12 -3.17905 4.87266 0
M  V30 1694 H 171 -3.41862 7.05762 0
M  V30 1695 N 168.503 -0.877838 -1.30888 0
M  V30 1696 C 169.453 -0.310872 -2.25871 0
M  V30 1697 C 170.437 0.556596 -1.50966 0
M  V30 1698 O 171.629 0.402187 -1.7237 0
M  V30 1699 C 168.758 0.479821 -3.3993 0
M  V30 1700 C 167.844 -0.401333 -4.22197 0
M  V30 1701 N 168.235 -1.49848 -4.83093 0
M  V30 1702 C 166.533 -0.195167 -4.45573 0
M  V30 1703 C 167.234 -2.0425 -5.44662 0
M  V30 1704 N 166.21 -1.33843 -5.26865 0
M  V30 1705 H 170.012 -1.1493 -2.70496 0
M  V30 1706 H 167.526 -0.726458 -1.45246 0
M  V30 1707 H 169.523 0.902582 -4.07012 0
M  V30 1708 H 168.183 1.31577 -2.96846 0
M  V30 1709 H 169.194 -1.88137 -4.82519 0
M  V30 1710 H 165.871 0.604192 -4.13105 0
M  V30 1711 H 167.261 -2.96345 -6.03017 0
M  V30 1712 N 169.982 1.44106 -0.638065 0
M  V30 1713 C 170.912 2.33448 0.0494287 0
M  V30 1714 C 171.893 1.48606 0.827672 0
M  V30 1715 O 173.078 1.77308 0.792173 0
M  V30 1716 C 170.208 3.31771 1.02691 0
M  V30 1717 C 169.162 4.26485 0.359823 0
M  V30 1718 C 168.488 5.14729 1.44769 0
M  V30 1719 C 169.788 5.17056 -0.738296 0
M  V30 1720 H 171.482 2.91183 -0.696636 0
M  V30 1721 H 169.028 1.40014 -0.336456 0
M  V30 1722 H 170.981 3.93161 1.51666 0
M  V30 1723 H 169.705 2.7226 1.80395 0
M  V30 1724 H 168.364 3.66437 -0.10934 0
M  V30 1725 H 168.012 4.51566 2.21578 0
M  V30 1726 H 167.712 5.78913 1.00668 0
M  V30 1727 H 169.236 5.78991 1.93911 0
M  V30 1728 H 170.65 5.72342 -0.331354 0
M  V30 1729 H 169.047 5.89879 -1.10286 0
M  V30 1730 H 170.117 4.57652 -1.60258 0
M  V30 1731 N 171.46 0.379036 1.52974 0
M  V30 1732 C 172.708 -0.206014 2.01047 0
M  V30 1733 C 173.029 -1.48175 1.26765 0
M  V30 1734 O 172.299 -1.92085 0.384743 0
M  V30 1735 H 170.879 -0.0791184 0.742798 0
M  V30 1736 H 173.541 0.508366 1.88153 0
M  V30 1737 H 172.637 -0.423501 3.09213 0
M  V30 1738 N 172.938 -1.57226 0.108567 0
M  V30 1739 C 173.868 -2.17778 -0.84232 0
M  V30 1740 C 174.849 -1.11487 -1.2847 0
M  V30 1741 O 176.034 -1.39681 -1.34918 0
M  V30 1742 C 173.164 -2.76888 -2.09644 0
M  V30 1743 C 172.118 -3.88669 -1.79221 0
M  V30 1744 C 171.444 -4.34541 -3.11574 0
M  V30 1745 C 172.744 -5.11251 -1.06864 0
M  V30 1746 H 174.438 -2.97489 -0.337774 0
M  V30 1747 H 171.984 -1.43097 -0.161025 0
M  V30 1748 H 173.937 -3.17904 -2.76614 0
M  V30 1749 H 172.661 -1.94451 -2.62405 0
M  V30 1750 H 171.32 -3.48213 -1.14644 0
M  V30 1751 H 170.968 -3.48977 -3.62249 0
M  V30 1752 H 170.668 -5.09914 -2.91996 0
M  V30 1753 H 172.192 -4.782 -3.7968 0
M  V30 1754 H 173.606 -5.49352 -1.63968 0
M  V30 1755 H 172.003 -5.9214 -0.974178 0
M  V30 1756 H 173.073 -4.8487 -0.0536168 0
M  V30 1757 N 174.416 0.165178 -1.56732 0
M  V30 1758 C 175.363 1.2044 -1.96883 0
M  V30 1759 C 176.333 1.43664 -0.833657 0
M  V30 1760 O 177.518 1.56302 -1.09427 0
M  V30 1761 C 174.658 2.53727 -2.33916 0
M  V30 1762 C 173.771 2.3783 -3.6064 0
M  V30 1763 C 172.906 3.64026 -3.86857 0
M  V30 1764 C 171.945 3.43088 -5.06909 0
M  V30 1765 N 171.082 4.61369 -5.29229 0
M  V30 1766 H 175.922 0.854996 -2.85471 0
M  V30 1767 H 173.459 0.41076 -1.41249 0
M  V30 1768 H 175.417 3.31419 -2.53411 0
M  V30 1769 H 174.047 2.8665 -1.48431 0
M  V30 1770 H 173.099 1.51282 -3.49024 0
M  V30 1771 H 174.411 2.18308 -4.4849 0
M  V30 1772 H 173.565 4.50152 -4.06753 0
M  V30 1773 H 172.304 3.86533 -2.97394 0
M  V30 1774 H 171.309 2.55349 -4.86906 0
M  V30 1775 H 172.534 3.21997 -5.97909 0
M  V30 1776 H 170.48 4.84084 -4.42718 0
M  V30 1777 H 170.397 4.44783 -6.11313 0
M  V30 1778 H 171.665 5.48761 -5.53608 0
M  V30 1779 N 175.894 1.51508 0.433938 0
M  V30 1780 C 177.305 1.56784 1.01369 0
M  V30 1781 C 177.656 0.393349 1.92217 0
M  V30 1782 O 176.781 -0.489441 2.10792 0
M  V30 1783 C 177.376 2.84144 1.8452 0
M  V30 1784 C 175.935 2.9198 2.37539 0
M  V30 1785 C 175.082 2.51482 1.16843 0
M  V30 1786 H 178.033 1.57236 0.215081 0
M  V30 1787 H 178.054 2.68098 2.70007 0
M  V30 1788 H 177.566 3.69607 1.18373 0
M  V30 1789 H 175.667 2.10955 3.0713 0
M  V30 1790 H 175.78 3.95704 2.70103 0
M  V30 1791 H 174.144 2.04758 1.51481 0
M  V30 1792 H 174.927 3.39293 0.523015 0
M  V30 1793 N 177.372 -0.689602 1.41712 0
M  V30 1794 C 178.282 -1.83314 1.46401 0
M  V30 1795 C 179.298 -1.7036 0.35405 0
M  V30 1796 O 180.474 -1.92171 0.602692 0
M  V30 1797 C 177.539 -3.19344 1.34982 0
M  V30 1798 C 176.6 -3.44363 2.56344 0
M  V30 1799 C 175.833 -4.73904 2.45461 0
M  V30 1800 O 176.056 -5.508 1.48241 0
M  V30 1801 O 174.99 -4.99839 3.35328 0
M  V30 1802 H 178.816 -1.82314 2.42889 0
M  V30 1803 H 176.401 -0.843438 1.23315 0
M  V30 1804 H 178.283 -4.00547 1.3092 0
M  V30 1805 H 176.958 -3.21014 0.41612 0
M  V30 1806 H 175.865 -2.63067 2.65982 0
M  V30 1807 H 177.198 -3.47512 3.48563 0
M  V30 1808 N 178.85 -1.27639 -0.924453 0
M  V30 1809 C 179.782 -1.06442 -2.02985 0
M  V30 1810 C 180.795 -0.0194771 -1.62788 0
M  V30 1811 O 181.984 -0.261388 -1.76576 0
M  V30 1812 C 179.084 -0.59327 -3.33667 0
M  V30 1813 C 178.257 -1.71123 -4.02537 0
M  V30 1814 C 177.316 -1.23527 -5.11495 0
M  V30 1815 O 176.342 -1.93553 -5.35281 0
M  V30 1816 N 177.544 -0.0926678 -5.80426 0
M  V30 1817 H 180.309 -2.01633 -2.2173 0
M  V30 1818 H 177.87 -1.19248 -1.09505 0
M  V30 1819 H 179.862 -0.258686 -4.03872 0
M  V30 1820 H 178.432 0.265502 -3.1147 0
M  V30 1821 H 177.652 -2.21593 -3.26022 0
M  V30 1822 H 178.94 -2.46145 -4.45298 0
M  V30 1823 H 178.338 0.491741 -5.63559 0
M  V30 1824 H 176.895 0.182714 -6.51544 0
M  V30 1825 N 180.328 1.1314 -1.09713 0
M  V30 1826 C 181.556 1.88321 -0.856898 0
M  V30 1827 C 181.971 1.79276 0.592073 0
M  V30 1828 O 181.328 1.16142 1.40774 0
M  V30 1829 C 181.379 3.37812 -1.28706 0
M  V30 1830 O 181.1 3.46627 -2.67921 0
M  V30 1831 C 182.601 4.29952 -1.07964 0
M  V30 1832 H 179.821 0.596094 -0.308079 0
M  V30 1833 H 182.365 1.43205 -1.45988 0
M  V30 1834 H 180.52 3.805 -0.727912 0
M  V30 1835 H 180.934 4.39579 -2.8613 0
M  V30 1836 H 182.408 5.33159 -1.42986 0
M  V30 1837 H 182.885 4.39196 -0.0176577 0
M  V30 1838 H 183.491 3.93036 -1.62489 0
M  V30 1839 N 181.806 0.884767 1.30421 0
M  V30 1840 C 183.217 0.553656 1.78302 0
M  V30 1841 C 183.568 -0.930153 1.7275 0
M  V30 1842 O 182.693 -1.72681 1.30423 0
M  V30 1843 C 183.288 0.998234 3.2376 0
M  V30 1844 C 181.847 0.71854 3.69478 0
M  V30 1845 C 180.994 1.18132 2.50879 0
M  V30 1846 H 183.945 1.06901 1.17294 0
M  V30 1847 H 183.966 0.327118 3.79091 0
M  V30 1848 H 183.478 2.0782 3.27769 0
M  V30 1849 H 181.579 -0.349444 3.70958 0
M  V30 1850 H 181.692 1.30595 4.60958 0
M  V30 1851 H 180.056 0.600669 2.47516 0
M  V30 1852 H 180.839 2.26902 2.57624 0
M  V30 1853 N 183.284 -1.43765 0.645699 0
M  V30 1854 C 184.234 -2.27884 -0.0726442 0
M  V30 1855 C 185.218 -1.39483 -0.802086 0
M  V30 1856 O 186.41 -1.63174 -0.685791 0
M  V30 1857 C 183.539 -3.27055 -1.04356 0
M  V30 1858 C 182.625 -4.22944 -0.312985 0
M  V30 1859 N 183.016 -5.01391 0.666386 0
M  V30 1860 C 181.314 -4.42528 -0.55546 0
M  V30 1861 C 182.015 -5.71217 1.09935 0
M  V30 1862 N 180.991 -5.41856 0.435137 0
M  V30 1863 H 184.793 -2.85949 0.678988 0
M  V30 1864 H 182.307 -1.55378 0.472368 0
M  V30 1865 H 184.304 -3.86089 -1.57292 0
M  V30 1866 H 182.964 -2.70551 -1.79534 0
M  V30 1867 H 183.975 -5.07252 1.04481 0
M  V30 1868 H 180.652 -3.97104 -1.28899 0
M  V30 1869 H 182.042 -6.44202 1.90929 0
M  V30 1870 N 184.763 -0.387143 -1.52771 0
M  V30 1871 C 185.726 0.436939 -2.24997 0
M  V30 1872 C 186.726 0.991991 -1.26555 0
M  V30 1873 O 187.916 0.874335 -1.50669 0
M  V30 1874 C 185.048 1.61281 -3.00335 0
M  V30 1875 H 186.241 -0.195365 -2.99263 0
M  V30 1876 H 183.794 -0.139218 -1.55679 0
M  V30 1877 H 184.529 2.2826 -2.30364 0
M  V30 1878 H 184.314 1.22154 -3.72587 0
M  V30 1879 H 185.804 2.19629 -3.5518 0
M  V30 1880 N 186.241 1.57166 -0.116904 0
M  V30 1881 C 187.657 1.5779 0.239693 0
M  V30 1882 C 187.857 1.1295 1.66867 0
M  V30 1883 O 186.913 0.81592 2.38954 0
M  V30 1884 C 188.226 3.00699 0.00828202 0
M  V30 1885 C 189.774 3.12912 0.0743438 0
M  V30 1886 C 190.249 4.57817 -0.129348 0
M  V30 1887 N 191.74 4.63139 -0.075247 0
M  V30 1888 C 192.475 5.73023 -0.207788 0
M  V30 1889 N 191.971 6.91665 -0.396382 0
M  V30 1890 N 193.764 5.61906 -0.14751 0
M  V30 1891 H 185.915 1.84615 -1.05029 0
M  V30 1892 H 188.178 0.85311 -0.41341 0
M  V30 1893 H 187.884 3.37784 -0.979531 0
M  V30 1894 H 187.758 3.69848 0.741077 0
M  V30 1895 H 190.145 2.75686 1.05268 0
M  V30 1896 H 190.226 2.4631 -0.690297 0
M  V30 1897 H 189.87 4.95742 -1.10465 0
M  V30 1898 H 189.8 5.22507 0.655253 0
M  V30 1899 H 192.291 3.7784 0.0670898 0
M  V30 1900 H 192.604 7.71255 -0.488437 0
M  V30 1901 H 190.949 6.93654 -0.432329 0
M  V30 1902 H 194.14 4.681 -0.00115036 0
M  V30 1903 H 194.313 6.47501 -0.254247 0
M  V30 1904 N 187.719 -0.156864 1.56817 0
M  V30 1905 C 188.967 -0.869404 1.82444 0
M  V30 1906 C 189.288 -1.82147 0.69623 0
M  V30 1907 O 188.558 -1.93847 -0.28287 0
M  V30 1908 H 187.138 -0.324043 0.673056 0
M  V30 1909 H 189.8 -0.153224 1.94297 0
M  V30 1910 H 188.896 -1.43761 2.77019 0
M  V30 1911 N 189.197 -1.51736 -0.425897 0
M  V30 1912 C 190.444 -1.6497 -1.17436 0
M  V30 1913 C 190.772 -0.371445 -1.9092 0
M  V30 1914 O 190.027 0.644963 -1.84767 0
M  V30 1915 C 190.326 -2.81103 -2.20717 0
M  V30 1916 C 189.992 -4.19954 -1.64162 0
M  V30 1917 C 188.654 -4.57725 -1.48462 0
M  V30 1918 C 191.006 -5.06552 -1.22696 0
M  V30 1919 C 188.334 -5.79789 -0.897873 0
M  V30 1920 C 190.686 -6.29205 -0.654464 0
M  V30 1921 C 189.35 -6.6574 -0.484456 0
M  V30 1922 H 188.62 -0.603668 -0.429727 0
M  V30 1923 H 191.267 -1.85798 -0.463829 0
M  V30 1924 H 189.572 -2.54542 -2.97852 0
M  V30 1925 H 191.269 -2.8854 -2.78471 0
M  V30 1926 H 187.859 -3.90181 -1.77361 0
M  V30 1927 H 192.043 -4.77968 -1.33642 0
M  V30 1928 H 187.299 -6.06733 -0.75402 0
M  V30 1929 H 191.473 -6.95643 -0.324694 0
M  V30 1930 H 189.1 -7.60195 -0.0276833 0
M  V30 1931 N 190.675 0.682077 -1.42076 0
M  V30 1932 C 191.585 1.82535 -1.47371 0
M  V30 1933 C 192.601 1.7017 -0.363079 0
M  V30 1934 O 193.777 1.91848 -0.612875 0
M  V30 1935 C 190.842 3.18624 -1.36674 0
M  V30 1936 C 189.903 3.42999 -2.58167 0
M  V30 1937 C 189.136 4.72595 -2.4797 0
M  V30 1938 O 189.359 5.50006 -1.5116 0
M  V30 1939 O 188.293 4.98054 -3.37974 0
M  V30 1940 H 192.119 1.81023 -2.43853 0
M  V30 1941 H 189.704 0.836887 -1.2376 0
M  V30 1942 H 191.586 3.99847 -1.33043 0
M  V30 1943 H 190.261 3.20789 -0.433138 0
M  V30 1944 H 189.168 2.61653 -2.67373 0
M  V30 1945 H 190.501 3.45659 -3.50401 0
M  V30 1946 N 192.153 1.28127 0.917671 0
M  V30 1947 C 193.569 1.05749 1.19538 0
M  V30 1948 C 193.769 -0.202633 2.00479 0
M  V30 1949 O 192.825 -0.905382 2.3571 0
M  V30 1950 C 194.138 2.30273 1.93378 0
M  V30 1951 C 195.686 2.35412 2.06277 0
M  V30 1952 C 196.161 3.59692 2.83524 0
M  V30 1953 N 197.652 3.60309 2.91087 0
M  V30 1954 C 198.387 4.53147 3.51348 0
M  V30 1955 N 197.883 5.563 4.12919 0
M  V30 1956 N 199.676 4.40751 3.48849 0
M  V30 1957 H 191.827 2.09024 0.377184 0
M  V30 1958 H 194.09 0.919798 0.22951 0
M  V30 1959 H 193.796 3.22055 1.41328 0
M  V30 1960 H 193.67 2.36378 2.93947 0
M  V30 1961 H 196.057 1.4413 2.57508 0
M  V30 1962 H 196.138 2.33304 1.04895 0
M  V30 1963 H 195.782 4.51316 2.32973 0
M  V30 1964 H 195.712 3.59054 3.85211 0
M  V30 1965 H 198.203 2.85714 2.47338 0
M  V30 1966 H 198.516 6.2329 4.56869 0
M  V30 1967 H 196.861 5.60131 4.11435 0
M  V30 1968 H 200.052 3.59367 2.99955 0
M  V30 1969 H 200.225 5.13291 3.9552 0
M  V30 1970 N 193.631 -1.12557 1.10312 0
M  V30 1971 C 194.856 -1.88405 0.867085 0
M  V30 1972 C 195.281 -1.79038 -0.576817 0
M  V30 1973 O 194.639 -1.14439 -1.40618 0
M  V30 1974 C 194.687 -3.3563 1.31851 0
M  V30 1975 O 193.791 -4.09565 0.482734 0
M  V30 1976 H 193.132 -0.585455 0.313271 0
M  V30 1977 H 195.662 -1.42352 1.4696 0
M  V30 1978 H 195.672 -3.86469 1.3079 0
M  V30 1979 H 194.347 -3.41765 2.37001 0
M  V30 1980 H 192.924 -3.68695 0.558448 0
M  V30 1981 N 195.109 -0.891671 -1.2995 0
M  V30 1982 C 196.356 -0.513501 -1.95881 0
M  V30 1983 C 196.684 0.938655 -1.70351 0
M  V30 1984 O 195.939 1.67936 -1.00478 0
M  V30 1985 C 196.238 -0.742868 -3.49594 0
M  V30 1986 C 195.904 -2.17114 -3.95186 0
M  V30 1987 C 194.566 -2.56169 -4.07346 0
M  V30 1988 C 196.918 -3.10162 -4.18866 0
M  V30 1989 C 194.246 -3.87469 -4.4055 0
M  V30 1990 C 196.598 -4.41001 -4.53542 0
M  V30 1991 C 195.262 -4.79941 -4.63911 0
M  V30 1992 H 194.532 -0.187903 -0.71678 0
M  V30 1993 H 197.179 -1.1288 -1.54694 0
M  V30 1994 H 195.484 -0.044586 -3.91775 0
M  V30 1995 H 197.181 -0.429767 -3.9869 0
M  V30 1996 H 193.771 -1.85801 -3.86233 0
M  V30 1997 H 197.955 -2.81206 -4.08946 0
M  V30 1998 H 193.211 -4.17371 -4.46779 0
M  V30 1999 H 197.385 -5.13133 -4.70815 0
M  V30 2000 H 195.012 -5.81719 -4.89395 0
M  V30 2001 N 196.587 1.43421 -0.653314 0
M  V30 2002 C 197.812 2.06678 -0.172846 0
M  V30 2003 C 198.237 1.48648 1.15262 0
M  V30 2004 O 197.595 0.596457 1.71208 0
M  V30 2005 C 197.643 3.60474 -0.0953184 0
M  V30 2006 O 196.747 4.01487 0.942442 0
M  V30 2007 H 196.088 0.657181 -0.0949155 0
M  V30 2008 H 198.618 1.83925 -0.896265 0
M  V30 2009 H 198.628 4.07905 0.0879728 0
M  V30 2010 H 197.303 4.02088 -1.06291 0
M  V30 2011 H 195.88 3.65646 0.731932 0
M  V30 2012 N 198.065 0.39524 1.52563 0
M  V30 2013 C 198.995 -0.428384 2.29537 0
M  V30 2014 C 199.976 -1.05831 1.33169 0
M  V30 2015 O 201.161 -1.06995 1.62067 0
M  V30 2016 C 198.291 -1.55274 3.10656 0
M  V30 2017 C 197.245 -1.04855 4.14957 0
M  V30 2018 C 196.571 -2.26543 4.84337 0
M  V30 2019 C 197.871 -0.112324 5.22179 0
M  V30 2020 H 199.565 0.213867 2.98635 0
M  V30 2021 H 197.111 0.104298 1.43622 0
M  V30 2022 H 199.064 -2.1358 3.63265 0
M  V30 2023 H 197.788 -2.22266 2.39302 0
M  V30 2024 H 196.447 -0.487985 3.63338 0
M  V30 2025 H 196.095 -2.92059 4.09525 0
M  V30 2026 H 195.795 -1.93466 5.54837 0
M  V30 2027 H 197.319 -2.85481 5.39753 0
M  V30 2028 H 198.733 -0.603752 5.70112 0
M  V30 2029 H 197.13 0.128968 5.99961 0
M  V30 2030 H 198.2 0.837052 4.77621 0
M  V30 2031 N 199.544 -1.57102 0.125237 0
M  V30 2032 C 200.474 -2.18659 -0.819174 0
M  V30 2033 C 201.455 -1.12843 -1.27281 0
M  V30 2034 O 202.64 -1.41104 -1.33429 0
M  V30 2035 C 199.77 -2.79096 -2.06695 0
M  V30 2036 C 198.724 -3.90548 -1.75088 0
M  V30 2037 C 198.05 -4.37821 -3.06948 0
M  V30 2038 C 199.35 -5.12356 -1.01435 0
M  V30 2039 H 201.044 -2.9783 -0.306202 0
M  V30 2040 H 198.59 -1.4326 -0.145839 0
M  V30 2041 H 200.543 -3.2082 -2.73226 0
M  V30 2042 H 199.267 -1.97223 -2.60328 0
M  V30 2043 H 197.926 -3.49409 -1.10944 0
M  V30 2044 H 197.574 -3.52799 -3.58527 0
M  V30 2045 H 197.274 -5.12982 -2.86571 0
M  V30 2046 H 198.798 -4.822 -3.74587 0
M  V30 2047 H 200.212 -5.5106 -1.58132 0
M  V30 2048 H 198.609 -5.9314 -0.911319 0
M  V30 2049 H 199.679 -4.849 -0.00218681 0
M  V30 2050 N 201.022 0.148545 -1.56898 0
M  V30 2051 C 202.433 0.708766 -1.72723 0
M  V30 2052 C 202.784 1.81734 -0.739395 0
M  V30 2053 O 201.909 2.16194 0.0943169 0
M  V30 2054 C 202.504 1.29245 -3.13179 0
M  V30 2055 C 201.063 1.79925 -3.30611 0
M  V30 2056 C 200.21 0.687111 -2.68652 0
M  V30 2057 H 203.161 -0.0771063 -1.58513 0
M  V30 2058 H 203.182 2.16224 -3.13093 0
M  V30 2059 H 202.694 0.485382 -3.85053 0
M  V30 2060 H 200.795 2.63203 -2.63732 0
M  V30 2061 H 200.908 1.92903 -4.38549 0
M  V30 2062 H 199.272 1.11335 -2.29078 0
M  V30 2063 H 200.055 -0.108483 -3.43129 0
M  V30 2064 N 202.5 1.5196 0.417844 0
M  V30 2065 C 203.748 1.65263 1.16329 0
M  V30 2066 C 204.069 0.380634 1.91249 0
M  V30 2067 O 203.339 -0.604214 1.86349 0
M  V30 2068 H 201.919 0.60912 0.432414 0
M  V30 2069 H 204.581 1.88969 0.477162 0
M  V30 2070 H 203.677 2.4896 1.88217 0
M  V30 2071 N 203.978 -0.674533 1.42435 0
M  V30 2072 C 204.941 -1.76986 1.45632 0
M  V30 2073 C 205.941 -1.5708 0.343871 0
M  V30 2074 O 207.131 -1.63367 0.604709 0
M  V30 2075 C 204.263 -3.15623 1.28822 0
M  V30 2076 H 205.456 -1.75539 2.43158 0
M  V30 2077 H 203.009 -0.884189 1.28887 0
M  V30 2078 H 203.744 -3.22696 0.322193 0
M  V30 2079 H 203.529 -3.31475 2.09444 0
M  V30 2080 H 205.019 -3.95537 1.33942 0
M  V30 2081 N 205.456 -1.28612 -0.910864 0
M  V30 2082 C 206.419 -1.12803 -1.9952 0
M  V30 2083 C 207.419 -0.0668264 -1.60661 0
M  V30 2084 O 208.609 -0.312847 -1.71368 0
M  V30 2085 C 205.741 -0.72254 -3.33155 0
M  V30 2086 H 206.934 -2.09109 -2.14973 0
M  V30 2087 H 204.487 -1.11639 -1.09391 0
M  V30 2088 H 205.222 0.241152 -3.23402 0
M  V30 2089 H 205.007 -1.48916 -3.62721 0
M  V30 2090 H 206.497 -0.634666 -4.12749 0
M  V30 2091 N 206.934 1.1197 -1.10907 0
M  V30 2092 C 207.882 2.19927 -0.757303 0
M  V30 2093 C 208.876 1.67564 0.248747 0
M  V30 2094 O 210.082 1.79672 0.108605 0
M  V30 2095 H 206.457 0.716925 -0.226987 0
M  V30 2096 H 208.428 2.46847 -1.67658 0
M  V30 2097 C 207.177 3.47061 -0.210671 0
M  V30 2098 H 206.5 3.87703 -0.976049 0
M  V30 2099 H 207.94 4.24 -0.0026584 0
M  V30 2100 C 206.399 3.19864 1.05777 0
M  V30 2101 O 206.929 3.40049 2.13845 0
M  V30 2102 N 205.135 2.73636 0.978349 0
M  V30 2103 H 204.682 2.5741 0.0988246 0
M  V30 2104 H 204.64 2.55815 1.82773 0
M  V30 2105 N 208.412 0.89855 1.29475 0
M  V30 2106 C 209.362 0.346767 2.25348 0
M  V30 2107 C 210.346 -0.532509 1.51833 0
M  V30 2108 O 211.538 -0.374714 1.72988 0
M  V30 2109 C 208.667 -0.425681 3.40651 0
M  V30 2110 C 207.753 0.46845 4.21505 0
M  V30 2111 N 208.144 1.57514 4.80648 0
M  V30 2112 C 206.442 0.26603 4.45206 0
M  V30 2113 C 207.143 2.12889 5.41344 0
M  V30 2114 N 206.119 1.42208 5.24669 0
M  V30 2115 H 209.921 1.19219 2.68634 0
M  V30 2116 H 207.435 0.749473 1.44072 0
M  V30 2117 H 209.432 -0.837716 4.08397 0
M  V30 2118 H 208.092 -1.26838 2.98902 0
M  V30 2119 H 209.103 1.95789 4.79465 0
M  V30 2120 H 205.78 -0.538394 4.14014 0
M  V30 2121 H 207.17 3.05901 5.98226 0
M  V30 2122 N 209.89 -1.43072 0.660911 0
M  V30 2123 C 211.12 -2.05769 0.185153 0
M  V30 2124 C 211.528 -1.49668 -1.15742 0
M  V30 2125 O 210.871 -0.625649 -1.72717 0
M  V30 2126 C 210.933 -3.59489 0.0278237 0
M  V30 2127 C 210.597 -4.38212 1.2969 0
M  V30 2128 C 211.594 -4.69772 2.22734 0
M  V30 2129 C 209.279 -4.7809 1.54063 0
M  V30 2130 C 211.273 -5.40129 3.38437 0
M  V30 2131 C 208.96 -5.4819 2.70058 0
M  V30 2132 C 209.958 -5.79132 3.62071 0
M  V30 2133 O 209.646 -6.47798 4.76039 0
M  V30 2134 H 209.378 -0.669873 0.0908086 0
M  V30 2135 H 211.932 -1.84436 0.90402 0
M  V30 2136 H 210.162 -3.79426 -0.746489 0
M  V30 2137 H 211.851 -4.03862 -0.406275 0
M  V30 2138 H 212.617 -4.39476 2.05149 0
M  V30 2139 H 208.496 -4.53408 0.833215 0
M  V30 2140 H 212.04 -5.64198 4.10277 0
M  V30 2141 H 207.937 -5.77902 2.87574 0
M  V30 2142 H 208.705 -6.66283 4.75404 0
M  V30 2143 N 211.368 -0.403325 -1.52352 0
M  V30 2144 C 212.616 0.174003 -2.0135 0
M  V30 2145 C 212.937 1.46139 -1.29106 0
M  V30 2146 O 212.207 1.91448 -0.415253 0
M  V30 2147 H 210.787 0.0672911 -0.743963 0
M  V30 2148 H 213.449 -0.538235 -1.87321 0
M  V30 2149 H 212.545 0.374254 -3.09848 0
M  V30 2150 N 212.846 1.57033 -0.133567 0
M  V30 2151 C 214.093 1.95686 0.520877 0
M  V30 2152 C 214.421 1.0177 1.6575 0
M  V30 2153 O 213.676 0.0443195 1.9565 0
M  V30 2154 C 213.975 3.40674 1.08057 0
M  V30 2155 C 213.641 4.50855 0.0637899 0
M  V30 2156 C 212.303 4.80716 -0.215757 0
M  V30 2157 C 214.655 5.17398 -0.62835 0
M  V30 2158 C 211.983 5.74433 -1.19348 0
M  V30 2159 C 214.335 6.12167 -1.5948 0
M  V30 2160 C 212.999 6.40414 -1.88218 0
M  V30 2161 H 212.269 0.716067 0.190602 0
M  V30 2162 H 214.916 1.9026 -0.217556 0
M  V30 2163 H 213.221 3.42865 1.89606 0
M  V30 2164 H 214.918 3.67902 1.59529 0
M  V30 2165 H 211.508 4.27605 0.291855 0
M  V30 2166 H 215.692 4.94472 -0.425562 0
M  V30 2167 H 210.948 5.94616 -1.42272 0
M  V30 2168 H 215.122 6.6281 -2.13671 0
M  V30 2169 H 212.749 7.12838 -2.64133 0
M  V30 2170 N 214.325 -0.140222 1.56975 0
M  V30 2171 C 215.235 -1.19223 2.02047 0
M  V30 2172 C 216.251 -1.46612 0.937062 0
M  V30 2173 O 217.427 -1.58148 1.24704 0
M  V30 2174 C 214.492 -2.50414 2.39778 0
M  V30 2175 C 213.553 -2.30612 3.621 0
M  V30 2176 C 212.786 -3.55547 3.98023 0
M  V30 2177 O 213.009 -4.62004 3.34528 0
M  V30 2178 O 211.943 -3.47808 4.91237 0
M  V30 2179 H 215.769 -0.839559 2.91865 0
M  V30 2180 H 213.354 -0.349453 1.45256 0
M  V30 2181 H 215.236 -3.27747 2.64877 0
M  V30 2182 H 213.911 -2.85198 1.53114 0
M  V30 2183 H 212.818 -1.51207 3.4218 0
M  V30 2184 H 214.151 -2.00741 4.49404 0
M  V30 2185 N 215.803 -1.52179 -0.40978 0
M  V30 2186 C 217.214 -1.58377 -0.988615 0
M  V30 2187 C 217.565 -0.423879 -1.91566 0
M  V30 2188 O 216.69 0.455844 -2.11544 0
M  V30 2189 C 217.285 -2.87044 -1.79976 0
M  V30 2190 C 215.844 -2.95722 -2.32863 0
M  V30 2191 C 214.991 -2.53309 -1.12828 0
M  V30 2192 H 217.942 -1.57558 -0.190039 0
M  V30 2193 H 217.963 -2.7236 -2.65707 0
M  V30 2194 H 217.475 -3.71444 -1.12478 0
M  V30 2195 H 215.576 -2.15814 -3.03735 0
M  V30 2196 H 215.689 -3.99951 -2.63773 0
M  V30 2197 H 214.053 -2.07142 -1.48204 0
M  V30 2198 H 214.836 -3.40082 -0.46897 0
M  V30 2199 N 217.281 0.66697 -1.42791 0
M  V30 2200 C 218.692 1.2478 -1.38877 0
M  V30 2201 C 219.043 1.96012 -0.0859426 0
M  V30 2202 O 218.168 2.00463 0.815081 0
M  V30 2203 C 218.763 2.26938 -2.51564 0
M  V30 2204 C 217.322 2.80529 -2.50959 0
M  V30 2205 C 216.469 1.54965 -2.29959 0
M  V30 2206 H 219.42 0.459853 -1.51892 0
M  V30 2207 H 219.441 3.08834 -2.22265 0
M  V30 2208 H 218.953 1.75065 -3.46372 0
M  V30 2209 H 217.054 3.36502 -1.59991 0
M  V30 2210 H 217.167 3.29012 -3.48265 0
M  V30 2211 H 215.531 1.81817 -1.78366 0
M  V30 2212 H 216.314 1.05047 -3.26833 0
M  V30 2213 N 218.759 1.29093 0.90403 0
M  V30 2214 C 219.989 1.19516 1.68522 0
M  V30 2215 C 220.397 -0.24738 1.87576 0
M  V30 2216 O 219.74 -1.17798 1.40959 0
M  V30 2217 C 219.802 1.83249 3.0929 0
M  V30 2218 C 219.466 3.32531 3.13484 0
M  V30 2219 C 220.463 4.28821 2.93953 0
M  V30 2220 C 218.148 3.73656 3.35688 0
M  V30 2221 C 220.142 5.64212 2.96553 0
M  V30 2222 C 217.829 5.0917 3.37919 0
M  V30 2223 C 218.827 6.04258 3.18373 0
M  V30 2224 O 218.515 7.37298 3.20385 0
M  V30 2225 H 218.247 0.415467 0.533257 0
M  V30 2226 H 220.801 1.70912 1.13922 0
M  V30 2227 H 219.031 1.26358 3.65473 0
M  V30 2228 H 220.72 1.68054 3.69476 0
M  V30 2229 H 221.486 3.98382 2.76616 0
M  V30 2230 H 217.365 3.00101 3.49943 0
M  V30 2231 H 220.909 6.38407 2.81216 0
M  V30 2232 H 216.806 5.39256 3.54787 0
M  V30 2233 H 217.574 7.46048 3.36681 0
M  V30 2234 N 220.237 -1.11381 1.11499 0
M  V30 2235 C 221.514 -1.7955 0.775965 0
M  V30 2236 C 221.894 -1.97859 -0.73588 0
M  V30 2237 O 221.242 -1.56376 -1.66609 0
M  V30 2238 C 221.452 -3.13196 1.53977 0
M  V30 2239 C 222.8 -3.88227 1.71944 0
M  V30 2240 O 223.824 -3.22887 1.50407 0
M  V30 2241 O 222.683 -5.05477 2.07738 0
M  V30 2242 H 219.777 -0.777728 0.28119 0
M  V30 2243 H 222.323 -1.18118 1.21845 0
M  V30 2244 H 221.095 -2.95229 2.56818 0
M  V30 2245 H 220.718 -3.82342 1.09088 0
M  V30 2246 N 221.715 -0.905404 -1.28997 0
M  V30 2247 C 222.625 -0.392246 -2.31298 0
M  V30 2248 C 223.641 0.515889 -1.66176 0
M  V30 2249 O 224.817 0.404093 -1.97304 0
M  V30 2250 C 221.882 0.36686 -3.44754 0
M  V30 2251 C 220.943 -0.573485 -4.25452 0
M  V30 2252 C 220.176 0.149488 -5.33491 0
M  V30 2253 O 220.399 1.37255 -5.5364 0
M  V30 2254 O 219.333 -0.510919 -5.99728 0
M  V30 2255 H 223.159 -1.2411 -2.77183 0
M  V30 2256 H 220.744 -0.669926 -1.33538 0
M  V30 2257 H 222.626 0.795907 -4.13816 0
M  V30 2258 H 221.301 1.19169 -3.00966 0
M  V30 2259 H 220.208 -1.05176 -3.59011 0
M  V30 2260 H 221.541 -1.36489 -4.72897 0
M  V30 2261 N 223.193 1.4272 -0.668489 0
M  V30 2262 C 224.418 2.06484 -0.194758 0
M  V30 2263 C 224.843 1.49862 1.13679 0
M  V30 2264 O 224.201 0.614582 1.70565 0
M  V30 2265 C 224.249 3.60353 -0.133546 0
M  V30 2266 O 223.353 4.02464 0.899806 0
M  V30 2267 H 222.694 0.656137 -0.10188 0
M  V30 2268 H 225.224 1.82964 -0.915722 0
M  V30 2269 H 225.234 4.07976 0.0447041 0
M  V30 2270 H 223.909 4.00938 -1.1055 0
M  V30 2271 H 222.486 3.66402 0.693109 0
M  V30 2272 N 224.671 0.411399 1.52136 0
M  V30 2273 C 225.899 -0.163076 2.06256 0
M  V30 2274 C 226.314 -1.3867 1.28125 0
M  V30 2275 O 225.671 -1.79423 0.333721 0
M  V30 2276 C 225.722 -0.511252 3.57867 0
M  V30 2277 O 225.443 0.66378 4.33042 0
M  V30 2278 C 226.944 -1.13921 4.28412 0
M  V30 2279 H 224.164 -0.0193897 0.67072 0
M  V30 2280 H 226.708 0.583007 1.96013 0
M  V30 2281 H 224.863 -1.20723 3.6811 0
M  V30 2282 H 225.277 0.372601 5.23175 0
M  V30 2283 H 226.751 -1.33302 5.35663 0
M  V30 2284 H 227.228 -2.11296 3.85033 0
M  V30 2285 H 227.834 -0.483373 4.22544 0
M  V30 2286 N 226.149 -1.5696 0.141893 0
M  V30 2287 C 227.56 -1.82797 -0.379776 0
M  V30 2288 C 227.911 -1.06033 -1.6508 0
M  V30 2289 O 227.036 -0.304011 -2.14254 0
M  V30 2290 C 227.631 -3.31578 -0.695802 0
M  V30 2291 C 226.19 -3.58014 -1.16201 0
M  V30 2292 C 225.337 -2.76699 -0.182455 0
M  V30 2293 H 228.288 -1.54406 0.366675 0
M  V30 2294 H 228.309 -3.47454 -1.55099 0
M  V30 2295 H 227.821 -3.87421 0.229449 0
M  V30 2296 H 225.922 -3.07553 -2.10338 0
M  V30 2297 H 226.035 -4.66501 -1.09151 0
M  V30 2298 H 224.399 -2.45618 -0.674072 0
M  V30 2299 H 225.182 -3.35311 0.736297 0
M  V30 2300 N 227.627 0.131896 -1.57047 0
M  V30 2301 C 229.043 0.485031 -1.52051 0
M  V30 2302 C 229.243 1.82563 -0.85281 0
M  V30 2303 O 228.299 2.48817 -0.429694 0
M  V30 2304 C 229.612 0.481409 -2.96821 0
M  V30 2305 C 231.16 0.565868 -3.07842 0
M  V30 2306 C 231.635 0.592762 -4.54148 0
M  V30 2307 N 233.126 0.654564 -4.58552 0
M  V30 2308 C 233.861 0.696608 -5.69153 0
M  V30 2309 N 233.357 0.697078 -6.89284 0
M  V30 2310 N 235.15 0.738639 -5.57226 0
M  V30 2311 H 227.301 -0.746664 -1.98843 0
M  V30 2312 H 229.564 -0.273999 -0.90754 0
M  V30 2313 H 229.27 -0.435731 -3.4899 0
M  V30 2314 H 229.144 1.3139 -3.53577 0
M  V30 2315 H 231.531 1.47343 -2.55684 0
M  V30 2316 H 231.612 -0.29406 -2.54104 0
M  V30 2317 H 231.256 -0.310701 -5.06949 0
M  V30 2318 H 231.186 1.46939 -5.05684 0
M  V30 2319 H 233.677 0.660887 -3.72076 0
M  V30 2320 H 233.99 0.731426 -7.69331 0
M  V30 2321 H 232.335 0.66471 -6.91814 0
M  V30 2322 H 235.526 0.735545 -4.62285 0
M  V30 2323 H 235.699 0.767938 -6.43434 0
M  V30 2324 N 229.106 1.52395 0.401703 0
M  V30 2325 C 230.355 1.66044 1.14509 0
M  V30 2326 C 230.668 0.400216 1.91462 0
M  V30 2327 O 231.874 0.416632 2.68284 0
M  V30 2328 C 230.33 2.93388 2.0845 0
M  V30 2329 C 229.938 4.26545 1.36978 0
M  V30 2330 C 231.682 3.16402 2.83001 0
M  V30 2331 C 229.589 5.45007 2.29611 0
M  V30 2332 H 228.519 0.618562 0.431158 0
M  V30 2333 H 231.17 1.78886 0.40892 0
M  V30 2334 H 229.552 2.74263 2.8565 0
M  V30 2335 H 230.726 4.56179 0.650916 0
M  V30 2336 H 229.041 4.09692 0.74438 0
M  V30 2337 H 231.638 4.02085 3.52465 0
M  V30 2338 H 231.981 2.30943 3.46368 0
M  V30 2339 H 232.514 3.36034 2.12898 0
M  V30 2340 H 229.253 6.32835 1.70879 0
M  V30 2341 H 228.773 5.19702 2.9945 0
M  V30 2342 H 230.452 5.7838 2.89974 0
M  V30 2343 N 230.584 -0.659388 1.43143 0
M  V30 2344 C 231.514 -1.78422 1.50625 0
M  V30 2345 C 232.495 -1.66216 0.361443 0
M  V30 2346 O 233.68 -1.85404 0.577834 0
M  V30 2347 C 230.81 -3.16815 1.42287 0
M  V30 2348 C 229.764 -3.43777 2.54954 0
M  V30 2349 C 229.09 -4.81905 2.31671 0
M  V30 2350 C 230.39 -3.39134 3.97222 0
M  V30 2351 H 232.084 -1.72417 2.44771 0
M  V30 2352 H 229.63 -0.828084 1.17808 0
M  V30 2353 H 231.583 -3.95253 1.46127 0
M  V30 2354 H 230.307 -3.23534 0.446435 0
M  V30 2355 H 228.966 -2.67707 2.50457 0
M  V30 2356 H 228.614 -4.85294 1.32284 0
M  V30 2357 H 228.314 -5.00906 3.07192 0
M  V30 2358 H 229.838 -5.62609 2.37284 0
M  V30 2359 H 231.252 -4.07518 4.03239 0
M  V30 2360 H 229.649 -3.69671 4.72719 0
M  V30 2361 H 230.719 -2.37426 4.22797 0
M  V30 2362 N 232.062 -1.29571 -0.897171 0
M  V30 2363 C 233.009 -1.14916 -2.00158 0
M  V30 2364 C 233.979 -0.0418149 -1.66047 0
M  V30 2365 O 235.164 -0.209793 -1.89643 0
M  V30 2366 C 232.304 -0.834307 -3.34863 0
M  V30 2367 C 231.417 -2.02234 -3.8174 0
M  V30 2368 C 230.552 -1.64664 -5.05034 0
M  V30 2369 C 229.591 -2.80033 -5.44286 0
M  V30 2370 N 228.728 -2.42843 -6.58765 0
M  V30 2371 H 233.568 -2.09403 -2.12025 0
M  V30 2372 H 231.105 -1.042 -1.0383 0
M  V30 2373 H 233.063 -0.632436 -4.12379 0
M  V30 2374 H 231.693 0.0736656 -3.22716 0
M  V30 2375 H 230.745 -2.33583 -3.00238 0
M  V30 2376 H 232.057 -2.88673 -4.06779 0
M  V30 2377 H 231.211 -1.4078 -5.9014 0
M  V30 2378 H 229.95 -0.753766 -4.8184 0
M  V30 2379 H 228.955 -3.04596 -4.57713 0
M  V30 2380 H 230.18 -3.69989 -5.6946 0
M  V30 2381 H 228.126 -1.56046 -6.3717 0
M  V30 2382 H 228.043 -3.22815 -6.83613 0
M  V30 2383 H 229.311 -2.22285 -7.47134 0
M  V30 2384 N 233.54 1.10788 -1.12088 0
M  V30 2385 C 234.788 1.8231 -0.872205 0
M  V30 2386 C 235.109 1.85419 0.603709 0
M  V30 2387 O 234.379 1.32963 1.43867 0
M  V30 2388 H 232.959 0.675137 -0.319686 0
M  V30 2389 H 235.621 1.34068 -1.41463 0
M  V30 2390 H 234.717 2.85955 -1.25045 0
M  V30 2391 N 235.018 0.912232 1.28515 0
M  V30 2392 C 236.246 0.560416 1.99166 0
M  V30 2393 C 236.661 -0.857927 1.68182 0
M  V30 2394 O 236.018 -1.56805 0.933733 0
M  V30 2395 C 236.069 0.758142 3.53461 0
M  V30 2396 O 235.79 2.12067 3.83352 0
M  V30 2397 C 237.291 0.412954 4.41372 0
M  V30 2398 H 234.511 0.213805 0.636026 0
M  V30 2399 H 237.055 1.22502 1.63749 0
M  V30 2400 H 235.21 0.140556 3.87145 0
M  V30 2401 H 235.624 2.15923 4.77993 0
M  V30 2402 H 237.098 0.60208 5.48707 0
M  V30 2403 H 237.575 -0.65073 4.34353 0
M  V30 2404 H 238.181 1.00802 4.13182 0
M  V30 2405 N 236.496 -1.42363 0.676048 0
M  V30 2406 C 237.907 -1.84649 0.275948 0
M  V30 2407 C 238.258 -1.56588 -1.18214 0
M  V30 2408 O 237.383 -1.02634 -1.90513 0
M  V30 2409 C 237.978 -3.35178 0.494053 0
M  V30 2410 C 236.537 -3.76109 0.148061 0
M  V30 2411 C 235.684 -2.65931 0.785891 0
M  V30 2412 H 238.635 -1.32192 0.878121 0
M  V30 2413 H 238.656 -3.79655 -0.25343 0
M  V30 2414 H 238.168 -3.55571 1.55535 0
M  V30 2415 H 236.269 -3.61323 -0.909742 0
M  V30 2416 H 236.382 -4.7546 0.589454 0
M  V30 2417 H 234.746 -2.53773 0.217113 0
M  V30 2418 H 235.529 -2.89146 1.85067 0
M  V30 2419 N 237.974 -0.419461 -1.51915 0
M  V30 2420 C 238.937 0.389116 -2.25873 0
M  V30 2421 C 239.937 0.964924 -1.28631 0
M  V30 2422 O 241.127 0.842179 -1.52489 0
M  V30 2423 C 238.259 1.54874 -3.03689 0
M  V30 2424 H 239.452 -0.258799 -2.98781 0
M  V30 2425 H 237.005 -0.172209 -1.55348 0
M  V30 2426 H 237.74 2.23323 -2.35154 0
M  V30 2427 H 237.525 1.14223 -3.75094 0
M  V30 2428 H 239.015 2.12046 -3.59759 0
M  V30 2429 N 239.452 1.56882 -0.150215 0
M  V30 2430 C 240.382 2.19935 0.784284 0
M  V30 2431 C 241.363 1.14854 1.25469 0
M  V30 2432 O 242.548 1.43209 1.31168 0
M  V30 2433 C 239.678 2.82349 2.02229 0
M  V30 2434 C 238.632 3.93285 1.68853 0
M  V30 2435 C 237.958 4.42649 2.99944 0
M  V30 2436 C 239.258 5.13904 0.932714 0
M  V30 2437 H 240.952 2.9828 0.258781 0
M  V30 2438 H 238.498 1.43473 0.123029 0
M  V30 2439 H 240.451 3.25126 2.68088 0
M  V30 2440 H 239.175 2.0134 2.57157 0
M  V30 2441 H 237.834 3.5113 1.05371 0
M  V30 2442 H 237.482 3.58458 3.52869 0
M  V30 2443 H 237.182 5.17476 2.78374 0
M  V30 2444 H 238.706 4.88099 3.66868 0
M  V30 2445 H 240.12 5.53506 1.49345 0
M  V30 2446 H 238.517 5.94515 0.81684 0
M  V30 2447 H 239.587 4.84842 -0.0749568 0
M  V30 2448 N 240.93 -0.123565 1.57115 0
M  V30 2449 C 242.16 -0.845233 1.88519 0
M  V30 2450 C 242.568 -1.74168 0.739064 0
M  V30 2451 O 241.911 -1.81244 -0.299355 0
M  V30 2452 C 241.973 -1.73452 3.14888 0
M  V30 2453 C 241.637 -1.01285 4.45635 0
M  V30 2454 C 242.634 -0.355774 5.18681 0
M  V30 2455 C 240.319 -0.99538 4.92339 0
M  V30 2456 C 242.313 0.309114 6.3665 0
M  V30 2457 C 240 -0.32669 6.10226 0
M  V30 2458 C 240.998 0.324406 6.82229 0
M  V30 2459 O 240.686 0.982437 7.97874 0
M  V30 2460 H 240.418 -0.248534 0.628655 0
M  V30 2461 H 242.972 -0.113907 2.05084 0
M  V30 2462 H 241.202 -2.50737 2.94394 0
M  V30 2463 H 242.891 -2.33021 3.32349 0
M  V30 2464 H 243.657 -0.360918 4.83655 0
M  V30 2465 H 239.536 -1.49159 4.36202 0
M  V30 2466 H 243.08 0.8179 6.92789 0
M  V30 2467 H 238.977 -0.319294 6.4471 0
M  V30 2468 H 239.745 0.886454 8.13686 0
M  V30 2469 N 242.408 -1.52605 -0.393616 0
M  V30 2470 C 243.654 -1.67672 -1.14079 0
M  V30 2471 C 243.987 -0.413121 -1.89755 0
M  V30 2472 O 243.262 0.588952 -1.85369 0
M  V30 2473 C 243.545 -2.9088 -2.12276 0
M  V30 2474 C 243.398 -4.27329 -1.40394 0
M  V30 2475 C 244.717 -3.09628 -3.12759 0
M  V30 2476 H 241.836 -0.610168 -0.413356 0
M  V30 2477 H 244.478 -1.85193 -0.424696 0
M  V30 2478 H 242.628 -2.76073 -2.73342 0
M  V30 2479 H 244.3 -4.53894 -0.82327 0
M  V30 2480 H 242.543 -4.2802 -0.705801 0
M  V30 2481 H 243.214 -5.09615 -2.12123 0
M  V30 2482 H 245.69 -3.23436 -2.61779 0
M  V30 2483 H 244.566 -3.97322 -3.78717 0
M  V30 2484 H 244.827 -2.23637 -3.81365 0
M  V30 2485 N 243.887 0.651787 -1.4349 0
M  V30 2486 C 244.797 1.79368 -1.5121 0
M  V30 2487 C 245.813 1.69361 -0.399093 0
M  V30 2488 O 246.989 1.90505 -0.653431 0
M  V30 2489 C 244.054 3.15653 -1.43401 0
M  V30 2490 C 243.115 3.37446 -2.65384 0
M  V30 2491 C 242.348 4.67229 -2.57939 0
M  V30 2492 O 242.571 5.46676 -1.62792 0
M  V30 2493 O 241.505 4.90773 -3.48462 0
M  V30 2494 H 245.331 1.7581 -2.47638 0
M  V30 2495 H 242.916 0.810447 -1.25507 0
M  V30 2496 H 244.798 3.96935 -1.41494 0
M  V30 2497 H 243.473 3.19798 -0.501085 0
M  V30 2498 H 242.38 2.55923 -2.72863 0
M  V30 2499 H 243.713 3.38148 -3.57654 0
M  V30 2500 N 245.365 1.30045 0.890287 0
M  V30 2501 C 246.642 1.09227 1.62262 0
M  V30 2502 C 247.022 -0.360305 2.08002 0
M  V30 2503 O 246.37 -1.35084 1.84295 0
M  V30 2504 C 246.58 2.08835 2.79623 0
M  V30 2505 C 247.928 2.40266 3.50082 0
M  V30 2506 O 248.952 2.07104 2.89804 0
M  V30 2507 O 247.811 2.96967 4.58773 0
M  V30 2508 H 244.905 0.419132 0.712922 0
M  V30 2509 H 247.451 1.41451 0.937529 0
M  V30 2510 H 246.223 3.06633 2.43089 0
M  V30 2511 H 245.846 1.77397 3.55832 0
M  V30 2512 N 246.843 -1.10192 1.12674 0
M  V30 2513 C 247.753 -2.20172 0.810026 0
M  V30 2514 C 248.769 -1.72821 -0.202188 0
M  V30 2515 O 249.945 -2.01369 -0.0351691 0
M  V30 2516 C 247.01 -3.45631 0.272007 0
M  V30 2517 C 246.071 -4.07704 1.34447 0
M  V30 2518 C 245.304 -5.27175 0.832029 0
M  V30 2519 O 245.527 -5.69425 -0.333284 0
M  V30 2520 O 244.461 -5.80168 1.60277 0
M  V30 2521 H 248.287 -2.49701 1.72867 0
M  V30 2522 H 245.872 -1.18977 0.903597 0
M  V30 2523 H 247.754 -4.21394 -0.0230219 0
M  V30 2524 H 246.429 -3.17723 -0.619164 0
M  V30 2525 H 245.336 -3.33614 1.6927 0
M  V30 2526 H 246.669 -4.3982 2.2095 0
M  V30 2527 N 248.321 -0.919034 -1.28029 0
M  V30 2528 C 249.737 -0.617972 -1.4715 0
M  V30 2529 C 249.937 0.835242 -1.83374 0
M  V30 2530 O 248.993 1.61388 -1.94191 0
M  V30 2531 C 250.306 -1.56041 -2.57044 0
M  V30 2532 C 251.854 -1.56769 -2.7091 0
M  V30 2533 C 252.329 -2.49688 -3.83953 0
M  V30 2534 N 253.82 -2.47845 -3.91314 0
M  V30 2535 C 254.555 -3.16437 -4.78179 0
M  V30 2536 N 254.051 -3.94376 -5.69596 0
M  V30 2537 N 255.844 -3.05498 -4.71834 0
M  V30 2538 H 247.995 -1.85866 -1.02798 0
M  V30 2539 H 250.258 -0.797506 -0.512531 0
M  V30 2540 H 249.964 -2.59671 -2.372 0
M  V30 2541 H 249.838 -1.29551 -3.54255 0
M  V30 2542 H 252.225 -0.538745 -2.90141 0
M  V30 2543 H 252.306 -1.87305 -1.74214 0
M  V30 2544 H 251.95 -3.52688 -3.65477 0
M  V30 2545 H 251.88 -2.16453 -4.80058 0
M  V30 2546 H 254.371 -1.91234 -3.25941 0
M  V30 2547 H 254.684 -4.43721 -6.32718 0
M  V30 2548 H 253.029 -3.98481 -5.69419 0
M  V30 2549 H 256.22 -2.44108 -3.99411 0
M  V30 2550 H 256.393 -3.59225 -5.39316 0
M  V30 2551 N 249.799 1.42003 -0.683588 0
M  V30 2552 C 251.029 2.05448 -0.217866 0
M  V30 2553 C 251.437 1.51491 1.13346 0
M  V30 2554 O 250.78 0.653048 1.717 0
M  V30 2555 C 250.842 3.59399 -0.0850118 0
M  V30 2556 C 250.506 4.36093 -1.36645 0
M  V30 2557 C 251.503 4.66169 -2.30179 0
M  V30 2558 C 249.188 4.75578 -1.61649 0
M  V30 2559 C 251.182 5.34676 -3.46988 0
M  V30 2560 C 248.869 5.43824 -2.78745 0
M  V30 2561 C 249.867 5.73299 -3.71238 0
M  V30 2562 O 249.555 6.40142 -4.86285 0
M  V30 2563 H 249.287 0.668344 -0.101454 0
M  V30 2564 H 251.841 1.82974 -0.933248 0
M  V30 2565 H 250.071 3.80566 0.686031 0
M  V30 2566 H 251.76 4.04457 0.341973 0
M  V30 2567 H 252.526 4.36156 -2.12115 0
M  V30 2568 H 248.405 4.52025 -0.905243 0
M  V30 2569 H 251.949 5.57599 -4.19201 0
M  V30 2570 H 247.846 5.73254 -2.96732 0
M  V30 2571 H 248.614 6.58636 -4.85944 0
M  V30 2572 N 251.277 0.427512 1.51691 0
M  V30 2573 C 252.207 -0.3796 2.30394 0
M  V30 2574 C 253.188 -1.02982 1.35384 0
M  V30 2575 O 254.373 -1.03534 1.643 0
M  V30 2576 C 251.503 -1.48649 3.1388 0
M  V30 2577 C 250.457 -0.960294 4.17088 0
M  V30 2578 C 249.783 -2.16219 4.89033 0
M  V30 2579 C 251.083 -0.00153679 5.223 0
M  V30 2580 H 252.777 0.277164 2.98114 0
M  V30 2581 H 250.323 0.134739 1.43368 0
M  V30 2582 H 252.276 -2.05826 3.67714 0
M  V30 2583 H 251 -2.1714 2.43962 0
M  V30 2584 H 249.659 -0.410806 3.64291 0
M  V30 2585 H 249.307 -2.83307 4.15628 0
M  V30 2586 H 249.007 -1.81654 5.58816 0
M  V30 2587 H 250.531 -2.73968 5.45687 0
M  V30 2588 H 251.945 -0.482687 5.71264 0
M  V30 2589 H 250.342 0.256199 5.99553 0
M  V30 2590 H 251.412 0.938174 4.75738 0
M  V30 2591 N 252.755 -1.56801 0.158532 0
M  V30 2592 C 254.032 -1.88131 -0.535357 0
M  V30 2593 C 254.412 -1.06638 -1.82186 0
M  V30 2594 O 253.76 -0.156533 -2.27963 0
M  V30 2595 C 253.97 -3.39949 -0.789653 0
M  V30 2596 C 255.318 -4.09416 -1.12533 0
M  V30 2597 O 256.342 -3.45194 -0.878622 0
M  V30 2598 O 255.201 -5.22855 -1.59014 0
M  V30 2599 H 252.295 -0.780143 -0.27442 0
M  V30 2600 H 254.841 -1.68564 0.19601 0
M  V30 2601 H 253.613 -3.91115 0.120353 0
M  V30 2602 H 253.236 -3.65084 -1.57479 0
M  V30 2603 N 254.233 0.115231 -1.57178 0
M  V30 2604 C 255.461 0.836437 -1.89239 0
M  V30 2605 C 255.876 1.73256 -0.750175 0
M  V30 2606 O 255.233 1.80357 0.278832 0
M  V30 2607 C 255.284 1.66671 -3.20785 0
M  V30 2608 O 255.005 0.806652 -4.3061 0
M  V30 2609 C 256.506 2.49274 -3.66575 0
M  V30 2610 H 253.726 0.240253 -0.626514 0
M  V30 2611 H 256.27 0.0984932 -2.04263 0
M  V30 2612 H 254.425 2.35737 -3.0742 0
M  V30 2613 H 254.839 1.37969 -5.06028 0
M  V30 2614 H 256.313 3.03055 -4.6137 0
M  V30 2615 H 256.79 3.26807 -2.93417 0
M  V30 2616 H 257.396 1.85443 -3.82741 0
M  V30 2617 N 255.711 1.52812 0.385517 0
M  V30 2618 C 256.641 1.80808 1.47752 0
M  V30 2619 C 257.622 0.660318 1.5676 0
M  V30 2620 O 258.807 0.908246 1.71652 0
M  V30 2621 C 255.937 1.98008 2.85324 0
M  V30 2622 C 254.891 3.13709 2.91154 0
M  V30 2623 C 254.217 3.16169 4.31209 0
M  V30 2624 C 255.517 4.52709 2.60483 0
M  V30 2625 H 257.211 2.72253 1.24573 0
M  V30 2626 H 254.757 1.31003 0.597839 0
M  V30 2627 H 256.71 2.16176 3.61726 0
M  V30 2628 H 255.434 1.03255 3.09848 0
M  V30 2629 H 254.093 2.95329 2.17201 0
M  V30 2630 H 253.741 2.19092 4.52778 0
M  V30 2631 H 253.441 3.93894 4.36029 0
M  V30 2632 H 254.965 3.36496 5.09512 0
M  V30 2633 H 256.379 4.71173 3.26602 0
M  V30 2634 H 254.776 5.32528 2.76648 0
M  V30 2635 H 255.846 4.59186 1.55809 0
M  V30 2636 N 257.189 -0.644168 1.43834 0
M  V30 2637 C 258.6 -1.22554 1.40845 0
M  V30 2638 C 258.951 -1.9585 0.117115 0
M  V30 2639 O 258.076 -2.01734 -0.783086 0
M  V30 2640 C 258.671 -2.22907 2.55143 0
M  V30 2641 C 257.23 -2.76501 2.5539 0
M  V30 2642 C 256.377 -1.51287 2.32396 0
M  V30 2643 H 259.328 -0.43563 1.52604 0
M  V30 2644 H 259.349 -3.05259 2.2715 0
M  V30 2645 H 258.861 -1.69533 3.49114 0
M  V30 2646 H 256.962 -3.33914 1.65324 0
M  V30 2647 H 257.075 -3.23429 3.53455 0
M  V30 2648 H 255.439 -1.78957 1.81236 0
M  V30 2649 H 256.222 -0.998336 3.28463 0
M  V30 2650 N 258.668 -1.30515 -0.883378 0
M  V30 2651 C 259.578 -1.18959 -2.02203 0
M  V30 2652 C 260.594 -0.109172 -1.73657 0
M  V30 2653 O 261.77 -0.324413 -1.9877 0
M  V30 2654 C 258.835 -0.883871 -3.35244 0
M  V30 2655 C 257.896 -2.04982 -3.77201 0
M  V30 2656 C 257.129 -1.75859 -5.03894 0
M  V30 2657 O 257.352 -0.687276 -5.66244 0
M  V30 2658 O 256.286 -2.61146 -5.42297 0
M  V30 2659 H 260.112 -2.14616 -2.1488 0
M  V30 2660 H 257.697 -1.10124 -1.0096 0
M  V30 2661 H 259.579 -0.728644 -4.15053 0
M  V30 2662 H 258.254 0.0427798 -3.23672 0
M  V30 2663 H 257.161 -2.26038 -2.9809 0
M  V30 2664 H 258.494 -2.95825 -3.93381 0
M  V30 2665 N 260.146 1.09593 -1.13257 0
M  V30 2666 C 261.394 1.81375 -0.891492 0
M  V30 2667 C 261.715 1.86049 0.584009 0
M  V30 2668 O 260.985 1.34481 1.42449 0
M  V30 2669 H 259.565 0.671708 -0.326828 0
M  V30 2670 H 262.227 1.3256 -1.42877 0
M  V30 2671 H 261.323 2.84612 -1.28071 0
M  V30 2672 N 261.624 0.925811 1.2754 0
M  V30 2673 C 262.871 0.565255 1.94451 0
M  V30 2674 C 263.199 -0.89316 1.7278 0
M  V30 2675 O 262.454 -1.65213 1.04895 0
M  V30 2676 C 262.753 0.835296 3.47502 0
M  V30 2677 C 262.419 2.27515 3.89291 0
M  V30 2678 C 261.081 2.66879 4.00411 0
M  V30 2679 C 263.433 3.21158 4.10496 0
M  V30 2680 C 260.761 3.99014 4.30122 0
M  V30 2681 C 263.113 4.52871 4.4169 0
M  V30 2682 C 261.777 4.92072 4.51023 0
M  V30 2683 H 261.047 0.206841 0.711546 0
M  V30 2684 H 263.694 1.16942 1.51647 0
M  V30 2685 H 261.999 0.148442 3.91519 0
M  V30 2686 H 263.696 0.535322 3.97411 0
M  V30 2687 H 260.286 1.95976 3.81171 0
M  V30 2688 H 264.47 2.9195 4.01346 0
M  V30 2689 H 259.726 4.2907 4.35556 0
M  V30 2690 H 263.9 5.25436 4.57045 0
M  V30 2691 H 261.527 5.9449 4.738 0
M  V30 2692 N 263.102 -1.41638 0.69111 0
M  V30 2693 C 264.332 -2.0533 0.228758 0
M  V30 2694 C 264.74 -1.52089 -1.12541 0
M  V30 2695 O 264.083 -0.662145 -1.71351 0
M  V30 2696 C 264.145 -3.59349 0.10407 0
M  V30 2697 C 263.809 -4.35362 1.38956 0
M  V30 2698 C 264.806 -4.64942 2.32648 0
M  V30 2699 C 262.491 -4.74714 1.64169 0
M  V30 2700 C 264.485 -5.32828 3.49818 0
M  V30 2701 C 262.172 -5.42338 2.81625 0
M  V30 2702 C 263.17 -5.71322 3.74273 0
M  V30 2703 O 262.858 -6.37554 4.89673 0
M  V30 2704 H 262.59 -0.667796 0.104997 0
M  V30 2705 H 265.144 -1.82477 0.942938 0
M  V30 2706 H 263.374 -3.80924 -0.665839 0
M  V30 2707 H 265.063 -4.04633 -0.320519 0
M  V30 2708 H 265.829 -4.35025 2.14425 0
M  V30 2709 H 261.708 -4.51538 0.929202 0
M  V30 2710 H 265.252 -5.55368 4.22152 0
M  V30 2711 H 261.149 -5.71673 2.99768 0
M  V30 2712 H 261.917 -6.56049 4.8943 0
M  V30 2713 N 264.58 -0.43555 -1.51462 0
M  V30 2714 C 265.805 0.132627 -2.06976 0
M  V30 2715 C 266.23 1.35848 -1.30104 0
M  V30 2716 O 265.588 1.78112 -0.338493 0
M  V30 2717 C 265.636 0.43523 -3.57964 0
M  V30 2718 O 264.74 1.52198 -3.83288 0
M  V30 2719 H 264.081 0.00265 -0.663995 0
M  V30 2720 H 266.611 -0.616369 -1.95095 0
M  V30 2721 H 266.621 0.686206 -4.02188 0
M  V30 2722 H 265.296 -0.460739 -4.1334 0
M  V30 2723 H 263.873 1.2611 -3.50928 0
M  V30 2724 N 266.058 1.56714 -0.166846 0
M  V30 2725 C 267.283 2.01557 0.488833 0
M  V30 2726 C 267.708 1.0463 1.56314 0
M  V30 2727 O 267.066 0.0251304 1.81283 0
M  V30 2728 C 267.114 3.4503 1.04818 0
M  V30 2729 O 266.218 3.51163 2.16236 0
M  V30 2730 H 265.559 0.653516 0.117526 0
M  V30 2731 H 268.089 2.02818 -0.269421 0
M  V30 2732 H 268.099 3.84243 1.37191 0
M  V30 2733 H 266.774 4.15077 0.261572 0
M  V30 2734 H 265.351 3.23807 1.84942 0
M  V30 2735 N 267.536 -0.106894 1.57237 0
M  V30 2736 C 268.813 -0.843526 1.76477 0
M  V30 2737 C 269.193 -1.97499 0.745464 0
M  V30 2738 O 268.541 -2.27357 -0.228306 0
M  V30 2739 C 268.751 -1.34903 3.21873 0
M  V30 2740 C 270.099 -1.79654 3.8472 0
M  V30 2741 O 271.123 -1.44554 3.2555 0
M  V30 2742 O 269.982 -2.44515 4.88748 0
M  V30 2743 H 267.076 -0.401468 0.723016 0
M  V30 2744 H 269.622 -0.0896927 1.69463 0
M  V30 2745 H 268.394 -0.53781 3.87586 0
M  V30 2746 H 268.017 -2.16522 3.33473 0
M  V30 2747 N 269.014 -1.53014 -0.377408 0
M  V30 2748 C 269.977 -1.77957 -1.44444 0
M  V30 2749 C 270.977 -0.649763 -1.47087 0
M  V30 2750 O 272.167 -0.917897 -1.48055 0
M  V30 2751 C 269.299 -1.89089 -2.83651 0
M  V30 2752 H 270.492 -2.73243 -1.23606 0
M  V30 2753 H 268.045 -1.43912 -0.609844 0
M  V30 2754 H 268.78 -0.958293 -3.09818 0
M  V30 2755 H 268.565 -2.71254 -2.83132 0
M  V30 2756 H 270.055 -2.1002 -3.60945 0
M  V30 2757 N 270.492 0.636531 -1.44174 0
M  V30 2758 C 271.739 1.39619 -1.46672 0
M  V30 2759 C 272.067 1.94257 -0.0972691 0
M  V30 2760 O 271.322 1.73768 0.900175 0
M  V30 2761 C 271.621 2.58309 -2.47005 0
M  V30 2762 C 271.287 2.21992 -3.92467 0
M  V30 2763 C 269.949 2.118 -4.32081 0
M  V30 2764 C 272.301 1.9321 -4.84065 0
M  V30 2765 C 269.629 1.71007 -5.61225 0
M  V30 2766 C 271.981 1.53911 -6.13591 0
M  V30 2767 C 270.645 1.42257 -6.52165 0
M  V30 2768 H 269.915 0.510902 -0.536712 0
M  V30 2769 H 272.562 0.722328 -1.77355 0
M  V30 2770 H 270.867 3.30903 -2.09786 0
M  V30 2771 H 272.564 3.16533 -2.46186 0
M  V30 2772 H 269.154 2.30841 -3.61124 0
M  V30 2773 H 273.338 1.99997 -4.54219 0
M  V30 2774 H 268.594 1.60583 -5.89935 0
M  V30 2775 H 272.768 1.30677 -6.8403 0
M  V30 2776 H 270.395 1.10419 -7.52138 0
M  V30 2777 N 271.97 1.30982 0.876444 0
M  V30 2778 C 273.218 1.20058 1.62575 0
M  V30 2779 C 273.539 -0.242947 1.93481 0
M  V30 2780 O 272.809 -1.1619 1.57724 0
M  V30 2781 H 271.389 0.44135 0.602677 0
M  V30 2782 H 274.051 1.64222 1.04962 0
M  V30 2783 H 273.147 1.76762 2.57219 0
M  V30 2784 N 273.449 -1.08991 1.13837 0
M  V30 2785 C 274.726 -1.77863 0.813876 0
M  V30 2786 C 275.106 -1.99375 -0.693746 0
M  V30 2787 O 274.454 -1.59875 -1.63255 0
M  V30 2788 C 274.664 -3.0986 1.60586 0
M  V30 2789 C 276.012 -3.84493 1.8014 0
M  V30 2790 O 277.036 -3.19624 1.57222 0
M  V30 2791 O 275.895 -5.00957 2.18413 0
M  V30 2792 H 272.989 -0.771589 0.297624 0
M  V30 2793 H 275.535 -1.15507 1.24323 0
M  V30 2794 H 274.307 -2.89715 2.63022 0
M  V30 2795 H 273.93 -3.79942 1.17173 0
M  V30 2796 N 274.927 -0.932562 -1.27047 0
M  V30 2797 C 275.874 -0.434072 -2.26681 0
M  V30 2798 C 276.844 0.501639 -1.58344 0
M  V30 2799 O 278.029 0.419734 -1.86126 0
M  V30 2800 C 275.169 0.30261 -3.43771 0
M  V30 2801 C 274.282 -0.667774 -4.26808 0
M  V30 2802 C 273.417 0.0892393 -5.31125 0
M  V30 2803 C 272.456 -0.873532 -6.05835 0
M  V30 2804 N 271.593 -0.148832 -7.01942 0
M  V30 2805 H 276.433 -1.28868 -2.68695 0
M  V30 2806 H 273.97 -0.646713 -1.32121 0
M  V30 2807 H 275.928 0.746092 -4.10474 0
M  V30 2808 H 274.558 1.12142 -3.02695 0
M  V30 2809 H 273.61 -1.22978 -3.59973 0
M  V30 2810 H 274.922 -1.40337 -4.78651 0
M  V30 2811 H 274.076 0.592409 -6.03801 0
M  V30 2812 H 272.815 0.85777 -4.80097 0
M  V30 2813 H 271.82 -1.38791 -5.31994 0
M  V30 2814 H 273.045 -1.64193 -6.58952 0
M  V30 2815 H 270.991 0.601365 -6.53238 0
M  V30 2816 H 270.908 -0.82391 -7.51497 0
M  V30 2817 H 272.176 0.333527 -7.78786 0
M  V30 2818 N 276.405 1.4127 -0.698611 0
M  V30 2819 C 277.335 2.33447 -0.049629 0
M  V30 2820 C 278.316 1.51982 0.763898 0
M  V30 2821 O 279.501 1.80509 0.716257 0
M  V30 2822 C 276.631 3.35828 0.885267 0
M  V30 2823 C 275.585 4.27627 0.178613 0
M  V30 2824 C 274.911 5.20406 1.22807 0
M  V30 2825 C 276.211 5.13459 -0.956933 0
M  V30 2826 H 277.905 2.87966 -0.81951 0
M  V30 2827 H 275.451 1.38461 -0.395538 0
M  V30 2828 H 277.404 3.9924 1.34854 0
M  V30 2829 H 276.128 2.79666 1.68685 0
M  V30 2830 H 274.787 3.65643 -0.26466 0
M  V30 2831 H 274.435 4.60558 2.02226 0
M  V30 2832 H 274.135 5.82661 0.760239 0
M  V30 2833 H 275.659 5.86695 1.69179 0
M  V30 2834 H 277.073 5.70421 -0.573805 0
M  V30 2835 H 275.47 5.8467 -1.35205 0
M  V30 2836 H 276.54 4.50443 -1.79524 0
M  V30 2837 N 277.883 0.443576 1.51229 0
M  V30 2838 C 278.813 -0.355142 2.30783 0
M  V30 2839 C 279.794 -1.0154 1.36468 0
M  V30 2840 O 280.979 -1.01785 1.65389 0
M  V30 2841 C 278.109 -1.45312 3.15439 0
M  V30 2842 C 277.063 -0.916002 4.18083 0
M  V30 2843 C 276.389 -2.1102 4.91299 0
M  V30 2844 C 277.689 0.0538602 5.22272 0
M  V30 2845 H 279.383 0.308767 2.97804 0
M  V30 2846 H 276.929 0.149937 1.43217 0
M  V30 2847 H 278.882 -2.01914 3.69876 0
M  V30 2848 H 277.606 -2.14541 2.46252 0
M  V30 2849 H 276.265 -0.372145 3.64706 0
M  V30 2850 H 275.913 -2.78882 4.18609 0
M  V30 2851 H 275.613 -1.75717 5.60712 0
M  V30 2852 H 277.137 -2.68164 5.48562 0
M  V30 2853 H 278.551 -0.422069 5.71744 0
M  V30 2854 H 276.948 0.319776 5.99247 0
M  V30 2855 H 278.018 0.98858 4.74716 0
M  V30 2856 N 279.361 -1.56624 0.175154 0
M  V30 2857 C 280.293 -2.15333 -0.785128 0
M  V30 2858 C 281.306 -1.1099 -1.19101 0
M  V30 2859 O 282.495 -1.38162 -1.13019 0
M  V30 2860 C 279.595 -2.68427 -2.06882 0
M  V30 2861 C 278.768 -3.97466 -1.8259 0
M  V30 2862 C 277.827 -4.35585 -2.95215 0
M  V30 2863 O 276.853 -5.03389 -2.65684 0
M  V30 2864 N 278.055 -3.97457 -4.23094 0
M  V30 2865 H 280.82 -2.98359 -0.283187 0
M  V30 2866 H 278.381 -1.61898 -0.00749817 0
M  V30 2867 H 280.373 -2.90924 -2.81328 0
M  V30 2868 H 278.943 -1.89968 -2.48256 0
M  V30 2869 H 278.163 -3.83307 -0.920287 0
M  V30 2870 H 279.451 -4.81736 -1.63733 0
M  V30 2871 H 278.849 -3.42878 -4.49945 0
M  V30 2872 H 277.406 -4.24947 -4.9423 0
M  V30 2873 N 280.839 0.0985539 -1.57292 0
M  V30 2874 C 282.069 0.815135 -1.8984 0
M  V30 2875 C 282.477 1.7297 -0.766679 0
M  V30 2876 O 281.82 1.81698 0.270483 0
M  V30 2877 C 281.882 1.6842 -3.17608 0
M  V30 2878 C 281.546 0.94182 -4.4719 0
M  V30 2879 C 282.543 0.273212 -5.19182 0
M  V30 2880 C 280.228 0.916927 -4.9386 0
M  V30 2881 C 282.222 -0.410361 -6.36078 0
M  V30 2882 C 279.909 0.229567 -6.10669 0
M  V30 2883 C 280.907 -0.432902 -6.81627 0
M  V30 2884 O 280.595 -1.10925 -7.9621 0
M  V30 2885 H 280.327 0.238501 -0.632529 0
M  V30 2886 H 282.881 0.0812659 -2.05239 0
M  V30 2887 H 281.111 2.46022 -2.98345 0
M  V30 2888 H 282.8 2.27704 -3.36015 0
M  V30 2889 H 283.566 0.283927 -4.84168 0
M  V30 2890 H 279.445 1.42201 -4.3852 0
M  V30 2891 H 282.989 -0.928013 -6.914 0
M  V30 2892 H 278.886 0.216686 -6.45136 0
M  V30 2893 H 279.654 -1.01579 -8.12172 0
M  V30 2894 N 282.317 1.53212 0.369288 0
M  V30 2895 C 283.247 1.82365 1.45826 0
M  V30 2896 C 284.228 0.676907 1.56051 0
M  V30 2897 O 285.413 0.926401 1.70679 0
M  V30 2898 C 282.543 2.01023 2.83208 0
M  V30 2899 C 281.497 3.1678 2.8781 0
M  V30 2900 C 280.823 3.20724 4.27832 0
M  V30 2901 C 282.123 4.55447 2.55667 0
M  V30 2902 H 283.817 2.73559 1.21678 0
M  V30 2903 H 281.363 1.3163 0.583911 0
M  V30 2904 H 283.316 2.20001 3.59413 0
M  V30 2905 H 282.04 1.06536 3.08736 0
M  V30 2906 H 280.699 2.97616 2.14056 0
M  V30 2907 H 280.347 2.23882 4.50429 0
M  V30 2908 H 280.047 3.98496 4.31827 0
M  V30 2909 H 281.571 3.41881 5.05915 0
M  V30 2910 H 282.985 4.74611 3.21586 0
M  V30 2911 H 281.382 5.35432 2.70984 0
M  V30 2912 H 282.452 4.60812 1.5093 0
M  V30 2913 N 283.795 -0.628877 1.44509 0
M  V30 2914 C 284.742 -1.74074 1.51549 0
M  V30 2915 C 285.712 -1.62084 0.363021 0
M  V30 2916 O 286.897 -1.81975 0.573567 0
M  V30 2917 C 284.037 -3.12328 1.46784 0
M  V30 2918 C 283.15 -3.35277 2.72422 0
M  V30 2919 C 282.285 -4.63515 2.59475 0
M  V30 2920 C 281.324 -4.7965 3.80266 0
M  V30 2921 N 280.461 -5.99168 3.65981 0
M  V30 2922 H 285.301 -1.67392 2.46544 0
M  V30 2923 H 282.838 -0.816527 1.22357 0
M  V30 2924 H 284.796 -3.92286 1.42012 0
M  V30 2925 H 283.426 -3.18018 0.553544 0
M  V30 2926 H 282.478 -2.49242 2.87372 0
M  V30 2927 H 283.79 -3.43078 3.62076 0
M  V30 2928 H 282.944 -5.51638 2.52548 0
M  V30 2929 H 281.683 -4.58076 1.67384 0
M  V30 2930 H 280.688 -3.89957 3.87574 0
M  V30 2931 H 281.913 -4.86902 4.73395 0
M  V30 2932 H 279.859 -5.94814 2.76644 0
M  V30 2933 H 279.776 -6.08035 4.49254 0
M  V30 2934 H 281.044 -6.89846 3.6295 0
M  V30 2935 N 285.273 -1.31445 -0.869486 0
M  V30 2936 C 286.183 -1.21097 -2.0093 0
M  V30 2937 C 287.199 -0.127584 -1.73532 0
M  V30 2938 O 288.375 -0.345477 -1.98415 0
M  V30 2939 C 285.44 -0.919378 -3.34288 0
M  V30 2940 C 284.501 -2.08971 -3.75006 0
M  V30 2941 C 283.734 -1.81194 -5.02001 0
M  V30 2942 O 283.957 -0.747296 -5.65484 0
M  V30 2943 O 282.891 -2.66883 -5.39497 0
M  V30 2944 H 286.717 -2.16883 -2.12592 0
M  V30 2945 H 284.302 -1.11189 -0.997868 0
M  V30 2946 H 286.184 -0.772625 -4.14257 0
M  V30 2947 H 284.859 0.00844772 -3.23699 0
M  V30 2948 H 283.766 -2.29187 -2.95676 0
M  V30 2949 H 285.099 -2.9998 -3.90221 0
M  V30 2950 N 286.751 1.08385 -1.14413 0
M  V30 2951 C 288.167 1.32844 -0.884563 0
M  V30 2952 C 288.367 1.95841 0.474181 0
M  V30 2953 O 287.423 2.21158 1.21842 0
M  V30 2954 C 288.736 2.22978 -2.01745 0
M  V30 2955 C 290.284 2.36458 -2.05077 0
M  V30 2956 C 290.759 3.29934 -3.1766 0
M  V30 2957 N 292.25 3.37511 -3.17239 0
M  V30 2958 C 292.985 4.09871 -4.0099 0
M  V30 2959 N 292.481 4.84936 -4.94781 0
M  V30 2960 N 294.274 4.05704 -3.89051 0
M  V30 2961 H 286.425 0.658756 -2.01926 0
M  V30 2962 H 288.688 0.352821 -0.879899 0
M  V30 2963 H 288.394 1.83934 -2.99769 0
M  V30 2964 H 288.268 3.23441 -1.94077 0
M  V30 2965 H 290.655 2.7476 -1.0766 0
M  V30 2966 H 290.736 1.35736 -2.16816 0
M  V30 2967 H 290.38 2.92352 -4.15322 0
M  V30 2968 H 290.31 4.30584 -3.03158 0
M  V30 2969 H 292.801 2.83996 -2.49308 0
M  V30 2970 H 293.114 5.37612 -5.55151 0
M  V30 2971 H 291.459 4.83988 -4.98779 0
M  V30 2972 H 294.65 3.46167 -3.15097 0
M  V30 2973 H 294.823 4.61834 -4.54547 0
M  V30 2974 N 288.23 0.939286 1.26551 0
M  V30 2975 C 289.507 0.5038 1.89001 0
M  V30 2976 C 289.887 -1.01854 1.84903 0
M  V30 2977 O 289.235 -1.87773 1.30206 0
M  V30 2978 C 289.445 1.063 3.32417 0
M  V30 2979 C 290.793 1.13051 4.09273 0
M  V30 2980 O 291.817 1.01345 3.41479 0
M  V30 2981 O 290.676 1.31233 5.30509 0
M  V30 2982 H 287.77 0.163897 0.810597 0
M  V30 2983 H 290.316 1.03173 1.34735 0
M  V30 2984 H 289.088 2.10665 3.29752 0
M  V30 2985 H 288.711 0.517408 3.94219 0
M  V30 2986 N 289.708 -1.40897 0.706093 0
M  V30 2987 C 290.64 -2.29199 0.00815776 0
M  V30 2988 C 291.653 -1.45336 -0.733582 0
M  V30 2989 O 292.842 -1.68727 -0.582537 0
M  V30 2990 C 289.942 -3.23417 -1.01265 0
M  V30 2991 C 289.115 -4.36089 -0.338387 0
M  V30 2992 C 288.174 -5.10811 -1.26326 0
M  V30 2993 O 287.2 -5.64215 -0.751651 0
M  V30 2994 N 288.402 -5.19269 -2.595 0
M  V30 2995 H 291.167 -2.89738 0.766297 0
M  V30 2996 H 288.728 -1.52164 0.55296 0
M  V30 2997 H 290.72 -3.70276 -1.63334 0
M  V30 2998 H 289.29 -2.64112 -1.67223 0
M  V30 2999 H 288.51 -3.91479 0.462352 0
M  V30 3000 H 289.798 -5.08634 0.130031 0
M  V30 3001 H 289.196 -4.77347 -3.03573 0
M  V30 3002 H 287.753 -5.69667 -3.16737 0
M  V30 3003 N 291.186 -0.45159 -1.50991 0
M  V30 3004 C 292.411 0.110667 -2.07105 0
M  V30 3005 C 292.836 1.3446 -1.31538 0
M  V30 3006 O 292.194 1.77743 -0.357365 0
M  V30 3007 C 292.242 0.397238 -3.58405 0
M  V30 3008 O 291.346 1.48124 -3.84881 0
M  V30 3009 H 290.687 -0.00439271 -0.663985 0
M  V30 3010 H 293.217 -0.637026 -1.9443 0
M  V30 3011 H 293.227 0.64351 -4.02893 0
M  V30 3012 H 291.902 -0.504553 -4.12828 0
M  V30 3013 H 290.479 1.22381 -3.52246 0
M  V30 3014 N 292.664 1.56529 -0.183458 0
M  V30 3015 C 294.08 1.58664 0.172554 0
M  V30 3016 C 294.28 1.19925 1.61926 0
M  V30 3017 O 293.336 0.916534 2.35278 0
M  V30 3018 C 294.649 3.00463 -0.119262 0
M  V30 3019 C 296.197 3.12945 -0.0584396 0
M  V30 3020 C 296.672 4.56857 -0.323408 0
M  V30 3021 N 298.163 4.62403 -0.271612 0
M  V30 3022 C 298.898 5.71626 -0.450639 0
M  V30 3023 N 298.394 6.89362 -0.689384 0
M  V30 3024 N 300.187 5.60775 -0.385701 0
M  V30 3025 H 292.338 1.79994 -1.12765 0
M  V30 3026 H 294.601 0.834808 -0.449222 0
M  V30 3027 H 294.307 3.33326 -1.12192 0
M  V30 3028 H 294.181 3.72659 0.583544 0
M  V30 3029 H 296.568 2.79902 0.934805 0
M  V30 3030 H 296.649 2.4316 -0.794144 0
M  V30 3031 H 296.293 4.9061 -1.31392 0
M  V30 3032 H 296.223 5.24816 0.43305 0
M  V30 3033 H 298.714 3.77785 -0.0932256 0
M  V30 3034 H 299.027 7.68489 -0.815113 0
M  V30 3035 H 297.372 6.91196 -0.726142 0
M  V30 3036 H 300.563 4.67674 -0.199687 0
M  V30 3037 H 300.736 6.4584 -0.528646 0
M  V30 3038 N 294.142 -0.090211 1.57342 0
M  V30 3039 C 295.553 -0.644173 1.75235 0
M  V30 3040 C 295.904 -1.78865 0.806335 0
M  V30 3041 O 295.029 -2.16395 -0.0140128 0
M  V30 3042 C 295.624 -1.17532 3.1776 0
M  V30 3043 C 294.183 -1.67531 3.37061 0
M  V30 3044 C 293.33 -0.58693 2.71017 0
M  V30 3045 H 296.281 0.135884 1.58117 0
M  V30 3046 H 296.302 -2.04455 3.20902 0
M  V30 3047 H 295.814 -0.342138 3.86589 0
M  V30 3048 H 293.915 -2.53234 2.73319 0
M  V30 3049 H 294.028 -1.76493 4.45406 0
M  V30 3050 H 292.392 -1.02756 2.33052 0
M  V30 3051 H 293.175 0.235758 3.4249 0
M  V30 3052 N 295.62 -1.53406 -0.361157 0
M  V30 3053 C 296.867 -1.69802 -1.10333 0
M  V30 3054 C 297.195 -0.452087 -1.89173 0
M  V30 3055 O 296.45 0.566017 -1.87336 0
M  V30 3056 C 296.749 -2.90211 -2.08596 0
M  V30 3057 C 296.415 -4.26539 -1.46203 0
M  V30 3058 C 295.077 -4.6361 -1.28915 0
M  V30 3059 C 297.429 -5.113 -1.01101 0
M  V30 3060 C 294.757 -5.83075 -0.651157 0
M  V30 3061 C 297.109 -6.31415 -0.387007 0
M  V30 3062 C 295.773 -6.67195 -0.201657 0
M  V30 3063 H 295.043 -0.621351 -0.403737 0
M  V30 3064 H 297.69 -1.87598 -0.384609 0
M  V30 3065 H 295.995 -2.66946 -2.86788 0
M  V30 3066 H 297.692 -3.00091 -2.65982 0
M  V30 3067 H 294.282 -3.97352 -1.60653 0
M  V30 3068 H 298.466 -4.83206 -1.13249 0
M  V30 3069 H 293.722 -6.09385 -0.496006 0
M  V30 3070 H 297.896 -6.96394 -0.0293563 0
M  V30 3071 H 295.523 -7.59628 0.294766 0
M  V30 3072 N 297.098 0.621204 -1.44841 0
M  V30 3073 C 298.345 1.38055 -1.48145 0
M  V30 3074 C 298.673 1.94143 -0.117867 0
M  V30 3075 O 297.928 1.74713 0.881694 0
M  V30 3076 C 298.227 2.55675 -2.4973 0
M  V30 3077 C 297.893 2.17817 -3.94799 0
M  V30 3078 C 296.555 2.07205 -4.34303 0
M  V30 3079 C 298.907 1.88065 -4.86087 0
M  V30 3080 C 296.235 1.65045 -5.63007 0
M  V30 3081 C 298.587 1.47394 -6.15189 0
M  V30 3082 C 297.251 1.35331 -6.53637 0
M  V30 3083 H 296.521 0.505181 -0.542101 0
M  V30 3084 H 299.168 0.703477 -1.78111 0
M  V30 3085 H 297.473 3.2866 -2.13284 0
M  V30 3086 H 299.17 3.13904 -2.4953 0
M  V30 3087 H 295.76 2.26998 -3.63552 0
M  V30 3088 H 299.944 1.95168 -4.56315 0
M  V30 3089 H 295.2 1.54317 -5.91605 0
M  V30 3090 H 299.374 1.23415 -6.85377 0
M  V30 3091 H 297.001 1.02435 -7.53267 0
M  V30 3092 N 298.576 1.31904 0.862503 0
M  V30 3093 C 299.539 1.20131 1.95195 0
M  V30 3094 C 300.539 0.126409 1.60302 0
M  V30 3095 O 301.729 0.376234 1.70089 0
M  V30 3096 C 298.861 0.845691 3.30244 0
M  V30 3097 H 300.054 2.16943 2.07064 0
M  V30 3098 H 297.607 1.15622 1.05172 0
M  V30 3099 H 298.342 -0.120957 3.24074 0
M  V30 3100 H 298.127 1.62276 3.56944 0
M  V30 3101 H 299.617 0.787418 4.10109 0
M  V30 3102 N 300.054 -1.07777 1.14986 0
M  V30 3103 C 301.284 -1.83752 0.944402 0
M  V30 3104 C 301.692 -1.8218 -0.51058 0
M  V30 3105 O 301.035 -1.22852 -1.36576 0
M  V30 3106 C 301.097 -3.32128 1.37592 0
M  V30 3107 C 300.761 -3.57425 2.84775 0
M  V30 3108 C 301.758 -3.5173 3.8286 0
M  V30 3109 C 299.443 -3.8523 3.2234 0
M  V30 3110 C 301.437 -3.73482 5.16517 0
M  V30 3111 C 299.124 -4.06634 4.56171 0
M  V30 3112 C 300.122 -4.00754 5.53069 0
M  V30 3113 O 299.81 -4.2159 6.84483 0
M  V30 3114 H 299.542 -0.58673 0.335744 0
M  V30 3115 H 302.096 -1.36982 1.53052 0
M  V30 3116 H 300.326 -3.79686 0.733165 0
M  V30 3117 H 302.015 -3.89555 1.14024 0
M  V30 3118 H 302.781 -3.30256 3.55184 0
M  V30 3119 H 298.66 -3.88923 2.47508 0
M  V30 3120 H 302.204 -3.68808 5.92137 0
M  V30 3121 H 298.101 -4.27593 4.83564 0
M  V30 3122 H 298.869 -4.38961 6.90837 0
M  V30 3123 N 301.532 -0.945985 -1.26051 0
M  V30 3124 C 302.462 -0.477172 -2.28572 0
M  V30 3125 C 303.443 0.472032 -1.63419 0
M  V30 3126 O 304.628 0.372853 -1.90587 0
M  V30 3127 C 301.758 0.253975 -3.4637 0
M  V30 3128 C 300.712 -0.609135 -4.23643 0
M  V30 3129 C 300.038 0.252252 -5.34105 0
M  V30 3130 C 301.338 -1.8829 -4.8718 0
M  V30 3131 H 303.032 -1.33402 -2.68038 0
M  V30 3132 H 300.578 -0.642904 -1.28852 0
M  V30 3133 H 302.531 0.593016 -4.17207 0
M  V30 3134 H 301.255 1.145 -3.05871 0
M  V30 3135 H 299.914 -0.931138 -3.54578 0
M  V30 3136 H 299.562 1.14278 -4.89846 0
M  V30 3137 H 299.262 -0.32188 -5.86718 0
M  V30 3138 H 300.786 0.586454 -6.07777 0
M  V30 3139 H 302.2 -1.61081 -5.50205 0
M  V30 3140 H 300.597 -2.40199 -5.49931 0
M  V30 3141 H 301.667 -2.59134 -4.09851 0
M  V30 3142 N 303.011 1.40521 -0.713556 0
M  V30 3143 C 304.422 1.83853 -0.324807 0
M  V30 3144 C 304.773 1.59667 1.14021 0
M  V30 3145 O 303.898 1.07649 1.87725 0
M  V30 3146 C 304.493 3.33751 -0.582746 0
M  V30 3147 C 303.052 3.75584 -0.247727 0
M  V30 3148 C 302.199 2.63753 -0.856121 0
M  V30 3149 H 305.15 1.29817 -0.91286 0
M  V30 3150 H 305.171 3.80194 0.152682 0
M  V30 3151 H 304.683 3.51322 -1.64908 0
M  V30 3152 H 302.784 3.63608 0.813624 0
M  V30 3153 H 302.897 4.7373 -0.715307 0
M  V30 3154 H 301.261 2.53108 -0.28432 0
M  V30 3155 H 302.044 2.84137 -1.92668 0
M  V30 3156 N 304.489 0.459591 1.5075 0
M  V30 3157 C 305.736 -0.0993495 2.02256 0
M  V30 3158 C 306.064 -1.40751 1.34237 0
M  V30 3159 O 305.319 -1.90379 0.453228 0
M  V30 3160 C 305.618 -0.342866 3.55752 0
M  V30 3161 C 305.284 0.88218 4.42186 0
M  V30 3162 C 303.946 1.21808 4.65528 0
M  V30 3163 C 306.298 1.69837 4.92752 0
M  V30 3164 C 303.626 2.37045 5.36681 0
M  V30 3165 C 305.978 2.84192 5.65171 0
M  V30 3166 C 304.642 3.1821 5.8677 0
M  V30 3167 H 303.912 -0.0363545 0.740108 0
M  V30 3168 H 306.559 0.611329 1.8148 0
M  V30 3169 H 304.864 -1.13567 3.7498 0
M  V30 3170 H 306.561 -0.789121 3.93159 0
M  V30 3171 H 303.151 0.610467 4.2423 0
M  V30 3172 H 307.335 1.45205 4.74583 0
M  V30 3173 H 302.591 2.63689 5.51614 0
M  V30 3174 H 306.765 3.4779 6.03337 0
M  V30 3175 H 304.392 4.07613 6.41682 0
M  V30 3176 N 305.967 -1.56429 0.191757 0
M  V30 3177 C 307.192 -2.02309 -0.456706 0
M  V30 3178 C 307.617 -1.07103 -1.5463 0
M  V30 3179 O 306.975 -0.0539677 -1.8122 0
M  V30 3180 C 307.023 -3.46654 -0.993159 0
M  V30 3181 O 306.127 -3.54559 -2.10622 0
M  V30 3182 H 305.468 -0.655303 -0.107114 0
M  V30 3183 H 307.998 -2.02364 0.301653 0
M  V30 3184 H 308.008 -3.86377 -1.31061 0
M  V30 3185 H 306.683 -4.1544 -0.195504 0
M  V30 3186 H 305.26 -3.26708 -1.79767 0
M  V30 3187 N 307.445 0.0818655 -1.57387 0
M  V30 3188 C 308.408 1.08265 -2.02018 0
M  V30 3189 C 309.408 1.32183 -0.915664 0
M  V30 3190 O 310.598 1.28073 -1.18081 0
M  V30 3191 C 307.73 2.42871 -2.39221 0
M  V30 3192 H 308.923 0.698204 -2.91659 0
M  V30 3193 H 306.476 0.327303 -1.52835 0
M  V30 3194 H 307.211 2.86167 -1.52575 0
M  V30 3195 H 306.996 2.26855 -3.19811 0
M  V30 3196 H 308.486 3.14826 -2.74362 0
M  V30 3197 N 308.923 1.53595 0.353017 0
M  V30 3198 C 310.334 1.61937 0.929153 0
M  V30 3199 C 310.685 0.494686 1.89861 0
M  V30 3200 O 309.81 -0.377017 2.1309 0
M  V30 3201 C 310.405 2.93526 1.69199 0
M  V30 3202 C 308.964 3.04161 2.21727 0
M  V30 3203 C 308.111 2.57322 1.03348 0
M  V30 3204 H 311.062 1.58155 0.131431 0
M  V30 3205 H 311.083 2.82034 2.55416 0
M  V30 3206 H 310.595 3.75362 0.986144 0
M  V30 3207 H 308.696 2.26938 2.95516 0
M  V30 3208 H 308.809 4.09465 2.48748 0
M  V30 3209 H 307.173 2.12499 1.40414 0
M  V30 3210 H 307.956 3.41588 0.342428 0
M  V30 3211 N 310.401 -0.613514 1.45168 0
M  V30 3212 C 311.351 -1.71871 1.49815 0
M  V30 3213 C 312.335 -1.56774 0.362021 0
M  V30 3214 O 313.527 -1.66212 0.608493 0
M  V30 3215 C 310.656 -3.1061 1.46207 0
M  V30 3216 C 309.742 -3.31114 2.64999 0
M  V30 3217 N 310.133 -3.21904 3.90143 0
M  V30 3218 C 308.431 -3.61966 2.6057 0
M  V30 3219 C 309.132 -3.43577 4.69393 0
M  V30 3220 N 308.108 -3.67287 4.00751 0
M  V30 3221 H 311.91 -1.63235 2.444 0
M  V30 3222 H 309.424 -0.816577 1.40377 0
M  V30 3223 H 311.421 -3.8989 1.4762 0
M  V30 3224 H 310.081 -3.20399 0.52673 0
M  V30 3225 H 311.092 -3.00436 4.21852 0
M  V30 3226 H 307.769 -3.78629 1.75916 0
M  V30 3227 H 309.159 -3.41901 5.78406 0
M  V30 3228 N 311.879 -1.3236 -0.855495 0
M  V30 3229 C 313.125 -1.24064 -1.61182 0
M  V30 3230 C 313.48 0.195914 -1.914 0
M  V30 3231 O 312.773 1.13345 -1.54478 0
M  V30 3232 C 312.967 -2.03275 -2.93963 0
M  V30 3233 C 312.796 -3.54486 -2.76712 0
M  V30 3234 C 311.566 -4.23824 -2.75139 0
M  V30 3235 C 313.764 -4.49154 -2.50531 0
M  V30 3236 N 311.746 -5.61095 -2.4909 0
M  V30 3237 C 313.117 -5.74195 -2.3388 0
M  V30 3238 C 315.172 -4.3842 -2.35992 0
M  V30 3239 C 313.875 -6.89716 -2.04168 0
M  V30 3240 C 315.901 -5.53739 -2.0767 0
M  V30 3241 C 315.263 -6.77779 -1.9182 0
M  V30 3242 H 311.362 -0.509139 -0.59355 0
M  V30 3243 H 313.946 -1.66715 -1.00569 0
M  V30 3244 H 312.117 -1.6297 -3.52555 0
M  V30 3245 H 313.849 -1.86881 -3.58967 0
M  V30 3246 H 310.604 -3.75934 -2.88047 0
M  V30 3247 H 311.028 -6.33411 -2.38996 0
M  V30 3248 H 315.67 -3.43172 -2.46967 0
M  V30 3249 H 313.388 -7.84977 -1.9193 0
M  V30 3250 H 316.974 -5.4736 -1.97201 0
M  V30 3251 H 315.854 -7.65504 -1.70217 0
M  V30 3252 N 313.357 1.07166 -1.15556 0
M  V30 3253 C 314.768 1.6127 -0.940693 0
M  V30 3254 C 315.119 1.89251 0.517551 0
M  V30 3255 O 314.244 1.65937 1.38903 0
M  V30 3256 C 314.839 2.92993 -1.7012 0
M  V30 3257 C 313.398 3.43832 -1.53156 0
M  V30 3258 C 312.545 2.1786 -1.71558 0
M  V30 3259 H 315.496 0.90229 -1.30554 0
M  V30 3260 H 315.517 3.62007 -1.17181 0
M  V30 3261 H 315.029 2.72596 -2.76248 0
M  V30 3262 H 313.13 3.69307 -0.494294 0
M  V30 3263 H 313.243 4.19747 -2.30975 0
M  V30 3264 H 311.607 2.2765 -1.14225 0
M  V30 3265 H 312.39 1.99956 -2.79056 0
M  V30 3266 N 314.835 0.952656 1.25548 0
M  V30 3267 C 315.765 0.489287 2.28316 0
M  V30 3268 C 316.746 -0.463359 1.63667 0
M  V30 3269 O 317.931 -0.36274 1.90782 0
M  V30 3270 C 315.061 -0.235603 3.465 0
M  V30 3271 C 314.015 0.631593 4.23314 0
M  V30 3272 C 313.341 -0.223923 5.34231 0
M  V30 3273 C 314.641 1.90871 4.86174 0
M  V30 3274 H 316.335 1.34822 2.67326 0
M  V30 3275 H 313.881 0.649728 1.28509 0
M  V30 3276 H 315.834 -0.570882 4.17515 0
M  V30 3277 H 314.558 -1.12877 3.06474 0
M  V30 3278 H 313.217 0.949929 3.54079 0
M  V30 3279 H 312.865 -1.11678 4.90446 0
M  V30 3280 H 312.565 0.35299 5.86539 0
M  V30 3281 H 314.089 -0.554214 6.0808 0
M  V30 3282 H 315.503 1.63997 5.49343 0
M  V30 3283 H 313.9 2.43112 5.4865 0
M  V30 3284 H 314.97 2.61304 4.08471 0
M  V30 3285 N 316.313 -1.40141 0.720998 0
M  V30 3286 C 317.245 -2.29177 0.0324669 0
M  V30 3287 C 318.258 -1.46105 -0.718126 0
M  V30 3288 O 319.447 -1.69335 -0.564608 0
M  V30 3289 C 316.547 -3.24473 -0.978292 0
M  V30 3290 C 315.72 -4.36423 -0.292115 0
M  V30 3291 C 314.779 -5.12122 -1.20901 0
M  V30 3292 O 313.805 -5.64981 -0.691766 0
M  V30 3293 N 315.007 -5.21992 -2.53978 0
M  V30 3294 H 317.772 -2.88909 0.796984 0
M  V30 3295 H 315.333 -1.51569 0.569068 0
M  V30 3296 H 317.325 -3.71987 -1.59398 0
M  V30 3297 H 315.895 -2.65871 -1.64413 0
M  V30 3298 H 315.115 -3.90967 0.503847 0
M  V30 3299 H 316.403 -5.08467 0.183971 0
M  V30 3300 H 315.801 -4.8054 -2.98493 0
M  V30 3301 H 314.358 -5.72995 -3.10677 0
M  V30 3302 N 317.792 -0.46758 -1.50504 0
M  V30 3303 C 318.755 0.317059 -2.26996 0
M  V30 3304 C 319.755 0.923513 -1.31635 0
M  V30 3305 O 320.945 0.793239 -1.55091 0
M  V30 3306 C 318.077 1.45134 -3.08462 0
M  V30 3307 H 319.27 -0.353723 -2.97807 0
M  V30 3308 H 316.823 -0.221545 -1.54722 0
M  V30 3309 H 317.558 2.15728 -2.4214 0
M  V30 3310 H 317.343 1.02232 -3.78538 0
M  V30 3311 H 318.833 2.00493 -3.66323 0
M  V30 3312 N 319.27 1.56325 -0.20005 0
M  V30 3313 C 320.681 1.8408 0.31167 0
M  V30 3314 C 321.032 1.12087 1.61031 0
M  V30 3315 O 320.157 0.38332 2.12978 0
M  V30 3316 C 320.752 3.33932 0.57226 0
M  V30 3317 C 319.311 3.6208 1.02834 0
M  V30 3318 C 318.458 2.77186 0.079634 0
M  V30 3319 H 321.409 1.52939 -0.423729 0
M  V30 3320 H 321.43 3.52971 1.42096 0
M  V30 3321 H 320.942 3.86303 -0.37308 0
M  V30 3322 H 319.043 3.15147 1.98778 0
M  V30 3323 H 319.156 4.7023 0.917624 0
M  V30 3324 H 317.52 2.47951 0.582448 0
M  V30 3325 H 318.303 3.32347 -0.860238 0
M  V30 3326 N 320.748 -0.0735177 1.57428 0
M  V30 3327 C 322.164 -0.428264 1.53747 0
M  V30 3328 C 322.364 -1.79272 0.91998 0
M  V30 3329 O 321.42 -2.47051 0.521745 0
M  V30 3330 C 322.733 -0.370914 2.98404 0
M  V30 3331 C 324.281 -0.451224 3.0973 0
M  V30 3332 C 324.756 -0.4238 4.56035 0
M  V30 3333 N 326.247 -0.483925 4.60665 0
M  V30 3334 C 326.982 -0.484891 5.71346 0
M  V30 3335 N 326.478 -0.440775 6.91396 0
M  V30 3336 N 328.271 -0.531319 5.59583 0
M  V30 3337 H 320.422 0.819949 1.95935 0
M  V30 3338 H 322.685 0.307493 0.896745 0
M  V30 3339 H 322.391 0.564956 3.47133 0
M  V30 3340 H 322.265 -1.18176 3.5821 0
M  V30 3341 H 324.652 -1.37752 2.60976 0
M  V30 3342 H 324.733 0.388167 2.52838 0
M  V30 3343 H 324.377 0.498638 5.05446 0
M  V30 3344 H 324.307 -1.2807 5.10789 0
M  V30 3345 H 326.798 -0.522338 3.74273 0
M  V30 3346 H 327.111 -0.44539 7.71515 0
M  V30 3347 H 325.456 -0.40749 6.93804 0
M  V30 3348 H 328.647 -0.563464 4.64696 0
M  V30 3349 H 328.82 -0.528603 6.4584 0
M  V30 3350 N 322.226 -1.5378 -0.344866 0
M  V30 3351 C 323.136 -1.84667 -1.4469 0
M  V30 3352 C 324.152 -0.736704 -1.57635 0
M  V30 3353 O 325.328 -1.02888 -1.73136 0
M  V30 3354 C 322.393 -2.04869 -2.79696 0
M  V30 3355 C 321.454 -3.28731 -2.76106 0
M  V30 3356 C 320.687 -3.4796 -4.04673 0
M  V30 3357 O 320.91 -2.71052 -5.01883 0
M  V30 3358 O 319.844 -4.41383 -4.09224 0
M  V30 3359 H 323.67 -2.78334 -1.21506 0
M  V30 3360 H 321.255 -1.39418 -0.536921 0
M  V30 3361 H 323.137 -2.19609 -3.59652 0
M  V30 3362 H 321.812 -1.14391 -3.02814 0
M  V30 3363 H 320.719 -3.19396 -1.94774 0
M  V30 3364 H 322.052 -4.19198 -2.57941 0
M  V30 3365 N 323.704 0.605807 -1.45491 0
M  V30 3366 C 324.953 1.36086 -1.48874 0
M  V30 3367 C 325.266 1.95131 -0.135333 0
M  V30 3368 O 326.472 2.7146 -0.0468144 0
M  V30 3369 C 324.928 2.46518 -2.62215 0
M  V30 3370 C 324.536 1.93877 -4.03876 0
M  V30 3371 C 326.28 3.23512 -2.74846 0
M  V30 3372 C 324.187 3.01801 -5.08596 0
M  V30 3373 H 323.117 0.511497 -0.553974 0
M  V30 3374 H 325.768 0.649089 -1.71636 0
M  V30 3375 H 324.15 3.20388 -2.32739 0
M  V30 3376 H 325.324 1.26704 -4.43038 0
M  V30 3377 H 323.639 1.29622 -3.95711 0
M  V30 3378 H 326.236 4.04013 -3.50253 0
M  V30 3379 H 326.579 3.74631 -1.81542 0
M  V30 3380 H 327.112 2.56742 -3.03856 0
M  V30 3381 H 323.851 2.55597 -6.03614 0
M  V30 3382 H 323.371 3.67535 -4.74002 0
M  V30 3383 H 325.05 3.66152 -5.33424 0
M  V30 3384 N 325.182 1.32811 0.848464 0
M  V30 3385 C 326.428 1.23907 1.60546 0
M  V30 3386 C 326.761 -0.197161 1.93197 0
M  V30 3387 O 326.036 -1.13596 1.5788 0
M  V30 3388 C 326.319 2.10489 2.92175 0
M  V30 3389 C 326.172 3.62522 2.66266 0
M  V30 3390 C 327.491 1.97075 3.93509 0
M  V30 3391 H 324.61 0.451459 0.58254 0
M  V30 3392 H 327.252 1.62818 0.979296 0
M  V30 3393 H 325.402 1.77434 3.45614 0
M  V30 3394 H 327.074 4.05821 2.19334 0
M  V30 3395 H 325.317 3.84879 2.00126 0
M  V30 3396 H 325.988 4.18437 3.6002 0
M  V30 3397 H 328.464 2.26045 3.49346 0
M  V30 3398 H 327.34 2.59923 4.83457 0
M  V30 3399 H 327.601 0.940186 4.31987 0
M  V30 3400 N 326.66 -1.06551 1.16123 0
M  V30 3401 C 327.57 -2.17484 0.879662 0
M  V30 3402 C 328.586 -1.73377 -0.147104 0
M  V30 3403 O 329.762 -2.01379 0.0289128 0
M  V30 3404 C 326.827 -3.44591 0.381829 0
M  V30 3405 C 325.888 -4.0322 1.4735 0
M  V30 3406 C 325.121 -5.24261 0.999324 0
M  V30 3407 O 325.344 -5.70198 -0.151957 0
M  V30 3408 O 324.278 -5.74775 1.78653 0
M  V30 3409 H 328.104 -2.44075 1.80724 0
M  V30 3410 H 325.689 -1.16042 0.940992 0
M  V30 3411 H 327.571 -4.21254 0.111053 0
M  V30 3412 H 326.246 -3.19532 -0.51777 0
M  V30 3413 H 325.153 -3.2806 1.79798 0
M  V30 3414 H 326.486 -4.32568 2.34831 0
M  V30 3415 N 328.138 -0.959301 -1.25041 0
M  V30 3416 C 329.085 -0.482057 -2.2571 0
M  V30 3417 C 330.055 0.467939 -1.59372 0
M  V30 3418 O 331.24 0.380159 -1.86974 0
M  V30 3419 C 328.38 0.229623 -3.44335 0
M  V30 3420 C 327.493 -0.758156 -4.25295 0
M  V30 3421 C 326.628 -0.0234403 -5.31195 0
M  V30 3422 C 325.667 -1.00184 -6.03846 0
M  V30 3423 N 324.804 -0.29769 -7.01469 0
M  V30 3424 H 329.644 -1.34538 -2.65901 0
M  V30 3425 H 327.181 -0.674592 -1.3072 0
M  V30 3426 H 329.139 0.658856 -4.11965 0
M  V30 3427 H 327.769 1.05696 -3.05005 0
M  V30 3428 H 326.821 -1.30586 -3.57284 0
M  V30 3429 H 328.133 -1.50458 -4.75567 0
M  V30 3430 H 327.287 0.464201 -6.04922 0
M  V30 3431 H 326.026 0.755741 -4.81809 0
M  V30 3432 H 325.031 -1.50044 -5.2893 0
M  V30 3433 H 326.256 -1.78133 -6.55321 0
M  V30 3434 H 324.202 0.462668 -6.54366 0
M  V30 3435 H 324.119 -0.983128 -7.4958 0
M  V30 3436 H 325.387 0.16826 -7.79318 0
M  V30 3437 N 329.616 1.39756 -0.72842 0
M  V30 3438 C 330.846 2.04651 -0.283117 0
M  V30 3439 C 331.254 1.5502 1.08469 0
M  V30 3440 O 330.597 0.707343 1.69536 0
M  V30 3441 C 330.659 3.58947 -0.199309 0
M  V30 3442 C 330.323 4.31525 -1.5045 0
M  V30 3443 C 331.32 4.5861 -2.44894 0
M  V30 3444 C 329.005 4.70195 -1.76698 0
M  V30 3445 C 330.999 5.23366 -3.63822 0
M  V30 3446 C 328.686 5.3468 -2.95906 0
M  V30 3447 C 329.684 5.61198 -3.89289 0
M  V30 3448 O 329.372 6.24347 -5.06404 0
M  V30 3449 H 329.104 0.664777 -0.122666 0
M  V30 3450 H 331.658 1.79913 -0.990987 0
M  V30 3451 H 329.888 3.82556 0.56461 0
M  V30 3452 H 331.577 4.0534 0.213125 0
M  V30 3453 H 332.343 4.29187 -2.25883 0
M  V30 3454 H 328.222 4.48916 -1.04859 0
M  V30 3455 H 331.766 5.4398 -4.36728 0
M  V30 3456 H 327.663 5.63524 -3.14819 0
M  V30 3457 H 328.431 6.42842 -5.06652 0
M  V30 3458 N 331.094 0.475555 1.50254 0
M  V30 3459 C 332.51 0.12997 1.5907 0
M  V30 3460 C 332.71 -1.36385 1.48328 0
M  V30 3461 O 331.766 -2.13754 1.34407 0
M  V30 3462 C 333.079 0.684139 2.92814 0
M  V30 3463 C 334.627 0.647965 3.0622 0
M  V30 3464 C 335.102 1.17975 4.42545 0
M  V30 3465 N 336.593 1.13936 4.48969 0
M  V30 3466 C 337.328 1.52129 5.52851 0
M  V30 3467 N 336.824 1.97793 6.63965 0
M  V30 3468 N 338.617 1.43704 5.4342 0
M  V30 3469 H 330.768 1.44706 1.55479 0
M  V30 3470 H 333.031 0.598691 0.735033 0
M  V30 3471 H 332.737 1.73079 3.06164 0
M  V30 3472 H 332.611 0.130204 3.76975 0
M  V30 3473 H 334.998 -0.38979 2.92514 0
M  V30 3474 H 335.079 1.23876 2.23805 0
M  V30 3475 H 334.723 2.21616 4.57 0
M  V30 3476 H 334.653 0.565138 5.23559 0
M  V30 3477 H 337.144 0.804488 3.69238 0
M  V30 3478 H 337.457 2.25072 7.39299 0
M  V30 3479 H 335.802 2.01749 6.65073 0
M  V30 3480 H 338.993 1.07867 4.55502 0
M  V30 3481 H 339.166 1.73794 6.24259 0
M  V30 3482 N 332.573 -1.56217 0.208337 0
M  V30 3483 C 333.821 -1.97558 -0.426076 0
M  V30 3484 C 334.142 -1.09683 -1.61229 0
M  V30 3485 O 333.412 -0.170956 -1.95153 0
M  V30 3486 H 331.992 -0.729575 -0.160405 0
M  V30 3487 H 334.654 -1.92606 0.298155 0
M  V30 3488 H 333.75 -3.02672 -0.761312 0
M  V30 3489 N 334.051 0.0651679 -1.57465 0
M  V30 3490 C 335.467 0.420105 -1.53972 0
M  V30 3491 C 335.667 1.78782 -0.929474 0
M  V30 3492 O 334.723 2.46771 -0.534839 0
M  V30 3493 C 336.036 0.355084 -2.98596 0
M  V30 3494 C 337.584 0.434792 -3.09965 0
M  V30 3495 C 338.059 0.399609 -4.56253 0
M  V30 3496 N 339.55 0.459488 -4.60915 0
M  V30 3497 C 340.285 0.454584 -5.71595 0
M  V30 3498 N 339.781 0.404102 -6.9162 0
M  V30 3499 N 341.574 0.501635 -5.59857 0
M  V30 3500 H 333.725 -0.830328 -1.95498 0
M  V30 3501 H 335.988 -0.312244 -0.895102 0
M  V30 3502 H 335.694 -0.583357 -3.46828 0
M  V30 3503 H 335.568 1.16275 -3.58831 0
M  V30 3504 H 337.955 1.36366 -2.61703 0
M  V30 3505 H 338.036 -0.40157 -2.52628 0
M  V30 3506 H 337.68 -0.525436 -5.05175 0
M  V30 3507 H 337.61 1.25359 -5.11461 0
M  V30 3508 H 340.101 0.502482 -3.74544 0
M  V30 3509 H 340.414 0.404468 -7.71741 0
M  V30 3510 H 338.759 0.37069 -6.94011 0
M  V30 3511 H 341.95 0.538812 -4.64989 0
M  V30 3512 H 342.123 0.494345 -6.46112 0
M  V30 3513 N 335.529 1.53961 0.336706 0
M  V30 3514 C 336.759 1.75229 1.09446 0
M  V30 3515 C 337.167 0.494602 1.82621 0
M  V30 3516 O 336.51 -0.543764 1.75468 0
M  V30 3517 C 336.572 2.88288 2.1478 0
M  V30 3518 C 336.236 4.27656 1.6112 0
M  V30 3519 C 337.233 5.08981 1.0599 0
M  V30 3520 C 334.918 4.74161 1.6576 0
M  V30 3521 C 336.912 6.34916 0.562129 0
M  V30 3522 C 334.599 6.00067 1.15595 0
M  V30 3523 C 335.597 6.80278 0.609147 0
M  V30 3524 O 335.285 8.03818 0.114999 0
M  V30 3525 H 335.017 0.588881 0.331956 0
M  V30 3526 H 337.571 2.01614 0.392566 0
M  V30 3527 H 335.801 2.57443 2.88548 0
M  V30 3528 H 337.49 2.97461 2.76174 0
M  V30 3529 H 338.256 4.74213 1.01722 0
M  V30 3530 H 334.135 4.11781 2.07261 0
M  V30 3531 H 337.679 6.9747 0.134668 0
M  V30 3532 H 333.576 6.3433 1.19566 0
M  V30 3533 H 334.344 8.18172 0.231651 0
M  V30 3534 N 337.007 -0.598083 1.45811 0
M  V30 3535 C 338.284 -1.35777 1.40797 0
M  V30 3536 C 338.664 -2.10935 0.083462 0
M  V30 3537 O 338.012 -2.08505 -0.934763 0
M  V30 3538 C 338.222 -2.29666 2.62783 0
M  V30 3539 C 339.57 -2.91977 3.08277 0
M  V30 3540 O 340.594 -2.39984 2.63223 0
M  V30 3541 O 339.453 -3.86376 3.86491 0
M  V30 3542 H 336.547 -0.609291 0.55919 0
M  V30 3543 H 339.093 -0.620379 1.57954 0
M  V30 3544 H 337.865 -1.73454 3.50756 0
M  V30 3545 H 337.488 -3.1077 2.48008 0
M  V30 3546 N 338.485 -1.33259 -0.841409 0
M  V30 3547 C 339.448 -1.23221 -1.9326 0
M  V30 3548 C 340.448 -0.151895 -1.60081 0
M  V30 3549 O 341.638 -0.403246 -1.69468 0
M  V30 3550 C 338.77 -0.898123 -3.28856 0
M  V30 3551 H 339.963 -2.2021 -2.03587 0
M  V30 3552 H 337.516 -1.17281 -1.03319 0
M  V30 3553 H 338.251 0.0693841 -3.24226 0
M  V30 3554 H 338.036 -1.67934 -3.54317 0
M  V30 3555 H 339.526 -0.852563 -4.08805 0
M  V30 3556 N 339.963 1.05934 -1.16686 0
M  V30 3557 C 341.211 1.78447 -0.948744 0
M  V30 3558 C 341.532 1.87813 0.524523 0
M  V30 3559 O 340.802 1.38945 1.38098 0
M  V30 3560 H 339.382 0.660971 -0.348033 0
M  V30 3561 H 342.044 1.27947 -1.47022 0
M  V30 3562 H 341.14 2.80394 -1.37061 0
M  V30 3563 N 341.441 0.965919 1.2453 0
M  V30 3564 C 342.852 0.665929 1.7442 0
M  V30 3565 C 343.203 -0.818407 1.78316 0
M  V30 3566 O 342.328 -1.64037 1.41141 0
M  V30 3567 C 342.923 1.20211 3.16757 0
M  V30 3568 C 341.482 0.952059 3.6416 0
M  V30 3569 C 340.629 1.33848 2.42858 0
M  V30 3570 H 343.58 1.14144 1.10258 0
M  V30 3571 H 343.601 0.567544 3.76244 0
M  V30 3572 H 343.113 2.28244 3.13889 0
M  V30 3573 H 341.214 -0.112821 3.72429 0
M  V30 3574 H 341.327 1.59645 4.51719 0
M  V30 3575 H 339.691 0.756864 2.43195 0
M  V30 3576 H 340.474 2.42827 2.42673 0
M  V30 3577 N 342.919 -1.39368 0.735821 0
M  V30 3578 C 343.829 -2.34395 0.0979693 0
M  V30 3579 C 344.845 -1.58361 -0.720968 0
M  V30 3580 O 346.021 -1.90648 -0.649245 0
M  V30 3581 C 343.086 -3.37393 -0.797916 0
M  V30 3582 C 342.147 -4.29287 0.0333662 0
M  V30 3583 C 341.38 -5.27365 -0.819854 0
M  V30 3584 O 341.603 -5.31959 -2.05855 0
M  V30 3585 O 340.537 -6.01389 -0.248079 0
M  V30 3586 H 344.363 -2.90601 0.882315 0
M  V30 3587 H 341.948 -1.40909 0.4965 0
M  V30 3588 H 343.83 -4.00505 -1.31048 0
M  V30 3589 H 342.505 -2.83571 -1.56106 0
M  V30 3590 H 341.412 -3.69395 0.591475 0
M  V30 3591 H 342.745 -4.86317 0.758752 0
M  V30 3592 N 344.397 -0.483516 -1.5 0
M  V30 3593 C 345.36 0.292965 -2.2732 0
M  V30 3594 C 346.36 0.909499 -1.32608 0
M  V30 3595 O 347.55 0.776745 -1.55924 0
M  V30 3596 C 344.682 1.41854 -3.09984 0
M  V30 3597 H 345.875 -0.385289 -2.97415 0
M  V30 3598 H 343.428 -0.237942 -1.54478 0
M  V30 3599 H 344.163 2.13148 -2.44414 0
M  V30 3600 H 343.948 0.982114 -3.79601 0
M  V30 3601 H 345.438 1.96597 -3.68429 0
M  V30 3602 N 345.875 1.56104 -0.216619 0
M  V30 3603 C 346.805 2.23063 0.690296 0
M  V30 3604 C 347.786 1.20072 1.20485 0
M  V30 3605 O 348.971 1.48643 1.24976 0
M  V30 3606 C 346.101 2.90672 1.90072 0
M  V30 3607 C 345.055 4.00092 1.5202 0
M  V30 3608 C 344.381 4.54972 2.80899 0
M  V30 3609 C 345.681 5.17398 0.71391 0
M  V30 3610 H 347.375 2.99109 0.132038 0
M  V30 3611 H 344.921 1.43866 0.0620664 0
M  V30 3612 H 346.874 3.36204 2.54057 0
M  V30 3613 H 345.598 2.12066 2.48386 0
M  V30 3614 H 344.257 3.55283 0.903839 0
M  V30 3615 H 343.905 3.73102 3.37348 0
M  V30 3616 H 343.605 5.28817 2.56176 0
M  V30 3617 H 345.129 5.0322 3.45836 0
M  V30 3618 H 346.543 5.59342 1.25735 0
M  V30 3619 H 344.94 5.97444 0.563951 0
M  V30 3620 H 346.01 4.84088 -0.280527 0
M  V30 3621 N 347.353 -0.0568162 1.57498 0
M  V30 3622 C 348.769 -0.411933 1.54192 0
M  V30 3623 C 348.969 -1.78287 0.938942 0
M  V30 3624 O 348.025 -2.46483 0.547919 0
M  V30 3625 C 349.338 -0.339244 2.9878 0
M  V30 3626 C 350.886 -0.418348 3.10192 0
M  V30 3627 C 351.361 -0.375407 4.56459 0
M  V30 3628 N 352.852 -0.435038 4.61153 0
M  V30 3629 C 353.587 -0.424265 5.71828 0
M  V30 3630 N 353.083 -0.367418 6.91825 0
M  V30 3631 N 354.876 -0.471938 5.60115 0
M  V30 3632 H 347.027 0.840684 1.95055 0
M  V30 3633 H 349.29 0.316987 0.893433 0
M  V30 3634 H 348.996 0.601742 3.46514 0
M  V30 3635 H 348.87 -1.14371 3.59443 0
M  V30 3636 H 351.257 -1.34976 2.62422 0
M  V30 3637 H 351.338 0.414962 2.52412 0
M  V30 3638 H 350.982 0.552219 5.04889 0
M  V30 3639 H 350.912 -1.22645 5.12119 0
M  V30 3640 H 353.403 -0.482612 3.74806 0
M  V30 3641 H 353.716 -0.363535 7.71944 0
M  V30 3642 H 352.061 -0.333879 6.94198 0
M  V30 3643 H 355.252 -0.514145 4.65268 0
M  V30 3644 H 355.425 -0.460073 6.46365 0
M  V30 3645 N 348.832 -1.54138 -0.328536 0
M  V30 3646 C 349.764 -1.79509 -1.4251 0
M  V30 3647 C 350.777 -0.67688 -1.48061 0
M  V30 3648 O 351.966 -0.953898 -1.50874 0
M  V30 3649 C 349.066 -1.89337 -2.81078 0
M  V30 3650 C 348.239 -3.19443 -2.98789 0
M  V30 3651 C 347.298 -3.20036 -4.17688 0
M  V30 3652 O 346.324 -3.93697 -4.11086 0
M  V30 3653 N 347.526 -2.43467 -5.26976 0
M  V30 3654 H 350.291 -2.74139 -1.21111 0
M  V30 3655 H 347.852 -1.53373 -0.518499 0
M  V30 3656 H 349.844 -1.87167 -3.58818 0
M  V30 3657 H 348.414 -1.01826 -2.95551 0
M  V30 3658 H 347.634 -3.34614 -2.08391 0
M  V30 3659 H 348.922 -4.05354 -3.07515 0
M  V30 3660 H 348.32 -1.83201 -5.35214 0
M  V30 3661 H 346.877 -2.4708 -6.03154 0
M  V30 3662 N 350.31 0.590341 -1.46126 0
M  V30 3663 C 351.22 1.72793 -1.58681 0
M  V30 3664 C 352.236 1.67516 -0.470566 0
M  V30 3665 O 353.412 1.87562 -0.733642 0
M  V30 3666 C 350.477 3.09287 -1.5666 0
M  V30 3667 C 349.538 3.25886 -2.79458 0
M  V30 3668 C 348.771 4.55869 -2.77524 0
M  V30 3669 O 348.994 5.3928 -1.85832 0
M  V30 3670 O 347.928 4.75552 -3.68964 0
M  V30 3671 H 351.754 1.65149 -2.54872 0
M  V30 3672 H 349.339 0.756486 -1.28832 0
M  V30 3673 H 351.221 3.90577 -1.58202 0
M  V30 3674 H 349.896 3.17385 -0.636271 0
M  V30 3675 H 348.803 2.44119 -2.83472 0
M  V30 3676 H 350.136 3.22675 -3.71674 0
M  V30 3677 N 351.788 1.33704 0.83433 0
M  V30 3678 C 353.204 1.13137 1.12571 0
M  V30 3679 C 353.404 -0.0747261 2.01361 0
M  V30 3680 O 352.46 -0.753647 2.4099 0
M  V30 3681 C 353.773 2.42105 1.78342 0
M  V30 3682 C 355.321 2.48054 1.90888 0
M  V30 3683 C 355.796 3.76995 2.60075 0
M  V30 3684 N 357.287 3.78092 2.67584 0
M  V30 3685 C 358.022 4.74574 3.21818 0
M  V30 3686 N 357.518 5.81434 3.76705 0
M  V30 3687 N 359.311 4.62044 3.20112 0
M  V30 3688 H 351.462 2.11 0.243489 0
M  V30 3689 H 353.725 0.932532 0.17055 0
M  V30 3690 H 353.431 3.30391 1.20561 0
M  V30 3691 H 353.305 2.54594 2.7832 0
M  V30 3692 H 355.692 1.60215 2.47821 0
M  V30 3693 H 355.773 2.39502 0.898459 0
M  V30 3694 H 355.417 4.65219 2.03799 0
M  V30 3695 H 355.347 3.82825 3.61597 0
M  V30 3696 H 357.838 3.00865 2.28667 0
M  V30 3697 H 358.151 6.51084 4.16305 0
M  V30 3698 H 356.496 5.85163 3.7498 0
M  V30 3699 H 359.687 3.77716 2.76493 0
M  V30 3700 H 359.86 5.37406 3.62076 0
M  V30 3701 N 353.266 -1.05314 1.17247 0
M  V30 3702 C 354.196 -2.1498 0.911362 0
M  V30 3703 C 355.177 -1.69471 -0.146169 0
M  V30 3704 O 356.362 -1.942 0.003812 0
M  V30 3705 C 353.492 -3.4472 0.422528 0
M  V30 3706 C 352.446 -4.03789 1.4191 0
M  V30 3707 C 351.772 -5.28858 0.788274 0
M  V30 3708 C 353.072 -4.41418 2.7919 0
M  V30 3709 H 354.766 -2.3708 1.82848 0
M  V30 3710 H 352.312 -1.13938 0.880569 0
M  V30 3711 H 354.265 -4.20787 0.227289 0
M  V30 3712 H 352.989 -3.22269 -0.530123 0
M  V30 3713 H 351.648 -3.2979 1.60106 0
M  V30 3714 H 351.296 -5.02709 -0.171173 0
M  V30 3715 H 350.996 -5.69338 1.45353 0
M  V30 3716 H 352.52 -6.07612 0.603282 0
M  V30 3717 H 353.934 -5.08524 2.64719 0
M  V30 3718 H 352.331 -4.92913 3.42282 0
M  V30 3719 H 353.401 -3.51819 3.33693 0
M  V30 3720 N 354.744 -0.972509 -1.24016 0
M  V30 3721 C 355.707 -0.511403 -2.23422 0
M  V30 3722 C 356.707 0.394679 -1.55881 0
M  V30 3723 O 357.897 0.189469 -1.73167 0
M  V30 3724 C 355.029 0.258769 -3.39916 0
M  V30 3725 H 356.222 -1.39024 -2.6573 0
M  V30 3726 H 353.775 -0.757585 -1.36713 0
M  V30 3727 H 354.51 1.1545 -3.03054 0
M  V30 3728 H 354.295 -0.391522 -3.9014 0
M  V30 3729 H 355.785 0.570244 -4.13688 0
M  V30 3730 N 356.222 1.38976 -0.743202 0
M  V30 3731 C 357.638 1.53984 -0.419664 0
M  V30 3732 C 357.838 1.70837 1.0685 0
M  V30 3733 O 356.894 1.7135 1.8546 0
M  V30 3734 C 358.207 2.75287 -1.20985 0
M  V30 3735 C 359.755 2.89129 -1.19889 0
M  V30 3736 C 360.23 4.13381 -1.97181 0
M  V30 3737 N 361.721 4.20437 -1.94389 0
M  V30 3738 C 362.456 5.15547 -2.50996 0
M  V30 3739 N 361.952 6.16395 -3.16274 0
M  V30 3740 N 363.745 5.07822 -2.40984 0
M  V30 3741 H 355.896 1.26285 -1.7078 0
M  V30 3742 H 358.159 0.612689 -0.723406 0
M  V30 3743 H 357.865 2.69204 -2.26323 0
M  V30 3744 H 357.739 3.68184 -0.819759 0
M  V30 3745 H 360.126 2.947 -0.153606 0
M  V30 3746 H 360.207 1.97272 -1.62841 0
M  V30 3747 H 359.851 4.08572 -3.01714 0
M  V30 3748 H 359.781 5.04298 -1.51629 0
M  V30 3749 H 362.272 3.48205 -1.46839 0
M  V30 3750 H 362.585 6.85443 -3.56915 0
M  V30 3751 H 360.93 6.16758 -3.20367 0
M  V30 3752 H 364.121 4.27973 -1.89622 0
M  V30 3753 H 364.294 5.81767 -2.85397 0
M  V30 3754 N 357.7 0.491464 1.49741 0
M  V30 3755 C 358.63 -0.28154 2.31796 0
M  V30 3756 C 359.611 -0.971473 1.3963 0
M  V30 3757 O 360.796 -0.964719 1.68543 0
M  V30 3758 C 357.926 -1.35203 3.19902 0
M  V30 3759 C 356.88 -0.782529 4.20786 0
M  V30 3760 C 356.206 -1.95283 4.97764 0
M  V30 3761 C 357.506 0.21999 5.21837 0
M  V30 3762 H 359.2 0.403355 2.96671 0
M  V30 3763 H 356.746 0.195425 1.42668 0
M  V30 3764 H 358.699 -1.90045 3.76113 0
M  V30 3765 H 357.423 -2.06598 2.52953 0
M  V30 3766 H 356.082 -0.255928 3.65706 0
M  V30 3767 H 355.73 -2.65423 4.2727 0
M  V30 3768 H 355.43 -1.57789 5.66018 0
M  V30 3769 H 356.954 -2.50577 5.56816 0
M  V30 3770 H 358.368 -0.23996 5.72798 0
M  V30 3771 H 356.765 0.51026 5.97927 0
M  V30 3772 H 357.835 1.13911 4.7133 0
M  V30 3773 N 359.178 -1.55987 0.224894 0
M  V30 3774 C 360.125 -2.20436 -0.68385 0
M  V30 3775 C 361.095 -1.16102 -1.18783 0
M  V30 3776 O 362.28 -1.4447 -1.24632 0
M  V30 3777 C 359.42 -2.89076 -1.88491 0
M  V30 3778 C 358.533 -4.08012 -1.41951 0
M  V30 3779 C 357.668 -4.64426 -2.5784 0
M  V30 3780 C 356.707 -5.75656 -2.08053 0
M  V30 3781 N 355.844 -6.26347 -3.17227 0
M  V30 3782 H 360.684 -2.97727 -0.12754 0
M  V30 3783 H 358.221 -1.47011 -0.0511978 0
M  V30 3784 H 360.179 -3.27059 -2.59014 0
M  V30 3785 H 358.809 -2.14298 -2.41405 0
M  V30 3786 H 357.861 -3.75492 -0.609095 0
M  V30 3787 H 359.173 -4.88375 -1.01447 0
M  V30 3788 H 358.327 -5.04869 -3.3644 0
M  V30 3789 H 357.066 -3.83233 -3.01635 0
M  V30 3790 H 356.071 -5.34712 -1.27916 0
M  V30 3791 H 357.296 -6.58686 -1.65255 0
M  V30 3792 H 355.242 -5.48067 -3.60497 0
M  V30 3793 H 355.159 -7.01843 -2.80986 0
M  V30 3794 H 356.427 -6.71447 -3.95953 0
M  V30 3795 N 360.656 0.0484629 -1.57525 0
M  V30 3796 C 361.566 1.07241 -2.08654 0
M  V30 3797 C 362.582 1.409 -1.02095 0
M  V30 3798 O 363.758 1.50609 -1.33712 0
M  V30 3799 C 360.823 2.36008 -2.5397 0
M  V30 3800 C 359.884 2.09108 -3.7493 0
M  V30 3801 C 359.117 3.31736 -4.18075 0
M  V30 3802 O 359.34 4.41714 -3.60895 0
M  V30 3803 O 358.274 3.18576 -5.10679 0
M  V30 3804 H 362.1 0.667965 -2.96263 0
M  V30 3805 H 359.685 0.26417 -1.47046 0
M  V30 3806 H 361.567 3.11747 -2.83535 0
M  V30 3807 H 360.242 2.75786 -1.69481 0
M  V30 3808 H 359.149 1.31 -3.50414 0
M  V30 3809 H 360.482 1.74198 -4.60343 0
M  V30 3810 N 362.134 1.5431 0.320358 0
M  V30 3811 C 363.064 1.86912 1.3995 0
M  V30 3812 C 364.045 0.726211 1.53819 0
M  V30 3813 O 365.23 0.980233 1.67646 0
M  V30 3814 C 362.36 2.09932 2.7667 0
M  V30 3815 C 361.314 3.25776 2.77586 0
M  V30 3816 C 360.64 3.34173 4.17412 0
M  V30 3817 C 361.94 4.6335 2.41048 0
M  V30 3818 H 363.634 2.77292 1.12914 0
M  V30 3819 H 361.18 1.33421 0.541738 0
M  V30 3820 H 363.133 2.31324 3.52232 0
M  V30 3821 H 361.857 1.16304 3.0519 0
M  V30 3822 H 360.516 3.04276 2.04479 0
M  V30 3823 H 360.164 2.38098 4.43078 0
M  V30 3824 H 359.864 4.12033 4.18931 0
M  V30 3825 H 361.388 3.57803 4.94782 0
M  V30 3826 H 362.802 4.84602 3.06324 0
M  V30 3827 H 361.199 5.43782 2.53813 0
M  V30 3828 H 362.269 4.65381 1.36193 0
M  V30 3829 N 363.613 -0.582584 1.46437 0
M  V30 3830 C 364.861 -1.33814 1.51453 0
M  V30 3831 C 365.182 -1.94277 0.167792 0
M  V30 3832 O 364.452 -1.78566 -0.805677 0
M  V30 3833 H 363.032 -0.496838 0.557818 0
M  V30 3834 H 365.694 -0.682281 1.82568 0
M  V30 3835 H 364.79 -2.14479 2.26728 0
M  V30 3836 N 365.091 -1.34144 -0.827227 0
M  V30 3837 C 366.021 -1.28005 -1.95287 0
M  V30 3838 C 367.002 -0.158321 -1.69362 0
M  V30 3839 O 368.187 -0.349987 -1.9102 0
M  V30 3840 C 365.317 -1.03036 -3.31664 0
M  V30 3841 C 364.271 -2.11628 -3.72019 0
M  V30 3842 C 363.597 -1.71854 -5.0633 0
M  V30 3843 C 364.897 -3.53417 -3.8457 0
M  V30 3844 H 366.591 -2.22187 -2.00682 0
M  V30 3845 H 364.137 -1.0696 -0.964135 0
M  V30 3846 H 366.09 -0.973863 -4.09993 0
M  V30 3847 H 364.814 -0.0529391 -3.26557 0
M  V30 3848 H 363.473 -2.16339 -2.95961 0
M  V30 3849 H 363.121 -0.727841 -4.97706 0
M  V30 3850 H 362.821 -2.44531 -5.34302 0
M  V30 3851 H 364.345 -1.67692 -5.87122 0
M  V30 3852 H 365.759 -3.51142 -4.5318 0
M  V30 3853 H 364.156 -4.24679 -4.2399 0
M  V30 3854 H 365.226 -3.91072 -2.86689 0
M  V30 3855 N 366.569 1.04691 -1.17803 0
M  V30 3856 C 367.815 1.78045 -0.970969 0
M  V30 3857 C 368.148 1.87686 0.498751 0
M  V30 3858 O 367.423 1.38035 1.37027 0
M  V30 3859 C 367.706 3.2166 -1.61884 0
M  V30 3860 C 367.559 3.20001 -3.161 0
M  V30 3861 C 368.878 4.1962 -1.3269 0
M  V30 3862 H 365.997 0.64633 -0.354155 0
M  V30 3863 H 368.639 1.22333 -1.45378 0
M  V30 3864 H 366.789 3.69232 -1.20831 0
M  V30 3865 H 368.461 2.80467 -3.66246 0
M  V30 3866 H 366.704 2.58203 -3.48588 0
M  V30 3867 H 367.375 4.21386 -3.56564 0
M  V30 3868 H 369.851 3.80567 -1.68249 0
M  V30 3869 H 368.727 5.18339 -1.80599 0
M  V30 3870 H 368.988 4.414 -0.248622 0
M  V30 3871 N 368.047 0.979072 1.23499 0
M  V30 3872 C 368.957 0.526431 2.28617 0
M  V30 3873 C 369.973 -0.418126 1.68901 0
M  V30 3874 O 371.149 -0.288372 1.99325 0
M  V30 3875 C 368.214 -0.165235 3.46306 0
M  V30 3876 C 367.275 0.82056 4.21385 0
M  V30 3877 C 366.508 0.161807 5.33455 0
M  V30 3878 O 366.731 -1.04742 5.60701 0
M  V30 3879 O 365.665 0.859708 5.95729 0
M  V30 3880 H 369.491 1.4006 2.69475 0
M  V30 3881 H 367.076 0.746643 1.29405 0
M  V30 3882 H 368.958 -0.553287 4.17752 0
M  V30 3883 H 367.633 -1.01419 3.07402 0
M  V30 3884 H 366.54 1.25929 3.52268 0
M  V30 3885 H 367.873 1.63828 4.64135 0
M  V30 3886 N 369.525 -1.3858 0.750561 0
M  V30 3887 C 370.488 -2.28836 0.129152 0
M  V30 3888 C 371.488 -1.47045 -0.650714 0
M  V30 3889 O 372.678 -1.6753 -0.477428 0
M  V30 3890 C 369.81 -3.30751 -0.825622 0
M  V30 3891 H 371.003 -2.85294 0.924516 0
M  V30 3892 H 368.556 -1.47489 0.517376 0
M  V30 3893 H 369.291 -2.79378 -1.64677 0
M  V30 3894 H 369.076 -3.91177 -0.268852 0
M  V30 3895 H 370.566 -3.98249 -1.2565 0
M  V30 3896 N 371.003 -0.499398 -1.49478 0
M  V30 3897 C 372.28 0.108629 -1.95298 0
M  V30 3898 C 372.66 1.54282 -1.44084 0
M  V30 3899 O 372.008 2.18944 -0.653908 0
M  V30 3900 C 372.218 0.0229111 -3.48992 0
M  V30 3901 C 373.566 0.197643 -4.2414 0
M  V30 3902 O 374.59 0.0981735 -3.56065 0
M  V30 3903 O 373.449 0.401669 -5.45022 0
M  V30 3904 H 370.543 0.096181 -0.821388 0
M  V30 3905 H 373.089 -0.561822 -1.6013 0
M  V30 3906 H 371.861 -0.977321 -3.78899 0
M  V30 3907 H 371.484 0.733579 -3.90774 0
M  V30 3908 N 372.481 1.55866 -0.233164 0
M  V30 3909 C 373.727 1.98897 0.395959 0
M  V30 3910 C 374.06 1.12091 1.58585 0
M  V30 3911 O 373.335 0.181182 1.93654 0
M  V30 3912 C 373.618 3.50658 0.819224 0
M  V30 3913 C 373.471 4.48233 -0.375109 0
M  V30 3914 C 374.79 4.07135 1.67121 0
M  V30 3915 H 371.909 0.723102 0.142451 0
M  V30 3916 H 374.551 1.87082 -0.331725 0
M  V30 3917 H 372.701 3.60857 1.43925 0
M  V30 3918 H 374.373 4.50031 -1.01341 0
M  V30 3919 H 372.616 4.21624 -1.02058 0
M  V30 3920 H 373.287 5.51988 -0.0358328 0
M  V30 3921 H 375.763 3.99952 1.14795 0
M  V30 3922 H 374.639 5.13615 1.93625 0
M  V30 3923 H 374.9 3.54736 2.63846 0
M  V30 3924 N 373.959 -0.0401083 1.57549 0
M  V30 3925 C 374.869 -1.06133 2.0922 0
M  V30 3926 C 375.885 -1.40356 1.0284 0
M  V30 3927 O 377.061 -1.49897 1.34509 0
M  V30 3928 C 374.126 -2.34658 2.55218 0
M  V30 3929 C 373.187 -2.07117 3.76033 0
M  V30 3930 C 372.42 -3.29514 4.19829 0
M  V30 3931 O 372.643 -4.39794 3.63232 0
M  V30 3932 O 371.577 -3.15863 5.12362 0
M  V30 3933 H 375.403 -0.652244 2.96613 0
M  V30 3934 H 372.988 -0.256368 1.47184 0
M  V30 3935 H 374.87 -3.10239 2.85184 0
M  V30 3936 H 373.545 -2.74883 1.70941 0
M  V30 3937 H 372.452 -1.29139 3.51104 0
M  V30 3938 H 373.785 -1.71754 4.61261 0
M  V30 3939 N 375.437 -1.54477 -0.31217 0
M  V30 3940 C 376.4 -1.83923 -1.36766 0
M  V30 3941 C 377.4 -0.711563 -1.44199 0
M  V30 3942 O 378.59 -0.979866 -1.44029 0
M  V30 3943 C 375.722 -2.0095 -2.75376 0
M  V30 3944 H 376.915 -2.78239 -1.11906 0
M  V30 3945 H 374.468 -1.46369 -0.548257 0
M  V30 3946 H 375.203 -1.08883 -3.05475 0
M  V30 3947 H 374.988 -2.83018 -2.71373 0
M  V30 3948 H 376.478 -2.2514 -3.51713 0
M  V30 3949 N 376.915 0.57481 -1.46744 0
M  V30 3950 C 377.865 1.67838 -1.54319 0
M  V30 3951 C 378.849 1.55759 -0.40346 0
M  V30 3952 O 380.041 1.6454 -0.652347 0
M  V30 3953 C 377.17 3.06624 -1.5439 0
M  V30 3954 C 376.256 3.23971 -2.73685 0
M  V30 3955 N 376.647 3.11447 -3.9854 0
M  V30 3956 C 374.945 3.5493 -2.70075 0
M  V30 3957 C 375.646 3.31011 -4.78337 0
M  V30 3958 N 374.622 3.56533 -4.10348 0
M  V30 3959 H 378.424 1.56698 -2.48642 0
M  V30 3960 H 375.938 0.779071 -1.42493 0
M  V30 3961 H 377.935 3.85839 -1.57905 0
M  V30 3962 H 376.595 3.1889 -0.611493 0
M  V30 3963 H 377.606 2.89145 -4.29669 0
M  V30 3964 H 374.283 3.73832 -1.85893 0
M  V30 3965 H 375.673 3.26445 -5.87268 0
M  V30 3966 N 378.394 1.34581 0.820102 0
M  V30 3967 C 379.805 1.24298 1.39309 0
M  V30 3968 C 380.156 -0.130351 1.95767 0
M  V30 3969 O 379.281 -1.0308 1.90272 0
M  V30 3970 C 379.876 2.25054 2.53251 0
M  V30 3971 C 378.435 2.18552 3.0645 0
M  V30 3972 C 377.582 2.11503 1.79337 0
M  V30 3973 H 380.533 1.45906 0.624262 0
M  V30 3974 H 380.554 1.86917 3.31425 0
M  V30 3975 H 380.066 3.24996 2.1213 0
M  V30 3976 H 378.167 1.21976 3.52069 0
M  V30 3977 H 378.28 3.0993 3.65349 0
M  V30 3978 H 376.644 1.57268 2.00347 0
M  V30 3979 H 377.427 3.13284 1.40386 0
M  V30 3980 N 379.872 -1.04064 1.18357 0
M  V30 3981 C 381.118 -1.77528 0.980397 0
M  V30 3982 C 381.451 -1.87948 -0.48879 0
M  V30 3983 O 380.726 -1.3876 -1.36293 0
M  V30 3984 C 381.009 -3.20797 1.63588 0
M  V30 3985 C 380.862 -3.1832 3.17793 0
M  V30 3986 C 382.181 -4.18911 1.34914 0
M  V30 3987 H 379.3 -0.644443 0.357578 0
M  V30 3988 H 381.942 -1.2156 1.46024 0
M  V30 3989 H 380.092 -3.68586 1.22788 0
M  V30 3990 H 381.764 -2.78521 3.67728 0
M  V30 3991 H 380.007 -2.56351 3.49952 0
M  V30 3992 H 380.678 -4.19489 3.58794 0
M  V30 3993 H 383.154 -3.7967 1.70265 0
M  V30 3994 H 382.03 -5.17374 1.83346 0
M  V30 3995 H 382.291 -4.41262 0.272027 0
M  V30 3996 N 381.35 -0.985608 -1.22978 0
M  V30 3997 C 382.28 -0.549649 -2.26939 0
M  V30 3998 C 383.261 0.419803 -1.64838 0
M  V30 3999 O 384.446 0.31203 -1.91677 0
M  V30 4000 C 381.576 0.143652 -3.47003 0
M  V30 4001 C 380.53 -0.743606 -4.21491 0
M  V30 4002 C 379.856 0.0822027 -5.34637 0
M  V30 4003 C 381.156 -2.03694 -4.80943 0
M  V30 4004 H 382.85 -1.41862 -2.63658 0
M  V30 4005 H 380.396 -0.683571 -1.26741 0
M  V30 4006 H 382.349 0.459985 -4.18882 0
M  V30 4007 H 381.073 1.04711 -3.09359 0
M  V30 4008 H 379.732 -1.04347 -3.51436 0
M  V30 4009 H 379.38 0.986359 -4.93234 0
M  V30 4010 H 379.08 -0.508377 -5.85397 0
M  V30 4011 H 380.604 0.392797 -6.09335 0
M  V30 4012 H 382.018 -1.78504 -5.44802 0
M  V30 4013 H 380.415 -2.57573 -5.42011 0
M  V30 4014 H 381.485 -2.72042 -4.01399 0
M  V30 4015 N 382.828 1.3818 -0.7579 0
M  V30 4016 C 383.791 2.28764 -0.141286 0
M  V30 4017 C 384.791 1.47388 0.642907 0
M  V30 4018 O 385.981 1.67781 0.468536 0
M  V30 4019 C 383.113 3.31184 0.808069 0
M  V30 4020 H 384.306 2.848 -0.939633 0
M  V30 4021 H 381.859 1.47212 -0.525191 0
M  V30 4022 H 382.594 2.80247 1.63193 0
M  V30 4023 H 382.379 3.91314 0.248104 0
M  V30 4024 H 383.869 3.98909 1.23536 0
M  V30 4025 N 384.306 0.507319 1.49211 0
M  V30 4026 C 385.236 -0.256939 2.32082 0
M  V30 4027 C 386.217 -0.956609 1.40652 0
M  V30 4028 O 387.402 -0.946788 1.69557 0
M  V30 4029 C 384.532 -1.31802 3.21318 0
M  V30 4030 C 383.486 -0.737855 4.21592 0
M  V30 4031 C 382.812 -1.89992 4.99807 0
M  V30 4032 C 384.112 0.275325 5.21574 0
M  V30 4033 H 385.806 0.434798 2.96226 0
M  V30 4034 H 383.352 0.210546 1.42452 0
M  V30 4035 H 385.305 -1.86045 3.78107 0
M  V30 4036 H 384.029 -2.03903 2.5513 0
M  V30 4037 H 382.688 -0.217126 3.65956 0
M  V30 4038 H 382.336 -2.60877 4.30061 0
M  V30 4039 H 382.036 -1.51777 5.6766 0
M  V30 4040 H 383.56 -2.44657 5.59442 0
M  V30 4041 H 384.974 -0.179193 5.7302 0
M  V30 4042 H 383.371 0.573649 5.97352 0
M  V30 4043 H 384.441 1.18903 4.70096 0
M  V30 4044 N 385.784 -1.5574 0.241426 0
M  V30 4045 C 387.012 -2.03208 -0.389134 0
M  V30 4046 C 387.427 -1.12082 -1.51931 0
M  V30 4047 O 386.784 -0.134183 -1.82006 0
M  V30 4048 C 386.835 -3.50064 -0.902087 0
M  V30 4049 O 386.556 -4.37717 0.18305 0
M  V30 4050 C 388.057 -4.13268 -1.60389 0
M  V30 4051 H 385.277 -0.664509 -0.0931053 0
M  V30 4052 H 387.821 -2.0124 0.36369 0
M  V30 4053 H 385.976 -3.52583 -1.60511 0
M  V30 4054 H 386.39 -5.24097 -0.205579 0
M  V30 4055 H 387.864 -5.17733 -1.91458 0
M  V30 4056 H 388.341 -3.59434 -2.52397 0
M  V30 4057 H 388.947 -4.14655 -0.945576 0
M  V30 4058 N 387.262 0.0317525 -1.57568 0
M  V30 4059 C 388.678 0.38735 -1.54828 0
M  V30 4060 C 388.878 1.7677 -0.967187 0
M  V30 4061 O 387.934 2.45581 -0.587063 0
M  V30 4062 C 389.247 0.291667 -2.99282 0
M  V30 4063 C 390.795 0.368946 -3.10818 0
M  V30 4064 C 391.27 0.302741 -4.56998 0
M  V30 4065 N 392.761 0.361617 -4.61786 0
M  V30 4066 C 393.496 0.333238 -5.72431 0
M  V30 4067 N 392.992 0.257308 -6.92322 0
M  V30 4068 N 394.785 0.382769 -5.60795 0
M  V30 4069 H 386.936 -0.871609 -1.93692 0
M  V30 4070 H 389.199 -0.331161 -0.888277 0
M  V30 4071 H 388.905 -0.656794 -3.45513 0
M  V30 4072 H 388.779 1.08638 -3.61217 0
M  V30 4073 H 391.166 1.30784 -2.64536 0
M  V30 4074 H 391.247 -0.455066 -2.5172 0
M  V30 4075 H 390.891 -0.632473 -5.03947 0
M  V30 4076 H 390.821 1.14482 -5.14005 0
M  V30 4077 H 393.312 0.422923 -3.75526 0
M  V30 4078 H 393.625 0.24068 -7.72425 0
M  V30 4079 H 391.97 0.223396 -6.94641 0
M  V30 4080 H 395.161 0.44006 -4.66027 0
M  V30 4081 H 395.334 0.357184 -6.47015 0
M  V30 4082 N 388.74 1.54641 0.303973 0
M  V30 4083 C 389.65 1.88439 1.39743 0
M  V30 4084 C 390.666 0.778239 1.55626 0
M  V30 4085 O 391.842 1.07442 1.70347 0
M  V30 4086 C 388.907 2.12212 2.74166 0
M  V30 4087 C 387.968 3.35936 2.67293 0
M  V30 4088 C 387.201 3.58566 3.95305 0
M  V30 4089 O 387.424 2.84263 4.9452 0
M  V30 4090 O 386.358 4.52078 3.97378 0
M  V30 4091 H 390.184 2.81458 1.14083 0
M  V30 4092 H 387.769 1.40793 0.499768 0
M  V30 4093 H 389.651 2.29067 3.53704 0
M  V30 4094 H 388.326 1.22379 2.99675 0
M  V30 4095 H 387.233 3.24448 1.86237 0
M  V30 4096 H 388.566 4.2589 2.46736 0
M  V30 4097 N 390.218 -0.567019 1.47046 0
M  V30 4098 C 391.464 -1.32434 1.54379 0
M  V30 4099 C 391.819 -1.91365 0.199276 0
M  V30 4100 O 391.112 -1.74378 -0.793915 0
M  V30 4101 C 391.306 -2.4623 2.59047 0
M  V30 4102 C 391.135 -1.98448 4.03545 0
M  V30 4103 C 389.905 -1.82741 4.71098 0
M  V30 4104 C 392.103 -1.53477 4.90866 0
M  V30 4105 N 390.085 -1.29196 6.00151 0
M  V30 4106 C 391.456 -1.1163 6.09868 0
M  V30 4107 C 393.511 -1.41438 4.77388 0
M  V30 4108 C 392.214 -0.589425 7.16881 0
M  V30 4109 C 394.24 -0.901528 5.84488 0
M  V30 4110 C 393.602 -0.492932 7.02673 0
M  V30 4111 H 389.701 -0.477005 0.61967 0
M  V30 4112 H 392.285 -0.643856 1.83746 0
M  V30 4113 H 390.456 -3.11821 2.31564 0
M  V30 4114 H 392.188 -3.13213 2.56281 0
M  V30 4115 H 388.943 -2.05162 4.26855 0
M  V30 4116 H 389.367 -1.0454 6.6888 0
M  V30 4117 H 394.009 -1.71643 3.86392 0
M  V30 4118 H 391.727 -0.274994 8.07632 0
M  V30 4119 H 395.313 -0.812071 5.76105 0
M  V30 4120 H 394.193 -0.102227 7.84133 0
M  V30 4121 N 391.696 -1.35014 -0.812953 0
M  V30 4122 C 392.606 -1.2951 -1.95613 0
M  V30 4123 C 393.622 -0.20107 -1.72834 0
M  V30 4124 O 394.798 -0.42932 -1.96771 0
M  V30 4125 C 391.863 -1.06033 -3.30088 0
M  V30 4126 C 390.924 -2.24688 -3.65805 0
M  V30 4127 C 390.157 -2.02322 -4.93864 0
M  V30 4128 O 390.38 -0.986464 -5.61805 0
M  V30 4129 O 389.314 -2.89525 -5.27692 0
M  V30 4130 H 393.14 -2.25705 -2.03202 0
M  V30 4131 H 390.725 -1.15321 -0.949811 0
M  V30 4132 H 392.607 -0.94763 -4.10607 0
M  V30 4133 H 391.282 -0.128852 -3.23443 0
M  V30 4134 H 390.189 -2.41521 -2.85689 0
M  V30 4135 H 391.522 -3.16261 -3.77147 0
M  V30 4136 N 393.175 1.03435 -1.18907 0
M  V30 4137 C 394.138 2.09756 -0.923844 0
M  V30 4138 C 395.138 1.60528 0.093416 0
M  V30 4139 O 396.328 1.73631 -0.140727 0
M  V30 4140 C 393.46 3.38692 -0.387354 0
M  V30 4141 H 394.653 2.34719 -1.86674 0
M  V30 4142 H 392.206 1.19959 -1.00197 0
M  V30 4143 H 392.941 3.19396 0.561845 0
M  V30 4144 H 392.726 3.75742 -1.12074 0
M  V30 4145 H 394.216 4.17016 -0.220694 0
M  V30 4146 N 394.653 0.992116 1.22453 0
M  V30 4147 C 395.583 0.561677 2.26644 0
M  V30 4148 C 396.564 -0.411055 1.65059 0
M  V30 4149 O 397.749 -0.301861 1.9184 0
M  V30 4150 C 394.879 -0.125247 3.47074 0
M  V30 4151 C 393.833 0.765948 4.21091 0
M  V30 4152 C 393.159 -0.0538484 5.34673 0
M  V30 4153 C 394.459 2.06242 4.79856 0
M  V30 4154 H 396.153 1.43259 2.62902 0
M  V30 4155 H 393.699 0.690283 1.26377 0
M  V30 4156 H 395.652 -0.437764 4.1912 0
M  V30 4157 H 394.376 -1.03069 3.0991 0
M  V30 4158 H 393.035 1.0621 3.50878 0
M  V30 4159 H 392.683 -0.960188 4.9375 0
M  V30 4160 H 392.383 0.539415 5.85119 0
M  V30 4161 H 393.907 -0.360477 6.09535 0
M  V30 4162 H 395.321 1.8139 5.43848 0
M  V30 4163 H 393.718 2.60444 5.40638 0
M  V30 4164 H 394.788 2.74167 3.99951 0
M  V30 4165 N 396.131 -1.37776 0.765217 0
M  V30 4166 C 397.041 -2.34135 0.147666 0
M  V30 4167 C 398.057 -1.59854 -0.687215 0
M  V30 4168 O 399.233 -1.91983 -0.608659 0
M  V30 4169 C 396.298 -3.3901 -0.72617 0
M  V30 4170 C 395.359 -4.2912 0.124417 0
M  V30 4171 C 394.592 -5.28986 -0.707807 0
M  V30 4172 O 394.815 -5.36205 -1.94525 0
M  V30 4173 O 393.749 -6.01779 -0.12046 0
M  V30 4174 H 397.575 -2.88664 0.943758 0
M  V30 4175 H 395.16 -1.39824 0.526277 0
M  V30 4176 H 397.042 -4.03195 -1.22524 0
M  V30 4177 H 395.717 -2.86819 -1.50056 0
M  V30 4178 H 394.624 -3.68057 0.669696 0
M  V30 4179 H 395.957 -4.84598 0.861736 0
M  V30 4180 N 397.609 -0.515225 -1.4894 0
M  V30 4181 C 398.886 0.0879088 -1.95402 0
M  V30 4182 C 399.266 1.52745 -1.45712 0
M  V30 4183 O 398.614 2.18238 -0.677093 0
M  V30 4184 C 398.824 -0.0141055 -3.48997 0
M  V30 4185 C 400.172 0.152646 -4.24326 0
M  V30 4186 O 401.196 0.0604025 -3.56149 0
M  V30 4187 O 400.055 0.34384 -5.45417 0
M  V30 4188 H 397.149 0.0874636 -0.822362 0
M  V30 4189 H 399.695 -0.578775 -1.59525 0
M  V30 4190 H 398.467 -1.01745 -3.77841 0
M  V30 4191 H 398.09 0.692091 -3.9153 0
M  V30 4192 N 399.087 1.5561 -0.249682 0
M  V30 4193 C 399.997 2.25143 0.659375 0
M  V30 4194 C 401.013 1.2685 1.19101 0
M  V30 4195 O 402.189 1.59732 1.22669 0
M  V30 4196 C 399.254 2.93945 1.8384 0
M  V30 4197 C 398.315 4.07655 1.34596 0
M  V30 4198 C 397.548 4.73167 2.46878 0
M  V30 4199 O 397.771 4.37768 3.65671 0
M  V30 4200 O 396.705 5.61623 2.16478 0
M  V30 4201 H 400.531 3.03545 0.0968698 0
M  V30 4202 H 398.116 1.49389 -0.018074 0
M  V30 4203 H 399.998 3.37271 2.52638 0
M  V30 4204 H 398.673 2.18481 2.38847 0
M  V30 4205 H 397.58 3.68839 0.625174 0
M  V30 4206 H 398.913 4.84946 0.841941 0
M  V30 4207 N 400.565 -0.0233959 1.57583 0
M  V30 4208 C 401.475 -1.03907 2.10334 0
M  V30 4209 C 402.491 -1.39257 1.04323 0
M  V30 4210 O 403.667 -1.48462 1.36091 0
M  V30 4211 C 400.732 -2.31938 2.57693 0
M  V30 4212 C 399.793 -2.03117 3.78209 0
M  V30 4213 C 399.026 -3.25043 4.233 0
M  V30 4214 O 399.249 -4.35916 3.67876 0
M  V30 4215 O 398.183 -3.10411 5.15683 0
M  V30 4216 H 402.009 -0.620748 2.97288 0
M  V30 4217 H 399.594 -0.240743 1.47448 0
M  V30 4218 H 401.476 -3.07196 2.88458 0
M  V30 4219 H 400.151 -2.73055 1.73847 0
M  V30 4220 H 399.058 -1.25408 3.52454 0
M  V30 4221 H 400.391 -1.66852 4.63056 0
M  V30 4222 N 402.043 -1.548 -0.295768 0
M  V30 4223 C 403.459 -1.4613 -0.641722 0
M  V30 4224 C 403.659 -0.656771 -1.90496 0
M  V30 4225 O 402.715 -0.166547 -2.5195 0
M  V30 4226 C 404.028 -2.90141 -0.789852 0
M  V30 4227 C 405.576 -3.00216 -0.885396 0
M  V30 4228 C 406.051 -4.45434 -1.06548 0
M  V30 4229 N 407.542 -4.49166 -1.13156 0
M  V30 4230 C 408.277 -5.58717 -1.28929 0
M  V30 4231 N 407.773 -6.78182 -1.41567 0
M  V30 4232 N 409.566 -5.46415 -1.31859 0
M  V30 4233 H 401.717 -2.05574 0.534147 0
M  V30 4234 H 403.98 -0.931259 0.177372 0
M  V30 4235 H 403.686 -3.51635 0.0675598 0
M  V30 4236 H 403.56 -3.37859 -1.67724 0
M  V30 4237 H 405.947 -2.38833 -1.73329 0
M  V30 4238 H 406.028 -2.55787 0.0261185 0
M  V30 4239 H 405.672 -5.07413 -0.222335 0
M  V30 4240 H 405.602 -4.87499 -1.9913 0
M  V30 4241 H 408.093 -3.631 -1.04721 0
M  V30 4242 H 408.406 -7.57428 -1.53372 0
M  V30 4243 H 406.751 -6.81037 -1.38613 0
M  V30 4244 H 409.942 -4.5203 -1.21601 0
M  V30 4245 H 410.115 -6.31841 -1.43808 0
M  V30 4246 N 403.521 0.559213 -1.47345 0
M  V30 4247 C 404.484 1.64854 -1.59235 0
M  V30 4248 C 405.484 1.53851 -0.467607 0
M  V30 4249 O 406.674 1.58045 -0.732617 0
M  V30 4250 C 403.806 3.04388 -1.53496 0
M  V30 4251 H 404.999 1.55662 -2.56339 0
M  V30 4252 H 402.552 0.778973 -1.35505 0
M  V30 4253 H 403.287 3.19115 -0.577604 0
M  V30 4254 H 403.072 3.13783 -2.35123 0
M  V30 4255 H 404.562 3.83642 -1.6495 0
M  V30 4256 N 404.999 1.35443 0.805782 0
M  V30 4257 C 405.946 1.28431 1.91766 0
M  V30 4258 C 406.916 0.156102 1.65365 0
M  V30 4259 O 408.101 0.339936 1.87747 0
M  V30 4260 C 405.241 1.06301 3.2832 0
M  V30 4261 C 404.354 2.2805 3.66902 0
M  V30 4262 C 403.489 1.99064 4.92491 0
M  V30 4263 C 402.528 3.16863 5.23703 0
M  V30 4264 N 401.665 2.87647 6.40471 0
M  V30 4265 H 406.505 2.23511 1.97096 0
M  V30 4266 H 404.042 1.11105 0.964054 0
M  V30 4267 H 406 0.915012 4.07042 0
M  V30 4268 H 404.63 0.148822 3.22457 0
M  V30 4269 H 403.682 2.53711 2.83434 0
M  V30 4270 H 404.994 3.1601 3.85927 0
M  V30 4271 H 404.148 1.81099 5.7904 0
M  V30 4272 H 402.887 1.0839 4.75503 0
M  V30 4273 H 401.892 3.35404 4.35642 0
M  V30 4274 H 403.117 4.08339 5.4262 0
M  V30 4275 H 401.063 1.99568 6.24907 0
M  V30 4276 H 400.98 3.69141 6.59751 0
M  V30 4277 H 402.248 2.73226 7.30047 0
M  V30 4278 N 406.477 -1.02803 1.19454 0
M  V30 4279 C 407.702 -1.80378 1.02364 0
M  V30 4280 C 408.127 -1.83282 -0.423007 0
M  V30 4281 O 407.485 -1.25945 -1.30413 0
M  V30 4282 C 407.533 -3.23248 1.59821 0
M  V30 4283 O 406.637 -4.04 0.828105 0
M  V30 4284 H 405.978 -0.556799 0.361761 0
M  V30 4285 H 408.508 -1.29385 1.58495 0
M  V30 4286 H 408.518 -3.73994 1.63073 0
M  V30 4287 H 407.193 -3.2045 2.65113 0
M  V30 4288 H 405.77 -3.62635 0.86891 0
M  V30 4289 N 407.956 -0.998596 -1.21925 0
M  V30 4290 C 408.919 -0.558679 -2.22287 0
M  V30 4291 C 409.919 0.361525 -1.56683 0
M  V30 4292 O 411.109 0.152695 -1.73529 0
M  V30 4293 C 408.241 0.18661 -3.40389 0
M  V30 4294 H 409.434 -1.4463 -2.62721 0
M  V30 4295 H 406.987 -0.786413 -1.35075 0
M  V30 4296 H 407.722 1.08996 -3.05435 0
M  V30 4297 H 407.507 -0.474188 -3.89222 0
M  V30 4298 H 408.997 0.482367 -4.14805 0
M  V30 4299 N 409.434 1.37368 -0.772513 0
M  V30 4300 C 410.85 1.53059 -0.452231 0
M  V30 4301 C 411.05 1.73065 1.03203 0
M  V30 4302 O 410.106 1.75245 1.81784 0
M  V30 4303 C 411.419 2.72659 -1.26797 0
M  V30 4304 C 412.967 2.86521 -1.25995 0
M  V30 4305 C 413.442 4.09105 -2.05905 0
M  V30 4306 N 414.933 4.16219 -2.03263 0
M  V30 4307 C 415.668 5.10107 -2.61875 0
M  V30 4308 N 415.164 6.09547 -3.29278 0
M  V30 4309 N 416.957 5.02596 -2.51701 0
M  V30 4310 H 409.108 1.22634 -1.7342 0
M  V30 4311 H 411.371 0.597206 -0.736239 0
M  V30 4312 H 411.077 2.64343 -2.31982 0
M  V30 4313 H 410.951 3.66363 -0.897672 0
M  V30 4314 H 413.338 2.94308 -0.216081 0
M  V30 4315 H 413.419 1.93774 -1.66989 0
M  V30 4316 H 413.063 4.0208 -3.10313 0
M  V30 4317 H 412.993 5.00968 -1.62292 0
M  V30 4318 H 415.484 3.45012 -1.54192 0
M  V30 4319 H 415.797 6.77718 -3.71374 0
M  V30 4320 H 414.142 6.09824 -3.33377 0
M  V30 4321 H 417.333 4.23855 -1.98657 0
M  V30 4322 H 417.506 5.75582 -2.97673 0
M  V30 4323 N 410.912 0.523116 1.48665 0
M  V30 4324 C 411.875 -0.232592 2.28017 0
M  V30 4325 C 412.875 -0.874021 1.34972 0
M  V30 4326 O 414.065 -0.735132 1.57929 0
M  V30 4327 C 411.197 -1.33586 3.13636 0
M  V30 4328 H 412.39 0.464008 2.96289 0
M  V30 4329 H 409.943 0.278816 1.53793 0
M  V30 4330 H 410.678 -2.06593 2.4998 0
M  V30 4331 H 410.463 -0.881125 3.82071 0
M  V30 4332 H 411.953 -1.86759 3.73511 0
M  V30 4333 N 412.39 -1.55475 0.257931 0
M  V30 4334 C 413.323 -2.179 -0.677862 0
M  V30 4335 C 414.301 -1.13448 -1.16483 0
M  V30 4336 O 415.485 -1.41889 -1.24095 0
M  V30 4337 C 412.612 -2.78851 -1.92249 0
M  V30 4338 C 411.658 -3.96454 -1.57246 0
M  V30 4339 S 412.491 -5.31349 -0.665501 0
M  V30 4340 C 413.647 -5.9576 -1.91889 0
M  V30 4341 H 413.88 -2.96934 -0.147396 0
M  V30 4342 H 411.413 -1.54342 0.0423023 0
M  V30 4343 H 413.371 -3.14602 -2.63697 0
M  V30 4344 H 412.032 -1.99742 -2.42409 0
M  V30 4345 H 411.225 -4.37731 -2.49814 0
M  V30 4346 H 410.827 -3.62038 -0.938325 0
M  V30 4347 H 413.119 -6.13947 -2.86487 0
M  V30 4348 H 414.062 -6.9094 -1.54942 0
M  V30 4349 H 414.47 -5.2494 -2.076 0
M  V30 4350 N 413.868 0.0150385 -1.57593 0
M  V30 4351 C 414.778 1.02791 -2.10882 0
M  V30 4352 C 415.794 1.38702 -1.0506 0
M  V30 4353 O 416.97 1.47739 -1.36877 0
M  V30 4354 C 414.035 2.30568 -2.58919 0
M  V30 4355 C 413.096 2.01108 -3.79281 0
M  V30 4356 C 412.329 3.22794 -4.25018 0
M  V30 4357 O 412.552 4.33959 -3.70183 0
M  V30 4358 O 411.486 3.07672 -5.17322 0
M  V30 4359 H 415.312 0.604973 -2.97613 0
M  V30 4360 H 412.897 0.23292 -1.47573 0
M  V30 4361 H 414.779 3.05662 -2.90084 0
M  V30 4362 H 413.454 2.72129 -1.75293 0
M  V30 4363 H 412.361 1.23537 -3.53114 0
M  V30 4364 H 413.694 1.64394 -4.63935 0
M  V30 4365 N 415.346 1.54954 0.287554 0
M  V30 4366 C 416.592 1.75132 1.02257 0
M  V30 4367 C 416.925 0.542858 1.86458 0
M  V30 4368 O 416.2 -0.459856 1.88986 0
M  V30 4369 C 416.483 3.04812 1.91733 0
M  V30 4370 C 416.336 4.35985 1.10622 0
M  V30 4371 C 417.655 3.30438 2.90687 0
M  V30 4372 H 414.774 0.637194 0.370341 0
M  V30 4373 H 417.416 1.87678 0.296111 0
M  V30 4374 H 415.566 2.94247 2.53675 0
M  V30 4375 H 417.238 4.58487 0.508636 0
M  V30 4376 H 415.481 4.31865 0.409271 0
M  V30 4377 H 416.152 5.23017 1.76513 0
M  V30 4378 H 418.628 3.40701 2.38877 0
M  V30 4379 H 417.504 4.22467 3.50447 0
M  V30 4380 H 417.765 2.49377 3.65053 0
M  V30 4381 N 416.824 -0.551391 1.4764 0
M  V30 4382 C 418.054 -1.33163 1.57959 0
M  V30 4383 C 418.462 -1.87785 0.23094 0
M  V30 4384 O 417.805 -1.65996 -0.786825 0
M  V30 4385 C 417.867 -2.53449 2.54958 0
M  V30 4386 C 417.531 -2.20071 4.00522 0
M  V30 4387 C 418.528 -1.77017 4.88836 0
M  V30 4388 C 416.213 -2.31252 4.45901 0
M  V30 4389 C 418.207 -1.4558 6.20552 0
M  V30 4390 C 415.894 -1.99427 5.77644 0
M  V30 4391 C 416.892 -1.56659 6.64791 0
M  V30 4392 O 416.58 -1.25242 7.94084 0
M  V30 4393 H 416.312 -0.412022 0.535923 0
M  V30 4394 H 418.866 -0.674186 1.9402 0
M  V30 4395 H 417.096 -3.22104 2.13976 0
M  V30 4396 H 418.785 -3.15523 2.55343 0
M  V30 4397 H 419.551 -1.67867 4.55023 0
M  V30 4398 H 415.43 -2.63498 3.78272 0
M  V30 4399 H 418.974 -1.12125 6.8853 0
M  V30 4400 H 414.871 -2.08211 6.10998 0
M  V30 4401 H 415.639 -1.38822 8.06642 0
M  V30 4402 N 418.302 -1.35869 -0.798587 0
M  V30 4403 C 419.265 -1.29307 -1.89242 0
M  V30 4404 C 420.265 -0.202747 -1.59517 0
M  V30 4405 O 421.455 -0.456957 -1.681 0
M  V30 4406 C 418.587 -1.00229 -3.25833 0
M  V30 4407 H 419.78 -2.26576 -1.96478 0
M  V30 4408 H 417.333 -1.20509 -0.995358 0
M  V30 4409 H 418.068 -0.033801 -3.24282 0
M  V30 4410 H 417.853 -1.79121 -3.48795 0
M  V30 4411 H 419.343 -0.98219 -4.05885 0
M  V30 4412 N 419.78 1.02168 -1.19998 0
M  V30 4413 C 420.743 2.08765 -0.94604 0
M  V30 4414 C 421.743 1.60618 0.0763846 0
M  V30 4415 O 422.933 1.73472 -0.159135 0
M  V30 4416 C 420.065 3.38262 -0.423255 0
M  V30 4417 H 421.258 2.32726 -1.89153 0
M  V30 4418 H 418.811 1.1889 -1.01464 0
M  V30 4419 H 419.546 3.19974 0.527938 0
M  V30 4420 H 419.331 3.74532 -1.16053 0
M  V30 4421 H 420.821 4.16759 -0.264911 0
M  V30 4422 N 421.258 1.00505 1.21394 0
M  V30 4423 C 422.191 0.51032 2.22421 0
M  V30 4424 C 423.169 -0.436 1.56645 0
M  V30 4425 O 424.353 -0.358709 1.85055 0
M  V30 4426 C 421.48 -0.258733 3.3771 0
M  V30 4427 C 420.526 0.635395 4.2174 0
M  V30 4428 S 421.359 2.09783 4.92698 0
M  V30 4429 C 422.515 1.33862 6.11418 0
M  V30 4430 H 422.748 1.36637 2.64041 0
M  V30 4431 H 420.281 0.812991 1.31262 0
M  V30 4432 H 422.239 -0.696372 4.0455 0
M  V30 4433 H 420.9 -1.0902 2.94573 0
M  V30 4434 H 420.093 0.0430189 5.03982 0
M  V30 4435 H 419.695 1.01031 3.60095 0
M  V30 4436 H 421.987 0.612541 6.74725 0
M  V30 4437 H 422.93 2.13675 6.75092 0
M  V30 4438 H 423.338 0.846568 5.58116 0
M  V30 4439 N 422.737 -1.36956 0.779787 0
M  V30 4440 C 423.983 -1.99787 0.348281 0
M  V30 4441 C 424.316 -1.61756 -1.07465 0
M  V30 4442 O 423.591 -0.867639 -1.74075 0
M  V30 4443 C 423.874 -3.56597 0.50104 0
M  V30 4444 C 423.727 -4.04513 1.96697 0
M  V30 4445 C 425.046 -4.40008 -0.0898097 0
M  V30 4446 H 422.165 -0.725796 0.128022 0
M  V30 4447 H 424.807 -1.62514 0.984331 0
M  V30 4448 H 422.957 -3.88479 -0.0404347 0
M  V30 4449 H 424.629 -3.83161 2.56876 0
M  V30 4450 H 422.872 -3.56408 2.47297 0
M  V30 4451 H 423.543 -5.1352 2.02486 0
M  V30 4452 H 426.019 -4.14431 0.372293 0
M  V30 4453 H 424.895 -5.4888 0.0471605 0
M  V30 4454 H 425.156 -4.26035 -1.18096 0
M  V30 4455 N 424.215 -0.530993 -1.48385 0
M  V30 4456 C 425.125 0.23503 -2.3342 0
M  V30 4457 C 426.141 0.93801 -1.46552 0
M  V30 4458 O 427.317 0.912745 -1.7953 0
M  V30 4459 C 424.382 1.26778 -3.22689 0
M  V30 4460 C 423.443 0.575038 -4.25431 0
M  V30 4461 C 422.676 1.55858 -5.10435 0
M  V30 4462 O 422.899 2.79129 -4.97437 0
M  V30 4463 O 421.833 1.09742 -5.91811 0
M  V30 4464 H 425.659 -0.461794 -3.00169 0
M  V30 4465 H 423.244 -0.291903 -1.46521 0
M  V30 4466 H 425.126 1.86457 -3.77904 0
M  V30 4467 H 423.801 1.94699 -2.586 0
M  V30 4468 H 422.708 -0.0622782 -3.74048 0
M  V30 4469 H 424.041 -0.062253 -4.92161 0
M  V30 4470 N 425.693 1.55336 -0.266172 0
M  V30 4471 C 427.109 1.59356 0.0882065 0
M  V30 4472 C 427.309 1.2834 1.55342 0
M  V30 4473 O 426.365 1.03996 2.30089 0
M  V30 4474 C 427.678 2.99409 -0.278364 0
M  V30 4475 C 429.226 3.12196 -0.224243 0
M  V30 4476 C 429.701 4.545 -0.565123 0
M  V30 4477 N 431.192 4.60313 -0.51634 0
M  V30 4478 C 431.927 5.68434 -0.753013 0
M  V30 4479 N 431.423 6.84738 -1.05383 0
M  V30 4480 N 433.216 5.57942 -0.682414 0
M  V30 4481 H 425.367 1.73764 -1.22147 0
M  V30 4482 H 427.63 0.809822 -0.492841 0
M  V30 4483 H 427.336 3.2691 -1.29703 0
M  V30 4484 H 427.21 3.75228 0.385186 0
M  V30 4485 H 429.597 2.84464 0.78512 0
M  V30 4486 H 429.678 2.38609 -0.921922 0
M  V30 4487 H 429.322 4.82956 -1.57213 0
M  V30 4488 H 429.252 5.26374 0.154248 0
M  V30 4489 H 431.743 3.7676 -0.29335 0
M  V30 4490 H 432.056 7.63088 -1.22133 0
M  V30 4491 H 430.401 6.86375 -1.09151 0
M  V30 4492 H 433.592 4.65958 -0.44731 0
M  V30 4493 H 433.765 6.4213 -0.870248 0
M  V30 4494 N 427.171 -0.0066808 1.57599 0
M  V30 4495 C 428.104 -1.03397 2.03431 0
M  V30 4496 C 429.082 -1.33872 0.922877 0
M  V30 4497 O 430.266 -1.4615 1.19048 0
M  V30 4498 C 427.393 -2.36325 2.42628 0
M  V30 4499 C 426.439 -2.21557 3.64438 0
M  V30 4500 S 427.272 -1.54789 5.12641 0
M  V30 4501 C 428.428 -2.8916 5.55101 0
M  V30 4502 H 428.661 -0.643687 2.90248 0
M  V30 4503 H 426.194 -0.217349 1.52863 0
M  V30 4504 H 428.152 -3.12759 2.65879 0
M  V30 4505 H 426.813 -2.72495 1.56222 0
M  V30 4506 H 426.006 -3.1974 3.89592 0
M  V30 4507 H 425.608 -1.53267 3.41153 0
M  V30 4508 H 427.9 -3.8547 5.57153 0
M  V30 4509 H 428.843 -2.68713 6.55133 0
M  V30 4510 H 429.251 -2.92762 4.82649 0
M  V30 4511 N 428.649 -1.55105 -0.279332 0
M  V30 4512 C 429.926 -1.66119 -1.03267 0
M  V30 4513 C 430.306 -0.523525 -2.04505 0
M  V30 4514 O 429.654 0.477194 -2.23462 0
M  V30 4515 C 429.864 -3.05067 -1.69515 0
M  V30 4516 C 431.212 -3.62606 -2.20912 0
M  V30 4517 O 432.236 -3.07659 -1.79512 0
M  V30 4518 O 431.095 -4.58861 -2.96831 0
M  V30 4519 H 428.189 -0.674429 -0.478618 0
M  V30 4520 H 430.735 -1.67446 -0.275694 0
M  V30 4521 H 429.507 -3.79311 -0.9612 0
M  V30 4522 H 429.13 -3.07611 -2.51915 0
M  V30 4523 N 430.127 0.543554 -1.4793 0
M  V30 4524 C 431.373 1.29961 -1.56466 0
M  V30 4525 C 431.728 1.91024 -0.229696 0
M  V30 4526 O 431.021 1.75619 0.766072 0
M  V30 4527 C 431.215 2.42078 -2.62932 0
M  V30 4528 C 431.044 1.92003 -4.06651 0
M  V30 4529 C 429.814 1.75223 -4.73946 0
M  V30 4530 C 432.012 1.45648 -4.93245 0
M  V30 4531 N 429.994 1.19632 -6.02131 0
M  V30 4532 C 431.365 1.01914 -6.11566 0
M  V30 4533 C 433.42 1.33826 -4.79578 0
M  V30 4534 C 432.123 0.475301 -7.17728 0
M  V30 4535 C 434.149 0.808427 -5.85848 0
M  V30 4536 C 433.511 0.381081 -7.03368 0
M  V30 4537 H 429.61 0.467086 -0.62718 0
M  V30 4538 H 432.194 0.614543 -1.84747 0
M  V30 4539 H 430.365 3.08098 -2.36496 0
M  V30 4540 H 432.097 3.09096 -2.61231 0
M  V30 4541 H 428.852 1.98345 -4.30065 0
M  V30 4542 H 429.276 0.93885 -6.70458 0
M  V30 4543 H 433.918 1.65474 -3.89074 0
M  V30 4544 H 431.636 0.146472 -8.07967 0
M  V30 4545 H 435.222 0.720315 -5.77324 0
M  V30 4546 H 434.102 -0.0225344 -7.84197 0
M  V30 4547 N 431.605 1.3629 0.791371 0
M  V30 4548 C 432.553 1.30514 1.92533 0
M  V30 4549 C 433.547 0.197285 1.68247 0
M  V30 4550 O 434.753 0.364176 1.76278 0
M  V30 4551 H 431.128 0.406263 0.632815 0
M  V30 4552 H 433.099 2.26282 1.94523 0
M  V30 4553 C 431.848 1.10933 3.29529 0
M  V30 4554 H 431.171 1.95427 3.48781 0
M  V30 4555 H 432.611 1.10937 4.0923 0
M  V30 4556 C 431.07 -0.186123 3.36385 0
M  V30 4557 O 431.6 -1.17664 3.84081 0
M  V30 4558 N 429.806 -0.230128 2.89687 0
M  V30 4559 H 429.353 0.576545 2.51065 0
M  V30 4560 H 429.311 -1.09658 2.94657 0
M  V30 4561 N 433.083 -1.0153 1.20538 0
M  V30 4562 C 434.332 -1.74558 1.01057 0
M  V30 4563 C 434.645 -1.90168 -0.457756 0
M  V30 4564 O 435.851 -2.60301 -0.771722 0
M  V30 4565 C 434.307 -3.13963 1.75941 0
M  V30 4566 C 433.915 -3.06361 3.26875 0
M  V30 4567 C 435.659 -3.91191 1.64832 0
M  V30 4568 C 433.566 -4.40782 3.94291 0
M  V30 4569 H 432.496 -0.654417 0.374505 0
M  V30 4570 H 435.147 -1.13521 1.44171 0
M  V30 4571 H 433.529 -3.75549 1.25614 0
M  V30 4572 H 434.703 -2.54074 3.84425 0
M  V30 4573 H 433.018 -2.42625 3.38411 0
M  V30 4574 H 435.615 -4.90644 2.12539 0
M  V30 4575 H 435.958 -4.11884 0.604745 0
M  V30 4576 H 436.491 -3.36236 2.12579 0
M  V30 4577 H 433.23 -4.25292 4.98805 0
M  V30 4578 H 432.75 -4.9307 3.41529 0
M  V30 4579 H 434.429 -5.09621 3.98617 0
M  V30 4580 N 434.561 -1.01147 -1.20859 0
M  V30 4581 C 435.809 -0.696486 -1.89719 0
M  V30 4582 C 436.13 0.775788 -1.78904 0
M  V30 4583 O 435.4 1.55759 -1.18811 0
M  V30 4584 H 433.98 -0.254628 -0.702263 0
M  V30 4585 H 436.642 -1.28197 -1.46804 0
M  V30 4586 H 435.738 -0.975357 -2.96468 0
M  V30 4587 N 436.039 1.36541 -0.78704 0
M  V30 4588 C 437.455 1.52571 -0.46844 0
M  V30 4589 C 437.655 1.7415 1.01361 0
M  V30 4590 O 436.711 1.77163 1.79915 0
M  V30 4591 C 438.024 2.71299 -1.29682 0
M  V30 4592 C 439.572 2.85169 -1.29027 0
M  V30 4593 C 440.047 4.06898 -2.10233 0
M  V30 4594 N 441.538 4.1404 -2.07666 0
M  V30 4595 C 442.273 5.07301 -2.67271 0
M  V30 4596 N 441.769 6.06021 -3.35724 0
M  V30 4597 N 443.562 4.99898 -2.57018 0
M  V30 4598 H 435.713 1.20788 -1.74711 0
M  V30 4599 H 437.976 0.589364 -0.742532 0
M  V30 4600 H 437.682 2.61868 -2.34773 0
M  V30 4601 H 437.556 3.6539 -0.936479 0
M  V30 4602 H 439.943 2.94062 -0.247284 0
M  V30 4603 H 440.024 1.91992 -1.69035 0
M  V30 4604 H 439.668 3.98766 -3.1456 0
M  V30 4605 H 439.598 4.99218 -1.67597 0
M  V30 4606 H 442.089 3.43357 -1.57843 0
M  V30 4607 H 442.402 6.73741 -3.78541 0
M  V30 4608 H 440.747 6.06253 -3.39826 0
M  V30 4609 H 443.938 4.21724 -2.03142 0
M  V30 4610 H 444.111 5.72392 -3.03761 0
M  V30 4611 N 437.518 0.538854 1.48102 0
M  V30 4612 C 438.764 0.00801365 2.02798 0
M  V30 4613 C 439.097 -1.3309 1.41424 0
M  V30 4614 O 438.372 -1.86169 0.563158 0
M  V30 4615 C 438.655 -0.104589 3.59948 0
M  V30 4616 C 438.508 1.26012 4.31788 0
M  V30 4617 C 439.827 -0.827055 4.32259 0
M  V30 4618 H 436.946 0.00438624 0.736987 0
M  V30 4619 H 439.588 0.6976 1.7673 0
M  V30 4620 H 437.738 -0.691893 3.82289 0
M  V30 4621 H 439.41 1.88922 4.2084 0
M  V30 4622 H 437.653 1.83968 3.92859 0
M  V30 4623 H 438.324 1.13424 5.40221 0
M  V30 4624 H 440.8 -0.328578 4.14801 0
M  V30 4625 H 439.676 -0.87476 5.41885 0
M  V30 4626 H 439.937 -1.87927 4.0017 0
M  V30 4627 N 438.996 -1.55193 0.274407 0
M  V30 4628 C 440.242 -1.99877 -0.343086 0
M  V30 4629 C 440.575 -1.16256 -1.55558 0
M  V30 4630 O 439.85 -0.232462 -1.93106 0
M  V30 4631 C 440.133 -3.52706 -0.725965 0
M  V30 4632 C 439.986 -4.47081 0.493818 0
M  V30 4633 C 441.305 -4.11422 -1.56268 0
M  V30 4634 H 438.424 -0.726625 -0.123229 0
M  V30 4635 H 441.066 -1.86136 0.38121 0
M  V30 4636 H 439.216 -3.64546 -1.34307 0
M  V30 4637 H 440.888 -4.47186 1.13237 0
M  V30 4638 H 439.131 -4.1877 1.13201 0
M  V30 4639 H 439.802 -5.51699 0.18217 0
M  V30 4640 H 442.278 -4.02855 -1.04151 0
M  V30 4641 H 441.154 -5.18568 -1.79939 0
M  V30 4642 H 441.415 -3.61607 -2.54348 0
M  V30 4643 N 440.474 -0.00167713 -1.576 0
M  V30 4644 C 441.751 0.719951 -1.81868 0
M  V30 4645 C 442.131 1.91895 -0.879747 0
M  V30 4646 O 441.479 2.28389 0.0711423 0
M  V30 4647 C 441.689 1.12409 -3.30402 0
M  V30 4648 C 443.037 1.52724 -3.96182 0
M  V30 4649 O 444.061 1.21784 -3.34734 0
M  V30 4650 O 442.92 2.10265 -5.04431 0
M  V30 4651 H 440.014 0.350707 -0.748955 0
M  V30 4652 H 442.56 -0.0272597 -1.69678 0
M  V30 4653 H 441.332 0.269532 -3.90371 0
M  V30 4654 H 440.955 1.93035 -3.47596 0
M  V30 4655 N 441.952 1.55251 0.271103 0
M  V30 4656 C 443.182 1.79713 1.01916 0
M  V30 4657 C 443.59 0.571613 1.80359 0
M  V30 4658 O 442.933 -0.468853 1.77616 0
M  V30 4659 C 442.995 2.97138 2.02359 0
M  V30 4660 C 442.659 4.34104 1.42837 0
M  V30 4661 C 443.656 5.13019 0.843071 0
M  V30 4662 C 441.341 4.80765 1.455 0
M  V30 4663 C 443.335 6.36729 0.292333 0
M  V30 4664 C 441.022 6.0443 0.900402 0
M  V30 4665 C 442.02 6.8225 0.32007 0
M  V30 4666 O 441.708 8.03582 -0.226031 0
M  V30 4667 H 441.44 0.602431 0.306681 0
M  V30 4668 H 443.994 2.03097 0.306701 0
M  V30 4669 H 442.224 2.6945 2.77369 0
M  V30 4670 H 443.913 3.08907 2.63309 0
M  V30 4671 H 444.679 4.781 0.815178 0
M  V30 4672 H 440.558 4.20202 1.89609 0
M  V30 4673 H 444.102 6.97414 -0.161274 0
M  V30 4674 H 439.999 6.3883 0.925541 0
M  V30 4675 H 440.767 8.18418 -0.115572 0
M  V30 4676 N 443.43 -0.535701 1.48216 0
M  V30 4677 C 444.36 -1.65014 1.65204 0
M  V30 4678 C 445.341 -1.62554 0.501011 0
M  V30 4679 O 446.526 -1.7984 0.732886 0
M  V30 4680 C 443.656 -3.03616 1.68626 0
M  V30 4681 C 442.61 -3.20932 2.83172 0
M  V30 4682 C 441.936 -4.60537 2.71679 0
M  V30 4683 C 443.236 -3.04249 4.24535 0
M  V30 4684 H 444.93 -1.51053 2.58502 0
M  V30 4685 H 442.476 -0.725262 1.24402 0
M  V30 4686 H 444.429 -3.81446 1.79099 0
M  V30 4687 H 443.153 -3.18587 0.719026 0
M  V30 4688 H 441.812 -2.45517 2.72244 0
M  V30 4689 H 441.46 -4.72336 1.72937 0
M  V30 4690 H 441.16 -4.73069 3.48538 0
M  V30 4691 H 442.684 -5.40475 2.84112 0
M  V30 4692 H 444.098 -3.71877 4.36326 0
M  V30 4693 H 442.495 -3.28278 5.02348 0
M  V30 4694 H 443.565 -2.00739 4.41397 0
M  V30 4695 N 444.908 -1.36708 -0.784132 0
M  V30 4696 C 446.324 -1.17237 -1.08294 0
M  V30 4697 C 446.524 -5.93947e-05 -2.015 0
M  V30 4698 O 445.58 0.663686 -2.43622 0
M  V30 4699 C 446.893 -2.48557 -1.69233 0
M  V30 4700 C 448.441 -2.54968 -1.8155 0
M  V30 4701 C 448.916 -3.86388 -2.45904 0
M  V30 4702 N 450.407 -3.87762 -2.53367 0
M  V30 4703 C 451.142 -4.86191 -3.03983 0
M  V30 4704 N 450.638 -5.95015 -3.54866 0
M  V30 4705 N 452.431 -4.73606 -3.02743 0
M  V30 4706 H 444.582 -2.11758 -0.16501 0
M  V30 4707 H 446.845 -0.93822 -0.135822 0
M  V30 4708 H 446.551 -3.34638 -1.08215 0
M  V30 4709 H 446.425 -2.64748 -2.68679 0
M  V30 4710 H 448.812 -1.69302 -2.41704 0
M  V30 4711 H 448.893 -2.42672 -0.80895 0
M  V30 4712 H 448.537 -4.72462 -1.86392 0
M  V30 4713 H 448.467 -3.95982 -3.4714 0
M  V30 4714 H 450.958 -3.09145 -2.17343 0
M  V30 4715 H 451.271 -6.66086 -3.91854 0
M  V30 4716 H 449.616 -5.98676 -3.53003 0
M  V30 4717 H 452.807 -3.87717 -2.62284 0
M  V30 4718 H 452.98 -5.50473 -3.41881 0
M  V30 4719 N 446.386 1.0089 -1.21074 0
M  V30 4720 C 447.802 1.2695 -0.967257 0
M  V30 4721 C 448.002 1.9846 0.348673 0
M  V30 4722 O 447.058 2.28459 1.0753 0
M  V30 4723 C 448.371 2.09697 -2.15517 0
M  V30 4724 C 449.919 2.22937 -2.197 0
M  V30 4725 C 450.394 3.09064 -3.37999 0
M  V30 4726 N 451.885 3.16653 -3.38061 0
M  V30 4727 C 452.62 3.8354 -4.26245 0
M  V30 4728 N 452.116 4.52488 -5.2462 0
M  V30 4729 N 453.909 3.80141 -4.14064 0
M  V30 4730 H 446.06 0.529005 -2.05707 0
M  V30 4731 H 448.323 0.296148 -0.900556 0
M  V30 4732 H 448.029 1.64497 -3.10859 0
M  V30 4733 H 447.903 3.10444 -2.14253 0
M  V30 4734 H 450.29 2.67357 -1.24916 0
M  V30 4735 H 450.371 1.21673 -2.2501 0
M  V30 4736 H 450.015 2.65347 -4.33074 0
M  V30 4737 H 449.945 4.10433 -3.29928 0
M  V30 4738 H 452.436 2.67566 -2.66865 0
M  V30 4739 H 452.749 5.01219 -5.88217 0
M  V30 4740 H 451.094 4.51288 -5.28549 0
M  V30 4741 H 454.285 3.25427 -3.36474 0
M  V30 4742 H 454.458 4.31992 -4.82998 0
M  V30 4743 N 447.864 1.01787 1.20321 0
M  V30 4744 C 448.796 0.547357 2.22568 0
M  V30 4745 C 449.809 -0.370922 1.58518 0
M  V30 4746 O 450.998 -0.169067 1.77698 0
M  V30 4747 C 448.098 -0.223031 3.38165 0
M  V30 4748 C 447.271 0.697472 4.31803 0
M  V30 4749 C 446.33 -0.025562 5.26194 0
M  V30 4750 O 445.356 0.597367 5.66057 0
M  V30 4751 N 446.558 -1.29999 5.65757 0
M  V30 4752 H 449.323 1.42668 2.63564 0
M  V30 4753 H 446.884 0.895552 1.34876 0
M  V30 4754 H 448.876 -0.716002 3.98316 0
M  V30 4755 H 447.446 -1.00366 2.9605 0
M  V30 4756 H 446.666 1.37073 3.69601 0
M  V30 4757 H 447.954 1.32347 4.91286 0
M  V30 4758 H 447.352 -1.827 5.35385 0
M  V30 4759 H 445.909 -1.73766 6.28211 0
M  V30 4760 N 449.342 -1.36122 0.79427 0
M  V30 4761 C 450.59 -1.98718 0.368177 0
M  V30 4762 C 450.911 -1.63345 -1.06506 0
M  V30 4763 O 450.181 -0.909825 -1.73491 0
M  V30 4764 H 448.761 -0.735038 0.133146 0
M  V30 4765 H 451.423 -1.66239 1.01739 0
M  V30 4766 H 450.519 -3.08633 0.463923 0
M  V30 4767 N 450.82 -0.546701 -1.47814 0
M  V30 4768 C 451.73 0.21026 -2.33656 0
M  V30 4769 C 452.746 0.922413 -1.47538 0
M  V30 4770 O 453.922 0.893652 -1.80488 0
M  V30 4771 C 450.987 1.23348 -3.24016 0
M  V30 4772 C 450.048 0.529883 -4.26017 0
M  V30 4773 C 449.281 1.50435 -5.12059 0
M  V30 4774 O 449.504 2.73837 -5.00369 0
M  V30 4775 O 448.438 1.03459 -5.92942 0
M  V30 4776 H 452.264 -0.493605 -2.99662 0
M  V30 4777 H 449.849 -0.307427 -1.46203 0
M  V30 4778 H 451.731 1.82438 -3.79861 0
M  V30 4779 H 450.406 1.91945 -2.60651 0
M  V30 4780 H 449.313 -0.101948 -3.73961 0
M  V30 4781 H 450.646 -0.11445 -4.92067 0
M  V30 4782 N 452.299 1.55045 -0.282633 0
M  V30 4783 C 453.229 2.2579 0.595066 0
M  V30 4784 C 454.21 1.25074 1.15284 0
M  V30 4785 O 455.395 1.5381 1.18559 0
M  V30 4786 C 452.525 2.98472 1.77572 0
M  V30 4787 C 451.479 4.0618 1.34914 0
M  V30 4788 C 450.805 4.66477 2.6135 0
M  V30 4789 C 452.105 5.1996 0.493821 0
M  V30 4790 H 453.799 2.994 0.00505653 0
M  V30 4791 H 451.345 1.44 0.000992001 0
M  V30 4792 H 453.298 3.46677 2.39568 0
M  V30 4793 H 452.022 2.2241 2.39168 0
M  V30 4794 H 450.681 3.58797 0.752338 0
M  V30 4795 H 450.329 3.87074 3.2122 0
M  V30 4796 H 450.029 5.39207 2.33516 0
M  V30 4797 H 451.553 5.17435 3.24181 0
M  V30 4798 H 452.967 5.64172 1.01898 0
M  V30 4799 H 451.364 5.99299 0.310047 0
M  V30 4800 H 452.434 4.82462 -0.485593 0
M  V30 4801 N 453.777 0.010035 1.57597 0
M  V30 4802 C 455.054 -0.710296 1.82248 0
M  V30 4803 C 455.434 -1.91426 0.889911 0
M  V30 4804 O 454.782 -2.28424 -0.0590292 0
M  V30 4805 C 454.992 -1.10655 3.30993 0
M  V30 4806 C 456.34 -1.50621 3.96987 0
M  V30 4807 O 457.364 -1.20007 3.35375 0
M  V30 4808 O 456.223 -2.07587 5.05539 0
M  V30 4809 H 453.317 -0.34673 0.750804 0
M  V30 4810 H 455.863 0.0362578 1.69661 0
M  V30 4811 H 454.635 -0.248826 3.90508 0
M  V30 4812 H 454.258 -1.91189 3.48615 0
M  V30 4813 N 455.255 -1.55392 -0.262866 0
M  V30 4814 C 456.203 -1.8977 -1.345 0
M  V30 4815 C 457.197 -0.775063 -1.50629 0
M  V30 4816 O 458.403 -0.959519 -1.52293 0
M  V30 4817 H 454.778 -0.602467 -0.450041 0
M  V30 4818 H 456.749 -2.80147 -1.02762 0
M  V30 4819 C 455.498 -2.19501 -2.69657 0
M  V30 4820 H 454.821 -3.05378 -2.5804 0
M  V30 4821 H 456.261 -2.47469 -3.44289 0
M  V30 4822 C 454.72 -1.00597 -3.21531 0
M  V30 4823 O 455.25 -0.245768 -4.00947 0
M  V30 4824 N 453.456 -0.800911 -2.79345 0
M  V30 4825 H 453.003 -1.42079 -2.14875 0
M  V30 4826 H 452.961 -0.00697996 -3.14399 0
M  V30 4827 N 456.733 0.527833 -1.48498 0
M  V30 4828 C 457.961 1.30823 -1.6029 0
M  V30 4829 C 458.376 1.86945 -0.263974 0
M  V30 4830 O 457.733 1.6651 0.747034 0
M  V30 4831 C 457.784 2.45756 -2.65116 0
M  V30 4832 O 457.505 1.91946 -3.93813 0
M  V30 4833 C 459.006 3.37543 -2.87367 0
M  V30 4834 H 456.226 0.397763 -0.540394 0
M  V30 4835 H 458.77 0.636529 -1.94341 0
M  V30 4836 H 456.925 3.08806 -2.33917 0
M  V30 4837 H 457.339 2.67195 -4.51339 0
M  V30 4838 H 458.813 4.14532 -3.6451 0
M  V30 4839 H 459.29 3.92905 -1.9627 0
M  V30 4840 H 459.896 2.80283 -3.19878 0
M  V30 4841 N 458.211 1.37122 0.776871 0
M  V30 4842 C 459.458 1.32047 1.53524 0
M  V30 4843 C 459.786 -0.0965631 1.9426 0
M  V30 4844 O 459.041 -1.06866 1.63945 0
M  V30 4845 C 459.34 2.20068 2.81611 0
M  V30 4846 C 459.006 3.68423 2.59953 0
M  V30 4847 C 457.668 4.08854 2.53755 0
M  V30 4848 C 460.02 4.62431 2.40431 0
M  V30 4849 C 457.348 5.41417 2.26018 0
M  V30 4850 C 459.7 5.95225 2.14219 0
M  V30 4851 C 458.364 6.34767 2.06462 0
M  V30 4852 H 457.634 0.483196 0.561785 0
M  V30 4853 H 460.281 1.69284 0.895268 0
M  V30 4854 H 458.586 1.75809 3.50141 0
M  V30 4855 H 460.283 2.13458 3.39465 0
M  V30 4856 H 456.873 3.36354 2.65638 0
M  V30 4857 H 461.057 4.32057 2.44213 0
M  V30 4858 H 456.313 5.71022 2.18504 0
M  V30 4859 H 460.487 6.67626 1.98112 0
M  V30 4860 H 458.114 7.37413 1.84733 0
M  V30 4861 N 459.689 -1.00246 1.21608 0
M  V30 4862 C 460.935 -1.74319 1.03638 0
M  V30 4863 C 461.268 -1.89408 -0.428749 0
M  V30 4864 O 460.543 -1.43026 -1.3181 0
M  V30 4865 C 460.826 -3.15431 1.73711 0
M  V30 4866 C 460.679 -3.08049 3.27759 0
M  V30 4867 C 461.998 -4.14407 1.48173 0
M  V30 4868 H 459.117 -0.632741 0.377899 0
M  V30 4869 H 461.759 -1.16853 1.49818 0
M  V30 4870 H 459.909 -3.64493 1.34452 0
M  V30 4871 H 461.581 -2.66681 3.76403 0
M  V30 4872 H 459.824 -2.45088 3.57931 0
M  V30 4873 H 460.495 -4.07862 3.71958 0
M  V30 4874 H 462.971 -3.74061 1.82258 0
M  V30 4875 H 461.847 -5.11279 1.99713 0
M  V30 4876 H 462.108 -4.40174 0.412273 0
M  V30 4877 N 461.167 -1.02423 -1.1978 0
M  V30 4878 C 462.097 -0.62157 -2.25075 0
M  V30 4879 C 463.078 0.367148 -1.6609 0
M  V30 4880 O 464.263 0.250892 -1.92573 0
M  V30 4881 C 461.393 0.0331826 -3.47284 0
M  V30 4882 C 460.347 -0.877323 -4.18912 0
M  V30 4883 C 459.673 -0.0879296 -5.34628 0
M  V30 4884 C 460.973 -2.18892 -4.74219 0
M  V30 4885 H 462.667 -1.50179 -2.59011 0
M  V30 4886 H 460.213 -0.723547 -1.24502 0
M  V30 4887 H 462.166 0.326488 -4.20133 0
M  V30 4888 H 460.89 0.948164 -3.12534 0
M  V30 4889 H 459.549 -1.15475 -3.47938 0
M  V30 4890 H 459.197 0.828941 -4.96123 0
M  V30 4891 H 458.897 -0.694359 -5.83483 0
M  V30 4892 H 460.421 0.198743 -6.10276 0
M  V30 4893 H 461.835 -1.95746 -5.38847 0
M  V30 4894 H 460.232 -2.74686 -5.33542 0
M  V30 4895 H 461.302 -2.84674 -3.92541 0
M  V30 4896 N 462.645 1.35699 -0.801477 0
M  V30 4897 C 463.892 1.98913 -0.379459 0
M  V30 4898 C 464.22 1.63592 1.05204 0
M  V30 4899 O 463.475 0.888563 1.74365 0
M  V30 4900 C 463.774 3.53828 -0.504041 0
M  V30 4901 C 463.44 4.09002 -1.8981 0
M  V30 4902 C 462.102 4.23783 -2.27951 0
M  V30 4903 C 464.454 4.38939 -2.81038 0
M  V30 4904 C 461.782 4.65816 -3.56696 0
M  V30 4905 C 464.134 4.82409 -4.09224 0
M  V30 4906 C 462.798 4.95395 -4.4737 0
M  V30 4907 H 462.068 0.727874 -0.138854 0
M  V30 4908 H 464.715 1.61994 -1.02128 0
M  V30 4909 H 463.02 3.91175 0.221242 0
M  V30 4910 H 464.717 4.00687 -0.158361 0
M  V30 4911 H 461.307 3.97946 -1.59176 0
M  V30 4912 H 465.491 4.27077 -2.52821 0
M  V30 4913 H 460.747 4.74059 -3.86106 0
M  V30 4914 H 464.921 5.04535 -4.80018 0
M  V30 4915 H 462.548 5.27724 -5.47185 0
M  V30 4916 N 464.123 0.554532 1.47522 0
M  V30 4917 C 465.056 -0.242442 2.26908 0
M  V30 4918 C 466.034 -0.922722 1.33883 0
M  V30 4919 O 467.218 -0.942244 1.63261 0
M  V30 4920 C 464.345 -1.34525 3.10839 0
M  V30 4921 C 463.391 -0.773805 4.19422 0
M  V30 4922 S 464.224 0.377525 5.34168 0
M  V30 4923 C 465.38 -0.727164 6.21662 0
M  V30 4924 H 465.613 0.431218 2.94156 0
M  V30 4925 H 463.146 0.3408 1.50592 0
M  V30 4926 H 465.104 -1.97683 3.59766 0
M  V30 4927 H 463.765 -1.99073 2.42958 0
M  V30 4928 H 462.958 -1.60187 4.77866 0
M  V30 4929 H 462.56 -0.218448 3.73361 0
M  V30 4930 H 464.852 -1.61992 6.57849 0
M  V30 4931 H 465.795 -0.180135 7.07871 0
M  V30 4932 H 466.203 -1.01863 5.55233 0
M  V30 4933 N 465.601 -1.54893 0.290851 0
M  V30 4934 C 466.826 -2.04804 -0.32712 0
M  V30 4935 C 467.251 -1.16721 -1.47506 0
M  V30 4936 O 466.609 -0.169107 -1.8051 0
M  V30 4937 C 466.657 -3.52268 -0.770689 0
M  V30 4938 O 465.761 -3.67236 -1.87647 0
M  V30 4939 H 465.102 -0.660789 -0.0652227 0
M  V30 4940 H 467.632 -2.00036 0.429739 0
M  V30 4941 H 467.642 -3.9393 -1.06223 0
M  V30 4942 H 466.317 -4.15843 0.069096 0
M  V30 4943 H 464.894 -3.37479 -1.58626 0
M  V30 4944 N 467.08 -0.0183926 -1.57589 0
M  V30 4945 C 468.357 0.700621 -1.82622 0
M  V30 4946 C 468.737 1.90951 -0.90005 0
M  V30 4947 O 468.085 2.28452 0.0469145 0
M  V30 4948 C 468.295 1.08899 -3.31575 0
M  V30 4949 C 469.643 1.48514 -3.9778 0
M  V30 4950 O 470.667 1.18227 -3.36007 0
M  V30 4951 O 469.526 2.04903 -5.06633 0
M  V30 4952 H 466.62 0.342743 -0.752633 0
M  V30 4953 H 469.166 -0.0452548 -1.6964 0
M  V30 4954 H 467.938 0.228113 -3.90635 0
M  V30 4955 H 467.561 1.89338 -3.49624 0
M  V30 4956 N 468.558 1.5553 0.254621 0
M  V30 4957 C 469.506 1.9048 1.33492 0
M  V30 4958 C 470.5 0.78304 1.50216 0
M  V30 4959 O 471.706 0.967582 1.51782 0
M  V30 4960 H 468.081 0.604846 0.44684 0
M  V30 4961 H 470.052 2.80688 1.01275 0
M  V30 4962 C 468.801 2.20928 2.68489 0
M  V30 4963 H 468.124 3.06742 2.56417 0
M  V30 4964 H 469.564 2.49291 3.42972 0
M  V30 4965 C 468.023 1.023 3.20993 0
M  V30 4966 O 468.553 0.267027 4.00811 0
M  V30 4967 N 466.759 0.815714 2.78917 0
M  V30 4968 H 466.306 1.43217 2.14119 0
M  V30 4969 H 466.264 0.0236532 3.14391 0
M  V30 4970 N 470.036 -0.519951 1.48776 0
M  V30 4971 C 471.284 -1.2727 1.56993 0
M  V30 4972 C 471.605 -1.9339 0.25004 0
M  V30 4973 O 470.875 -1.81822 -0.729216 0
M  V30 4974 H 469.455 -0.472732 0.578389 0
M  V30 4975 H 472.117 -0.604234 1.85297 0
M  V30 4976 H 471.213 -2.04669 2.3562 0
M  V30 4977 N 471.514 -1.37532 -0.769588 0
M  V30 4978 C 472.477 -1.33292 -1.86456 0
M  V30 4979 C 473.477 -0.236537 -1.59051 0
M  V30 4980 O 474.667 -0.492511 -1.67093 0
M  V30 4981 C 471.799 -1.07118 -3.23633 0
M  V30 4982 H 472.992 -2.30692 -1.91628 0
M  V30 4983 H 470.545 -1.22593 -0.969572 0
M  V30 4984 H 471.28 -0.102578 -3.24138 0
M  V30 4985 H 471.065 -1.86479 -3.44917 0
M  V30 4986 H 472.555 -1.06806 -4.03711 0
M  V30 4987 N 472.992 0.995999 -1.22138 0
M  V30 4988 C 473.902 2.11985 -1.00496 0
M  V30 4989 C 474.918 1.7394 0.0457701 0
M  V30 4990 O 476.094 2.00868 -0.146273 0
M  V30 4991 C 473.159 3.41779 -0.582086 0
M  V30 4992 C 472.22 3.93943 -1.70608 0
M  V30 4993 C 471.453 5.17542 -1.30328 0
M  V30 4994 O 471.676 5.70114 -0.180743 0
M  V30 4995 O 470.61 5.63382 -2.11861 0
M  V30 4996 H 474.436 2.33123 -1.94647 0
M  V30 4997 H 472.021 1.10358 -1.00705 0
M  V30 4998 H 473.903 4.1989 -0.356467 0
M  V30 4999 H 472.578 3.22007 0.330592 0
M  V30 5000 H 471.485 3.17019 -1.98619 0
M  V30 5001 H 472.818 4.18141 -2.59651 0
M  V30 5002 N 474.47 1.03057 1.19235 0
M  V30 5003 C 475.718 0.726581 1.88587 0
M  V30 5004 C 476.039 -0.747227 1.80115 0
M  V30 5005 O 475.309 -1.53849 1.21274 0
M  V30 5006 H 473.889 0.265768 0.698124 0
M  V30 5007 H 476.551 1.30516 1.44746 0
M  V30 5008 H 475.647 1.0224 2.94879 0
M  V30 5009 N 475.948 -1.35272 0.808662 0
M  V30 5010 C 476.911 -2.28082 0.226093 0
M  V30 5011 C 477.911 -1.49673 -0.587762 0
M  V30 5012 O 479.101 -1.69404 -0.405943 0
M  V30 5013 C 476.233 -3.33955 -0.684596 0
M  V30 5014 H 477.426 -2.81116 1.04469 0
M  V30 5015 H 474.979 -1.45162 0.579466 0
M  V30 5016 H 475.714 -2.86111 -1.5268 0
M  V30 5017 H 475.499 -3.91965 -0.102699 0
M  V30 5018 H 476.989 -4.03219 -1.08646 0
M  V30 5019 N 477.426 -0.562348 -1.47226 0
M  V30 5020 C 478.356 0.170627 -2.32876 0
M  V30 5021 C 479.337 0.903748 -1.44106 0
M  V30 5022 O 480.522 0.883206 -1.72954 0
M  V30 5023 C 477.652 1.19786 -3.25989 0
M  V30 5024 C 476.606 0.580875 -4.2404 0
M  V30 5025 C 475.932 1.71311 -5.06514 0
M  V30 5026 C 477.232 -0.468714 -5.20193 0
M  V30 5027 H 478.926 -0.544441 -2.94408 0
M  V30 5028 H 476.472 -0.263271 -1.41573 0
M  V30 5029 H 478.425 1.71884 -3.84752 0
M  V30 5030 H 477.149 1.94294 -2.62521 0
M  V30 5031 H 475.808 0.0811538 -3.6651 0
M  V30 5032 H 475.456 2.44736 -4.39447 0
M  V30 5033 H 475.156 1.30604 -5.72902 0
M  V30 5034 H 476.68 2.23725 -5.68137 0
M  V30 5035 H 478.094 -0.0336028 -5.7329 0
M  V30 5036 H 476.491 -0.794957 -5.94811 0
M  V30 5037 H 477.561 -1.36269 -4.65359 0
M  V30 5038 N 478.904 1.54736 -0.299062 0
M  V30 5039 C 479.834 2.26409 0.571085 0
M  V30 5040 C 480.815 1.2629 1.13951 0
M  V30 5041 O 482 1.55059 1.16921 0
M  V30 5042 C 479.13 3.00338 1.74396 0
M  V30 5043 C 478.084 4.07588 1.30599 0
M  V30 5044 C 477.41 4.69222 2.56387 0
M  V30 5045 C 478.71 5.20455 0.438645 0
M  V30 5046 H 480.404 2.99388 -0.0266991 0
M  V30 5047 H 477.95 1.43993 -0.0142812 0
M  V30 5048 H 479.903 3.49198 2.35878 0
M  V30 5049 H 478.627 2.24934 2.36796 0
M  V30 5050 H 477.286 3.59575 0.71424 0
M  V30 5051 H 476.934 3.9046 3.17097 0
M  V30 5052 H 476.634 5.41653 2.27784 0
M  V30 5053 H 478.158 5.20844 3.18675 0
M  V30 5054 H 479.572 5.65221 0.959085 0
M  V30 5055 H 477.969 5.99594 0.246466 0
M  V30 5056 H 479.039 4.8192 -0.536738 0
M  V30 5057 N 480.382 0.0267497 1.57577 0
M  V30 5058 C 481.292 -0.971633 2.13533 0
M  V30 5059 C 482.308 -1.35868 1.08701 0
M  V30 5060 O 483.484 -1.44058 1.40746 0
M  V30 5061 C 480.549 -2.23622 2.64941 0
M  V30 5062 C 479.61 -1.90982 3.8448 0
M  V30 5063 C 478.843 -3.11411 4.33427 0
M  V30 5064 O 479.066 -4.23992 3.81558 0
M  V30 5065 O 478 -2.93848 5.25297 0
M  V30 5066 H 481.826 -0.525853 2.99113 0
M  V30 5067 H 479.411 -0.193712 1.48139 0
M  V30 5068 H 481.293 -2.97864 2.98086 0
M  V30 5069 H 479.968 -2.67386 1.82446 0
M  V30 5070 H 478.875 -1.14132 3.56265 0
M  V30 5071 H 480.208 -1.52036 4.6813 0
M  V30 5072 N 481.861 -1.55662 -0.24637 0
M  V30 5073 C 482.824 -1.89558 -1.28842 0
M  V30 5074 C 483.824 -0.772082 -1.41052 0
M  V30 5075 O 485.014 -1.04007 -1.39743 0
M  V30 5076 C 482.146 -2.12449 -2.66605 0
M  V30 5077 H 483.339 -2.82735 -1.00004 0
M  V30 5078 H 480.892 -1.48562 -0.485684 0
M  V30 5079 H 481.627 -1.21742 -3.00582 0
M  V30 5080 H 481.412 -2.94273 -2.59125 0
M  V30 5081 H 482.902 -2.39854 -3.41847 0
M  V30 5082 N 483.339 0.512053 -1.4905 0
M  V30 5083 C 484.586 1.26686 -1.57978 0
M  V30 5084 C 484.914 1.92733 -0.261553 0
M  V30 5085 O 484.169 1.80772 0.749667 0
M  V30 5086 C 484.468 2.36446 -2.68008 0
M  V30 5087 C 484.134 1.87932 -4.09869 0
M  V30 5088 C 482.796 1.74419 -4.48477 0
M  V30 5089 C 485.148 1.5149 -4.98698 0
M  V30 5090 C 482.476 1.22827 -5.73699 0
M  V30 5091 C 484.828 1.01355 -6.24428 0
M  V30 5092 C 483.492 0.864735 -6.61875 0
M  V30 5093 H 482.762 0.463577 -0.578081 0
M  V30 5094 H 485.409 0.569421 -1.82838 0
M  V30 5095 H 483.714 3.11933 -2.37076 0
M  V30 5096 H 485.411 2.9453 -2.72127 0
M  V30 5097 H 482.001 1.99405 -3.79389 0
M  V30 5098 H 486.185 1.60782 -4.69535 0
M  V30 5099 H 481.441 1.10008 -6.01422 0
M  V30 5100 H 485.615 0.722351 -6.92644 0
M  V30 5101 H 483.242 0.462777 -7.5879 0
M  V30 5102 N 484.817 1.37938 0.762283 0
M  V30 5103 C 486.228 1.30094 1.33912 0
M  V30 5104 C 486.579 -0.0472026 1.96143 0
M  V30 5105 O 485.704 -0.94917 1.94473 0
M  V30 5106 C 486.299 2.35592 2.43478 0
M  V30 5107 C 484.858 2.31353 2.96905 0
M  V30 5108 C 484.005 2.18919 1.70205 0
M  V30 5109 H 486.956 1.48423 0.561816 0
M  V30 5110 H 486.977 2.00806 3.23199 0
M  V30 5111 H 486.489 3.33701 1.98155 0
M  V30 5112 H 484.59 1.36799 3.46579 0
M  V30 5113 H 484.703 3.25147 3.51875 0
M  V30 5114 H 483.067 1.65624 1.93496 0
M  V30 5115 H 483.85 3.18956 1.26973 0
M  V30 5116 N 486.295 -0.989507 1.22664 0
M  V30 5117 C 487.242 -2.08024 0.999733 0
M  V30 5118 C 488.212 -1.65909 -0.0797047 0
M  V30 5119 O 489.397 -1.90669 0.0705715 0
M  V30 5120 C 486.537 -3.40067 0.587234 0
M  V30 5121 C 485.65 -3.95505 1.73781 0
M  V30 5122 C 484.785 -5.15722 1.27297 0
M  V30 5123 C 483.824 -5.63305 2.39488 0
M  V30 5124 N 482.961 -6.74758 1.94026 0
M  V30 5125 H 487.801 -2.26768 1.9334 0
M  V30 5126 H 485.338 -1.11171 0.963297 0
M  V30 5127 H 487.296 -4.15899 0.329227 0
M  V30 5128 H 485.926 -3.21314 -0.309426 0
M  V30 5129 H 484.978 -3.16513 2.11006 0
M  V30 5130 H 486.29 -4.26797 2.58158 0
M  V30 5131 H 485.444 -5.98854 0.972546 0
M  V30 5132 H 484.183 -4.86061 0.399445 0
M  V30 5133 H 483.188 -4.78759 2.70315 0
M  V30 5134 H 484.413 -5.94988 3.27362 0
M  V30 5135 H 482.359 -6.46874 1.09041 0
M  V30 5136 H 482.276 -7.05386 2.71968 0
M  V30 5137 H 483.544 -7.61387 1.67062 0
M  V30 5138 N 487.773 -1.03688 -1.18687 0
M  V30 5139 C 489.02 -0.73803 -1.88572 0
M  V30 5140 C 489.348 0.733973 -1.8012 0
M  V30 5141 O 488.603 1.55098 -1.19344 0
M  V30 5142 C 488.902 -1.14477 -3.3857 0
M  V30 5143 C 488.568 -2.61641 -3.67226 0
M  V30 5144 C 487.23 -3.01846 -3.74757 0
M  V30 5145 C 489.582 -3.56812 -3.79914 0
M  V30 5146 C 486.91 -4.36118 -3.92451 0
M  V30 5147 C 489.262 -4.90799 -3.99123 0
M  V30 5148 C 487.926 -5.3068 -4.04888 0
M  V30 5149 H 487.196 -0.270064 -0.690034 0
M  V30 5150 H 489.843 -1.3012 -1.40503 0
M  V30 5151 H 488.148 -0.500337 -3.88592 0
M  V30 5152 H 489.845 -0.89095 -3.90977 0
M  V30 5153 H 486.435 -2.29498 -3.61979 0
M  V30 5154 H 490.619 -3.26899 -3.73431 0
M  V30 5155 H 485.875 -4.66542 -3.95157 0
M  V30 5156 H 490.049 -5.64451 -4.07882 0
M  V30 5157 H 487.676 -6.34733 -4.18351 0
M  V30 5158 N 489.251 1.34841 -0.815825 0
M  V30 5159 C 490.499 1.98107 -0.399744 0
M  V30 5160 C 490.82 1.65019 1.03894 0
M  V30 5161 O 490.09 0.937311 1.72021 0
M  V30 5162 H 488.67 0.732827 -0.144823 0
M  V30 5163 H 491.332 1.64599 -1.0437 0
M  V30 5164 H 490.428 3.07856 -0.512965 0
M  V30 5165 N 490.729 0.570148 1.46925 0
M  V30 5166 C 492.14 0.1402 1.86173 0
M  V30 5167 C 492.491 -1.29347 1.47526 0
M  V30 5168 O 491.616 -1.97508 0.884292 0
M  V30 5169 C 492.211 0.247661 3.37894 0
M  V30 5170 C 490.77 -0.127332 3.76185 0
M  V30 5171 C 489.917 0.589349 2.70965 0
M  V30 5172 H 492.868 0.779117 1.38259 0
M  V30 5173 H 492.889 -0.530341 3.76786 0
M  V30 5174 H 492.401 1.29121 3.65991 0
M  V30 5175 H 490.502 -1.17149 3.53704 0
M  V30 5176 H 490.615 0.240238 4.78497 0
M  V30 5177 H 488.979 0.0309824 2.54681 0
M  V30 5178 H 489.762 1.6343 3.01903 0
M  V30 5179 N 492.207 -1.54576 0.307264 0
M  V30 5180 C 493.484 -1.92377 -0.353605 0
M  V30 5181 C 493.864 -1.23517 -1.71192 0
M  V30 5182 O 493.212 -0.373101 -2.25433 0
M  V30 5183 C 493.422 -3.45928 -0.462039 0
M  V30 5184 C 494.77 -4.18278 -0.729975 0
M  V30 5185 O 495.794 -3.51997 -0.545605 0
M  V30 5186 O 494.653 -5.3563 -1.08454 0
M  V30 5187 H 491.747 -0.802747 -0.198812 0
M  V30 5188 H 494.293 -1.65929 0.355783 0
M  V30 5189 H 493.065 -3.88187 0.492592 0
M  V30 5190 H 492.688 -3.78431 -1.21965 0
M  V30 5191 N 493.685 -0.035106 -1.57561 0
M  V30 5192 C 494.615 0.942993 -2.13612 0
M  V30 5193 C 495.596 1.33531 -1.05373 0
M  V30 5194 O 496.781 1.41287 -1.33235 0
M  V30 5195 C 493.911 2.22332 -2.66807 0
M  V30 5196 C 492.865 1.97156 -3.79886 0
M  V30 5197 C 492.191 3.31506 -4.19533 0
M  V30 5198 C 493.491 1.30596 -5.05709 0
M  V30 5199 H 495.185 0.476179 -2.95589 0
M  V30 5200 H 492.731 0.227602 -1.4219 0
M  V30 5201 H 494.684 2.91142 -3.04654 0
M  V30 5202 H 493.408 2.7119 -1.81999 0
M  V30 5203 H 492.067 1.30763 -3.42486 0
M  V30 5204 H 491.715 3.78134 -3.31698 0
M  V30 5205 H 491.415 3.15465 -4.95738 0
M  V30 5206 H 492.939 4.01574 -4.59968 0
M  V30 5207 H 494.353 1.89416 -5.41105 0
M  V30 5208 H 492.75 1.24934 -5.86951 0
M  V30 5209 H 493.82 0.279742 -4.84092 0
M  V30 5210 N 495.163 1.55791 0.238111 0
M  V30 5211 C 496.093 1.94068 1.29846 0
M  V30 5212 C 497.074 0.806726 1.49753 0
M  V30 5213 O 498.259 1.06772 1.62214 0
M  V30 5214 C 495.389 2.24302 2.65153 0
M  V30 5215 C 494.343 3.40032 2.59927 0
M  V30 5216 C 493.669 3.55829 3.99111 0
M  V30 5217 C 494.969 4.75476 2.16148 0
M  V30 5218 H 496.663 2.82887 0.980563 0
M  V30 5219 H 494.209 1.36105 0.470253 0
M  V30 5220 H 496.162 2.4967 3.39475 0
M  V30 5221 H 494.886 1.32318 2.98596 0
M  V30 5222 H 493.545 3.14687 1.88063 0
M  V30 5223 H 493.193 2.6125 4.29834 0
M  V30 5224 H 492.893 4.3366 3.96501 0
M  V30 5225 H 494.417 3.83528 4.7512 0
M  V30 5226 H 495.831 5.00158 2.80205 0
M  V30 5227 H 494.228 5.56472 2.24631 0
M  V30 5228 H 495.298 4.71946 1.11333 0
M  V30 5229 N 496.642 -0.504142 1.49319 0
M  V30 5230 C 497.89 -1.25598 1.58334 0
M  V30 5231 C 498.211 -1.93114 0.270538 0
M  V30 5232 O 497.481 -1.82585 -0.709891 0
M  V30 5233 H 496.061 -0.466571 0.58337 0
M  V30 5234 H 498.723 -0.584547 1.85928 0
M  V30 5235 H 497.819 -2.02159 2.37778 0
M  V30 5236 N 498.12 -1.38341 -0.754957 0
M  V30 5237 C 499.367 -1.34473 -1.51404 0
M  V30 5238 C 499.695 0.0656458 -1.94389 0
M  V30 5239 O 498.95 1.04244 -1.65625 0
M  V30 5240 C 499.249 -2.2452 -2.78075 0
M  V30 5241 C 498.915 -3.72512 -2.54059 0
M  V30 5242 C 497.577 -4.1284 -2.47218 0
M  V30 5243 C 499.929 -4.66197 -2.33044 0
M  V30 5244 C 497.257 -5.44945 -2.17376 0
M  V30 5245 C 499.609 -5.98558 -2.04723 0
M  V30 5246 C 498.273 -6.37972 -1.96337 0
M  V30 5247 H 497.543 -0.492072 -0.554027 0
M  V30 5248 H 500.19 -1.70687 -0.868223 0
M  V30 5249 H 498.495 -1.81357 -3.473 0
M  V30 5250 H 500.192 -2.18832 -3.36026 0
M  V30 5251 H 496.782 -3.40538 -2.60253 0
M  V30 5252 H 500.966 -4.35888 -2.37309 0
M  V30 5253 H 496.222 -5.74426 -2.09391 0
M  V30 5254 H 500.396 -6.70693 -1.87465 0
M  V30 5255 H 498.023 -7.40258 -1.72978 0
M  V30 5256 N 499.598 0.982988 -1.23187 0
M  V30 5257 C 500.528 2.09301 -1.03515 0
M  V30 5258 C 501.509 1.70035 0.0471136 0
M  V30 5259 O 502.694 1.93847 -0.117029 0
M  V30 5260 C 499.824 3.4167 -0.622791 0
M  V30 5261 C 498.778 3.94828 -1.65211 0
M  V30 5262 C 498.104 5.23362 -1.09527 0
M  V30 5263 C 499.404 4.2439 -3.04451 0
M  V30 5264 H 501.098 2.26016 -1.96359 0
M  V30 5265 H 498.644 1.08611 -0.945501 0
M  V30 5266 H 500.597 4.18746 -0.472233 0
M  V30 5267 H 499.321 3.24811 0.341329 0
M  V30 5268 H 497.98 3.19895 -1.79061 0
M  V30 5269 H 497.628 5.02852 -0.122211 0
M  V30 5270 H 497.328 5.59895 -1.783 0
M  V30 5271 H 498.852 6.03062 -0.956511 0
M  V30 5272 H 500.266 4.92225 -2.93917 0
M  V30 5273 H 498.663 4.72118 -3.70438 0
M  V30 5274 H 499.733 3.31765 -3.53638 0
M  V30 5275 N 501.076 1.04316 1.18135 0
M  V30 5276 C 502.353 0.662166 1.84051 0
M  V30 5277 C 502.733 -0.858169 1.9287 0
M  V30 5278 O 502.081 -1.76062 1.45652 0
M  V30 5279 C 502.291 1.3409 3.22212 0
M  V30 5280 C 503.639 1.4733 3.9822 0
M  V30 5281 O 504.663 1.29921 3.31661 0
M  V30 5282 O 503.522 1.75722 5.17479 0
M  V30 5283 H 500.616 0.232005 0.79379 0
M  V30 5284 H 503.162 1.1422 1.25506 0
M  V30 5285 H 501.934 2.37853 3.10711 0
M  V30 5286 H 501.557 0.849649 3.88416 0
M  V30 5287 N 502.554 -1.34406 0.822964 0
M  V30 5288 C 503.97 -1.51275 0.508727 0
M  V30 5289 C 504.17 -1.76776 -0.967083 0
M  V30 5290 O 503.226 -1.81871 -1.75155 0
M  V30 5291 C 504.539 -2.67765 1.36829 0
M  V30 5292 C 506.087 -2.81647 1.36542 0
M  V30 5293 C 506.562 -4.01181 2.20947 0
M  V30 5294 N 508.053 -4.08388 2.18571 0
M  V30 5295 C 508.788 -5.00036 2.80627 0
M  V30 5296 N 508.284 -5.96906 3.51674 0
M  V30 5297 N 510.077 -4.92908 2.70181 0
M  V30 5298 H 502.228 -1.16113 1.77852 0
M  V30 5299 H 504.491 -0.56947 0.757897 0
M  V30 5300 H 504.197 -2.55551 2.41633 0
M  V30 5301 H 504.071 -3.62779 1.03303 0
M  V30 5302 H 506.458 -2.93303 0.325163 0
M  V30 5303 H 506.539 -1.87443 1.74066 0
M  V30 5304 H 506.183 -3.90286 3.25022 0
M  V30 5305 H 506.113 -4.94599 1.80774 0
M  V30 5306 H 508.604 -3.39051 1.66891 0
M  V30 5307 H 508.917 -6.63468 3.96271 0
M  V30 5308 H 507.262 -5.9703 3.5578 0
M  V30 5309 H 510.453 -4.1619 2.14251 0
M  V30 5310 H 510.626 -5.64137 3.18831 0
M  V30 5311 N 504.032 -0.577932 -1.46621 0
M  V30 5312 C 504.982 0.178869 -2.27297 0
M  V30 5313 C 505.966 0.866279 -1.35589 0
M  V30 5314 O 507.158 0.761163 -1.59798 0
M  V30 5315 C 504.287 1.19499 -3.2183 0
M  V30 5316 C 503.373 0.50994 -4.21023 0
M  V30 5317 N 503.764 -0.43177 -5.03954 0
M  V30 5318 C 502.062 0.761287 -4.39455 0
M  V30 5319 C 502.763 -0.831693 -5.75724 0
M  V30 5320 N 501.739 -0.181897 -5.43296 0
M  V30 5321 H 505.541 -0.544859 -2.88805 0
M  V30 5322 H 503.055 -0.399373 -1.57413 0
M  V30 5323 H 505.052 1.75131 -3.78332 0
M  V30 5324 H 503.712 1.91959 -2.61881 0
M  V30 5325 H 504.723 -0.807045 -5.11573 0
M  V30 5326 H 501.4 1.47282 -3.90659 0
M  V30 5327 H 502.79 -1.6067 -6.52407 0
M  V30 5328 N 505.51 1.54411 -0.315457 0
M  V30 5329 C 506.74 2.04536 0.291315 0
M  V30 5330 C 507.148 1.19162 1.4696 0
M  V30 5331 O 506.491 0.213199 1.82459 0
M  V30 5332 C 506.553 3.5056 0.796725 0
M  V30 5333 C 506.217 4.5627 -0.258178 0
M  V30 5334 C 507.214 5.08312 -1.09153 0
M  V30 5335 C 504.899 5.00672 -0.404036 0
M  V30 5336 C 506.893 6.03312 -2.05655 0
M  V30 5337 C 504.58 5.95488 -1.37248 0
M  V30 5338 C 505.578 6.46693 -2.19721 0
M  V30 5339 O 505.266 7.39648 -3.14921 0
M  V30 5340 H 504.998 0.672856 0.0651165 0
M  V30 5341 H 507.552 2.00244 -0.457308 0
M  V30 5342 H 505.782 3.52223 1.59612 0
M  V30 5343 H 507.471 3.83804 1.32096 0
M  V30 5344 H 508.237 4.74793 -0.98979 0
M  V30 5345 H 504.116 4.60436 0.22799 0
M  V30 5346 H 507.66 6.43203 -2.70067 0
M  V30 5347 H 503.557 6.28424 -1.47489 0
M  V30 5348 H 504.325 7.57496 -3.10067 0
M  V30 5349 N 506.988 0.0434614 1.5754 0
M  V30 5350 C 508.265 -0.671479 1.83713 0
M  V30 5351 C 508.645 -1.89495 0.930315 0
M  V30 5352 O 507.993 -2.28498 -0.0105639 0
M  V30 5353 C 508.203 -1.0361 3.33266 0
M  V30 5354 C 509.551 -1.42167 4.00092 0
M  V30 5355 O 510.575 -1.12866 3.37846 0
M  V30 5356 O 509.434 -1.96817 5.09829 0
M  V30 5357 H 506.528 -0.330726 0.75799 0
M  V30 5358 H 509.074 0.0722373 1.69546 0
M  V30 5359 H 507.846 -0.165938 3.90948 0
M  V30 5360 H 507.469 -1.83751 3.52592 0
M  V30 5361 N 508.466 -1.55915 -0.229846 0
M  V30 5362 C 509.414 -1.9258 -1.30444 0
M  V30 5363 C 510.408 -0.806839 -1.48951 0
M  V30 5364 O 511.614 -0.991606 -1.50224 0
M  V30 5365 H 507.989 -0.611878 -0.437161 0
M  V30 5366 H 509.96 -2.82264 -0.96797 0
M  V30 5367 C 508.709 -2.25171 -2.6494 0
M  V30 5368 H 508.032 -3.10782 -2.51504 0
M  V30 5369 H 509.472 -2.54716 -3.38963 0
M  V30 5370 C 507.931 -1.07394 -3.19324 0
M  V30 5371 O 508.461 -0.330759 -4.00336 0
M  V30 5372 N 506.667 -0.859984 -2.77584 0
M  V30 5373 H 506.214 -1.46605 -2.11813 0
M  V30 5374 H 506.172 -0.0736671 -3.14314 0
M  V30 5375 N 509.944 0.496216 -1.49584 0
M  V30 5376 C 511.169 1.27865 -1.63295 0
M  V30 5377 C 511.594 1.85592 -0.306156 0
M  V30 5378 O 510.952 1.66092 0.726851 0
M  V30 5379 C 511 2.38128 -2.7079 0
M  V30 5380 O 510.104 3.42108 -2.30296 0
M  V30 5381 H 509.445 0.377279 -0.546403 0
M  V30 5382 H 511.975 0.593497 -1.95803 0
M  V30 5383 H 511.985 2.8382 -2.93104 0
M  V30 5384 H 510.66 1.95479 -3.67098 0
M  V30 5385 H 509.237 3.02301 -2.18331 0
M  V30 5386 N 511.423 1.38739 0.74761 0
M  V30 5387 C 512.353 1.39173 1.87492 0
M  V30 5388 C 513.334 0.256794 1.6815 0
M  V30 5389 O 514.519 0.460762 1.88655 0
M  V30 5390 C 511.649 1.22197 3.25093 0
M  V30 5391 C 510.603 2.32957 3.59047 0
M  V30 5392 C 509.929 2.01082 4.95449 0
M  V30 5393 C 511.229 3.75237 3.6331 0
M  V30 5394 H 512.923 2.3351 1.87386 0
M  V30 5395 H 510.469 1.12399 0.900134 0
M  V30 5396 H 512.422 1.21124 4.03617 0
M  V30 5397 H 511.146 0.243241 3.25693 0
M  V30 5398 H 509.805 2.33226 2.82845 0
M  V30 5399 H 509.453 1.01678 4.92616 0
M  V30 5400 H 509.153 2.75267 5.19136 0
M  V30 5401 H 510.677 2.01638 5.76346 0
M  V30 5402 H 512.091 3.76966 4.31937 0
M  V30 5403 H 510.488 4.48677 3.98509 0
M  V30 5404 H 511.558 4.07122 2.634 0
M  V30 5405 N 512.901 -0.976442 1.23707 0
M  V30 5406 C 513.811 -2.10359 1.03856 0
M  V30 5407 C 514.827 -1.73991 -0.0180919 0
M  V30 5408 O 516.003 -2.0061 0.178211 0
M  V30 5409 C 513.068 -3.40809 0.636387 0
M  V30 5410 C 512.129 -3.91179 1.76854 0
M  V30 5411 C 511.362 -5.15404 1.38546 0
M  V30 5412 O 511.585 -5.69754 0.27142 0
M  V30 5413 O 510.519 -5.5994 2.20797 0
M  V30 5414 H 514.345 -2.29997 1.98331 0
M  V30 5415 H 511.93 -1.08742 1.02448 0
M  V30 5416 H 513.812 -4.19269 0.423223 0
M  V30 5417 H 512.487 -3.22493 -0.279322 0
M  V30 5418 H 511.394 -3.13819 2.03638 0
M  V30 5419 H 512.727 -4.13958 2.6627 0
M  V30 5420 N 514.379 -1.04941 -1.1758 0
M  V30 5421 C 515.327 -0.64204 -2.23563 0
M  V30 5422 C 516.321 0.335453 -1.66045 0
M  V30 5423 O 517.527 0.20179 -1.78865 0
M  V30 5424 H 513.902 -0.18944 -0.727748 0
M  V30 5425 H 515.873 -1.54609 -2.55223 0
M  V30 5426 C 514.622 -0.0301051 -3.47687 0
M  V30 5427 H 513.945 -0.773339 -3.92249 0
M  V30 5428 H 515.385 0.217592 -4.23441 0
M  V30 5429 C 513.844 1.2225 -3.13937 0
M  V30 5430 O 514.374 2.3122 -3.28482 0
M  V30 5431 N 512.58 1.11917 -2.68185 0
M  V30 5432 H 512.127 0.232403 -2.5655 0
M  V30 5433 H 512.085 1.95814 -2.45976 0
M  V30 5434 N 515.857 1.33968 -0.830081 0
M  V30 5435 C 517.106 1.97323 -0.417928 0
M  V30 5436 C 517.419 1.6652 1.02618 0
M  V30 5437 O 518.625 2.2342 1.54259 0
M  V30 5438 C 517.081 3.53099 -0.696359 0
M  V30 5439 C 516.689 3.92788 -2.15457 0
M  V30 5440 C 518.433 4.23049 -0.350724 0
M  V30 5441 C 516.34 5.41506 -2.37751 0
M  V30 5442 H 515.27 0.738409 -0.152541 0
M  V30 5443 H 517.921 1.52711 -1.01744 0
M  V30 5444 H 516.303 3.95991 -0.0265904 0
M  V30 5445 H 517.477 3.6098 -2.86408 0
M  V30 5446 H 515.792 3.35795 -2.46232 0
M  V30 5447 H 518.389 5.32403 -0.495036 0
M  V30 5448 H 518.732 4.10279 0.705476 0
M  V30 5449 H 519.265 3.85657 -0.975362 0
M  V30 5450 H 516.004 5.5927 -3.41903 0
M  V30 5451 H 515.524 5.74804 -1.7135 0
M  V30 5452 H 517.203 6.0828 -2.20465 0
M  V30 5453 N 517.335 0.585699 1.46312 0
M  V30 5454 C 518.583 0.072278 2.01971 0
M  V30 5455 C 518.904 -1.29345 1.45928 0
M  V30 5456 O 518.174 -1.84973 0.645109 0
M  V30 5457 H 516.754 0.023729 0.746623 0
M  V30 5458 H 519.416 0.762155 1.7938 0
M  V30 5459 H 518.512 0.00552767 3.121 0
M  V30 5460 N 518.813 -1.54241 0.323641 0
M  V30 5461 C 520.229 -1.59574 -0.0290018 0
M  V30 5462 C 520.429 -1.34017 -1.50472 0
M  V30 5463 O 519.485 -1.12464 -2.26071 0
M  V30 5464 C 520.798 -2.98169 0.389295 0
M  V30 5465 C 522.346 -3.11148 0.339958 0
M  V30 5466 C 522.821 -4.5209 0.733418 0
M  V30 5467 N 524.312 -4.5808 0.686827 0
M  V30 5468 C 525.047 -5.65248 0.963464 0
M  V30 5469 N 524.543 -6.80355 1.30724 0
M  V30 5470 N 526.336 -5.55025 0.88902 0
M  V30 5471 H 518.487 -1.6911 1.28512 0
M  V30 5472 H 520.75 -0.790972 0.522558 0
M  V30 5473 H 520.456 -3.21871 1.41746 0
M  V30 5474 H 520.33 -3.76399 -0.245657 0
M  V30 5475 H 522.717 -2.87182 -0.679002 0
M  V30 5476 H 522.798 -2.35023 1.00985 0
M  V30 5477 H 522.442 -4.76788 1.75029 0
M  V30 5478 H 522.372 -5.26584 0.0412189 0
M  V30 5479 H 524.863 -3.75411 0.43298 0
M  V30 5480 H 525.176 -7.58029 1.5037 0
M  V30 5481 H 523.521 -6.81851 1.3455 0
M  V30 5482 H 526.712 -4.63977 0.619939 0
M  V30 5483 H 526.885 -6.38458 1.10797 0
M  V30 5484 N 520.291 -0.0518155 -1.57515 0
M  V30 5485 C 521.254 0.907547 -2.10467 0
M  V30 5486 C 522.254 1.23947 -1.02439 0
M  V30 5487 O 523.444 1.17604 -1.2851 0
M  V30 5488 C 520.576 2.21723 -2.58944 0
M  V30 5489 H 521.769 0.44851 -2.96527 0
M  V30 5490 H 519.322 0.196598 -1.55059 0
M  V30 5491 H 520.057 2.72206 -1.76279 0
M  V30 5492 H 519.842 1.98935 -3.37886 0
M  V30 5493 H 521.332 2.90441 -3.00056 0
M  V30 5494 N 521.769 1.56035 0.221574 0
M  V30 5495 C 522.717 1.93269 1.29421 0
M  V30 5496 C 523.711 0.814727 1.48521 0
M  V30 5497 O 524.917 0.999559 1.49696 0
M  V30 5498 H 521.292 0.614188 0.43391 0
M  V30 5499 H 523.263 2.82773 0.952987 0
M  V30 5500 C 522.012 2.26573 2.63742 0
M  V30 5501 H 521.335 3.12112 2.49853 0
M  V30 5502 H 522.775 2.5651 3.37607 0
M  V30 5503 C 521.234 1.09086 3.1875 0
M  V30 5504 O 521.764 0.351985 4.00155 0
M  V30 5505 N 519.97 0.874693 2.77124 0
M  V30 5506 H 519.517 1.47726 2.11033 0
M  V30 5507 H 519.475 0.0903349 3.1427 0
M  V30 5508 N 523.247 -0.488276 1.49845 0
M  V30 5509 C 524.472 -1.26997 1.63971 0
M  V30 5510 C 524.897 -1.85427 0.315994 0
M  V30 5511 O 524.255 -1.66475 -0.718032 0
M  V30 5512 C 524.303 -2.36689 2.72049 0
M  V30 5513 O 523.407 -3.40882 2.32107 0
M  V30 5514 H 522.748 -0.374376 0.548396 0
M  V30 5515 H 525.278 -0.583104 1.96115 0
M  V30 5516 H 525.288 -2.82262 2.94605 0
M  V30 5517 H 523.963 -1.93529 3.68129 0
M  V30 5518 H 522.54 -3.01139 2.19931 0
M  V30 5519 N 524.725 -1.39134 -0.740242 0
M  V30 5520 C 525.955 -1.39132 -1.52728 0
M  V30 5521 C 526.363 0.0173133 -1.89192 0
M  V30 5522 O 525.706 0.997715 -1.54244 0
M  V30 5523 C 525.768 -2.1952 -2.84695 0
M  V30 5524 C 525.432 -3.68203 -2.70695 0
M  V30 5525 C 526.429 -4.61401 -2.39593 0
M  V30 5526 C 524.114 -4.11724 -2.8773 0
M  V30 5527 C 526.108 -5.96102 -2.25701 0
M  V30 5528 C 523.795 -5.46503 -2.73456 0
M  V30 5529 C 524.793 -6.38506 -2.42486 0
M  V30 5530 O 524.481 -7.70803 -2.28295 0
M  V30 5531 H 524.213 -0.477263 -0.478744 0
M  V30 5532 H 526.767 -1.83504 -0.922799 0
M  V30 5533 H 524.997 -1.69888 -3.47383 0
M  V30 5534 H 526.686 -2.1176 -3.46284 0
M  V30 5535 H 527.452 -4.29079 -2.26088 0
M  V30 5536 H 523.331 -3.4045 -3.10829 0
M  V30 5537 H 526.875 -6.6788 -2.0145 0
M  V30 5538 H 522.772 -5.78417 -2.86538 0
M  V30 5539 H 523.54 -7.8147 -2.43405 0
M  V30 5540 N 526.204 0.969867 -1.24223 0
M  V30 5541 C 527.45 1.7151 -1.08223 0
M  V30 5542 C 527.783 1.90478 0.37838 0
M  V30 5543 O 527.058 1.4647 1.27971 0
M  V30 5544 C 527.341 3.10714 -1.82013 0
M  V30 5545 C 527.194 2.9925 -3.35811 0
M  V30 5546 C 528.513 4.10332 -1.59108 0
M  V30 5547 H 525.632 0.622499 -0.394543 0
M  V30 5548 H 528.274 1.1284 -1.52863 0
M  V30 5549 H 526.424 3.608 -1.44068 0
M  V30 5550 H 528.096 2.56608 -3.83341 0
M  V30 5551 H 526.339 2.35512 -3.64303 0
M  V30 5552 H 527.01 3.97857 -3.82641 0
M  V30 5553 H 529.486 3.69097 -1.92111 0
M  V30 5554 H 528.362 5.05804 -2.13198 0
M  V30 5555 H 528.623 4.38926 -0.528832 0
M  V30 5556 N 527.682 1.05563 1.17022 0
M  V30 5557 C 528.928 0.778872 1.87897 0
M  V30 5558 C 529.283 -0.686839 1.79723 0
M  V30 5559 O 528.576 -1.49612 1.19694 0
M  V30 5560 C 528.77 1.19849 3.36706 0
M  V30 5561 C 528.599 2.70345 3.59366 0
M  V30 5562 C 527.369 3.37707 3.75875 0
M  V30 5563 C 529.567 3.68564 3.58699 0
M  V30 5564 N 527.549 4.7703 3.86414 0
M  V30 5565 C 528.92 4.93634 3.75134 0
M  V30 5566 C 530.975 3.6198 3.4187 0
M  V30 5567 C 529.678 6.12907 3.76481 0
M  V30 5568 C 531.704 4.80697 3.44507 0
M  V30 5569 C 531.066 6.04592 3.61453 0
M  V30 5570 H 527.165 0.337297 0.705517 0
M  V30 5571 H 529.749 1.34832 1.40458 0
M  V30 5572 H 527.92 0.656958 3.82804 0
M  V30 5573 H 529.652 0.871172 3.95212 0
M  V30 5574 H 526.407 2.88108 3.75887 0
M  V30 5575 H 526.831 5.49483 3.95471 0
M  V30 5576 H 531.473 2.67154 3.27702 0
M  V30 5577 H 529.191 7.08073 3.89432 0
M  V30 5578 H 532.777 4.77259 3.32738 0
M  V30 5579 H 531.657 6.94916 3.63403 0
M  V30 5580 N 529.16 -1.33526 0.837174 0
M  V30 5581 C 530.39 -2.01754 0.444848 0
M  V30 5582 C 530.798 -1.63149 -0.958072 0
M  V30 5583 O 530.141 -0.839827 -1.63379 0
M  V30 5584 C 530.203 -3.56228 0.483917 0
M  V30 5585 C 529.867 -4.18205 1.84265 0
M  V30 5586 C 530.864 -4.37699 2.80563 0
M  V30 5587 C 528.549 -4.54667 2.13503 0
M  V30 5588 C 530.543 -4.928 4.04261 0
M  V30 5589 C 528.23 -5.09475 3.37458 0
M  V30 5590 C 529.228 -5.28488 4.32654 0
M  V30 5591 O 528.916 -5.82132 5.54417 0
M  V30 5592 H 528.648 -0.652928 0.175104 0
M  V30 5593 H 531.202 -1.71469 1.13082 0
M  V30 5594 H 529.432 -3.85833 -0.258826 0
M  V30 5595 H 531.121 -4.05752 0.109653 0
M  V30 5596 H 531.887 -4.0988 2.59274 0
M  V30 5597 H 527.766 -4.39164 1.40201 0
M  V30 5598 H 531.31 -5.07555 4.78574 0
M  V30 5599 H 527.207 -5.36725 3.58604 0
M  V30 5600 H 527.975 -6.00548 5.56133 0
M  V30 5601 N 530.638 -0.59345 -1.46 0
M  V30 5602 C 531.886 -0.082988 -2.0193 0
M  V30 5603 C 532.207 1.28569 -1.46612 0
M  V30 5604 O 531.477 1.84629 -0.654909 0
M  V30 5605 H 530.057 -0.0276882 -0.746487 0
M  V30 5606 H 532.719 -0.771657 -1.78973 0
M  V30 5607 H 531.815 -0.022079 -3.12092 0
M  V30 5608 N 532.116 1.54067 -0.331816 0
M  V30 5609 C 533.527 1.86059 0.15454 0
M  V30 5610 C 533.878 1.25331 1.50952 0
M  V30 5611 O 533.003 0.562441 2.08963 0
M  V30 5612 C 533.598 3.37581 0.287192 0
M  V30 5613 C 532.157 3.69493 0.717773 0
M  V30 5614 C 531.304 2.76863 -0.155569 0
M  V30 5615 H 534.255 1.48797 -0.55182 0
M  V30 5616 H 534.276 3.63744 1.11671 0
M  V30 5617 H 533.788 3.81751 -0.699131 0
M  V30 5618 H 531.889 3.3086 1.71354 0
M  V30 5619 H 532.002 4.76315 0.5158 0
M  V30 5620 H 530.366 2.51995 0.370213 0
M  V30 5621 H 531.149 3.23861 -1.13881 0
M  V30 5622 N 533.594 0.0601682 1.57485 0
M  V30 5623 C 535.01 -0.296422 1.56823 0
M  V30 5624 C 535.21 -1.70831 1.0686 0
M  V30 5625 O 534.266 -2.4174 0.729245 0
M  V30 5626 C 535.579 -0.116681 3.00474 0
M  V30 5627 C 537.127 -0.187103 3.1244 0
M  V30 5628 C 537.602 -0.035783 4.57986 0
M  V30 5629 N 539.093 -0.0917676 4.63109 0
M  V30 5630 C 539.828 0.00107251 5.734 0
M  V30 5631 N 539.324 0.146773 6.92645 0
M  V30 5632 N 541.117 -0.0551577 5.62073 0
M  V30 5633 H 533.268 0.983055 1.88281 0
M  V30 5634 H 535.531 0.382386 0.867459 0
M  V30 5635 H 535.237 0.85712 3.41096 0
M  V30 5636 H 535.111 -0.873929 3.66936 0
M  V30 5637 H 537.498 -1.15138 2.71712 0
M  V30 5638 H 537.579 0.601052 2.48638 0
M  V30 5639 H 537.223 0.925212 4.99402 0
M  V30 5640 H 537.153 -0.843196 5.19806 0
M  V30 5641 H 539.644 -0.203261 3.77353 0
M  V30 5642 H 539.957 0.210076 7.72514 0
M  V30 5643 H 538.302 0.181979 6.94762 0
M  V30 5644 H 541.493 -0.167605 4.678 0
M  V30 5645 H 541.666 0.020652 6.47997 0
M  V30 5646 N 535.072 -1.5615 -0.213296 0
M  V30 5647 C 536.318 -1.80718 -0.933402 0
M  V30 5648 C 536.673 -0.634441 -1.81639 0
M  V30 5649 O 535.966 0.371182 -1.8797 0
M  V30 5650 C 536.16 -3.08772 -1.79985 0
M  V30 5651 C 535.989 -4.38389 -1.00224 0
M  V30 5652 C 534.759 -5.00513 -0.693885 0
M  V30 5653 C 536.957 -5.13013 -0.363598 0
M  V30 5654 N 534.939 -6.13774 0.124266 0
M  V30 5655 C 536.31 -6.19186 0.31757 0
M  V30 5656 C 538.365 -4.97126 -0.277468 0
M  V30 5657 C 537.068 -7.11197 1.07664 0
M  V30 5658 C 539.094 -5.89544 0.468155 0
M  V30 5659 C 538.456 -6.95149 1.13784 0
M  V30 5660 H 534.555 -0.712833 -0.321549 0
M  V30 5661 H 537.139 -1.93633 -0.203588 0
M  V30 5662 H 535.31 -2.97126 -2.50142 0
M  V30 5663 H 537.042 -3.21499 -2.45806 0
M  V30 5664 H 533.797 -4.62619 -1.01391 0
M  V30 5665 H 534.221 -6.74981 0.522418 0
M  V30 5666 H 538.863 -4.15526 -0.78087 0
M  V30 5667 H 536.581 -7.92273 1.59153 0
M  V30 5668 H 540.167 -5.79327 0.535911 0
M  V30 5669 H 539.047 -7.65428 1.70557 0
M  V30 5670 N 536.55 0.480323 -1.50102 0
M  V30 5671 C 537.513 1.56181 -1.6775 0
M  V30 5672 C 538.513 1.51156 -0.548503 0
M  V30 5673 O 539.703 1.5394 -0.815363 0
M  V30 5674 C 536.835 2.95823 -1.69415 0
M  V30 5675 H 538.028 1.41855 -2.6423 0
M  V30 5676 H 535.581 0.70605 -1.39444 0
M  V30 5677 H 536.316 3.15604 -0.745948 0
M  V30 5678 H 536.101 3.00878 -2.51425 0
M  V30 5679 H 537.591 3.74359 -1.85054 0
M  V30 5680 N 538.028 1.39524 0.732853 0
M  V30 5681 C 538.96 1.34318 1.85718 0
M  V30 5682 C 539.973 0.251576 1.60844 0
M  V30 5683 O 541.162 0.510685 1.71039 0
M  V30 5684 C 538.262 1.06334 3.21786 0
M  V30 5685 C 537.435 2.26813 3.73998 0
M  V30 5686 C 536.494 1.95253 4.88634 0
M  V30 5687 O 535.52 2.67957 5.02183 0
M  V30 5688 N 536.722 0.919984 5.73164 0
M  V30 5689 H 539.487 2.3121 1.90688 0
M  V30 5690 H 537.048 1.33654 0.91368 0
M  V30 5691 H 539.04 0.832363 3.96048 0
M  V30 5692 H 537.61 0.181682 3.12072 0
M  V30 5693 H 536.83 2.65849 2.91064 0
M  V30 5694 H 538.118 3.0717 4.05616 0
M  V30 5695 H 537.516 0.317487 5.64808 0
M  V30 5696 H 536.073 0.748905 6.47483 0
M  V30 5697 N 539.506 -0.963266 1.24736 0
M  V30 5698 C 540.469 -2.04013 1.04457 0
M  V30 5699 C 541.469 -1.608 0.000335555 0
M  V30 5700 O 542.659 -1.72515 0.241719 0
M  V30 5701 C 539.791 -3.35858 0.584162 0
M  V30 5702 H 540.984 -2.23436 2.00041 0
M  V30 5703 H 538.537 -1.13914 1.07021 0
M  V30 5704 H 539.272 -3.22128 -0.374673 0
M  V30 5705 H 539.057 -3.68568 1.3379 0
M  V30 5706 H 540.547 -4.1502 0.463451 0
M  V30 5707 N 540.985 -1.06182 -1.16461 0
M  V30 5708 C 541.948 -0.675723 -2.19013 0
M  V30 5709 C 542.948 0.277963 -1.58379 0
M  V30 5710 O 544.138 0.0604962 -1.74095 0
M  V30 5711 C 541.27 0.00591459 -3.40899 0
M  V30 5712 H 542.463 -1.58353 -2.54685 0
M  V30 5713 H 540.016 -0.856908 -1.30716 0
M  V30 5714 H 540.751 0.92652 -3.10783 0
M  V30 5715 H 540.536 -0.67984 -3.86161 0
M  V30 5716 H 542.026 0.26181 -4.16778 0
M  V30 5717 N 542.463 1.3308 -0.844243 0
M  V30 5718 C 543.691 2.01808 -0.456203 0
M  V30 5719 C 544.106 1.63498 0.944131 0
M  V30 5720 O 543.463 0.85102 1.61443 0
M  V30 5721 C 543.514 3.56922 -0.573513 0
M  V30 5722 O 543.235 3.93851 -1.91868 0
M  V30 5723 C 544.736 4.42922 -0.183125 0
M  V30 5724 H 541.956 0.646273 -0.180477 0
M  V30 5725 H 544.5 1.69891 -1.1383 0
M  V30 5726 H 542.655 3.87352 0.0607367 0
M  V30 5727 H 543.069 4.88564 -1.90802 0
M  V30 5728 H 544.543 5.51093 -0.316241 0
M  V30 5729 H 545.02 4.30386 0.875477 0
M  V30 5730 H 545.626 4.1786 -0.792027 0
M  V30 5731 N 543.941 0.601185 1.45683 0
M  V30 5732 C 544.904 -0.111398 2.28929 0
M  V30 5733 C 545.904 -0.801246 1.39416 0
M  V30 5734 O 547.094 -0.650383 1.61603 0
M  V30 5735 C 544.226 -1.16773 3.20276 0
M  V30 5736 H 545.419 0.620412 2.93413 0
M  V30 5737 H 542.972 0.359946 1.52099 0
M  V30 5738 H 543.707 -1.93051 2.60579 0
M  V30 5739 H 543.492 -0.677358 3.86205 0
M  V30 5740 H 544.982 -1.66698 3.82886 0
M  V30 5741 N 545.419 -1.53889 0.339982 0
M  V30 5742 C 546.83 -1.86139 -0.144671 0
M  V30 5743 C 547.181 -1.2613 -1.50285 0
M  V30 5744 O 546.306 -0.573515 -2.08662 0
M  V30 5745 C 546.901 -3.37728 -0.269285 0
M  V30 5746 C 545.46 -3.69868 -0.698168 0
M  V30 5747 C 544.607 -2.76777 0.170249 0
M  V30 5748 H 547.558 -1.48503 0.559704 0
M  V30 5749 H 547.579 -3.64331 -1.0974 0
M  V30 5750 H 547.091 -3.81375 0.719366 0
M  V30 5751 H 545.192 -3.31764 -1.69597 0
M  V30 5752 H 545.305 -4.76582 -0.490533 0
M  V30 5753 H 543.669 -2.52188 -0.356844 0
M  V30 5754 H 544.452 -3.23253 1.15597 0
M  V30 5755 N 546.897 -0.0685191 -1.57451 0
M  V30 5756 C 548.122 0.613919 -1.98106 0
M  V30 5757 C 548.547 1.62551 -0.946501 0
M  V30 5758 O 547.905 1.81085 0.0882824 0
M  V30 5759 C 547.953 1.26189 -3.378 0
M  V30 5760 O 547.057 2.37773 -3.36954 0
M  V30 5761 H 546.398 0.158163 -0.644888 0
M  V30 5762 H 548.928 -0.142063 -2.04106 0
M  V30 5763 H 548.938 1.60951 -3.74912 0
M  V30 5764 H 547.613 0.520625 -4.12629 0
M  V30 5765 H 546.19 2.04829 -3.11608 0
M  V30 5766 N 548.375 1.56261 0.205012 0
M  V30 5767 C 549.791 1.49623 0.555433 0
M  V30 5768 C 549.991 0.766719 1.86343 0
M  V30 5769 O 549.047 0.313158 2.50551 0
M  V30 5770 C 550.36 2.94253 0.619347 0
M  V30 5771 C 551.908 3.04868 0.708855 0
M  V30 5772 C 552.383 4.50888 0.803969 0
M  V30 5773 N 553.874 4.54999 0.867758 0
M  V30 5774 C 554.609 5.65284 0.96135 0
M  V30 5775 N 554.105 6.85282 1.01786 0
M  V30 5776 N 555.898 5.53174 0.997771 0
M  V30 5777 H 548.049 2.0211 -0.653094 0
M  V30 5778 H 550.312 0.919333 -0.231366 0
M  V30 5779 H 550.018 3.50643 -0.272458 0
M  V30 5780 H 549.892 3.47063 1.47741 0
M  V30 5781 H 552.279 2.48532 1.5911 0
M  V30 5782 H 552.36 2.55199 -0.175205 0
M  V30 5783 H 552.004 5.07846 -0.0738798 0
M  V30 5784 H 551.934 4.98279 1.70369 0
M  V30 5785 H 554.425 3.68588 0.833735 0
M  V30 5786 H 554.738 7.65081 1.08951 0
M  V30 5787 H 553.083 6.8796 0.986706 0
M  V30 5788 H 556.274 4.5835 0.950392 0
M  V30 5789 H 556.447 6.39151 1.06725 0
M  V30 5790 N 549.853 -0.472356 1.50355 0
M  V30 5791 C 550.783 -1.57859 1.72055 0
M  V30 5792 C 551.764 -1.60283 0.569505 0
M  V30 5793 O 552.949 -1.7657 0.808503 0
M  V30 5794 C 550.079 -2.96191 1.81351 0
M  V30 5795 C 549.033 -3.08633 2.96529 0
M  V30 5796 C 548.359 -4.486 2.90968 0
M  V30 5797 C 549.659 -2.85969 4.37057 0
M  V30 5798 H 551.353 -1.39953 2.64676 0
M  V30 5799 H 548.899 -0.671846 1.27367 0
M  V30 5800 H 550.852 -3.73507 1.95117 0
M  V30 5801 H 549.576 -3.15251 0.853502 0
M  V30 5802 H 548.235 -2.33749 2.82413 0
M  V30 5803 H 547.883 -4.64577 1.92815 0
M  V30 5804 H 547.583 -4.57861 3.68289 0
M  V30 5805 H 549.107 -5.27938 3.0678 0
M  V30 5806 H 550.521 -3.53036 4.51706 0
M  V30 5807 H 548.918 -3.06677 5.15819 0
M  V30 5808 H 549.988 -1.81838 4.49514 0
M  V30 5809 N 551.331 -1.39911 -0.725443 0
M  V30 5810 C 552.561 -1.40744 -1.51244 0
M  V30 5811 C 552.969 -0.00275403 -1.892 0
M  V30 5812 O 552.312 0.981299 -1.55294 0
M  V30 5813 C 552.374 -2.22527 -2.82351 0
M  V30 5814 C 552.038 -3.71053 -2.66774 0
M  V30 5815 C 553.035 -4.63916 -2.34686 0
M  V30 5816 C 550.72 -4.14753 -2.83347 0
M  V30 5817 C 552.714 -5.98463 -2.19366 0
M  V30 5818 C 550.401 -5.49372 -2.67644 0
M  V30 5819 C 551.399 -6.41042 -2.357 0
M  V30 5820 O 551.087 -7.73181 -2.20107 0
M  V30 5821 H 550.819 -0.482314 -0.473655 0
M  V30 5822 H 553.373 -1.84472 -0.903284 0
M  V30 5823 H 551.603 -1.73563 -3.45562 0
M  V30 5824 H 553.292 -2.15421 -3.44018 0
M  V30 5825 H 554.058 -4.31453 -2.21525 0
M  V30 5826 H 549.937 -3.43728 -3.072 0
M  V30 5827 H 553.481 -6.69979 -1.94354 0
M  V30 5828 H 549.378 -5.81424 -2.80387 0
M  V30 5829 H 550.146 -7.84008 -2.35103 0
M  V30 5830 N 552.809 0.956637 -1.25245 0
M  V30 5831 C 553.756 2.053 -1.05454 0
M  V30 5832 C 554.726 1.66062 0.0356889 0
M  V30 5833 O 555.911 1.90415 -0.121099 0
M  V30 5834 C 553.051 3.38391 -0.677191 0
M  V30 5835 C 552.164 3.90758 -1.84206 0
M  V30 5836 C 551.299 5.12165 -1.40926 0
M  V30 5837 C 550.338 5.56757 -2.54338 0
M  V30 5838 N 549.475 6.69376 -2.11848 0
M  V30 5839 H 554.315 2.21562 -1.99284 0
M  V30 5840 H 551.852 1.08578 -0.992434 0
M  V30 5841 H 553.81 4.1488 -0.43938 0
M  V30 5842 H 552.44 3.22021 0.224127 0
M  V30 5843 H 551.492 3.10808 -2.19323 0
M  V30 5844 H 552.804 4.19802 -2.69383 0
M  V30 5845 H 551.958 5.96065 -1.13098 0
M  V30 5846 H 550.697 4.84832 -0.528175 0
M  V30 5847 H 549.702 4.71423 -2.82913 0
M  V30 5848 H 550.927 5.861 -3.43022 0
M  V30 5849 H 548.873 6.43756 -1.26153 0
M  V30 5850 H 548.79 6.97927 -2.90574 0
M  V30 5851 H 550.058 7.5669 -1.87191 0
M  V30 5852 N 554.287 1.06798 1.15896 0
M  V30 5853 C 555.25 0.687328 2.18651 0
M  V30 5854 C 556.25 -0.269559 1.58524 0
M  V30 5855 O 557.44 -0.0512627 1.74125 0
M  V30 5856 C 554.572 0.0121642 3.40898 0
M  V30 5857 H 555.765 1.59701 2.53842 0
M  V30 5858 H 553.318 0.863828 1.3026 0
M  V30 5859 H 554.053 -0.910025 3.1127 0
M  V30 5860 H 553.838 0.700309 3.85795 0
M  V30 5861 H 555.328 -0.239703 4.16911 0
M  V30 5862 N 555.766 -1.3263 0.851289 0
M  V30 5863 C 557.013 -1.97368 0.453023 0
M  V30 5864 C 557.341 -1.67384 -0.990596 0
M  V30 5865 O 556.596 -0.952665 -1.70947 0
M  V30 5866 C 556.895 -3.51713 0.635015 0
M  V30 5867 C 556.561 -4.01676 2.04859 0
M  V30 5868 C 555.223 -4.15031 2.43522 0
M  V30 5869 C 557.575 -4.28206 2.97135 0
M  V30 5870 C 554.903 -4.52257 3.73739 0
M  V30 5871 C 557.255 -4.66889 4.26846 0
M  V30 5872 C 555.919 -4.7845 4.65448 0
M  V30 5873 H 555.189 -0.722219 0.165773 0
M  V30 5874 H 557.836 -1.58092 1.0807 0
M  V30 5875 H 556.141 -3.91726 -0.0759081 0
M  V30 5876 H 557.838 -3.99823 0.306964 0
M  V30 5877 H 554.428 -3.91764 1.73836 0
M  V30 5878 H 558.612 -4.174 2.68498 0
M  V30 5879 H 553.868 -4.59402 4.03435 0
M  V30 5880 H 558.042 -4.86372 4.98413 0
M  V30 5881 H 555.669 -5.07052 5.66395 0
M  V30 5882 N 557.244 -0.608902 -1.45362 0
M  V30 5883 C 558.472 -0.111013 -2.06602 0
M  V30 5884 C 558.887 1.20516 -1.45332 0
M  V30 5885 O 558.244 1.73437 -0.567978 0
M  V30 5886 C 558.295 0.033688 -3.61484 0
M  V30 5887 O 558.016 -1.23041 -4.20467 0
M  V30 5888 C 559.517 0.562882 -4.39712 0
M  V30 5889 H 556.737 -0.0694453 -0.667397 0
M  V30 5890 H 559.281 -0.837008 -1.86586 0
M  V30 5891 H 557.436 0.710016 -3.80838 0
M  V30 5892 H 557.85 -1.06094 -5.13658 0
M  V30 5893 H 559.324 0.613213 -5.48583 0
M  V30 5894 H 559.801 1.58543 -4.09586 0
M  V30 5895 H 560.407 -0.0794454 -4.25226 0
M  V30 5896 N 558.722 1.53707 -0.348139 0
M  V30 5897 C 559.95 2.05406 0.248224 0
M  V30 5898 C 560.365 1.22282 1.43849 0
M  V30 5899 O 559.722 0.259244 1.80649 0
M  V30 5900 C 559.773 3.55446 0.658793 0
M  V30 5901 O 559.494 4.35417 -0.484149 0
M  V30 5902 C 560.995 4.23335 1.31539 0
M  V30 5903 H 558.215 0.669344 0.0471075 0
M  V30 5904 H 560.759 1.98257 -0.501456 0
M  V30 5905 H 558.914 3.62803 1.35841 0
M  V30 5906 H 559.328 5.24268 -0.155949 0
M  V30 5907 H 560.802 5.29692 1.55338 0
M  V30 5908 H 561.279 3.75967 2.27036 0
M  V30 5909 H 561.885 4.20184 0.657683 0
M  V30 5910 N 560.2 0.0768682 1.57412 0
M  V30 5911 C 561.132 -0.918248 2.10002 0
M  V30 5912 C 562.145 -1.25808 1.03325 0
M  V30 5913 O 563.334 -1.21438 1.30824 0
M  V30 5914 C 560.434 -2.23263 2.54964 0
M  V30 5915 C 559.607 -2.07088 3.8527 0
M  V30 5916 C 558.666 -3.21876 4.16272 0
M  V30 5917 O 557.692 -2.96643 4.8579 0
M  V30 5918 N 558.894 -4.4712 3.70221 0
M  V30 5919 H 561.659 -0.469209 2.96004 0
M  V30 5920 H 559.22 -0.108725 1.61535 0
M  V30 5921 H 561.212 -2.9897 2.72762 0
M  V30 5922 H 559.782 -2.59649 1.74072 0
M  V30 5923 H 559.002 -1.15818 3.76802 0
M  V30 5924 H 560.29 -1.93537 4.70554 0
M  V30 5925 H 559.688 -4.70506 3.1407 0
M  V30 5926 H 558.245 -5.19837 3.93209 0
M  V30 5927 N 561.678 -1.56367 -0.196722 0
M  V30 5928 C 562.926 -1.80172 -0.915554 0
M  V30 5929 C 563.247 -0.649649 -1.8386 0
M  V30 5930 O 562.517 0.332111 -1.93064 0
M  V30 5931 H 561.097 -0.664592 -0.341067 0
M  V30 5932 H 563.759 -1.93844 -0.202622 0
M  V30 5933 H 562.855 -2.7327 -1.50764 0
M  V30 5934 N 563.156 0.464375 -1.50603 0
M  V30 5935 C 564.404 1.21356 -1.61608 0
M  V30 5936 C 564.725 1.92329 -0.321643 0
M  V30 5937 O 563.995 1.84403 0.661232 0
M  V30 5938 H 562.575 0.45094 -0.595535 0
M  V30 5939 H 565.237 0.535046 -1.87412 0
M  V30 5940 H 564.333 1.95783 -2.43054 0
M  V30 5941 N 564.634 1.40294 0.718013 0
M  V30 5942 C 565.883 1.37746 1.4734 0
M  V30 5943 C 566.196 -0.0180754 1.95592 0
M  V30 5944 O 567.402 -0.166166 2.70991 0
M  V30 5945 C 565.858 2.4208 2.66318 0
M  V30 5946 C 565.466 3.87432 2.24945 0
M  V30 5947 C 567.21 2.48635 3.44065 0
M  V30 5948 C 565.117 4.83368 3.40748 0
M  V30 5949 H 564.047 0.512165 0.553356 0
M  V30 5950 H 566.698 1.66019 0.781661 0
M  V30 5951 H 565.08 2.06903 3.3765 0
M  V30 5952 H 566.254 4.3174 1.6105 0
M  V30 5953 H 564.569 3.8433 1.60249 0
M  V30 5954 H 567.166 3.17499 4.30231 0
M  V30 5955 H 567.509 1.51611 3.87711 0
M  V30 5956 H 568.042 2.82791 2.79775 0
M  V30 5957 H 564.781 5.81716 3.02136 0
M  V30 5958 H 564.301 4.43726 4.03568 0
M  V30 5959 H 565.98 5.03074 4.06848 0
M  V30 5960 N 566.112 -0.949982 1.2575 0
M  V30 5961 C 567.528 -1.22191 1.02672 0
M  V30 5962 C 567.728 -1.99898 -0.253588 0
M  V30 5963 O 566.784 -2.33329 -0.965076 0
M  V30 5964 C 568.097 -1.99175 2.25277 0
M  V30 5965 C 569.645 -2.12201 2.30087 0
M  V30 5966 C 570.12 -2.92586 3.5236 0
M  V30 5967 N 571.611 -3.00163 3.52784 0
M  V30 5968 C 572.346 -3.62766 4.44059 0
M  V30 5969 N 571.842 -4.26943 5.45611 0
M  V30 5970 N 573.635 -3.59953 4.3173 0
M  V30 5971 H 565.786 -0.430258 2.07996 0
M  V30 5972 H 568.049 -0.252844 0.91366 0
M  V30 5973 H 567.755 -1.49479 3.18354 0
M  V30 5974 H 567.629 -2.99868 2.28821 0
M  V30 5975 H 570.016 -2.61093 1.3753 0
M  V30 5976 H 570.097 -1.10799 2.30559 0
M  V30 5977 H 569.741 -2.44383 4.45241 0
M  V30 5978 H 569.671 -3.94224 3.49134 0
M  V30 5979 H 572.162 -2.54529 2.79327 0
M  V30 5980 H 572.475 -4.72583 6.11461 0
M  V30 5981 H 570.82 -4.25557 5.49478 0
M  V30 5982 H 574.011 -3.09003 3.51617 0
M  V30 5983 H 574.184 -4.08455 5.03059 0
M  V30 5984 N 567.59 -1.07411 -1.15328 0
M  V30 5985 C 568.836 -0.798831 -1.86404 0
M  V30 5986 C 569.169 0.673433 -1.8215 0
M  V30 5987 O 568.444 1.49428 -1.24505 0
M  V30 5988 C 568.727 -1.30846 -3.35487 0
M  V30 5989 C 568.58 -2.84532 -3.4837 0
M  V30 5990 C 569.899 -0.925486 -4.30259 0
M  V30 5991 H 567.018 -0.291659 -0.676834 0
M  V30 5992 H 569.66 -1.332 -1.35491 0
M  V30 5993 H 567.81 -0.854916 -3.78977 0
M  V30 5994 H 569.482 -3.3818 -3.13739 0
M  V30 5995 H 567.725 -3.22699 -2.8991 0
M  V30 5996 H 568.396 -3.15259 -4.53118 0
M  V30 5997 H 570.872 -1.3163 -3.94731 0
M  V30 5998 H 569.748 -1.3094 -5.33053 0
M  V30 5999 H 570.009 0.168525 -4.41779 0
M  V30 6000 N 569.068 1.32177 -0.85831 0
M  V30 6001 C 570.479 1.79381 -0.517621 0
M  V30 6002 C 570.83 1.70841 0.964769 0
M  V30 6003 O 569.955 1.26917 1.75274 0
M  V30 6004 C 570.55 3.25706 -0.932801 0
M  V30 6005 C 569.109 3.70851 -0.643953 0
M  V30 6006 C 568.256 2.53208 -1.13054 0
M  V30 6007 H 571.207 1.19424 -1.04516 0
M  V30 6008 H 571.228 3.79673 -0.250674 0
M  V30 6009 H 570.74 3.31889 -2.01174 0
M  V30 6010 H 568.841 3.70178 0.424112 0
M  V30 6011 H 568.954 4.63495 -1.21281 0
M  V30 6012 H 567.318 2.48676 -0.550679 0
M  V30 6013 H 568.101 2.62143 -2.21666 0
M  V30 6014 N 570.547 0.616602 1.45037 0
M  V30 6015 C 571.51 -0.0871112 2.29034 0
M  V30 6016 C 572.51 -0.786414 1.40258 0
M  V30 6017 O 573.7 -0.633207 1.62284 0
M  V30 6018 C 570.832 -1.13369 3.21497 0
M  V30 6019 H 572.025 0.651497 2.92738 0
M  V30 6020 H 569.578 0.376058 1.51709 0
M  V30 6021 H 570.313 -1.90277 2.62612 0
M  V30 6022 H 570.098 -0.636358 3.86902 0
M  V30 6023 H 571.588 -1.62627 3.84633 0
M  V30 6024 N 572.025 -1.5352 0.356285 0
M  V30 6025 C 572.955 -2.28372 -0.486661 0
M  V30 6026 C 573.936 -1.30432 -1.09185 0
M  V30 6027 O 575.121 -1.59291 -1.11085 0
M  V30 6028 C 572.251 -3.06604 -1.63129 0
M  V30 6029 C 571.205 -4.12154 -1.15381 0
M  V30 6030 C 570.531 -4.78415 -2.38796 0
M  V30 6031 C 571.831 -5.21724 -0.245179 0
M  V30 6032 H 573.525 -2.99083 0.137797 0
M  V30 6033 H 571.071 -1.43841 0.0677134 0
M  V30 6034 H 573.024 -3.57712 -2.22755 0
M  V30 6035 H 571.748 -2.33568 -2.28284 0
M  V30 6036 H 570.407 -3.61978 -0.580294 0
M  V30 6037 H 570.055 -4.01959 -3.02387 0
M  V30 6038 H 569.755 -5.49734 -2.07524 0
M  V30 6039 H 571.279 -5.32313 -2.99125 0
M  V30 6040 H 572.693 -5.68391 -0.748646 0
M  V30 6041 H 571.09 -6.00095 -0.0237608 0
M  V30 6042 H 572.16 -4.79596 0.715229 0
M  V30 6043 N 573.503 -0.0852151 -1.57369 0
M  V30 6044 C 574.749 0.581666 -1.94279 0
M  V30 6045 C 575.082 1.68444 -0.966446 0
M  V30 6046 O 574.357 1.945 0.00215277 0
M  V30 6047 C 574.64 1.14609 -3.41375 0
M  V30 6048 C 574.493 0.0490414 -4.49773 0
M  V30 6049 C 575.812 2.04751 -3.8957 0
M  V30 6050 H 572.931 0.209972 -0.706456 0
M  V30 6051 H 575.573 -0.153915 -1.89376 0
M  V30 6052 H 573.723 1.77297 -3.45685 0
M  V30 6053 H 575.395 -0.584721 -4.57579 0
M  V30 6054 H 573.638 -0.618638 -4.29366 0
M  V30 6055 H 574.309 0.484601 -5.49869 0
M  V30 6056 H 576.785 1.51981 -3.87351 0
M  V30 6057 H 575.661 2.41173 -4.93079 0
M  V30 6058 H 575.922 2.96107 -3.28288 0
M  V30 6059 N 574.981 1.5647 0.188427 0
M  V30 6060 C 576.397 1.50204 0.539532 0
M  V30 6061 C 576.597 0.78644 1.85519 0
M  V30 6062 O 575.653 0.339714 2.50204 0
M  V30 6063 C 576.966 2.94893 0.588103 0
M  V30 6064 C 578.514 3.05602 0.67648 0
M  V30 6065 C 578.989 4.51716 0.756101 0
M  V30 6066 N 580.48 4.55894 0.819451 0
M  V30 6067 C 581.215 5.66272 0.90134 0
M  V30 6068 N 580.711 6.86323 0.945118 0
M  V30 6069 N 582.504 5.54201 0.939043 0
M  V30 6070 H 574.655 2.01406 -0.674493 0
M  V30 6071 H 576.918 0.916828 -0.241103 0
M  V30 6072 H 576.624 3.50334 -0.309633 0
M  V30 6073 H 576.498 3.4861 1.44051 0
M  V30 6074 H 578.885 2.50206 1.56465 0
M  V30 6075 H 578.966 2.54999 -0.202262 0
M  V30 6076 H 578.61 5.07739 -0.12774 0
M  V30 6077 H 578.54 5.00058 1.65074 0
M  V30 6078 H 581.031 3.69452 0.794594 0
M  V30 6079 H 581.344 7.66194 1.0083 0
M  V30 6080 H 579.689 6.88968 0.913683 0
M  V30 6081 H 582.88 4.59333 0.901725 0
M  V30 6082 H 583.053 6.40247 0.999402 0
M  V30 6083 N 576.459 -0.456382 1.50847 0
M  V30 6084 C 577.689 -1.22848 1.66108 0
M  V30 6085 C 578.097 -1.85936 0.349897 0
M  V30 6086 O 577.44 -1.70664 -0.679665 0
M  V30 6087 C 577.502 -2.36722 2.70561 0
M  V30 6088 C 577.166 -1.94154 4.13707 0
M  V30 6089 C 578.163 -1.4557 4.99105 0
M  V30 6090 C 575.848 -2.02426 4.59705 0
M  V30 6091 C 577.842 -1.0582 6.28555 0
M  V30 6092 C 575.529 -1.62287 5.89157 0
M  V30 6093 C 576.527 -1.14064 6.73408 0
M  V30 6094 O 576.215 -0.744873 8.00442 0
M  V30 6095 H 575.947 -0.377105 0.561042 0
M  V30 6096 H 578.501 -0.549431 1.97915 0
M  V30 6097 H 576.731 -3.07844 2.34027 0
M  V30 6098 H 578.42 -2.98646 2.74892 0
M  V30 6099 H 579.186 -1.38589 4.64777 0
M  V30 6100 H 575.065 -2.38908 3.94264 0
M  V30 6101 H 578.609 -0.6811 6.94267 0
M  V30 6102 H 574.506 -1.68932 6.23003 0
M  V30 6103 H 575.274 -0.87242 8.13837 0
M  V30 6104 N 577.937 -1.40673 -0.710563 0
M  V30 6105 C 579.348 -1.34975 -1.28991 0
M  V30 6106 C 579.699 -0.0256272 -1.96183 0
M  V30 6107 O 578.824 0.876339 -1.97862 0
M  V30 6108 C 579.419 -2.44467 -2.34567 0
M  V30 6109 C 577.978 -2.42213 -2.88114 0
M  V30 6110 C 577.125 -2.25085 -1.61963 0
M  V30 6111 H 580.076 -1.50406 -0.506343 0
M  V30 6112 H 580.097 -2.12663 -3.15523 0
M  V30 6113 H 579.609 -3.40825 -1.85634 0
M  V30 6114 H 577.71 -1.49568 -3.41263 0
M  V30 6115 H 577.823 -3.37983 -3.39565 0
M  V30 6116 H 576.187 -1.72691 -1.87216 0
M  V30 6117 H 576.97 -3.23449 -1.15047 0
M  V30 6118 N 579.415 0.9433 -1.26252 0
M  V30 6119 C 580.831 1.21644 -1.03319 0
M  V30 6120 C 581.031 2.0003 0.242983 0
M  V30 6121 O 580.087 2.33838 0.952688 0
M  V30 6122 C 581.4 1.97978 -2.2633 0
M  V30 6123 C 582.948 2.10978 -2.31209 0
M  V30 6124 C 583.423 2.90713 -3.53907 0
M  V30 6125 N 584.914 2.98287 -3.54371 0
M  V30 6126 C 585.649 3.60406 -4.45976 0
M  V30 6127 N 585.145 4.24043 -5.47868 0
M  V30 6128 N 586.938 3.57658 -4.33633 0
M  V30 6129 H 579.089 0.419221 -2.08222 0
M  V30 6130 H 581.352 0.247995 -0.914988 0
M  V30 6131 H 581.058 1.47788 -3.19142 0
M  V30 6132 H 580.932 2.9865 -2.30408 0
M  V30 6133 H 583.319 2.6036 -1.38913 0
M  V30 6134 H 583.4 1.09575 -2.31143 0
M  V30 6135 H 583.044 2.42018 -4.46531 0
M  V30 6136 H 582.974 3.92367 -3.5122 0
M  V30 6137 H 585.465 2.53044 -2.80673 0
M  V30 6138 H 585.778 4.69334 -6.13959 0
M  V30 6139 H 584.123 4.22637 -5.51728 0
M  V30 6140 H 587.314 3.07134 -3.53251 0
M  V30 6141 H 587.487 4.05782 -5.05218 0
M  V30 6142 N 580.893 1.08022 1.14757 0
M  V30 6143 C 581.823 0.728248 2.21853 0
M  V30 6144 C 582.804 -0.287486 1.67653 0
M  V30 6145 O 583.989 -0.158727 1.9355 0
M  V30 6146 C 581.119 0.132549 3.47047 0
M  V30 6147 C 580.073 1.07619 4.14249 0
M  V30 6148 C 579.399 0.342907 5.33599 0
M  V30 6149 C 580.699 2.41268 4.63235 0
M  V30 6150 H 582.393 1.62365 2.51551 0
M  V30 6151 H 579.939 0.782125 1.20908 0
M  V30 6152 H 581.892 -0.125665 4.21213 0
M  V30 6153 H 580.616 -0.797971 3.16702 0
M  V30 6154 H 579.275 1.31944 3.42033 0
M  V30 6155 H 578.923 -0.59129 4.99513 0
M  V30 6156 H 578.623 0.971955 5.79506 0
M  V30 6157 H 580.147 0.0926538 6.1053 0
M  V30 6158 H 581.561 2.21232 5.28894 0
M  V30 6159 H 579.958 2.9983 5.19829 0
M  V30 6160 H 581.028 3.03079 3.78512 0
M  V30 6161 N 582.371 -1.3172 0.865308 0
M  V30 6162 C 583.596 -2.01591 0.487415 0
M  V30 6163 C 584.021 -1.6455 -0.911307 0
M  V30 6164 O 583.379 -0.851689 -1.6005 0
M  V30 6165 C 583.427 -3.54759 0.646401 0
M  V30 6166 O 582.531 -4.11185 -0.316284 0
M  V30 6167 H 581.872 -0.634884 0.194468 0
M  V30 6168 H 584.402 -1.68024 1.16744 0
M  V30 6169 H 584.412 -4.04438 0.537932 0
M  V30 6170 H 583.087 -3.8106 1.66632 0
M  V30 6171 H 581.664 -3.72543 -0.163162 0
M  V30 6172 N 583.85 -0.624285 -1.44708 0
M  V30 6173 C 585.266 -0.289322 -1.56956 0
M  V30 6174 C 585.466 1.20773 -1.61295 0
M  V30 6175 O 584.522 1.9915 -1.55227 0
M  V30 6176 C 585.835 -0.975215 -2.84447 0
M  V30 6177 C 587.383 -0.952709 -2.98148 0
M  V30 6178 C 587.858 -1.61893 -4.28433 0
M  V30 6179 N 589.349 -1.5852 -4.35231 0
M  V30 6180 C 590.084 -2.06969 -5.34744 0
M  V30 6181 N 589.58 -2.63579 -6.40701 0
M  V30 6182 N 591.373 -1.97638 -5.26209 0
M  V30 6183 H 583.524 -1.59612 -1.40135 0
M  V30 6184 H 585.787 -0.669592 -0.671081 0
M  V30 6185 H 585.493 -2.02999 -2.87201 0
M  V30 6186 H 585.367 -0.508749 -3.73753 0
M  V30 6187 H 587.754 0.093568 -2.94952 0
M  V30 6188 H 587.835 -1.4576 -2.10209 0
M  V30 6189 H 587.479 -2.66463 -4.32389 0
M  V30 6190 H 587.409 -1.08893 -5.15218 0
M  V30 6191 H 589.899 -1.17183 -3.59272 0
M  V30 6192 H 590.213 -2.98298 -7.12908 0
M  V30 6193 H 588.558 -2.67626 -6.41406 0
M  V30 6194 H 591.749 -1.5314 -4.42341 0
M  V30 6195 H 591.922 -2.35708 -6.03611 0
M  V30 6196 N 585.328 1.53329 -0.364422 0
M  V30 6197 C 586.26 2.23286 0.517293 0
M  V30 6198 C 587.273 1.24657 1.04711 0
M  V30 6199 O 588.462 1.50887 0.95369 0
M  V30 6200 C 585.562 2.91604 1.72685 0
M  V30 6201 C 584.735 4.1673 1.32873 0
M  V30 6202 C 583.794 4.68269 2.40022 0
M  V30 6203 O 582.82 5.31976 2.02461 0
M  V30 6204 N 584.022 4.45983 3.7159 0
M  V30 6205 H 586.787 2.99588 -0.0819391 0
M  V30 6206 H 584.348 1.60787 -0.189544 0
M  V30 6207 H 586.34 3.22992 2.4384 0
M  V30 6208 H 584.91 2.18763 2.23297 0
M  V30 6209 H 584.13 3.91657 0.447069 0
M  V30 6210 H 585.418 4.98078 1.03902 0
M  V30 6211 H 584.816 3.95077 4.04883 0
M  V30 6212 H 583.373 4.81924 4.38854 0
M  V30 6213 N 586.806 0.0935595 1.57322 0
M  V30 6214 C 588.054 -0.569383 1.93913 0
M  V30 6215 C 588.375 -1.68817 0.976009 0
M  V30 6216 O 587.645 -1.9588 0.0278099 0
M  V30 6217 H 586.225 -0.21332 0.715894 0
M  V30 6218 H 588.887 0.156531 1.9427 0
M  V30 6219 H 587.983 -0.980577 2.96296 0
M  V30 6220 N 588.284 -1.56567 -0.180126 0
M  V30 6221 C 589.247 -1.94852 -1.20686 0
M  V30 6222 C 590.247 -0.831212 -1.3765 0
M  V30 6223 O 591.437 -1.09841 -1.35206 0
M  V30 6224 C 588.569 -2.23565 -2.57355 0
M  V30 6225 H 589.762 -2.86722 -0.879225 0
M  V30 6226 H 587.315 -1.50489 -0.422237 0
M  V30 6227 H 588.05 -1.34381 -2.95148 0
M  V30 6228 H 587.835 -3.04999 -2.46411 0
M  V30 6229 H 589.325 -2.54137 -3.31367 0
M  V30 6230 N 589.762 0.448376 -1.51087 0
M  V30 6231 C 591.011 1.19561 -1.62444 0
M  V30 6232 C 591.324 1.92602 -0.341151 0
M  V30 6233 O 592.53 2.69439 -0.333936 0
M  V30 6234 C 590.986 2.17373 -2.8684 0
M  V30 6235 C 590.594 1.5003 -4.22131 0
M  V30 6236 C 592.338 2.92597 -3.0755 0
M  V30 6237 C 590.245 2.46262 -5.37689 0
M  V30 6238 H 589.175 0.449975 -0.605011 0
M  V30 6239 H 591.826 0.463735 -1.77544 0
M  V30 6240 H 590.208 2.93948 -2.65349 0
M  V30 6241 H 591.382 0.790886 -4.53962 0
M  V30 6242 H 589.697 0.870011 -4.0721 0
M  V30 6243 H 592.294 3.64663 -3.91056 0
M  V30 6244 H 592.637 3.53306 -2.20183 0
M  V30 6245 H 593.17 2.23131 -3.29329 0
M  V30 6246 H 589.909 1.90258 -6.27281 0
M  V30 6247 H 589.429 3.15289 -5.10248 0
M  V30 6248 H 591.108 3.07623 -5.6919 0
M  V30 6249 N 591.24 1.41047 0.703093 0
M  V30 6250 C 592.465 1.43537 1.49706 0
M  V30 6251 C 592.89 0.0401853 1.88057 0
M  V30 6252 O 592.248 -0.954785 1.54122 0
M  V30 6253 C 592.296 2.3433 2.74084 0
M  V30 6254 O 591.4 1.79515 3.71279 0
M  V30 6255 H 590.741 0.487454 0.450871 0
M  V30 6256 H 593.271 1.85422 0.86486 0
M  V30 6257 H 593.281 2.49947 3.22476 0
M  V30 6258 H 591.956 3.35708 2.45506 0
M  V30 6259 H 590.533 1.7331 3.30179 0
M  V30 6260 N 592.718 -0.936591 1.26751 0
M  V30 6261 C 593.668 -2.0219 1.05371 0
M  V30 6262 C 594.652 -1.60893 -0.0154112 0
M  V30 6263 O 595.844 -1.75843 0.202085 0
M  V30 6264 C 592.973 -3.36222 0.693541 0
M  V30 6265 C 592.059 -3.8399 1.80035 0
M  V30 6266 N 592.45 -4.0436 3.03852 0
M  V30 6267 C 590.748 -4.12945 1.685 0
M  V30 6268 C 591.449 -4.44 3.75818 0
M  V30 6269 N 590.425 -4.50966 3.03531 0
M  V30 6270 H 594.227 -2.15958 1.99347 0
M  V30 6271 H 591.741 -1.12277 1.17335 0
M  V30 6272 H 593.738 -4.13625 0.521513 0
M  V30 6273 H 592.398 -3.23821 -0.238693 0
M  V30 6274 H 593.409 -3.9092 3.39709 0
M  V30 6275 H 590.086 -4.09308 0.822986 0
M  V30 6276 H 591.476 -4.67914 4.82189 0
M  V30 6277 N 594.196 -1.08629 -1.14182 0
M  V30 6278 C 595.159 -0.722027 -2.1753 0
M  V30 6279 C 596.159 0.244305 -1.58933 0
M  V30 6280 O 597.349 0.0235545 -1.74184 0
M  V30 6281 C 594.481 -0.0663966 -3.40835 0
M  V30 6282 H 595.674 -1.63719 -2.51269 0
M  V30 6283 H 593.227 -0.884442 -1.28869 0
M  V30 6284 H 593.962 0.860389 -3.12678 0
M  V30 6285 H 593.747 -0.761598 -3.84632 0
M  V30 6286 H 595.237 0.173346 -4.1724 0
M  V30 6287 N 595.674 1.31259 -0.872281 0
M  V30 6288 C 596.921 1.96622 -0.484365 0
M  V30 6289 C 597.249 1.68939 0.963841 0
M  V30 6290 O 596.504 0.97974 1.6941 0
M  V30 6291 C 596.803 3.50659 -0.690889 0
M  V30 6292 C 596.469 3.98366 -2.11224 0
M  V30 6293 C 595.131 4.11104 -2.50094 0
M  V30 6294 C 597.483 4.23425 -3.0391 0
M  V30 6295 C 594.811 4.46254 -3.80887 0
M  V30 6296 C 597.163 4.60039 -4.3422 0
M  V30 6297 C 595.827 4.70984 -4.73001 0
M  V30 6298 H 595.097 0.71949 -0.177242 0
M  V30 6299 H 597.744 1.56353 -1.10571 0
M  V30 6300 H 596.049 3.91798 0.0135782 0
M  V30 6301 H 597.746 3.99284 -0.370534 0
M  V30 6302 H 594.336 3.88949 -1.80047 0
M  V30 6303 H 598.52 4.13075 -2.75104 0
M  V30 6304 H 593.776 4.52926 -4.10692 0
M  V30 6305 H 597.95 4.78381 -5.06088 0
M  V30 6306 H 595.577 4.97977 -5.7439 0
M  V30 6307 N 597.152 0.631951 1.44375 0
M  V30 6308 C 598.115 -0.0628142 2.29114 0
M  V30 6309 C 599.115 -0.771494 1.41084 0
M  V30 6310 O 600.305 -0.615959 1.62947 0
M  V30 6311 C 597.437 -1.09953 3.22681 0
M  V30 6312 H 598.63 0.682509 2.92031 0
M  V30 6313 H 596.183 0.392128 1.51301 0
M  V30 6314 H 596.918 -1.87481 2.64616 0
M  V30 6315 H 596.703 -0.595286 3.87555 0
M  V30 6316 H 598.193 -1.58538 3.86336 0
M  V30 6317 N 598.631 -1.53133 0.372548 0
M  V30 6318 C 599.859 -2.05774 -0.215515 0
M  V30 6319 C 600.274 -1.24555 -1.41886 0
M  V30 6320 O 599.631 -0.287951 -1.80214 0
M  V30 6321 C 599.682 -3.5645 -0.602161 0
M  V30 6322 O 599.403 -4.34591 0.553359 0
M  V30 6323 C 600.904 -4.25374 -1.24787 0
M  V30 6324 H 598.124 -0.670009 -0.0364529 0
M  V30 6325 H 600.668 -1.97434 0.532934 0
M  V30 6326 H 598.823 -3.64918 -1.30052 0
M  V30 6327 H 599.237 -5.23954 0.239336 0
M  V30 6328 H 600.711 -5.32097 -1.46891 0
M  V30 6329 H 601.188 -3.79531 -2.21026 0
M  V30 6330 H 601.794 -4.21177 -0.590752 0
M  V30 6331 N 600.109 -0.101901 -1.5727 0
M  V30 6332 C 601.355 0.561027 -1.94885 0
M  V30 6333 C 601.688 1.6741 -0.984258 0
M  V30 6334 O 600.963 1.94491 -0.0184767 0
M  V30 6335 C 601.246 1.10982 -3.42571 0
M  V30 6336 C 601.099 0.00133418 -4.498 0
M  V30 6337 C 602.418 2.00608 -3.9172 0
M  V30 6338 H 599.537 0.202467 -0.708644 0
M  V30 6339 H 602.179 -0.173992 -1.89202 0
M  V30 6340 H 600.329 1.73621 -3.47546 0
M  V30 6341 H 602.001 -0.63322 -4.56933 0
M  V30 6342 H 600.244 -0.664143 -4.28686 0
M  V30 6343 H 600.915 0.426253 -5.50352 0
M  V30 6344 H 603.391 1.47864 -3.88941 0
M  V30 6345 H 602.267 2.3593 -4.95609 0
M  V30 6346 H 602.528 2.92608 -3.3141 0
M  V30 6347 N 601.587 1.56661 0.17182 0
M  V30 6348 C 602.52 1.91474 1.24149 0
M  V30 6349 C 603.498 0.777485 1.42807 0
M  V30 6350 O 604.682 1.03075 1.57822 0
M  V30 6351 C 601.809 2.16523 2.60453 0
M  V30 6352 C 600.855 3.39209 2.58533 0
M  V30 6353 S 601.688 4.93594 2.07665 0
M  V30 6354 C 602.844 5.21737 3.45747 0
M  V30 6355 H 603.077 2.81903 0.944346 0
M  V30 6356 H 600.61 1.49743 0.376364 0
M  V30 6357 H 602.568 2.31635 3.38903 0
M  V30 6358 H 601.229 1.26802 2.87368 0
M  V30 6359 H 600.422 3.53935 3.58812 0
M  V30 6360 H 600.024 3.2321 1.88178 0
M  V30 6361 H 602.316 5.13684 4.41741 0
M  V30 6362 H 603.259 6.23361 3.35896 0
M  V30 6363 H 603.667 4.49307 3.41736 0
M  V30 6364 N 603.065 -0.440357 1.51323 0
M  V30 6365 C 604.342 -1.20109 1.5438 0
M  V30 6366 C 604.722 -2.08866 0.306303 0
M  V30 6367 O 604.07 -2.1723 -0.708773 0
M  V30 6368 C 604.28 -2.00555 2.8562 0
M  V30 6369 C 605.628 -2.577 3.37455 0
M  V30 6370 O 606.652 -2.10769 2.8715 0
M  V30 6371 O 605.511 -3.43289 4.25224 0
M  V30 6372 H 602.605 -0.546668 0.620551 0
M  V30 6373 H 605.151 -0.449672 1.63634 0
M  V30 6374 H 603.923 -1.35346 3.67147 0
M  V30 6375 H 603.546 -2.82768 2.79514 0
M  V30 6376 N 604.543 -1.41418 -0.695603 0
M  V30 6377 C 605.789 -1.40982 -1.4578 0
M  V30 6378 C 606.122 -0.0187763 -1.94191 0
M  V30 6379 O 605.397 0.95346 -1.69527 0
M  V30 6380 C 605.68 -2.41657 -2.66972 0
M  V30 6381 C 605.533 -3.89869 -2.24327 0
M  V30 6382 C 606.852 -2.39589 -3.69168 0
M  V30 6383 H 603.971 -0.513405 -0.528757 0
M  V30 6384 H 606.613 -1.72693 -0.792275 0
M  V30 6385 H 604.763 -2.14746 -3.23754 0
M  V30 6386 H 606.435 -4.27683 -1.72872 0
M  V30 6387 H 604.678 -4.04737 -1.56111 0
M  V30 6388 H 605.349 -4.55857 -3.11285 0
M  V30 6389 H 607.825 -2.63471 -3.2206 0
M  V30 6390 H 606.701 -3.12044 -4.51575 0
M  V30 6391 H 606.962 -1.41447 -4.18862 0
M  V30 6392 N 606.021 0.929856 -1.27246 0
M  V30 6393 C 607.249 1.71144 -1.16265 0
M  V30 6394 C 607.664 1.867 0.280786 0
M  V30 6395 O 607.021 1.38249 1.19136 0
M  V30 6396 C 607.072 3.11222 -1.83911 0
M  V30 6397 O 606.793 2.96398 -3.22614 0
M  V30 6398 C 608.294 4.05541 -1.79028 0
M  V30 6399 H 605.514 0.535499 -0.404328 0
M  V30 6400 H 608.058 1.16492 -1.68077 0
M  V30 6401 H 606.213 3.6274 -1.36009 0
M  V30 6402 H 606.627 3.8494 -3.56261 0
M  V30 6403 H 608.101 5.01351 -2.30978 0
M  V30 6404 H 608.578 4.32589 -0.759168 0
M  V30 6405 H 609.184 3.59947 -2.26535 0
M  V30 6406 N 607.499 1.09233 1.13605 0
M  V30 6407 C 608.91 0.846839 1.6639 0
M  V30 6408 C 609.261 -0.625031 1.85978 0
M  V30 6409 O 608.386 -1.48173 1.57714 0
M  V30 6410 C 608.981 1.5307 3.0225 0
M  V30 6411 C 607.54 1.33223 3.52035 0
M  V30 6412 C 606.687 1.58806 2.27323 0
M  V30 6413 H 609.638 1.25175 0.975541 0
M  V30 6414 H 609.659 0.96267 3.68121 0
M  V30 6415 H 609.171 2.60192 2.87961 0
M  V30 6416 H 607.272 0.282091 3.71531 0
M  V30 6417 H 607.385 2.0657 4.32279 0
M  V30 6418 H 605.749 1.01007 2.33815 0
M  V30 6419 H 606.532 2.67153 2.15602 0
M  V30 6420 N 608.977 -1.30795 0.87923 0
M  V30 6421 C 610.205 -2.00527 0.509548 0
M  V30 6422 C 610.62 -1.65944 -0.90045 0
M  V30 6423 O 609.977 -0.893525 -1.5913 0
M  V30 6424 C 610.028 -3.55276 0.667943 0
M  V30 6425 O 609.749 -3.88625 2.02242 0
M  V30 6426 C 611.25 -4.4228 0.300494 0
M  V30 6427 H 608.47 -0.641261 0.197549 0
M  V30 6428 H 611.014 -1.66813 1.18295 0
M  V30 6429 H 609.169 -3.87377 0.0419843 0
M  V30 6430 H 609.583 -4.83334 2.03688 0
M  V30 6431 H 611.057 -5.50061 0.462242 0
M  V30 6432 H 611.534 -4.32556 -0.76106 0
M  V30 6433 H 612.14 -4.15613 0.902536 0
M  V30 6434 N 610.455 -0.639598 -1.44038 0
M  V30 6435 C 611.385 0.0469443 -2.33453 0
M  V30 6436 C 612.366 0.82609 -1.48694 0
M  V30 6437 O 613.551 0.790285 -1.77393 0
M  V30 6438 C 610.681 1.02338 -3.3188 0
M  V30 6439 C 609.635 0.355284 -4.26523 0
M  V30 6440 C 608.961 1.44221 -5.14883 0
M  V30 6441 C 610.261 -0.743798 -5.16977 0
M  V30 6442 H 611.955 -0.699735 -2.91108 0
M  V30 6443 H 609.501 -0.337946 -1.39978 0
M  V30 6444 H 611.454 1.51247 -3.93322 0
M  V30 6445 H 610.178 1.80105 -2.72451 0
M  V30 6446 H 608.837 -0.113239 -3.66425 0
M  V30 6447 H 608.485 2.21097 -4.51802 0
M  V30 6448 H 608.185 1.00052 -5.79019 0
M  V30 6449 H 609.709 1.93295 -5.79197 0
M  V30 6450 H 611.123 -0.337444 -5.72306 0
M  V30 6451 H 609.52 -1.10914 -5.89761 0
M  V30 6452 H 610.59 -1.60745 -4.57481 0
M  V30 6453 N 611.933 1.52934 -0.380664 0
M  V30 6454 C 612.863 2.29118 0.450268 0
M  V30 6455 C 613.844 1.32153 1.07096 0
M  V30 6456 O 615.029 1.61038 1.08537 0
M  V30 6457 C 612.159 3.09161 1.58231 0
M  V30 6458 C 611.113 4.13938 1.0881 0
M  V30 6459 C 610.439 4.82153 2.31155 0
M  V30 6460 C 611.739 5.22048 0.162146 0
M  V30 6461 H 613.433 2.98826 -0.185361 0
M  V30 6462 H 610.979 1.43715 -0.0905886 0
M  V30 6463 H 612.932 3.61211 2.17036 0
M  V30 6464 H 611.656 2.3717 2.2454 0
M  V30 6465 H 610.315 3.62855 0.522633 0
M  V30 6466 H 609.963 4.06719 2.95953 0
M  V30 6467 H 609.663 5.52966 1.98752 0
M  V30 6468 H 611.187 5.37004 2.90618 0
M  V30 6469 H 612.601 5.6951 0.658126 0
M  V30 6470 H 610.998 6.00057 -0.0717122 0
M  V30 6471 H 612.068 4.78398 -0.791438 0
M  V30 6472 N 613.412 0.11024 1.57214 0
M  V30 6473 C 614.689 -0.592956 1.86396 0
M  V30 6474 C 615.069 -1.85379 1.00985 0
M  V30 6475 O 614.417 -2.28337 0.0863592 0
M  V30 6476 C 614.627 -0.893816 3.3736 0
M  V30 6477 C 615.975 -1.25069 4.05762 0
M  V30 6478 O 616.999 -0.984356 3.42329 0
M  V30 6479 O 615.858 -1.75017 5.17718 0
M  V30 6480 H 612.952 -0.29828 0.771335 0
M  V30 6481 H 615.498 0.144083 1.69087 0
M  V30 6482 H 614.27 2.6031e-05 3.913 0
M  V30 6483 H 613.893 -1.68631 3.60068 0
M  V30 6484 N 614.89 -1.56749 -0.16351 0
M  V30 6485 C 615.82 -2.00042 -1.20438 0
M  V30 6486 C 616.801 -0.877256 -1.45733 0
M  V30 6487 O 617.986 -1.1439 -1.56935 0
M  V30 6488 C 615.116 -2.36697 -2.54149 0
M  V30 6489 C 614.07 -3.52046 -2.43408 0
M  V30 6490 C 613.396 -3.74466 -3.81679 0
M  V30 6491 C 614.696 -4.85247 -1.93216 0
M  V30 6492 H 616.39 -2.87244 -0.844477 0
M  V30 6493 H 613.936 -1.38194 -0.40478 0
M  V30 6494 H 615.889 -2.65582 -3.27176 0
M  V30 6495 H 614.613 -1.46414 -2.91943 0
M  V30 6496 H 613.272 -3.23301 -1.72834 0
M  V30 6497 H 612.92 -2.81461 -4.1688 0
M  V30 6498 H 612.62 -4.52084 -3.75359 0
M  V30 6499 H 614.144 -4.0576 -4.5628 0
M  V30 6500 H 615.558 -5.12957 -2.56023 0
M  V30 6501 H 613.955 -5.66556 -1.97825 0
M  V30 6502 H 615.025 -4.7672 -0.88689 0
M  V30 6503 N 616.368 0.432326 -1.51554 0
M  V30 6504 C 617.331 1.50765 -1.72634 0
M  V30 6505 C 618.331 1.49334 -0.596314 0
M  V30 6506 O 619.521 1.51268 -0.863925 0
M  V30 6507 C 616.653 2.90284 -1.7874 0
M  V30 6508 H 617.846 1.33377 -2.68609 0
M  V30 6509 H 615.399 0.661329 -1.4162 0
M  V30 6510 H 616.134 3.13071 -0.845977 0
M  V30 6511 H 615.919 2.92727 -2.6087 0
M  V30 6512 H 617.409 3.68282 -1.96871 0
M  V30 6513 N 617.846 1.41785 0.688094 0
M  V30 6514 C 619.094 1.41264 1.4453 0
M  V30 6515 C 619.415 0.0252946 1.94984 0
M  V30 6516 O 618.685 -0.934081 1.72197 0
M  V30 6517 H 617.265 0.519998 0.536294 0
M  V30 6518 H 619.927 1.7709 0.813941 0
M  V30 6519 H 619.023 2.10439 2.30482 0
M  V30 6520 N 619.324 -0.923095 1.27737 0
M  V30 6521 C 620.57 -1.67375 1.14514 0
M  V30 6522 C 620.903 -1.91751 -0.307424 0
M  V30 6523 O 620.178 -1.51119 -1.22447 0
M  V30 6524 C 620.461 -3.03745 1.9342 0
M  V30 6525 C 620.314 -2.86581 3.46686 0
M  V30 6526 C 621.633 -4.04144 1.74228 0
M  V30 6527 H 618.752 -0.607427 0.417374 0
M  V30 6528 H 621.394 -1.07089 1.56946 0
M  V30 6529 H 619.544 -3.55204 1.5736 0
M  V30 6530 H 621.216 -2.42203 3.92601 0
M  V30 6531 H 619.459 -2.21829 3.72793 0
M  V30 6532 H 620.13 -3.83381 3.97143 0
M  V30 6533 H 622.606 -3.61712 2.05678 0
M  V30 6534 H 621.482 -4.97543 2.31824 0
M  V30 6535 H 621.743 -4.36661 0.691373 0
M  V30 6536 N 620.802 -1.09834 -1.13024 0
M  V30 6537 C 622.218 -0.828875 -1.36388 0
M  V30 6538 C 622.418 0.554756 -1.93713 0
M  V30 6539 O 621.474 1.30882 -2.15931 0
M  V30 6540 C 622.787 -1.92352 -2.3113 0
M  V30 6541 C 624.335 -1.95124 -2.44735 0
M  V30 6542 C 624.81 -3.03745 -3.42787 0
M  V30 6543 N 626.301 -3.03012 -3.5034 0
M  V30 6544 C 627.036 -3.83699 -4.26101 0
M  V30 6545 N 626.532 -4.74306 -5.04981 0
M  V30 6546 N 628.325 -3.71942 -4.21445 0
M  V30 6547 H 620.476 -1.99029 -0.74169 0
M  V30 6548 H 622.739 -0.864557 -0.388903 0
M  V30 6549 H 622.445 -2.91906 -1.96172 0
M  V30 6550 H 622.319 -1.80536 -3.3119 0
M  V30 6551 H 624.706 -0.962069 -2.78977 0
M  V30 6552 H 624.787 -2.11018 -1.44586 0
M  V30 6553 H 624.431 -4.02878 -3.09276 0
M  V30 6554 H 624.361 -2.85094 -4.42752 0
M  V30 6555 H 626.852 -2.37352 -2.94062 0
M  V30 6556 H 627.165 -5.32446 -5.60108 0
M  V30 6557 H 625.51 -4.78339 -5.04199 0
M  V30 6558 H 628.701 -3.00513 -3.589 0
M  V30 6559 H 628.874 -4.35062 -4.80235 0
M  V30 6560 N 622.28 1.30327 -0.886154 0
M  V30 6561 C 623.23 2.25668 -0.325248 0
M  V30 6562 C 624.214 1.51318 0.546972 0
M  V30 6563 O 625.406 1.72623 0.391203 0
M  V30 6564 C 622.535 3.40229 0.458167 0
M  V30 6565 C 621.621 4.21933 -0.428208 0
M  V30 6566 N 622.012 4.82129 -1.52921 0
M  V30 6567 C 620.31 4.45439 -0.223535 0
M  V30 6568 C 621.011 5.43351 -2.07714 0
M  V30 6569 N 619.987 5.26002 -1.37195 0
M  V30 6570 H 623.789 2.69759 -1.1665 0
M  V30 6571 H 621.303 1.4478 -0.735691 0
M  V30 6572 H 623.3 4.07579 0.876648 0
M  V30 6573 H 621.96 2.97678 1.29684 0
M  V30 6574 H 622.971 4.81312 -1.91205 0
M  V30 6575 H 619.648 4.13481 0.577875 0
M  V30 6576 H 621.038 6.01118 -3.00178 0
M  V30 6577 N 623.758 0.647228 1.43697 0
M  V30 6578 C 625.169 0.238689 1.85168 0
M  V30 6579 C 625.52 -1.21345 1.54175 0
M  V30 6580 O 624.645 -1.92542 0.987743 0
M  V30 6581 C 625.24 0.426422 3.36106 0
M  V30 6582 C 623.799 0.0722541 3.76331 0
M  V30 6583 C 622.946 0.732153 2.6746 0
M  V30 6584 H 625.897 0.851309 1.33934 0
M  V30 6585 H 625.918 -0.32987 3.79067 0
M  V30 6586 H 625.43 1.48339 3.58632 0
M  V30 6587 H 623.531 -0.982355 3.59417 0
M  V30 6588 H 623.644 0.493541 4.76551 0
M  V30 6589 H 622.008 0.16594 2.54159 0
M  V30 6590 H 622.791 1.79204 2.92816 0
M  V30 6591 N 625.236 -1.5273 0.388769 0
M  V30 6592 C 626.484 -2.01174 -0.193208 0
M  V30 6593 C 626.805 -1.27705 -1.47365 0
M  V30 6594 O 626.075 -0.396966 -1.91836 0
M  V30 6595 H 624.655 -0.743287 -0.0743871 0
M  V30 6596 H 627.317 -1.87826 0.520336 0
M  V30 6597 H 626.413 -3.09477 -0.403803 0
M  V30 6598 N 626.714 -0.118576 -1.57153 0
M  V30 6599 C 627.661 0.831789 -2.1529 0
M  V30 6600 C 628.631 1.26385 -1.07778 0
M  V30 6601 O 629.816 1.34144 -1.35684 0
M  V30 6602 C 626.956 2.07664 -2.75626 0
M  V30 6603 C 626.069 1.69298 -3.97444 0
M  V30 6604 C 625.204 2.88747 -4.45868 0
M  V30 6605 C 624.243 2.46619 -5.60219 0
M  V30 6606 N 623.38 3.5898 -6.03389 0
M  V30 6607 H 628.22 0.329183 -2.96176 0
M  V30 6608 H 625.757 0.150792 -1.46325 0
M  V30 6609 H 627.715 2.80601 -3.08738 0
M  V30 6610 H 626.345 2.55384 -1.97431 0
M  V30 6611 H 625.397 0.862374 -3.70496 0
M  V30 6612 H 626.709 1.34338 -4.80369 0
M  V30 6613 H 625.863 3.69909 -4.80887 0
M  V30 6614 H 624.602 3.26933 -3.61892 0
M  V30 6615 H 623.607 1.63889 -5.24805 0
M  V30 6616 H 624.832 2.0955 -6.45961 0
M  V30 6617 H 622.778 3.9684 -5.22354 0
M  V30 6618 H 622.695 3.27942 -6.81168 0
M  V30 6619 H 623.963 4.40583 -6.43045 0
M  V30 6620 N 628.193 1.56834 0.155195 0
M  V30 6621 C 629.609 1.51315 0.50755 0
M  V30 6622 C 629.809 0.825614 1.83809 0
M  V30 6623 O 628.865 0.39271 2.49427 0
M  V30 6624 C 630.178 2.96074 0.52542 0
M  V30 6625 C 631.726 3.06968 0.611505 0
M  V30 6626 C 632.201 4.53218 0.660115 0
M  V30 6627 N 633.692 4.5753 0.722564 0
M  V30 6628 C 634.427 5.68056 0.781023 0
M  V30 6629 N 633.923 6.88173 0.799327 0
M  V30 6630 N 635.716 5.56068 0.821278 0
M  V30 6631 H 627.867 1.9993 -0.717063 0
M  V30 6632 H 630.13 0.911507 -0.260496 0
M  V30 6633 H 629.836 3.49599 -0.383875 0
M  V30 6634 H 629.71 3.51587 1.36624 0
M  V30 6635 H 632.097 2.53468 1.51122 0
M  V30 6636 H 632.178 2.54513 -0.256306 0
M  V30 6637 H 631.822 5.07354 -0.23541 0
M  V30 6638 H 631.752 5.03447 1.5443 0
M  V30 6639 H 634.243 3.71054 0.716049 0
M  V30 6640 H 634.556 7.6816 0.845553 0
M  V30 6641 H 632.901 6.90751 0.767337 0
M  V30 6642 H 636.092 4.61142 0.804091 0
M  V30 6643 H 636.265 6.42223 0.863372 0
M  V30 6644 N 629.671 -0.424282 1.51781 0
M  V30 6645 C 630.917 -1.17117 1.66298 0
M  V30 6646 C 631.272 -1.88595 0.380767 0
M  V30 6647 O 630.565 -1.81151 -0.624094 0
M  V30 6648 C 630.759 -2.20418 2.81337 0
M  V30 6649 C 630.588 -1.59081 4.20622 0
M  V30 6650 C 629.358 -1.37007 4.86371 0
M  V30 6651 C 631.556 -1.05992 5.0326 0
M  V30 6652 N 629.538 -0.714049 6.09733 0
M  V30 6653 C 630.909 -0.529933 6.17731 0
M  V30 6654 C 632.964 -0.952927 4.88696 0
M  V30 6655 C 631.667 0.0965457 7.19235 0
M  V30 6656 C 633.693 -0.340325 5.9042 0
M  V30 6657 C 633.055 0.179057 7.04172 0
M  V30 6658 H 629.154 -0.41577 0.662314 0
M  V30 6659 H 631.738 -0.46579 1.89046 0
M  V30 6660 H 629.909 -2.8833 2.60231 0
M  V30 6661 H 631.641 -2.8736 2.84968 0
M  V30 6662 H 628.396 -1.63543 4.44467 0
M  V30 6663 H 628.82 -0.403101 6.75799 0
M  V30 6664 H 633.462 -1.34033 4.00993 0
M  V30 6665 H 631.18 0.496044 8.06576 0
M  V30 6666 H 634.766 -0.259266 5.81222 0
M  V30 6667 H 633.646 0.645626 7.81538 0
M  V30 6668 N 631.149 -1.42148 -0.680565 0
M  V30 6669 C 632.565 -1.24947 -0.992995 0
M  V30 6670 C 632.765 -0.149527 -2.00944 0
M  V30 6671 O 631.821 0.481145 -2.47873 0
M  V30 6672 C 633.134 -2.60426 -1.5033 0
M  V30 6673 C 634.682 -2.67733 -1.62137 0
M  V30 6674 C 635.157 -4.03564 -2.16565 0
M  V30 6675 N 636.648 -4.05488 -2.23905 0
M  V30 6676 C 637.383 -5.07401 -2.67081 0
M  V30 6677 N 636.879 -6.19698 -3.09751 0
M  V30 6678 N 638.672 -4.94758 -2.66778 0
M  V30 6679 H 630.823 -2.12399 -0.0074788 0
M  V30 6680 H 633.086 -0.94571 -0.0658529 0
M  V30 6681 H 632.792 -3.41743 -0.830947 0
M  V30 6682 H 632.666 -2.83949 -2.483 0
M  V30 6683 H 635.053 -1.86765 -2.2848 0
M  V30 6684 H 635.134 -2.48004 -0.626713 0
M  V30 6685 H 634.778 -4.84987 -1.50833 0
M  V30 6686 H 634.708 -4.20641 -3.1681 0
M  V30 6687 H 637.199 -3.24415 -1.93812 0
M  V30 6688 H 637.512 -6.93318 -3.41365 0
M  V30 6689 H 635.857 -6.23212 -3.07623 0
M  V30 6690 H 639.048 -4.06105 -2.32801 0
M  V30 6691 H 639.221 -5.74317 -3.00107 0
M  V30 6692 N 632.627 0.916307 -1.28225 0
M  V30 6693 C 633.875 1.6619 -1.15002 0
M  V30 6694 C 634.196 1.92642 0.302329 0
M  V30 6695 O 633.466 1.54076 1.20985 0
M  V30 6696 H 632.046 0.615964 -0.422608 0
M  V30 6697 H 634.708 1.09963 -1.60917 0
M  V30 6698 H 633.804 2.62533 -1.68769 0
M  V30 6699 N 634.105 1.10431 1.1244 0
M  V30 6700 C 635.521 0.836096 1.35947 0
M  V30 6701 C 635.721 -0.544475 1.94004 0
M  V30 6702 O 634.777 -1.29735 2.16622 0
M  V30 6703 C 636.09 1.93575 2.30107 0
M  V30 6704 C 637.638 1.9642 2.43697 0
M  V30 6705 C 638.113 3.05559 3.41171 0
M  V30 6706 N 639.604 3.04865 3.48728 0
M  V30 6707 C 640.339 3.85954 4.24061 0
M  V30 6708 N 639.835 4.76977 5.02458 0
M  V30 6709 N 641.628 3.74172 4.19466 0
M  V30 6710 H 633.779 1.9942 0.731124 0
M  V30 6711 H 636.042 0.866607 0.384312 0
M  V30 6712 H 635.748 2.92943 1.94621 0
M  V30 6713 H 635.622 1.8229 3.30227 0
M  V30 6714 H 638.009 0.97685 2.78463 0
M  V30 6715 H 638.09 2.11782 1.43465 0
M  V30 6716 H 637.734 4.04513 3.07135 0
M  V30 6717 H 637.664 2.87438 4.41234 0
M  V30 6718 H 640.155 2.38908 2.92799 0
M  V30 6719 H 640.468 5.35409 5.57277 0
M  V30 6720 H 638.813 4.81006 5.01655 0
M  V30 6721 H 642.004 3.02412 3.57302 0
M  V30 6722 H 642.177 4.37602 4.77921 0
M  V30 6723 N 635.583 -1.29855 0.893053 0
M  V30 6724 C 636.493 -2.31661 0.370157 0
M  V30 6725 C 637.509 -1.65677 -0.531723 0
M  V30 6726 O 638.685 -1.9691 -0.422902 0
M  V30 6727 C 635.75 -3.44388 -0.399741 0
M  V30 6728 C 634.811 -4.2598 0.532861 0
M  V30 6729 C 634.044 -5.33324 -0.200388 0
M  V30 6730 O 634.267 -5.52305 -1.42531 0
M  V30 6731 O 633.201 -6.00188 0.453668 0
M  V30 6732 H 637.027 -2.78354 1.2146 0
M  V30 6733 H 634.612 -1.34171 0.657153 0
M  V30 6734 H 636.494 -4.13037 -0.835358 0
M  V30 6735 H 635.169 -2.99815 -1.22035 0
M  V30 6736 H 634.076 -3.59998 1.01746 0
M  V30 6737 H 635.409 -4.74178 1.3197 0
M  V30 6738 N 637.061 -0.65484 -1.43351 0
M  V30 6739 C 638.31 -0.166215 -2.01014 0
M  V30 6740 C 638.623 1.22764 -1.52278 0
M  V30 6741 O 639.829 1.81156 -2.02224 0
M  V30 6742 C 638.285 -0.246341 -3.59056 0
M  V30 6743 C 637.893 -1.64299 -4.16785 0
M  V30 6744 C 639.637 0.184597 -4.24098 0
M  V30 6745 C 637.544 -1.67695 -5.67126 0
M  V30 6746 H 636.474 -0.0583769 -0.751737 0
M  V30 6747 H 639.125 -0.817111 -1.64303 0
M  V30 6748 H 637.507 0.472092 -3.93176 0
M  V30 6749 H 638.681 -2.3869 -3.94162 0
M  V30 6750 H 636.996 -2.02004 -3.6412 0
M  V30 6751 H 639.593 0.179088 -5.344 0
M  V30 6752 H 639.936 1.21632 -3.98135 0
M  V30 6753 H 640.469 -0.482141 -3.94867 0
M  V30 6754 H 637.208 -2.68783 -5.9786 0
M  V30 6755 H 636.728 -0.976313 -5.91801 0
M  V30 6756 H 638.407 -1.42142 -6.31193 0
M  V30 6757 N 638.539 1.52521 -0.396863 0
M  V30 6758 C 639.502 2.2527 0.422604 0
M  V30 6759 C 640.502 1.27184 0.983913 0
M  V30 6760 O 641.692 1.51222 0.864723 0
M  V30 6761 C 638.824 3.01356 1.59365 0
M  V30 6762 H 640.017 2.99133 -0.214416 0
M  V30 6763 H 637.57 1.55587 -0.149128 0
M  V30 6764 H 638.305 2.31813 2.26789 0
M  V30 6765 H 638.09 3.73357 1.19779 0
M  V30 6766 H 639.58 3.56571 2.17363 0
M  V30 6767 N 640.017 0.126909 1.57088 0
M  V30 6768 C 640.927 -0.833867 2.1928 0
M  V30 6769 C 641.943 -1.2868 1.17122 0
M  V30 6770 O 643.119 -1.34815 1.49622 0
M  V30 6771 C 640.184 -2.0632 2.78627 0
M  V30 6772 C 639.245 -1.66143 3.95847 0
M  V30 6773 C 638.478 -2.83217 4.52354 0
M  V30 6774 O 638.701 -3.98868 4.0775 0
M  V30 6775 O 637.635 -2.59846 5.42922 0
M  V30 6776 H 641.461 -0.334564 3.01852 0
M  V30 6777 H 639.046 -0.0991091 1.49071 0
M  V30 6778 H 640.928 -2.78304 3.16425 0
M  V30 6779 H 639.603 -2.55242 1.99082 0
M  V30 6780 H 638.51 -0.912435 3.62802 0
M  V30 6781 H 639.843 -1.21957 4.76852 0
M  V30 6782 N 641.495 -1.56914 -0.146875 0
M  V30 6783 C 642.906 -1.72799 -0.706928 0
M  V30 6784 C 643.257 -0.741329 -1.81656 0
M  V30 6785 O 642.382 0.0920162 -2.16204 0
M  V30 6786 C 642.977 -3.13317 -1.28911 0
M  V30 6787 C 641.536 -3.30803 -1.79573 0
M  V30 6788 C 640.683 -2.68725 -0.684252 0
M  V30 6789 H 643.634 -1.58504 0.0787931 0
M  V30 6790 H 643.655 -3.13323 -2.15891 0
M  V30 6791 H 643.167 -3.85104 -0.481284 0
M  V30 6792 H 641.268 -2.64012 -2.62923 0
M  V30 6793 H 641.381 -4.38754 -1.92436 0
M  V30 6794 H 639.745 -2.29196 -1.11091 0
M  V30 6795 H 640.528 -3.43117 0.112134 0
M  V30 6796 N 642.974 0.416227 -1.52004 0
M  V30 6797 C 644.39 0.754319 -1.40649 0
M  V30 6798 C 644.59 1.95059 -0.505392 0
M  V30 6799 O 643.646 2.5248 0.0315057 0
M  V30 6800 C 644.959 1.0149 -2.83055 0
M  V30 6801 C 646.507 1.11805 -2.9235 0
M  V30 6802 C 646.982 1.41144 -4.35709 0
M  V30 6803 N 648.473 1.48024 -4.38911 0
M  V30 6804 C 649.208 1.72338 -5.46889 0
M  V30 6805 N 648.704 1.94303 -6.64995 0
M  V30 6806 N 650.497 1.74294 -5.34395 0
M  V30 6807 H 642.648 -0.371324 -2.09129 0
M  V30 6808 H 644.911 -0.103811 -0.942299 0
M  V30 6809 H 644.617 0.208345 -3.51082 0
M  V30 6810 H 644.491 1.93697 -3.23668 0
M  V30 6811 H 646.878 1.91521 -2.24508 0
M  V30 6812 H 646.959 0.17451 -2.55204 0
M  V30 6813 H 646.603 0.619484 -5.04108 0
M  V30 6814 H 646.533 2.36739 -4.70385 0
M  V30 6815 H 649.024 1.32868 -3.53772 0
M  V30 6816 H 649.337 2.12286 -7.43071 0
M  V30 6817 H 647.682 1.91582 -6.68073 0
M  V30 6818 H 650.873 1.56667 -4.41104 0
M  V30 6819 H 651.046 1.92904 -6.18621 0
M  V30 6820 N 644.452 1.42507 0.673017 0
M  V30 6821 C 645.7 1.42789 1.43023 0
M  V30 6822 C 646.021 0.0459738 1.94946 0
M  V30 6823 O 645.291 -0.915765 1.73178 0
M  V30 6824 H 643.871 0.525657 0.530748 0
M  V30 6825 H 646.533 1.77944 0.795113 0
M  V30 6826 H 645.629 2.12872 2.28237 0
M  V30 6827 N 645.93 -0.909495 1.28709 0
M  V30 6828 C 647.346 -1.18862 1.06508 0
M  V30 6829 C 647.546 -2.00604 -0.189864 0
M  V30 6830 O 646.602 -2.36281 -0.890355 0
M  V30 6831 C 647.915 -1.91908 2.31499 0
M  V30 6832 C 649.463 -2.04773 2.36721 0
M  V30 6833 C 649.938 -2.81228 3.6149 0
M  V30 6834 N 651.429 -2.88787 3.62155 0
M  V30 6835 C 652.164 -3.48455 4.55375 0
M  V30 6836 N 651.66 -4.09369 5.58918 0
M  V30 6837 N 653.453 -3.46035 4.42963 0
M  V30 6838 H 645.604 -0.363867 2.0926 0
M  V30 6839 H 647.867 -0.223649 0.921241 0
M  V30 6840 H 647.573 -1.39275 3.22948 0
M  V30 6841 H 647.447 -2.92436 2.38245 0
M  V30 6842 H 649.834 -2.56585 1.45767 0
M  V30 6843 H 649.915 -1.03408 2.33967 0
M  V30 6844 H 649.559 -2.30094 4.5279 0
M  V30 6845 H 649.489 -3.82917 3.61499 0
M  V30 6846 H 651.98 -2.45514 2.87283 0
M  V30 6847 H 652.293 -4.52891 6.26187 0
M  V30 6848 H 650.638 -4.0786 5.62739 0
M  V30 6849 H 653.829 -2.9766 3.6127 0
M  V30 6850 H 654.002 -3.92244 5.15799 0
M  V30 6851 N 647.408 -1.11026 -1.11852 0
M  V30 6852 C 648.633 -0.879064 -1.87849 0
M  V30 6853 C 649.058 0.565406 -1.79401 0
M  V30 6854 O 648.416 1.39886 -1.15333 0
M  V30 6855 C 648.464 -1.33985 -3.34784 0
M  V30 6856 O 647.568 -0.508803 -4.09249 0
M  V30 6857 H 646.909 -0.316992 -0.583448 0
M  V30 6858 H 649.439 -1.47863 -1.41413 0
M  V30 6859 H 649.449 -1.33248 -3.85628 0
M  V30 6860 H 648.124 -2.39172 -3.40249 0
M  V30 6861 H 646.701 -0.581913 -3.68332 0
M  V30 6862 N 648.886 1.2938 -0.899927 0
M  V30 6863 C 650.132 1.96206 -0.536153 0
M  V30 6864 C 650.487 1.69647 0.90761 0
M  V30 6865 O 649.78 0.999089 1.63489 0
M  V30 6866 C 649.974 3.49114 -0.765113 0
M  V30 6867 C 649.803 3.90538 -2.22958 0
M  V30 6868 C 648.573 4.15395 -2.87706 0
M  V30 6869 C 650.771 4.0224 -3.20479 0
M  V30 6870 N 648.753 4.43389 -4.24593 0
M  V30 6871 C 650.124 4.34288 -4.42486 0
M  V30 6872 C 652.179 3.84716 -3.16066 0
M  V30 6873 C 650.882 4.50638 -5.6064 0
M  V30 6874 C 652.908 4.02276 -4.33507 0
M  V30 6875 C 652.27 4.34684 -5.54283 0
M  V30 6876 H 648.369 0.742364 -0.245804 0
M  V30 6877 H 650.953 1.56314 -1.16078 0
M  V30 6878 H 649.124 3.88028 -0.169861 0
M  V30 6879 H 650.856 4.03035 -0.366751 0
M  V30 6880 H 647.611 4.09164 -2.385 0
M  V30 6881 H 648.035 4.61494 -4.95331 0
M  V30 6882 H 652.677 3.58724 -2.23778 0
M  V30 6883 H 650.395 4.75467 -6.5342 0
M  V30 6884 H 653.981 3.90169 -4.31578 0
M  V30 6885 H 652.861 4.47988 -6.43643 0
M  V30 6886 N 650.364 0.662433 1.43002 0
M  V30 6887 C 651.294 -0.00979809 2.33498 0
M  V30 6888 C 652.275 -0.802329 1.49989 0
M  V30 6889 O 653.46 -0.761964 1.78627 0
M  V30 6890 C 650.59 -0.970446 3.33466 0
M  V30 6891 C 649.544 -0.287383 4.27034 0
M  V30 6892 C 648.87 -1.36012 5.17112 0
M  V30 6893 C 650.17 0.82595 5.15728 0
M  V30 6894 H 651.864 0.745959 2.89958 0
M  V30 6895 H 649.41 0.360172 1.39423 0
M  V30 6896 H 651.363 -1.44971 3.95679 0
M  V30 6897 H 650.087 -1.75748 2.75282 0
M  V30 6898 H 648.746 0.17152 3.66199 0
M  V30 6899 H 648.394 -2.13882 4.55262 0
M  V30 6900 H 648.094 -0.908276 5.80538 0
M  V30 6901 H 649.618 -1.84056 5.82199 0
M  V30 6902 H 651.032 0.42845 5.71697 0
M  V30 6903 H 649.429 1.20282 5.87922 0
M  V30 6904 H 650.499 1.68003 4.54866 0
M  V30 6905 N 651.842 -1.52309 0.404946 0
M  V30 6906 C 653.09 -2.01368 -0.17186 0
M  V30 6907 C 653.411 -1.29261 -1.46002 0
M  V30 6908 O 652.681 -0.41729 -1.91404 0
M  V30 6909 H 651.261 -0.744034 -0.0664993 0
M  V30 6910 H 653.923 -1.87263 0.540228 0
M  V30 6911 H 653.019 -3.09888 -0.370957 0
M  V30 6912 N 653.32 -0.135238 -1.57019 0
M  V30 6913 C 654.566 0.513232 -1.96818 0
M  V30 6914 C 654.921 1.63245 -1.01827 0
M  V30 6915 O 654.214 1.91532 -0.0511756 0
M  V30 6916 C 654.408 1.07694 -3.40788 0
M  V30 6917 C 654.237 0.0138667 -4.49698 0
M  V30 6918 C 653.007 -0.423532 -5.03522 0
M  V30 6919 C 655.205 -0.77322 -5.08454 0
M  V30 6920 N 653.187 -1.47068 -5.96024 0
M  V30 6921 C 654.558 -1.67115 -5.97053 0
M  V30 6922 C 656.613 -0.822313 -4.91063 0
M  V30 6923 C 655.316 -2.61395 -6.70123 0
M  V30 6924 C 657.342 -1.75288 -5.64826 0
M  V30 6925 C 656.704 -2.63836 -6.53123 0
M  V30 6926 H 652.803 0.156956 -0.766087 0
M  V30 6927 H 655.387 -0.227118 -1.93371 0
M  V30 6928 H 653.558 1.78694 -3.44852 0
M  V30 6929 H 655.29 1.69106 -3.67675 0
M  V30 6930 H 652.045 -0.0280202 -4.73592 0
M  V30 6931 H 652.469 -1.99366 -6.46979 0
M  V30 6932 H 657.111 -0.151822 -4.22527 0
M  V30 6933 H 654.829 -3.2945 -7.37895 0
M  V30 6934 H 658.415 -1.79652 -5.53368 0
M  V30 6935 H 657.295 -3.34672 -7.092 0
M  V30 6936 N 654.798 1.5699 0.138552 0
M  V30 6937 C 655.728 2.01933 1.17241 0
M  V30 6938 C 656.709 0.90033 1.44319 0
M  V30 6939 O 657.894 1.16872 1.55095 0
M  V30 6940 C 655.024 2.40711 2.50351 0
M  V30 6941 C 653.978 3.55874 2.37776 0
M  V30 6942 C 653.304 3.80491 3.75674 0
M  V30 6943 C 654.604 4.8826 1.85472 0
M  V30 6944 H 656.298 2.88551 0.798672 0
M  V30 6945 H 653.844 1.3882 0.382743 0
M  V30 6946 H 655.797 2.70754 3.22909 0
M  V30 6947 H 654.521 1.5104 2.89576 0
M  V30 6948 H 653.18 3.2601 1.67669 0
M  V30 6949 H 652.828 2.88057 4.12349 0
M  V30 6950 H 652.528 4.57998 3.68119 0
M  V30 6951 H 654.052 4.12967 4.49767 0
M  V30 6952 H 655.466 5.16965 2.4783 0
M  V30 6953 H 653.863 5.69631 1.88787 0
M  V30 6954 H 654.933 4.78071 0.810935 0
M  V30 6955 N 656.276 -0.40816 1.52223 0
M  V30 6956 C 657.501 -1.18127 1.70472 0
M  V30 6957 C 657.926 -1.83491 0.41384 0
M  V30 6958 O 657.284 -1.70047 -0.628778 0
M  V30 6959 C 657.332 -2.21935 2.84213 0
M  V30 6960 O 656.436 -3.28099 2.4985 0
M  V30 6961 H 655.777 -0.344781 0.56747 0
M  V30 6962 H 658.307 -0.478328 1.9893 0
M  V30 6963 H 658.317 -2.66248 3.09153 0
M  V30 6964 H 656.992 -1.73744 3.7787 0
M  V30 6965 H 655.569 -2.89058 2.35584 0
M  V30 6966 N 657.755 -1.42862 -0.66545 0
M  V30 6967 C 659.003 -1.43546 -1.42264 0
M  V30 6968 C 659.324 -0.0563116 -1.94919 0
M  V30 6969 O 658.594 0.906568 -1.73661 0
M  V30 6970 H 657.174 -0.528464 -0.527953 0
M  V30 6971 H 659.836 -1.78363 -0.785665 0
M  V30 6972 H 658.932 -2.14079 -2.27105 0
M  V30 6973 N 659.233 0.902656 -1.29189 0
M  V30 6974 C 660.143 2.03946 -1.15944 0
M  V30 6975 C 661.159 1.738 -0.0833803 0
M  V30 6976 O 662.335 1.9923 -0.29487 0
M  V30 6977 C 659.4 3.36519 -0.834006 0
M  V30 6978 C 658.461 3.80203 -1.9936 0
M  V30 6979 C 657.694 5.06449 -1.68359 0
M  V30 6980 O 657.917 5.67202 -0.603141 0
M  V30 6981 O 656.851 5.46114 -2.53067 0
M  V30 6982 H 660.677 2.18043 -2.11403 0
M  V30 6983 H 658.262 1.02584 -1.08613 0
M  V30 6984 H 660.144 4.16089 -0.666949 0
M  V30 6985 H 658.819 3.23573 0.0908245 0
M  V30 6986 H 657.726 3.01413 -2.21588 0
M  V30 6987 H 659.059 3.97729 -2.89952 0
M  V30 6988 N 660.711 1.11618 1.11262 0
M  V30 6989 C 661.939 0.888739 1.8684 0
M  V30 6990 C 662.354 -0.561558 1.80255 0
M  V30 6991 O 661.711 -1.38782 1.18515 0
M  V30 6992 C 661.762 1.34422 3.35579 0
M  V30 6993 O 661.483 2.73766 3.42029 0
M  V30 6994 C 662.984 1.15246 4.28058 0
M  V30 6995 H 660.204 0.318152 0.590779 0
M  V30 6996 H 662.748 1.48398 1.40707 0
M  V30 6997 H 660.903 0.79239 3.7921 0
M  V30 6998 H 661.317 2.9355 4.34659 0
M  V30 6999 H 662.791 1.52015 5.30656 0
M  V30 7000 H 663.268 0.0922007 4.39103 0
M  V30 7001 H 663.874 1.69136 3.90222 0
M  V30 7002 N 662.189 -1.289 0.906776 0
M  V30 7003 C 663.099 -2.31256 0.394707 0
M  V30 7004 C 664.115 -1.66231 -0.514121 0
M  V30 7005 O 665.291 -1.97347 -0.401994 0
M  V30 7006 C 662.356 -3.44792 -0.363191 0
M  V30 7007 C 661.417 -4.25391 0.578012 0
M  V30 7008 C 660.65 -5.33506 -0.143811 0
M  V30 7009 O 660.873 -5.53786 -1.36665 0
M  V30 7010 O 659.807 -5.99673 0.5173 0
M  V30 7011 H 663.633 -2.77051 1.24405 0
M  V30 7012 H 661.218 -1.33466 0.671346 0
M  V30 7013 H 663.1 -4.139 -0.791503 0
M  V30 7014 H 661.775 -3.01093 -1.18848 0
M  V30 7015 H 660.682 -3.58899 1.05558 0
M  V30 7016 H 662.015 -4.72752 1.36992 0
M  V30 7017 N 663.667 -0.670007 -1.42649 0
M  V30 7018 C 664.63 0.00204659 -2.292 0
M  V30 7019 C 665.63 0.733817 -1.4308 0
M  V30 7020 O 666.82 0.57254 -1.64522 0
M  V30 7021 C 663.952 1.01359 -3.25483 0
M  V30 7022 H 665.145 -0.759696 -2.90118 0
M  V30 7023 H 662.698 -0.432105 -1.50208 0
M  V30 7024 H 663.433 1.80399 -2.69493 0
M  V30 7025 H 663.218 0.492323 -3.88997 0
M  V30 7026 H 664.708 1.4824 -3.90403 0
M  V30 7027 N 665.145 1.52092 -0.413018 0
M  V30 7028 C 666.108 2.25706 0.398687 0
M  V30 7029 C 667.108 1.28221 0.970368 0
M  V30 7030 O 668.298 1.52131 0.848635 0
M  V30 7031 C 665.43 3.03029 1.5616 0
M  V30 7032 H 666.623 2.98888 -0.246131 0
M  V30 7033 H 664.176 1.5542 -0.165622 0
M  V30 7034 H 664.911 2.34205 2.24317 0
M  V30 7035 H 664.696 3.74606 1.15812 0
M  V30 7036 H 666.186 3.58857 2.13569 0
M  V30 7037 N 666.623 0.143563 1.56945 0
M  V30 7038 C 667.573 -0.809115 2.1316 0
M  V30 7039 C 668.557 -1.21176 1.05855 0
M  V30 7040 O 669.749 -1.17875 1.3204 0
M  V30 7041 C 666.878 -2.04957 2.75405 0
M  V30 7042 C 665.964 -1.67018 3.89828 0
M  V30 7043 N 666.355 -0.998822 4.9584 0
M  V30 7044 C 664.653 -1.96313 4.00471 0
M  V30 7045 C 665.354 -0.816217 5.75945 0
M  V30 7046 N 664.33 -1.349 5.26596 0
M  V30 7047 H 668.132 -0.286919 2.92496 0
M  V30 7048 H 665.646 -0.0580948 1.62296 0
M  V30 7049 H 667.643 -2.74201 3.14037 0
M  V30 7050 H 666.303 -2.57697 1.97541 0
M  V30 7051 H 667.314 -0.659975 5.13678 0
M  V30 7052 H 663.991 -2.50927 3.33679 0
M  V30 7053 H 665.381 -0.287353 6.71285 0
M  V30 7054 N 668.101 -1.57061 -0.130224 0
M  V30 7055 C 669.378 -1.75205 -0.869631 0
M  V30 7056 C 669.758 -0.716063 -1.98584 0
M  V30 7057 O 669.106 0.262032 -2.26993 0
M  V30 7058 C 669.316 -3.19835 -1.39666 0
M  V30 7059 C 670.664 -3.82011 -1.85345 0
M  V30 7060 O 671.688 -3.23368 -1.49371 0
M  V30 7061 O 670.547 -4.85064 -2.51744 0
M  V30 7062 H 667.641 -0.716977 -0.412157 0
M  V30 7063 H 670.187 -1.69311 -0.11484 0
M  V30 7064 H 668.959 -3.86745 -0.595288 0
M  V30 7065 H 668.582 -3.30222 -2.21448 0
M  V30 7066 N 669.579 0.400081 -1.52437 0
M  V30 7067 C 670.489 1.51253 -1.79331 0
M  V30 7068 C 671.505 1.60188 -0.679396 0
M  V30 7069 O 672.681 1.76733 -0.965791 0
M  V30 7070 C 669.746 2.869 -1.94652 0
M  V30 7071 C 668.807 2.87777 -3.18564 0
M  V30 7072 C 668.04 4.16954 -3.33145 0
M  V30 7073 O 668.263 5.11329 -2.52783 0
M  V30 7074 O 667.197 4.2487 -4.26343 0
M  V30 7075 H 671.023 1.31461 -2.73773 0
M  V30 7076 H 668.608 0.586834 -1.37392 0
M  V30 7077 H 670.49 3.67336 -2.065 0
M  V30 7078 H 669.165 3.06741 -1.034 0
M  V30 7079 H 668.072 2.06162 -3.12167 0
M  V30 7080 H 669.405 2.72886 -4.09627 0
M  V30 7081 N 671.057 1.43213 0.657864 0
M  V30 7082 C 672.005 1.48271 1.79216 0
M  V30 7083 C 672.999 0.35675 1.65601 0
M  V30 7084 O 674.205 0.530535 1.72004 0
M  V30 7085 H 670.58 0.464729 0.591211 0
M  V30 7086 H 672.551 2.43792 1.7207 0
M  V30 7087 C 671.3 1.41837 3.17455 0
M  V30 7088 H 670.623 2.27781 3.28567 0
M  V30 7089 H 672.063 1.49438 3.96793 0
M  V30 7090 C 670.522 0.135347 3.36628 0
M  V30 7091 O 671.052 -0.805199 3.93547 0
M  V30 7092 N 669.258 0.0470316 2.90562 0
M  V30 7093 H 668.805 0.813221 2.44427 0
M  V30 7094 H 668.763 -0.810737 3.03767 0
M  V30 7095 N 672.536 -0.895792 1.29666 0
M  V30 7096 C 673.764 -1.68001 1.20761 0
M  V30 7097 C 674.179 -1.87379 -0.231187 0
M  V30 7098 O 673.536 -1.41359 -1.15429 0
M  V30 7099 C 673.587 -3.06236 1.92098 0
M  V30 7100 O 673.308 -2.8774 3.30359 0
M  V30 7101 C 674.809 -4.00652 1.89717 0
M  V30 7102 H 672.029 -0.524591 0.418384 0
M  V30 7103 H 674.573 -1.11995 1.71106 0
M  V30 7104 H 672.728 -3.59007 1.45578 0
M  V30 7105 H 673.142 -3.75359 3.66342 0
M  V30 7106 H 674.616 -4.95051 2.44189 0
M  V30 7107 H 675.093 -4.30424 0.873595 0
M  V30 7108 H 675.699 -3.53815 2.35998 0
M  V30 7109 N 674.014 -1.12206 -1.10668 0
M  V30 7110 C 675.26 -0.877172 -1.82848 0
M  V30 7111 C 675.593 0.595571 -1.84842 0
M  V30 7112 O 674.868 1.44013 -1.30731 0
M  V30 7113 C 675.151 -1.44957 -3.29635 0
M  V30 7114 C 675.004 -2.99051 -3.35989 0
M  V30 7115 C 676.323 -1.10714 -4.25946 0
M  V30 7116 H 673.442 -0.320103 -0.663854 0
M  V30 7117 H 676.084 -1.38827 -1.2972 0
M  V30 7118 H 674.234 -1.01488 -3.7501 0
M  V30 7119 H 675.906 -3.51182 -2.99113 0
M  V30 7120 H 674.149 -3.34705 -2.75962 0
M  V30 7121 H 674.82 -3.34194 -4.39339 0
M  V30 7122 H 677.296 -1.48254 -3.88793 0
M  V30 7123 H 676.172 -1.5343 -5.2702 0
M  V30 7124 H 676.433 -0.019 -4.42096 0
M  V30 7125 N 675.492 1.28418 -0.913599 0
M  V30 7126 C 676.72 1.99106 -0.562536 0
M  V30 7127 C 677.135 1.68273 0.856137 0
M  V30 7128 O 676.492 0.935401 1.56705 0
M  V30 7129 C 676.543 3.5338 -0.761903 0
M  V30 7130 O 676.264 3.83127 -2.12475 0
M  V30 7131 C 677.765 4.41328 -0.417651 0
M  V30 7132 H 674.985 0.635798 -0.214481 0
M  V30 7133 H 677.529 1.63618 -1.22676 0
M  V30 7134 H 675.684 3.8713 -0.144676 0
M  V30 7135 H 676.098 4.77763 -2.16431 0
M  V30 7136 H 677.572 5.48642 -0.607919 0
M  V30 7137 H 678.049 4.34422 0.646108 0
M  V30 7138 H 678.655 4.13074 -1.01241 0
M  V30 7139 N 676.97 0.677563 1.42291 0
M  V30 7140 C 678.218 0.200578 2.01102 0
M  V30 7141 C 678.539 -1.19803 1.53858 0
M  V30 7142 O 677.809 -1.80496 0.761439 0
M  V30 7143 H 676.389 0.0711634 0.743603 0
M  V30 7144 H 679.051 0.874691 1.7417 0
M  V30 7145 H 678.147 0.204 3.11433 0
M  V30 7146 N 678.448 -1.51871 0.421078 0
M  V30 7147 C 679.694 -2.02894 -0.143346 0
M  V30 7148 C 680.049 -1.30054 -1.41787 0
M  V30 7149 O 679.342 -0.401776 -1.8734 0
M  V30 7150 C 679.536 -3.54764 -0.433292 0
M  V30 7151 C 679.365 -4.42316 0.811584 0
M  V30 7152 C 678.135 -4.872 1.34033 0
M  V30 7153 C 680.333 -4.85631 1.69313 0
M  V30 7154 N 678.315 -5.58915 2.53944 0
M  V30 7155 C 679.686 -5.56248 2.7384 0
M  V30 7156 C 681.741 -4.67634 1.70947 0
M  V30 7157 C 680.444 -6.10777 3.79927 0
M  V30 7158 C 682.47 -5.23068 2.7596 0
M  V30 7159 C 681.832 -5.93617 3.79207 0
M  V30 7160 H 677.931 -0.78188 -0.0137104 0
M  V30 7161 H 680.515 -1.85919 0.578105 0
M  V30 7162 H 678.686 -3.71787 -1.12378 0
M  V30 7163 H 680.418 -3.92464 -0.987644 0
M  V30 7164 H 677.173 -4.65035 0.896606 0
M  V30 7165 H 677.597 -5.99408 3.14704 0
M  V30 7166 H 682.239 -4.12566 0.9246 0
M  V30 7167 H 679.957 -6.64909 4.59262 0
M  V30 7168 H 683.543 -5.11005 2.78147 0
M  V30 7169 H 682.423 -6.35743 4.5913 0
M  V30 7170 N 679.926 -0.151884 -1.56866 0
M  V30 7171 C 680.836 0.798876 -2.20579 0
M  V30 7172 C 681.852 1.268 -1.19154 0
M  V30 7173 O 683.028 1.32418 -1.51748 0
M  V30 7174 C 680.093 2.01861 -2.81874 0
M  V30 7175 C 679.154 1.59825 -3.9844 0
M  V30 7176 C 678.387 2.75984 -4.56802 0
M  V30 7177 O 678.61 3.92331 -4.14044 0
M  V30 7178 O 677.544 2.51175 -5.46987 0
M  V30 7179 H 681.37 0.2865 -3.02346 0
M  V30 7180 H 678.955 0.0753806 -1.4921 0
M  V30 7181 H 680.837 2.73235 -3.20813 0
M  V30 7182 H 679.512 2.52042 -2.03117 0
M  V30 7183 H 678.419 0.854601 -3.64208 0
M  V30 7184 H 679.752 1.14355 -4.78731 0
M  V30 7185 N 681.404 1.57128 0.121893 0
M  V30 7186 C 682.334 2.03165 1.15092 0
M  V30 7187 C 683.315 0.915587 1.43356 0
M  V30 7188 O 684.5 1.1851 1.53847 0
M  V30 7189 C 681.63 2.43352 2.47784 0
M  V30 7190 C 680.584 3.58376 2.33989 0
M  V30 7191 C 679.91 3.84454 3.71617 0
M  V30 7192 C 681.21 4.90199 1.80283 0
M  V30 7193 H 682.904 2.89382 0.768023 0
M  V30 7194 H 680.45 1.39218 0.367998 0
M  V30 7195 H 682.403 2.74163 3.20019 0
M  V30 7196 H 681.127 1.54103 2.87958 0
M  V30 7197 H 679.786 3.2777 1.64202 0
M  V30 7198 H 679.434 2.92414 4.09271 0
M  V30 7199 H 679.134 4.61877 3.6324 0
M  V30 7200 H 680.658 4.17714 4.45362 0
M  V30 7201 H 682.072 5.19565 2.42333 0
M  V30 7202 H 680.469 5.71601 1.82735 0
M  V30 7203 H 681.539 4.78904 0.760184 0
M  V30 7204 N 682.882 -0.391992 1.52647 0
M  V30 7205 C 684.129 -1.13732 1.67545 0
M  V30 7206 C 684.457 -1.90045 0.413881 0
M  V30 7207 O 683.712 -1.86157 -0.603646 0
M  V30 7208 C 684.011 -2.14401 2.85949 0
M  V30 7209 C 683.677 -1.54767 4.23507 0
M  V30 7210 C 682.339 -1.38229 4.60919 0
M  V30 7211 C 684.691 -1.11382 5.0916 0
M  V30 7212 C 682.019 -0.7685 5.81645 0
M  V30 7213 C 684.371 -0.514143 6.30507 0
M  V30 7214 C 683.035 -0.33604 6.66654 0
M  V30 7215 H 682.305 -0.416174 0.613091 0
M  V30 7216 H 684.952 -0.422327 1.86785 0
M  V30 7217 H 683.257 -2.92108 2.61114 0
M  V30 7218 H 684.954 -2.71974 2.94671 0
M  V30 7219 H 681.544 -1.68626 3.94035 0
M  V30 7220 H 685.728 -1.22962 4.80826 0
M  V30 7221 H 680.984 -0.618681 6.08262 0
M  V30 7222 H 685.158 -0.169657 6.96193 0
M  V30 7223 H 682.785 0.14166 7.60068 0
M  V30 7224 N 684.36 -1.4356 -0.65026 0
M  V30 7225 C 685.608 -1.45046 -1.40734 0
M  V30 7226 C 685.929 -0.0769822 -1.94848 0
M  V30 7227 O 685.199 0.888098 -1.74613 0
M  V30 7228 H 683.779 -0.534034 -0.522318 0
M  V30 7229 H 686.441 -1.79186 -0.766703 0
M  V30 7230 H 685.537 -2.16476 -2.24822 0
M  V30 7231 N 685.838 0.888903 -1.30139 0
M  V30 7232 C 686.771 1.99655 -1.10514 0
M  V30 7233 C 687.749 1.62594 -0.0138934 0
M  V30 7234 O 688.933 1.87762 -0.166689 0
M  V30 7235 C 686.06 3.31708 -0.684655 0
M  V30 7236 C 685.106 3.87755 -1.77619 0
M  V30 7237 S 685.939 4.15532 -3.37777 0
M  V30 7238 C 687.095 5.5061 -2.97622 0
M  V30 7239 H 687.328 2.15996 -2.04287 0
M  V30 7240 H 684.861 1.03682 -1.14409 0
M  V30 7241 H 686.819 4.08039 -0.448782 0
M  V30 7242 H 685.48 3.1323 0.233648 0
M  V30 7243 H 684.673 4.83164 -1.43417 0
M  V30 7244 H 684.275 3.18149 -1.96614 0
M  V30 7245 H 686.567 6.31518 -2.45338 0
M  V30 7246 H 687.51 5.89747 -3.91924 0
M  V30 7247 H 687.918 5.12983 -2.35603 0
M  V30 7248 N 687.317 1.12792 1.10072 0
M  V30 7249 C 688.733 0.864745 1.34143 0
M  V30 7250 C 688.933 -0.503201 1.95116 0
M  V30 7251 O 687.989 -1.25111 2.19325 0
M  V30 7252 C 689.302 1.98413 2.25949 0
M  V30 7253 C 690.85 2.01545 2.39476 0
M  V30 7254 C 691.325 3.12727 3.34613 0
M  V30 7255 N 692.816 3.12194 3.42183 0
M  V30 7256 C 693.551 3.94862 4.15779 0
M  V30 7257 N 693.047 4.87528 4.92228 0
M  V30 7258 N 694.84 3.82985 4.11435 0
M  V30 7259 H 686.991 2.00926 0.68866 0
M  V30 7260 H 689.254 0.874564 0.365844 0
M  V30 7261 H 688.96 2.97005 1.88364 0
M  V30 7262 H 688.834 1.89254 3.26287 0
M  V30 7263 H 691.221 1.0357 2.76328 0
M  V30 7264 H 691.302 2.14777 1.3894 0
M  V30 7265 H 690.946 4.10936 2.98486 0
M  V30 7266 H 690.876 2.96732 4.35037 0
M  V30 7267 H 693.367 2.45065 2.87666 0
M  V30 7268 H 693.68 5.47109 5.45794 0
M  V30 7269 H 692.025 4.91539 4.9134 0
M  V30 7270 H 695.216 3.09923 3.50807 0
M  V30 7271 H 695.389 4.47641 4.68531 0
M  V30 7272 N 688.795 -1.27931 0.920396 0
M  V30 7273 C 689.758 -2.25345 0.41858 0
M  V30 7274 C 690.758 -1.54116 -0.458798 0
M  V30 7275 O 691.948 -1.72235 -0.260912 0
M  V30 7276 C 689.08 -3.38556 -0.399104 0
M  V30 7277 H 690.273 -2.71251 1.27918 0
M  V30 7278 H 687.826 -1.39728 0.700406 0
M  V30 7279 H 688.561 -2.98021 -1.27882 0
M  V30 7280 H 688.346 -3.91426 0.229863 0
M  V30 7281 H 689.836 -4.10976 -0.740817 0
M  V30 7282 N 690.273 -0.685099 -1.4193 0
M  V30 7283 C 691.522 -0.208816 -2.00616 0
M  V30 7284 C 691.835 1.19506 -1.54847 0
M  V30 7285 O 693.041 1.76826 -2.06021 0
M  V30 7286 C 691.497 -0.322446 -3.58453 0
M  V30 7287 C 691.105 -1.73102 -4.13206 0
M  V30 7288 C 692.849 0.0945979 -4.24395 0
M  V30 7289 C 690.756 -1.79687 -5.63442 0
M  V30 7290 H 689.686 -0.0743092 -0.750329 0
M  V30 7291 H 692.337 -0.851778 -1.62533 0
M  V30 7292 H 690.719 0.388588 -3.94089 0
M  V30 7293 H 691.893 -2.46997 -3.8901 0
M  V30 7294 H 690.208 -2.09682 -3.59753 0
M  V30 7295 H 692.805 0.0656937 -5.3466 0
M  V30 7296 H 693.148 1.1316 -4.00625 0
M  V30 7297 H 693.681 -0.56579 -3.93756 0
M  V30 7298 H 690.42 -2.81404 -5.92024 0
M  V30 7299 H 689.94 -1.10162 -5.89597 0
M  V30 7300 H 691.619 -1.55498 -6.28036 0
M  V30 7301 N 691.751 1.51645 -0.429126 0
M  V30 7302 C 693.167 1.59394 -0.080994 0
M  V30 7303 C 693.367 1.44064 1.40882 0
M  V30 7304 O 692.423 1.27771 2.17786 0
M  V30 7305 C 693.736 2.94779 -0.593773 0
M  V30 7306 C 695.284 3.08067 -0.553494 0
M  V30 7307 C 695.759 4.45963 -1.04311 0
M  V30 7308 N 697.25 4.5226 -1.00076 0
M  V30 7309 C 697.985 5.57268 -1.35056 0
M  V30 7310 N 697.481 6.69734 -1.77282 0
M  V30 7311 N 699.274 5.47582 -1.26925 0
M  V30 7312 H 691.425 1.59856 -1.39857 0
M  V30 7313 H 693.688 0.753095 -0.575805 0
M  V30 7314 H 693.394 3.11342 -1.63583 0
M  V30 7315 H 693.268 3.77197 -0.0142202 0
M  V30 7316 H 695.655 2.91177 0.479556 0
M  V30 7317 H 695.736 2.27508 -1.16935 0
M  V30 7318 H 695.38 4.63598 -2.07459 0
M  V30 7319 H 695.31 5.25049 -0.403873 0
M  V30 7320 H 697.801 3.71537 -0.690564 0
M  V30 7321 H 698.114 7.4587 -2.02232 0
M  V30 7322 H 696.459 6.70963 -1.81202 0
M  V30 7323 H 699.65 4.58604 -0.93809 0
M  V30 7324 H 699.823 6.29308 -1.54516 0
M  V30 7325 N 693.229 0.160201 1.56784 0
M  V30 7326 C 694.161 -0.80564 2.14574 0
M  V30 7327 C 695.174 -1.20154 1.09849 0
M  V30 7328 O 696.363 -1.14333 1.37078 0
M  V30 7329 C 693.463 -2.09434 2.6644 0
M  V30 7330 C 692.636 -1.86375 3.95706 0
M  V30 7331 C 691.695 -2.99358 4.32749 0
M  V30 7332 O 690.721 -2.70475 5.00831 0
M  V30 7333 N 691.923 -4.26867 3.93402 0
M  V30 7334 H 694.688 -0.311644 2.98075 0
M  V30 7335 H 692.249 -0.0229465 1.61884 0
M  V30 7336 H 694.241 -2.84091 2.88226 0
M  V30 7337 H 692.811 -2.50057 1.8759 0
M  V30 7338 H 692.031 -0.956821 3.82412 0
M  V30 7339 H 693.319 -1.68322 4.80151 0
M  V30 7340 H 692.717 -4.53197 3.38569 0
M  V30 7341 H 691.274 -4.98263 4.20211 0
M  V30 7342 N 694.707 -1.5719 -0.113559 0
M  V30 7343 C 695.955 -1.84772 -0.818761 0
M  V30 7344 C 696.276 -0.746196 -1.80158 0
M  V30 7345 O 695.546 0.229305 -1.94553 0
M  V30 7346 H 694.126 -0.681737 -0.305359 0
M  V30 7347 H 696.788 -1.94645 -0.0995845 0
M  V30 7348 H 695.884 -2.80878 -1.36067 0
M  V30 7349 N 696.185 0.383891 -1.52853 0
M  V30 7350 C 697.462 1.14296 -1.58732 0
M  V30 7351 C 697.842 2.07585 -0.383611 0
M  V30 7352 O 697.19 2.1971 0.627661 0
M  V30 7353 C 697.4 1.89816 -2.92867 0
M  V30 7354 C 698.748 2.44998 -3.46787 0
M  V30 7355 O 699.772 1.99966 -2.94774 0
M  V30 7356 O 698.631 3.2727 -4.37672 0
M  V30 7357 H 695.725 0.52326 -0.640413 0
M  V30 7358 H 698.271 0.388631 -1.6519 0
M  V30 7359 H 697.043 1.21626 -3.71918 0
M  V30 7360 H 696.666 2.72199 -2.89816 0
M  V30 7361 N 697.663 1.43903 0.642637 0
M  V30 7362 C 698.909 1.47291 1.40275 0
M  V30 7363 C 699.264 0.0996024 1.92142 0
M  V30 7364 O 698.557 -0.883423 1.70018 0
M  V30 7365 C 698.751 2.45907 2.59354 0
M  V30 7366 C 698.58 3.92691 2.19143 0
M  V30 7367 C 697.35 4.6097 2.06966 0
M  V30 7368 C 699.548 4.82231 1.78768 0
M  V30 7369 N 697.53 5.9263 1.60196 0
M  V30 7370 C 698.901 6.03246 1.43159 0
M  V30 7371 C 700.956 4.69397 1.66045 0
M  V30 7372 C 699.659 7.12851 0.961014 0
M  V30 7373 C 701.685 5.79016 1.20392 0
M  V30 7374 C 701.047 6.99164 0.857271 0
M  V30 7375 H 697.146 0.594055 0.50855 0
M  V30 7376 H 699.73 1.80153 0.738434 0
M  V30 7377 H 697.901 2.15054 3.23429 0
M  V30 7378 H 699.633 2.39665 3.26102 0
M  V30 7379 H 696.388 4.15622 2.27058 0
M  V30 7380 H 696.812 6.62547 1.39143 0
M  V30 7381 H 701.454 3.76954 1.91482 0
M  V30 7382 H 699.172 8.05113 0.694148 0
M  V30 7383 H 702.758 5.71109 1.11023 0
M  V30 7384 H 701.638 7.82544 0.509408 0
M  V30 7385 N 699.141 -0.881989 1.30609 0
M  V30 7386 C 700.088 -1.98803 1.17244 0
M  V30 7387 C 701.058 -1.65987 0.0611905 0
M  V30 7388 O 702.243 -1.89385 0.231911 0
M  V30 7389 C 699.383 -3.33867 0.87333 0
M  V30 7390 C 698.496 -3.79354 2.06675 0
M  V30 7391 C 697.631 -5.03078 1.70547 0
M  V30 7392 C 696.67 -5.40981 2.86366 0
M  V30 7393 N 695.807 -6.55886 2.50514 0
M  V30 7394 H 700.647 -2.09566 2.11863 0
M  V30 7395 H 698.184 -1.02607 1.05405 0
M  V30 7396 H 700.142 -4.11612 0.680519 0
M  V30 7397 H 698.772 -3.2278 -0.0359983 0
M  V30 7398 H 697.824 -2.97492 2.37071 0
M  V30 7399 H 699.136 -4.03382 2.93401 0
M  V30 7400 H 698.29 -5.88457 1.47658 0
M  V30 7401 H 697.029 -4.80927 0.809947 0
M  V30 7402 H 696.034 -4.54127 3.09917 0
M  V30 7403 H 697.259 -5.65104 3.76609 0
M  V30 7404 H 695.205 -6.35306 1.63471 0
M  V30 7405 H 695.122 -6.79799 3.30771 0
M  V30 7406 H 696.39 -7.44489 2.30989 0
M  V30 7407 N 700.619 -1.13374 -1.09472 0
M  V30 7408 C 701.582 -0.813639 -2.14272 0
M  V30 7409 C 702.582 0.176677 -1.59826 0
M  V30 7410 O 703.772 -0.0503441 -1.74127 0
M  V30 7411 C 700.904 -0.210897 -3.40247 0
M  V30 7412 H 702.097 -1.74229 -2.44099 0
M  V30 7413 H 699.65 -0.938304 -1.25002 0
M  V30 7414 H 700.385 0.726998 -3.16046 0
M  V30 7415 H 700.17 -0.924048 -3.81056 0
M  V30 7416 H 701.66 -0.00377603 -4.176 0
M  V30 7417 N 702.098 1.27442 -0.927168 0
M  V30 7418 C 703.344 1.94679 -0.568164 0
M  V30 7419 C 703.677 1.72697 0.888219 0
M  V30 7420 O 702.952 1.05573 1.63354 0
M  V30 7421 C 703.235 3.4882 -0.894253 0
M  V30 7422 C 703.088 3.80146 -2.40435 0
M  V30 7423 C 704.407 4.38281 -0.399766 0
M  V30 7424 H 701.526 0.707071 -0.207892 0
M  V30 7425 H 704.168 1.50568 -1.15885 0
M  V30 7426 H 702.318 3.86522 -0.391566 0
M  V30 7427 H 703.99 3.52238 -2.97869 0
M  V30 7428 H 702.233 3.26716 -2.85375 0
M  V30 7429 H 702.904 4.87835 -2.58304 0
M  V30 7430 H 705.38 4.07726 -0.83058 0
M  V30 7431 H 704.256 5.44955 -0.656885 0
M  V30 7432 H 704.517 4.36521 0.700153 0
M  V30 7433 N 703.576 0.692616 1.41565 0
M  V30 7434 C 704.806 0.230943 2.05305 0
M  V30 7435 C 705.214 -1.12379 1.52209 0
M  V30 7436 O 704.557 -1.71281 0.663968 0
M  V30 7437 C 704.619 0.107894 3.59338 0
M  V30 7438 C 704.283 1.39419 4.35214 0
M  V30 7439 C 705.28 2.33143 4.64694 0
M  V30 7440 C 702.965 1.64674 4.74539 0
M  V30 7441 C 704.959 3.50385 5.32456 0
M  V30 7442 C 702.646 2.82202 5.42038 0
M  V30 7443 C 703.644 3.74881 5.70923 0
M  V30 7444 O 703.332 4.90351 6.37033 0
M  V30 7445 H 703.064 0.105708 0.667684 0
M  V30 7446 H 705.618 0.94488 1.82376 0
M  V30 7447 H 703.848 -0.661785 3.80995 0
M  V30 7448 H 705.537 -0.316213 4.04666 0
M  V30 7449 H 706.303 2.14887 4.34797 0
M  V30 7450 H 702.182 0.934007 4.51439 0
M  V30 7451 H 705.726 4.22743 5.54918 0
M  V30 7452 H 701.623 3.00376 5.71353 0
M  V30 7453 H 702.391 4.90128 6.55528 0
M  V30 7454 N 705.054 -1.51416 0.437162 0
M  V30 7455 C 705.984 -2.30631 -0.364922 0
M  V30 7456 C 706.965 -1.36037 -1.02118 0
M  V30 7457 O 708.15 -1.64956 -1.02485 0
M  V30 7458 C 705.28 -3.1482 -1.46648 0
M  V30 7459 C 704.234 -4.17691 -0.933717 0
M  V30 7460 C 703.56 -4.904 -2.13101 0
M  V30 7461 C 704.86 -5.2229 0.0317201 0
M  V30 7462 H 706.554 -2.97932 0.29614 0
M  V30 7463 H 704.1 -1.4328 0.143865 0
M  V30 7464 H 706.053 -3.69017 -2.03481 0
M  V30 7465 H 704.777 -2.4534 -2.15583 0
M  V30 7466 H 703.436 -3.64545 -0.387602 0
M  V30 7467 H 703.084 -4.17423 -2.80654 0
M  V30 7468 H 702.784 -5.59962 -1.78092 0
M  V30 7469 H 704.308 -5.4742 -2.70487 0
M  V30 7470 H 705.722 -5.7156 -0.446302 0
M  V30 7471 H 704.119 -5.99378 0.29437 0
M  V30 7472 H 705.189 -4.75131 0.968447 0
M  V30 7473 N 706.532 -0.168513 -1.56696 0
M  V30 7474 C 707.943 0.348694 -1.83415 0
M  V30 7475 C 708.294 1.63257 -1.0882 0
M  V30 7476 O 707.419 2.13707 -0.340333 0
M  V30 7477 C 708.014 0.639423 -3.32711 0
M  V30 7478 C 706.573 1.10108 -3.59935 0
M  V30 7479 C 705.72 0.135464 -2.76969 0
M  V30 7480 H 708.671 -0.392829 -1.53761 0
M  V30 7481 H 708.692 1.49179 -3.50037 0
M  V30 7482 H 708.204 -0.295173 -3.86976 0
M  V30 7483 H 706.305 2.05088 -3.11079 0
M  V30 7484 H 706.418 1.01218 -4.68286 0
M  V30 7485 H 704.782 0.632286 -2.46727 0
M  V30 7486 H 705.565 -0.793104 -3.34013 0
M  V30 7487 N 708.01 1.57248 0.105221 0
M  V30 7488 C 708.973 2.00388 1.11252 0
M  V30 7489 C 709.973 0.89594 1.33527 0
M  V30 7490 O 711.163 1.16166 1.29811 0
M  V30 7491 C 708.295 2.35589 2.46395 0
M  V30 7492 H 709.488 2.90591 0.741424 0
M  V30 7493 H 707.041 1.52332 0.349956 0
M  V30 7494 H 707.776 1.4831 2.884 0
M  V30 7495 H 707.561 3.16408 2.31578 0
M  V30 7496 H 709.051 2.69658 3.18864 0
M  V30 7497 N 709.488 -0.375779 1.53054 0
M  V30 7498 C 710.899 -0.95309 1.6054 0
M  V30 7499 C 711.25 -1.90575 0.466446 0
M  V30 7500 O 710.375 -2.12507 -0.408609 0
M  V30 7501 C 710.97 -1.73537 2.90982 0
M  V30 7502 C 709.529 -2.26218 3.00836 0
M  V30 7503 C 708.676 -1.07157 2.55759 0
M  V30 7504 H 711.627 -0.154895 1.57942 0
M  V30 7505 H 711.648 -2.59574 2.78211 0
M  V30 7506 H 711.16 -1.04176 3.73857 0
M  V30 7507 H 709.261 -2.98852 2.22527 0
M  V30 7508 H 709.374 -2.54799 4.05727 0
M  V30 7509 H 707.738 -1.43553 2.10391 0
M  V30 7510 H 708.521 -0.393099 3.41042 0
M  V30 7511 N 710.966 -1.44241 -0.634997 0
M  V30 7512 C 712.212 -1.47038 -1.39669 0
M  V30 7513 C 712.545 -0.101122 -1.93937 0
M  V30 7514 O 711.82 0.880699 -1.73418 0
M  V30 7515 C 712.103 -2.52763 -2.56482 0
M  V30 7516 C 711.956 -3.99032 -2.07589 0
M  V30 7517 C 713.275 -2.55031 -3.58674 0
M  V30 7518 H 710.394 -0.53537 -0.506506 0
M  V30 7519 H 713.036 -1.75898 -0.718317 0
M  V30 7520 H 711.186 -2.28284 -3.14354 0
M  V30 7521 H 712.858 -4.3463 -1.54577 0
M  V30 7522 H 711.101 -4.10994 -1.38804 0
M  V30 7523 H 711.772 -4.68649 -2.91671 0
M  V30 7524 H 714.248 -2.76893 -3.10595 0
M  V30 7525 H 713.124 -3.30916 -4.37934 0
M  V30 7526 H 713.385 -1.59085 -4.12486 0
M  V30 7527 N 712.444 0.87505 -1.31075 0
M  V30 7528 C 713.692 1.62447 -1.20231 0
M  V30 7529 C 714.013 1.93506 0.240888 0
M  V30 7530 O 713.283 1.57847 1.16022 0
M  V30 7531 H 711.863 0.602207 -0.441991 0
M  V30 7532 H 714.525 1.04788 -1.64334 0
M  V30 7533 H 713.621 2.57031 -1.77036 0
M  V30 7534 N 713.922 1.13953 1.08869 0
M  V30 7535 C 715.333 0.916649 1.62648 0
M  V30 7536 C 715.684 -0.545589 1.88462 0
M  V30 7537 O 714.809 -1.41351 1.63856 0
M  V30 7538 C 715.404 1.65751 2.95486 0
M  V30 7539 C 713.963 1.48034 3.46068 0
M  V30 7540 C 713.11 1.68305 2.20383 0
M  V30 7541 H 716.061 1.292 0.921572 0
M  V30 7542 H 716.082 1.11794 3.63707 0
M  V30 7543 H 715.594 2.72171 2.76667 0
M  V30 7544 H 713.695 0.439416 3.7 0
M  V30 7545 H 713.808 2.24719 4.23129 0
M  V30 7546 H 712.172 1.10833 2.29321 0
M  V30 7547 H 712.955 2.76057 2.04077 0
M  V30 7548 N 715.4 -1.26948 0.933913 0
M  V30 7549 C 716.363 -2.24889 0.442457 0
M  V30 7550 C 717.363 -1.54594 -0.442426 0
M  V30 7551 O 718.553 -1.72502 -0.242629 0
M  V30 7552 C 715.685 -3.3896 -0.363173 0
M  V30 7553 H 716.878 -2.69879 1.30787 0
M  V30 7554 H 714.431 -1.38978 0.715187 0
M  V30 7555 H 715.166 -2.99361 -1.24714 0
M  V30 7556 H 714.951 -3.9116 0.271366 0
M  V30 7557 H 716.441 -4.11739 -0.697186 0
M  V30 7558 N 716.879 -0.700114 -1.41195 0
M  V30 7559 C 718.107 -0.242179 -2.05478 0
M  V30 7560 C 718.522 1.11029 -1.52702 0
M  V30 7561 O 717.879 1.69473 -0.677127 0
M  V30 7562 C 717.93 -0.196271 -3.60967 0
M  V30 7563 O 717.651 -1.49532 -4.11791 0
M  V30 7564 C 719.152 0.282102 -4.42401 0
M  V30 7565 H 716.372 -0.111749 -0.661629 0
M  V30 7566 H 718.916 -0.953975 -1.80885 0
M  V30 7567 H 717.071 0.46638 -3.84582 0
M  V30 7568 H 717.485 -1.38545 -5.05871 0
M  V30 7569 H 718.959 0.263093 -5.51373 0
M  V30 7570 H 719.436 1.32174 -4.1884 0
M  V30 7571 H 720.042 -0.349712 -4.2386 0
M  V30 7572 N 718.357 1.51182 -0.445186 0
M  V30 7573 C 719.603 2.03097 0.111049 0
M  V30 7574 C 719.958 1.32293 1.397 0
M  V30 7575 O 719.251 0.431529 1.86677 0
M  V30 7576 C 719.445 3.55408 0.376797 0
M  V30 7577 C 719.274 4.40969 -0.88185 0
M  V30 7578 C 718.044 4.85006 -1.41766 0
M  V30 7579 C 720.242 4.82876 -1.77017 0
M  V30 7580 N 718.224 5.54804 -2.62803 0
M  V30 7581 C 719.595 5.51821 -2.82654 0
M  V30 7582 C 721.65 4.64855 -1.78365 0
M  V30 7583 C 720.353 6.04655 -3.89595 0
M  V30 7584 C 722.379 5.18612 -2.84246 0
M  V30 7585 C 721.741 5.87509 -3.88603 0
M  V30 7586 H 717.84 0.781999 0.0012696 0
M  V30 7587 H 720.424 1.84976 -0.60761 0
M  V30 7588 H 718.595 3.73528 1.06449 0
M  V30 7589 H 720.327 3.93985 0.925082 0
M  V30 7590 H 717.082 4.6355 -0.970476 0
M  V30 7591 H 717.506 5.94326 -3.24201 0
M  V30 7592 H 722.148 4.11043 -0.990119 0
M  V30 7593 H 719.866 6.57518 -4.69782 0
M  V30 7594 H 723.452 5.06515 -2.86241 0
M  V30 7595 H 722.332 6.28358 -4.69186 0
M  V30 7596 N 719.835 0.176821 1.56605 0
M  V30 7597 C 720.767 -0.782836 2.15417 0
M  V30 7598 C 721.78 -1.18982 1.11117 0
M  V30 7599 O 722.969 -1.12872 1.38283 0
M  V30 7600 C 720.069 -2.06596 2.68647 0
M  V30 7601 C 719.242 -1.82167 3.9766 0
M  V30 7602 C 718.301 -2.94751 4.35899 0
M  V30 7603 O 717.327 -2.65148 5.03672 0
M  V30 7604 N 718.529 -4.2267 3.97907 0
M  V30 7605 H 721.294 -0.280012 2.98389 0
M  V30 7606 H 718.855 -0.00577529 1.61899 0
M  V30 7607 H 720.847 -2.81018 2.91223 0
M  V30 7608 H 719.417 -2.48054 1.90232 0
M  V30 7609 H 718.637 -0.916208 3.83405 0
M  V30 7610 H 719.925 -1.6322 4.81909 0
M  V30 7611 H 719.323 -4.4958 3.43357 0
M  V30 7612 H 717.88 -4.93778 4.25472 0
M  V30 7613 N 721.313 -1.57302 -0.09688 0
M  V30 7614 C 722.243 -2.0497 -1.11846 0
M  V30 7615 C 723.224 -0.938278 -1.41882 0
M  V30 7616 O 724.409 -1.20943 -1.51942 0
M  V30 7617 C 721.539 -2.47264 -2.43881 0
M  V30 7618 C 720.493 -3.62053 -2.28257 0
M  V30 7619 C 719.819 -3.90318 -3.65453 0
M  V30 7620 C 721.119 -4.93005 -1.72461 0
M  V30 7621 H 722.813 -2.90567 -0.721888 0
M  V30 7622 H 720.359 -1.39786 -0.345803 0
M  V30 7623 H 722.312 -2.7922 -3.15617 0
M  V30 7624 H 721.036 -1.58664 -2.8547 0
M  V30 7625 H 719.695 -3.30341 -1.58967 0
M  V30 7626 H 719.343 -2.98889 -4.04567 0
M  V30 7627 H 719.043 -4.67597 -3.55846 0
M  V30 7628 H 720.567 -4.24747 -4.3866 0
M  V30 7629 H 721.981 -5.23354 -2.34036 0
M  V30 7630 H 720.378 -5.74436 -1.73618 0
M  V30 7631 H 721.448 -4.80053 -0.683898 0
M  V30 7632 N 722.791 0.367657 -1.53252 0
M  V30 7633 C 724.021 1.12955 -1.72988 0
M  V30 7634 C 724.429 1.8358 -0.457708 0
M  V30 7635 O 723.772 1.74336 0.579006 0
M  V30 7636 C 723.834 2.20545 -2.83902 0
M  V30 7637 C 723.498 1.69704 -4.24323 0
M  V30 7638 C 724.495 1.16223 -5.06743 0
M  V30 7639 C 722.18 1.7528 -4.70725 0
M  V30 7640 C 724.174 0.689935 -6.33655 0
M  V30 7641 C 721.861 1.27662 -5.97617 0
M  V30 7642 C 722.859 0.746083 -6.78913 0
M  V30 7643 O 722.547 0.276925 -8.03423 0
M  V30 7644 H 722.279 0.343753 -0.582074 0
M  V30 7645 H 724.833 0.433106 -2.00782 0
M  V30 7646 H 723.063 2.93676 -2.51577 0
M  V30 7647 H 724.752 2.82111 -2.91836 0
M  V30 7648 H 725.518 1.11256 -4.72067 0
M  V30 7649 H 721.397 2.15515 -4.07522 0
M  V30 7650 H 724.941 0.275164 -6.97057 0
M  V30 7651 H 720.838 1.32322 -6.31792 0
M  V30 7652 H 721.606 0.396445 -8.17539 0
M  V30 7653 N 724.269 1.44576 0.627338 0
M  V30 7654 C 725.546 1.38033 1.38586 0
M  V30 7655 C 725.926 0.0409468 2.1106 0
M  V30 7656 O 725.274 -0.976582 2.0658 0
M  V30 7657 C 725.484 2.58102 2.34913 0
M  V30 7658 C 726.832 3.02332 2.98129 0
M  V30 7659 O 727.856 2.58334 2.45238 0
M  V30 7660 O 726.715 3.78628 3.94085 0
M  V30 7661 H 723.809 0.546801 0.620434 0
M  V30 7662 H 726.355 1.56672 0.652077 0
M  V30 7663 H 725.127 3.4719 1.80485 0
M  V30 7664 H 724.75 2.41696 3.15703 0
M  V30 7665 N 725.747 -0.868086 1.31537 0
M  V30 7666 C 726.677 -1.99131 1.21939 0
M  V30 7667 C 727.658 -1.69768 0.106166 0
M  V30 7668 O 728.843 -1.92006 0.291081 0
M  V30 7669 C 725.973 -3.34676 0.927879 0
M  V30 7670 C 724.927 -3.7835 2.00088 0
M  V30 7671 C 724.253 -5.11375 1.56203 0
M  V30 7672 C 725.553 -3.95256 3.41424 0
M  V30 7673 H 727.247 -2.07419 2.15911 0
M  V30 7674 H 724.793 -0.996569 1.03945 0
M  V30 7675 H 726.746 -4.12793 0.847327 0
M  V30 7676 H 725.47 -3.26565 -0.0475042 0
M  V30 7677 H 724.129 -3.02474 2.07135 0
M  V30 7678 H 723.777 -4.99709 0.57445 0
M  V30 7679 H 723.477 -5.41568 2.27985 0
M  V30 7680 H 725.001 -5.92001 1.49558 0
M  V30 7681 H 726.415 -4.63764 3.3704 0
M  V30 7682 H 724.812 -4.36849 4.1144 0
M  V30 7683 H 725.882 -2.98579 3.82072 0
M  V30 7684 N 727.225 -1.14528 -1.08264 0
M  V30 7685 C 728.188 -0.83632 -2.13397 0
M  V30 7686 C 729.188 0.159715 -1.60005 0
M  V30 7687 O 730.378 -0.0688098 -1.74064 0
M  V30 7688 C 727.51 -0.246973 -3.40004 0
M  V30 7689 H 728.703 -1.76808 -2.42237 0
M  V30 7690 H 726.256 -0.951509 -1.24 0
M  V30 7691 H 726.991 0.693436 -3.168 0
M  V30 7692 H 726.776 -0.964412 -3.80055 0
M  V30 7693 H 728.266 -0.0480679 -4.17572 0
M  V30 7694 N 728.703 1.26451 -0.940633 0
M  V30 7695 C 730.119 1.4608 -0.642859 0
M  V30 7696 C 730.319 1.84765 0.803998 0
M  V30 7697 O 729.375 1.96902 1.58069 0
M  V30 7698 C 730.688 2.54359 -1.60381 0
M  V30 7699 C 732.236 2.6821 -1.61345 0
M  V30 7700 C 732.711 3.79659 -2.56169 0
M  V30 7701 N 734.202 3.87051 -2.54452 0
M  V30 7702 C 734.937 4.72739 -3.24507 0
M  V30 7703 N 734.433 5.6282 -4.03987 0
M  V30 7704 N 736.226 4.66581 -3.13462 0
M  V30 7705 H 728.377 0.996289 -1.87584 0
M  V30 7706 H 730.64 0.498921 -0.80609 0
M  V30 7707 H 730.346 2.32758 -2.6366 0
M  V30 7708 H 730.22 3.52005 -1.35545 0
M  V30 7709 H 732.607 2.89184 -0.587913 0
M  V30 7710 H 732.688 1.7101 -1.90235 0
M  V30 7711 H 732.332 3.59438 -3.58841 0
M  V30 7712 H 732.262 4.76315 -2.2457 0
M  V30 7713 H 734.753 3.22649 -1.96739 0
M  V30 7714 H 735.066 6.25095 -4.54396 0
M  V30 7715 H 733.411 5.62574 -4.08088 0
M  V30 7716 H 736.602 3.9521 -2.50852 0
M  V30 7717 H 736.775 5.33141 -3.68327 0
M  V30 7718 N 730.181 0.707592 1.40822 0
M  V30 7719 C 731.458 0.171172 1.9485 0
M  V30 7720 C 731.838 -1.32143 1.64625 0
M  V30 7721 O 731.186 -2.07372 0.959647 0
M  V30 7722 C 731.396 0.475334 3.45748 0
M  V30 7723 C 732.744 0.409625 4.22619 0
M  V30 7724 O 733.768 0.410934 3.53822 0
M  V30 7725 O 732.627 0.380185 5.45176 0
M  V30 7726 H 729.721 0.022015 0.826707 0
M  V30 7727 H 732.267 0.784577 1.50474 0
M  V30 7728 H 731.039 1.50801 3.61075 0
M  V30 7729 H 730.662 -0.168439 3.97243 0
M  V30 7730 N 731.66 -1.50943 0.453197 0
M  V30 7731 C 733.071 -1.86699 -0.00619892 0
M  V30 7732 C 733.422 -1.3693 -1.40515 0
M  V30 7733 O 732.547 -0.726715 -2.03833 0
M  V30 7734 C 733.142 -3.38795 -0.018025 0
M  V30 7735 C 731.701 -3.74028 -0.421885 0
M  V30 7736 C 730.848 -2.74752 0.375087 0
M  V30 7737 H 733.799 -1.43942 0.668317 0
M  V30 7738 H 733.82 -3.71468 -0.824125 0
M  V30 7739 H 733.332 -3.74988 1.00028 0
M  V30 7740 H 731.433 -3.43431 -1.44521 0
M  V30 7741 H 731.546 -4.78908 -0.135664 0
M  V30 7742 H 729.91 -2.5414 -0.168794 0
M  V30 7743 H 730.693 -3.13787 1.39256 0
M  V30 7744 N 733.138 -0.185124 -1.56509 0
M  V30 7745 C 734.386 0.455357 -1.96903 0
M  V30 7746 C 734.707 1.62839 -1.07277 0
M  V30 7747 O 733.977 1.95385 -0.141966 0
M  V30 7748 H 732.557 0.171218 -0.727113 0
M  V30 7749 H 735.219 -0.26953 -1.93027 0
M  V30 7750 H 734.315 0.80616 -3.01509 0
M  V30 7751 N 734.616 1.57351 0.0885366 0
M  V30 7752 C 735.526 2.05858 1.12516 0
M  V30 7753 C 736.542 0.984758 1.43452 0
M  V30 7754 O 737.718 1.29836 1.53963 0
M  V30 7755 C 734.783 2.47882 2.42395 0
M  V30 7756 C 733.844 3.69487 2.18582 0
M  V30 7757 C 733.077 4.09497 3.42268 0
M  V30 7758 O 733.3 3.49536 4.50755 0
M  V30 7759 O 732.234 5.02406 3.31469 0
M  V30 7760 H 736.06 2.94467 0.743146 0
M  V30 7761 H 733.645 1.46326 0.301507 0
M  V30 7762 H 735.527 2.75509 3.18862 0
M  V30 7763 H 734.202 1.62408 2.8001 0
M  V30 7764 H 733.109 3.46967 1.39875 0
M  V30 7765 H 734.442 4.55761 1.85857 0
M  V30 7766 N 736.094 -0.359525 1.53444 0
M  V30 7767 C 737.343 -1.09886 1.69139 0
M  V30 7768 C 737.656 -1.90285 0.452863 0
M  V30 7769 O 738.862 -2.67033 0.490459 0
M  V30 7770 C 737.318 -2.0028 2.99025 0
M  V30 7771 C 736.926 -1.25164 4.30161 0
M  V30 7772 C 738.67 -2.74168 3.24086 0
M  V30 7773 C 736.577 -2.14494 5.51132 0
M  V30 7774 H 735.507 -0.413936 0.630217 0
M  V30 7775 H 738.158 -0.359434 1.79945 0
M  V30 7776 H 736.54 -2.77978 2.82036 0
M  V30 7777 H 737.714 -0.524867 4.57801 0
M  V30 7778 H 736.029 -0.631116 4.11589 0
M  V30 7779 H 738.626 -3.41243 4.11652 0
M  V30 7780 H 738.969 -3.39868 2.40407 0
M  V30 7781 H 739.502 -2.0355 3.41778 0
M  V30 7782 H 736.241 -1.53362 6.37307 0
M  V30 7783 H 735.761 -2.85004 5.27762 0
M  V30 7784 H 737.44 -2.73914 5.86157 0
M  V30 7785 N 737.572 -1.44907 -0.619662 0
M  V30 7786 C 738.522 -1.49085 -1.72504 0
M  V30 7787 C 739.506 -0.355372 -1.56926 0
M  V30 7788 O 740.698 -0.601441 -1.66468 0
M  V30 7789 C 737.827 -1.44889 -3.11227 0
M  V30 7790 C 736.913 -2.63593 -3.32234 0
M  V30 7791 N 737.304 -3.88775 -3.23555 0
M  V30 7792 C 735.602 -2.59033 -3.63067 0
M  V30 7793 C 736.303 -4.67932 -3.45564 0
M  V30 7794 N 735.279 -3.9919 -3.68983 0
M  V30 7795 H 739.081 -2.43706 -1.6427 0
M  V30 7796 H 736.595 -1.4003 -0.82252 0
M  V30 7797 H 738.592 -1.45966 -3.90512 0
M  V30 7798 H 737.252 -0.513143 -3.2062 0
M  V30 7799 H 738.263 -4.20574 -3.02221 0
M  V30 7800 H 734.94 -1.7431 -3.79371 0
M  V30 7801 H 736.33 -5.76952 -3.44349 0
M  V30 7802 N 739.05 0.861098 -1.31996 0
M  V30 7803 C 740.327 1.59788 -1.12814 0
M  V30 7804 C 740.707 2.08753 0.313882 0
M  V30 7805 O 740.055 1.87258 1.30946 0
M  V30 7806 C 740.265 2.74901 -2.15012 0
M  V30 7807 C 741.613 3.44643 -2.48004 0
M  V30 7808 O 742.637 2.85119 -2.13508 0
M  V30 7809 O 741.496 4.52044 -3.07113 0
M  V30 7810 H 738.59 0.703408 -0.434909 0
M  V30 7811 H 741.136 0.905788 -1.43505 0
M  V30 7812 H 739.908 2.36198 -3.11971 0
M  V30 7813 H 739.531 3.51792 -1.85279 0
M  V30 7814 N 740.528 1.15101 1.07655 0
M  V30 7815 C 741.458 0.867864 2.16773 0
M  V30 7816 C 742.439 -0.180283 1.69142 0
M  V30 7817 O 743.624 -0.0353152 1.94168 0
M  V30 7818 C 740.754 0.35299 3.45501 0
M  V30 7819 C 739.708 1.33746 4.06566 0
M  V30 7820 C 739.034 0.681562 5.30338 0
M  V30 7821 C 740.334 2.7024 4.46954 0
M  V30 7822 H 742.028 1.78034 2.40716 0
M  V30 7823 H 739.574 0.857435 1.15689 0
M  V30 7824 H 741.527 0.142465 4.21159 0
M  V30 7825 H 740.251 -0.594945 3.21135 0
M  V30 7826 H 738.91 1.53429 3.32949 0
M  V30 7827 H 738.558 -0.272422 5.02262 0
M  V30 7828 H 738.258 1.33853 5.72151 0
M  V30 7829 H 739.782 0.48074 6.08705 0
M  V30 7830 H 741.196 2.5442 5.13754 0
M  V30 7831 H 739.593 3.32282 4.99709 0
M  V30 7832 H 740.663 3.26537 3.58471 0
M  V30 7833 N 742.006 -1.2595 0.947325 0
M  V30 7834 C 742.969 -2.24407 0.466285 0
M  V30 7835 C 743.969 -1.55054 -0.426005 0
M  V30 7836 O 745.159 -1.7275 -0.224319 0
M  V30 7837 C 742.291 -3.39326 -0.327201 0
M  V30 7838 H 743.484 -2.68477 1.33642 0
M  V30 7839 H 741.037 -1.38211 0.729887 0
M  V30 7840 H 741.772 -3.00667 -1.21532 0
M  V30 7841 H 741.557 -3.9085 0.312839 0
M  V30 7842 H 743.047 -4.12455 -0.653477 0
M  V30 7843 N 743.484 -0.715051 -1.40445 0
M  V30 7844 C 744.761 -0.181503 -1.94756 0
M  V30 7845 C 745.141 1.31268 -1.65324 0
M  V30 7846 O 744.489 2.0686 -0.970631 0
M  V30 7847 C 744.699 -0.493663 -3.45491 0
M  V30 7848 C 746.047 -0.432032 -4.22396 0
M  V30 7849 O 747.071 -0.429692 -3.53599 0
M  V30 7850 O 745.93 -0.409091 -5.44967 0
M  V30 7851 H 743.024 -0.0263989 -0.826579 0
M  V30 7852 H 745.57 -0.792546 -1.50056 0
M  V30 7853 H 744.342 -1.52713 -3.6027 0
M  V30 7854 H 743.965 0.14737 -3.97327 0
M  V30 7855 N 744.962 1.50701 -0.461195 0
M  V30 7856 C 746.187 2.07171 0.0974773 0
M  V30 7857 C 746.612 1.32391 1.3362 0
M  V30 7858 O 745.97 0.368676 1.77512 0
M  V30 7859 C 746.018 3.58651 0.374409 0
M  V30 7860 O 745.122 3.85816 1.4567 0
M  V30 7861 H 744.463 0.663944 -0.00862047 0
M  V30 7862 H 746.993 1.94021 -0.649394 0
M  V30 7863 H 747.003 4.03295 0.617843 0
M  V30 7864 H 745.678 4.12498 -0.530829 0
M  V30 7865 H 744.255 3.53018 1.20136 0
M  V30 7866 N 746.441 0.193421 1.56409 0
M  V30 7867 C 747.373 -0.759944 2.16235 0
M  V30 7868 C 748.386 -1.17797 1.12373 0
M  V30 7869 O 749.575 -1.11399 1.39472 0
M  V30 7870 C 746.675 -2.03735 2.70823 0
M  V30 7871 C 745.848 -1.77939 3.9957 0
M  V30 7872 C 744.907 -2.90111 4.39001 0
M  V30 7873 O 743.933 -2.59791 5.06456 0
M  V30 7874 N 745.135 -4.18426 4.02368 0
M  V30 7875 H 747.9 -0.248348 2.98669 0
M  V30 7876 H 745.461 0.0113966 1.61896 0
M  V30 7877 H 747.453 -2.77914 2.94187 0
M  V30 7878 H 746.023 -2.46022 1.92852 0
M  V30 7879 H 745.243 -0.875491 3.84355 0
M  V30 7880 H 746.531 -1.58099 4.83614 0
M  V30 7881 H 745.929 -4.45913 3.48106 0
M  V30 7882 H 744.486 -4.89237 4.30686 0
M  V30 7883 N 747.919 -1.57396 -0.0801906 0
M  V30 7884 C 749.33 -1.75642 -0.633002 0
M  V30 7885 C 749.681 -0.817708 -1.78348 0
M  V30 7886 O 748.806 0.000233743 -2.164 0
M  V30 7887 C 749.401 -3.18502 -1.15507 0
M  V30 7888 C 747.96 -3.38121 -1.65381 0
M  V30 7889 C 747.107 -2.71386 -0.569661 0
M  V30 7890 H 750.058 -1.58027 0.145949 0
M  V30 7891 H 750.079 -3.22198 -2.02408 0
M  V30 7892 H 749.591 -3.86799 -0.317515 0
M  V30 7893 H 747.692 -2.74926 -2.51488 0
M  V30 7894 H 747.805 -4.46521 -1.73654 0
M  V30 7895 H 746.169 -2.33702 -1.0127 0
M  V30 7896 H 746.952 -3.42332 0.257561 0
M  V30 7897 N 749.397 0.351382 -1.53633 0
M  V30 7898 C 750.645 1.09034 -1.70165 0
M  V30 7899 C 750.966 1.89413 -0.463422 0
M  V30 7900 O 750.236 1.888 0.522624 0
M  V30 7901 H 748.816 0.405522 -0.627344 0
M  V30 7902 H 751.478 0.394554 -1.90865 0
M  V30 7903 H 750.574 1.77215 -2.56907 0
M  V30 7904 N 750.875 1.45233 0.611969 0
M  V30 7905 C 751.822 1.5357 1.72293 0
M  V30 7906 C 752.792 0.381912 1.6165 0
M  V30 7907 O 753.977 0.594765 1.81293 0
M  V30 7908 C 751.117 1.50419 3.10593 0
M  V30 7909 C 750.23 2.76316 3.32074 0
M  V30 7910 C 749.365 2.64866 4.60456 0
M  V30 7911 C 748.404 3.85838 4.7518 0
M  V30 7912 N 747.541 3.72949 5.94856 0
M  V30 7913 H 752.381 2.4848 1.64504 0
M  V30 7914 H 749.918 1.23302 0.802191 0
M  V30 7915 H 751.876 1.4658 3.90602 0
M  V30 7916 H 750.506 0.590621 3.17351 0
M  V30 7917 H 749.558 2.90261 2.45872 0
M  V30 7918 H 750.87 3.66055 3.38829 0
M  V30 7919 H 750.024 2.58969 5.48653 0
M  V30 7920 H 748.763 1.72719 4.56092 0
M  V30 7921 H 747.768 3.92099 3.85407 0
M  V30 7922 H 748.993 4.79045 4.81344 0
M  V30 7923 H 746.939 2.83567 5.91545 0
M  V30 7924 H 746.856 4.56319 6.02751 0
M  V30 7925 H 748.124 3.70976 6.85563 0
M  V30 7926 N 752.353 -0.854086 1.3245 0
M  V30 7927 C 753.283 -1.97827 1.24044 0
M  V30 7928 C 754.264 -1.69646 0.124166 0
M  V30 7929 O 755.449 -1.91687 0.31143 0
M  V30 7930 C 752.579 -3.33673 0.963324 0
M  V30 7931 C 751.533 -3.76207 2.04089 0
M  V30 7932 C 750.859 -5.0969 1.61618 0
M  V30 7933 C 752.159 -3.91612 3.45597 0
M  V30 7934 H 753.853 -2.05118 2.18099 0
M  V30 7935 H 751.399 -0.985489 1.04996 0
M  V30 7936 H 753.352 -4.11871 0.891061 0
M  V30 7937 H 752.076 -3.26597 -0.0128649 0
M  V30 7938 H 750.735 -3.0026 2.10332 0
M  V30 7939 H 750.383 -4.99072 0.627418 0
M  V30 7940 H 750.083 -5.3912 2.33717 0
M  V30 7941 H 751.607 -5.90381 1.55829 0
M  V30 7942 H 753.021 -4.60163 3.4194 0
M  V30 7943 H 751.418 -4.3246 4.16051 0
M  V30 7944 H 752.488 -2.9451 3.85217 0
M  V30 7945 N 753.831 -1.1567 -1.07043 0
M  V30 7946 C 754.794 -0.858906 -2.12498 0
M  V30 7947 C 755.794 0.142735 -1.60165 0
M  V30 7948 O 756.984 -0.0872678 -1.73981 0
M  V30 7949 C 754.116 -0.283021 -3.39723 0
M  V30 7950 H 755.309 -1.79368 -2.40348 0
M  V30 7951 H 752.862 -0.964608 -1.22984 0
M  V30 7952 H 753.597 0.659796 -3.17517 0
M  V30 7953 H 753.382 -1.00467 -3.7901 0
M  V30 7954 H 754.872 -0.0923543 -4.17498 0
M  V30 7955 N 755.309 1.25446 -0.953992 0
M  V30 7956 C 756.219 2.29632 -0.480264 0
M  V30 7957 C 757.235 1.68025 0.452071 0
M  V30 7958 O 758.411 1.98703 0.328472 0
M  V30 7959 C 755.476 3.45903 0.234974 0
M  V30 7960 C 754.537 4.22953 -0.735495 0
M  V30 7961 C 753.77 5.33672 -0.0542957 0
M  V30 7962 O 753.993 5.58477 1.16018 0
M  V30 7963 O 752.927 5.9734 -0.739509 0
M  V30 7964 H 756.753 2.72242 -1.34602 0
M  V30 7965 H 754.338 1.30883 -0.720419 0
M  V30 7966 H 756.22 4.16552 0.637341 0
M  V30 7967 H 754.895 3.05296 1.07592 0
M  V30 7968 H 753.802 3.54734 -1.18806 0
M  V30 7969 H 755.135 4.67341 -1.54444 0
M  V30 7970 N 756.787 0.722489 1.40064 0
M  V30 7971 C 757.717 0.0892452 2.33329 0
M  V30 7972 C 758.698 -0.737992 1.53257 0
M  V30 7973 O 759.883 -0.685516 1.81698 0
M  V30 7974 C 757.013 -0.828139 3.37282 0
M  V30 7975 C 755.967 -0.106005 4.27869 0
M  V30 7976 C 755.293 -1.13957 5.22415 0
M  V30 7977 C 756.593 1.04395 5.11761 0
M  V30 7978 H 758.287 0.868269 2.86534 0
M  V30 7979 H 755.833 0.418982 1.3777 0
M  V30 7980 H 757.786 -1.28058 4.01471 0
M  V30 7981 H 756.51 -1.63914 2.82489 0
M  V30 7982 H 755.169 0.326683 3.65142 0
M  V30 7983 H 754.817 -1.9438 4.63924 0
M  V30 7984 H 754.517 -0.661233 5.83868 0
M  V30 7985 H 756.041 -1.59197 5.89482 0
M  V30 7986 H 757.455 0.670541 5.69365 0
M  V30 7987 H 755.852 1.4511 5.82291 0
M  V30 7988 H 756.922 1.87144 4.47331 0
M  V30 7989 N 758.265 -1.50454 0.469181 0
M  V30 7990 C 759.514 -2.01507 -0.0881425 0
M  V30 7991 C 759.827 -1.35613 -1.40956 0
M  V30 7992 O 761.033 -1.77812 -2.05171 0
M  V30 7993 C 759.489 -3.59301 -0.207596 0
M  V30 7994 C 759.097 -4.34152 1.10527 0
M  V30 7995 C 760.841 -4.18401 -0.716981 0
M  V30 7996 C 758.748 -5.83725 0.949717 0
M  V30 7997 H 757.678 -0.753106 -0.0367156 0
M  V30 7998 H 760.329 -1.73282 0.603788 0
M  V30 7999 H 758.711 -3.84106 -0.963265 0
M  V30 8000 H 759.885 -4.21073 1.87175 0
M  V30 8001 H 758.2 -3.86652 1.54562 0
M  V30 8002 H 760.797 -5.27895 -0.850363 0
M  V30 8003 H 761.14 -3.79657 -1.70782 0
M  V30 8004 H 761.673 -3.97796 -0.0187511 0
M  V30 8005 H 758.412 -6.26938 1.91387 0
M  V30 8006 H 757.932 -5.99383 0.223591 0
M  V30 8007 H 759.611 -6.44065 0.61557 0
M  V30 8008 N 759.743 -0.201713 -1.56304 0
M  V30 8009 C 760.653 0.728296 -2.23009 0
M  V30 8010 C 761.669 1.22945 -1.23128 0
M  V30 8011 O 762.845 1.27523 -1.55884 0
M  V30 8012 C 759.91 1.92792 -2.88153 0
M  V30 8013 C 758.971 1.47068 -4.03323 0
M  V30 8014 C 758.204 2.61312 -4.65351 0
M  V30 8015 O 758.427 3.7896 -4.26317 0
M  V30 8016 O 757.361 2.33646 -5.54701 0
M  V30 8017 H 761.187 0.190166 -3.03104 0
M  V30 8018 H 758.772 0.0278725 -1.49374 0
M  V30 8019 H 760.654 2.6289 -3.29343 0
M  V30 8020 H 759.329 2.45452 -2.11033 0
M  V30 8021 H 758.236 0.738299 -3.66742 0
M  V30 8022 H 759.569 0.990666 -4.82127 0
M  V30 8023 N 761.222 1.57436 0.0718424 0
M  V30 8024 C 762.172 2.00132 1.09229 0
M  V30 8025 C 763.156 0.883379 1.34481 0
M  V30 8026 O 764.348 1.14728 1.34783 0
M  V30 8027 C 761.477 2.44876 2.40605 0
M  V30 8028 C 760.563 3.63405 2.18627 0
M  V30 8029 N 760.954 4.77583 1.66579 0
M  V30 8030 C 759.252 3.69953 2.491 0
M  V30 8031 C 759.953 5.5943 1.59415 0
M  V30 8032 N 758.929 5.03275 2.05464 0
M  V30 8033 H 762.731 2.85849 0.683185 0
M  V30 8034 H 760.245 1.59987 0.278914 0
M  V30 8035 H 762.242 2.73703 3.14471 0
M  V30 8036 H 760.902 1.60546 2.82232 0
M  V30 8037 H 761.913 4.99875 1.35443 0
M  V30 8038 H 758.59 2.96336 2.94094 0
M  V30 8039 H 759.98 6.61093 1.20026 0
M  V30 8040 N 762.7 -0.34323 1.53817 0
M  V30 8041 C 763.946 -1.08137 1.72273 0
M  V30 8042 C 764.301 -1.86311 0.480201 0
M  V30 8043 O 763.594 -1.84204 -0.527192 0
M  V30 8044 C 763.788 -2.05195 2.92626 0
M  V30 8045 C 763.617 -1.36561 4.28464 0
M  V30 8046 C 762.387 -1.11033 4.9295 0
M  V30 8047 C 764.585 -0.791663 5.0817 0
M  V30 8048 N 762.567 -0.389839 6.12661 0
M  V30 8049 C 763.938 -0.201742 6.19672 0
M  V30 8050 C 765.993 -0.692541 4.9306 0
M  V30 8051 C 764.696 0.477661 7.17712 0
M  V30 8052 C 766.722 -0.0268775 5.91394 0
M  V30 8053 C 766.084 0.552072 7.02233 0
M  V30 8054 H 762.183 -0.380078 0.683421 0
M  V30 8055 H 764.767 -0.364925 1.9125 0
M  V30 8056 H 762.938 -2.74131 2.75149 0
M  V30 8057 H 764.67 -2.7185 2.99799 0
M  V30 8058 H 761.425 -1.39752 4.52511 0
M  V30 8059 H 761.849 -0.0443076 6.76986 0
M  V30 8060 H 766.491 -1.12589 4.07534 0
M  V30 8061 H 764.209 0.922895 8.02813 0
M  V30 8062 H 767.795 0.0491921 5.81779 0
M  V30 8063 H 766.675 1.05899 7.77017 0
M  V30 8064 N 764.178 -1.45556 -0.604258 0
M  V30 8065 C 765.125 -1.54482 -1.71476 0
M  V30 8066 C 766.095 -0.390479 -1.61445 0
M  V30 8067 O 767.28 -0.604371 -1.80975 0
M  V30 8068 C 764.42 -1.52064 -3.09791 0
M  V30 8069 C 763.533 -2.78073 -3.30604 0
M  V30 8070 C 762.668 -2.67304 -4.59044 0
M  V30 8071 C 761.707 -3.88352 -4.73127 0
M  V30 8072 N 760.844 -3.76098 -5.9287 0
M  V30 8073 H 765.684 -2.49349 -1.63184 0
M  V30 8074 H 763.221 -1.23725 -0.795641 0
M  V30 8075 H 765.179 -1.48649 -3.89819 0
M  V30 8076 H 763.809 -0.607442 -3.17033 0
M  V30 8077 H 762.861 -2.91561 -2.44329 0
M  V30 8078 H 764.173 -3.67847 -3.36883 0
M  V30 8079 H 763.327 -2.61875 -5.47272 0
M  V30 8080 H 762.066 -1.75135 -4.55169 0
M  V30 8081 H 761.071 -3.94137 -3.83322 0
M  V30 8082 H 762.296 -4.81591 -4.78797 0
M  V30 8083 H 760.242 -2.867 -5.90033 0
M  V30 8084 H 760.159 -4.59509 -6.00323 0
M  V30 8085 H 761.427 -3.74607 -6.83586 0
M  V30 8086 N 765.656 0.84705 -1.32902 0
M  V30 8087 C 767.072 1.13645 -1.12058 0
M  V30 8088 C 767.272 2.01281 0.093937 0
M  V30 8089 O 766.328 2.4026 0.776608 0
M  V30 8090 C 767.641 1.80644 -2.40392 0
M  V30 8091 C 769.189 1.93246 -2.46221 0
M  V30 8092 C 769.664 2.6366 -3.74496 0
M  V30 8093 N 771.155 2.71179 -3.75521 0
M  V30 8094 C 771.89 3.26332 -4.71482 0
M  V30 8095 N 771.386 3.82236 -5.77813 0
M  V30 8096 N 773.179 3.24507 -4.58968 0
M  V30 8097 H 765.33 0.263612 -2.10758 0
M  V30 8098 H 767.593 0.17944 -0.930863 0
M  V30 8099 H 767.299 1.23708 -3.29225 0
M  V30 8100 H 767.173 2.80736 -2.51926 0
M  V30 8101 H 769.56 2.49338 -1.57843 0
M  V30 8102 H 769.641 0.921272 -2.38634 0
M  V30 8103 H 769.285 2.08229 -4.63253 0
M  V30 8104 H 769.215 3.65234 -3.79357 0
M  V30 8105 H 771.706 2.31527 -2.9867 0
M  V30 8106 H 772.019 4.22499 -6.47082 0
M  V30 8107 H 770.364 3.80546 -5.81558 0
M  V30 8108 H 773.555 2.80085 -3.7506 0
M  V30 8109 H 773.728 3.67188 -5.33926 0
M  V30 8110 N 767.134 1.16236 1.06428 0
M  V30 8111 C 768.364 0.965782 1.82637 0
M  V30 8112 C 768.772 -0.489284 1.82764 0
M  V30 8113 O 768.115 -1.35133 1.24438 0
M  V30 8114 C 768.177 1.41458 3.30499 0
M  V30 8115 C 767.841 2.88926 3.54077 0
M  V30 8116 C 768.838 3.86939 3.47238 0
M  V30 8117 C 766.523 3.26814 3.81442 0
M  V30 8118 C 768.517 5.20841 3.67428 0
M  V30 8119 C 766.204 4.60886 4.01282 0
M  V30 8120 C 767.202 5.57708 3.94272 0
M  V30 8121 O 766.89 6.89357 4.13573 0
M  V30 8122 H 766.622 0.342569 0.582772 0
M  V30 8123 H 769.176 1.54641 1.35187 0
M  V30 8124 H 767.406 0.777426 3.78805 0
M  V30 8125 H 769.095 1.18563 3.88198 0
M  V30 8126 H 769.861 3.59014 3.26089 0
M  V30 8127 H 765.74 2.5203 3.86008 0
M  V30 8128 H 769.284 5.96401 3.61873 0
M  V30 8129 H 765.181 4.88522 4.21921 0
M  V30 8130 H 765.949 6.95913 4.30869 0
M  V30 8131 N 768.612 -1.24939 0.960631 0
M  V30 8132 C 769.858 -1.93104 0.61958 0
M  V30 8133 C 770.191 -1.74991 -0.84212 0
M  V30 8134 O 769.466 -1.09867 -1.60498 0
M  V30 8135 C 769.749 -3.46326 0.986422 0
M  V30 8136 C 769.602 -3.73638 2.50429 0
M  V30 8137 C 770.921 -4.37067 0.515827 0
M  V30 8138 H 768.04 -0.701311 0.226566 0
M  V30 8139 H 770.682 -1.47442 1.19836 0
M  V30 8140 H 768.832 -3.85348 0.493907 0
M  V30 8141 H 770.504 -3.44217 3.07103 0
M  V30 8142 H 768.747 -3.19035 2.93937 0
M  V30 8143 H 769.418 -4.80815 2.71147 0
M  V30 8144 H 771.894 -4.05381 0.938389 0
M  V30 8145 H 770.77 -5.43022 0.80114 0
M  V30 8146 H 771.031 -4.38224 -0.584171 0
M  V30 8147 N 770.09 -0.729906 -1.39679 0
M  V30 8148 C 771.315 -0.284345 -2.05442 0
M  V30 8149 C 771.74 1.07056 -1.54663 0
M  V30 8150 O 771.098 1.67732 -0.688157 0
M  V30 8151 C 771.146 -0.290089 -3.59431 0
M  V30 8152 O 770.25 0.723978 -4.05995 0
M  V30 8153 H 769.591 -0.130311 -0.651088 0
M  V30 8154 H 772.121 -0.994403 -1.78809 0
M  V30 8155 H 772.131 -0.132712 -4.07784 0
M  V30 8156 H 770.806 -1.27877 -3.95753 0
M  V30 8157 H 769.383 0.533154 -3.69069 0
M  V30 8158 N 771.568 1.50203 -0.477153 0
M  V30 8159 C 772.478 2.32421 0.319027 0
M  V30 8160 C 773.494 1.43075 0.990233 0
M  V30 8161 O 774.67 1.76123 0.976873 0
M  V30 8162 C 771.735 3.17909 1.38328 0
M  V30 8163 C 770.796 4.23082 0.728036 0
M  V30 8164 C 770.029 5.04484 1.74158 0
M  V30 8165 O 770.252 4.8705 2.96881 0
M  V30 8166 O 769.186 5.8747 1.31006 0
M  V30 8167 H 773.012 3.01638 -0.353281 0
M  V30 8168 H 770.597 1.47478 -0.238891 0
M  V30 8169 H 772.479 3.70937 1.9996 0
M  V30 8170 H 771.154 2.51413 2.03895 0
M  V30 8171 H 770.061 3.7403 0.07261 0
M  V30 8172 H 771.394 4.92065 0.115216 0
M  V30 8173 N 773.046 0.209999 1.56195 0
M  V30 8174 C 774.274 -0.429996 2.02382 0
M  V30 8175 C 774.689 -1.54159 1.08998 0
M  V30 8176 O 774.046 -1.82239 0.0974856 0
M  V30 8177 C 774.097 -0.972433 3.48175 0
M  V30 8178 O 773.818 0.0948231 4.37997 0
M  V30 8179 C 775.319 -1.68683 4.09952 0
M  V30 8180 H 772.539 -0.106475 0.662498 0
M  V30 8181 H 775.083 0.323072 2.01932 0
M  V30 8182 H 773.238 -1.67582 3.49278 0
M  V30 8183 H 773.652 -0.31113 5.23576 0
M  V30 8184 H 775.126 -2.01851 5.13771 0
M  V30 8185 H 775.603 -2.59587 3.54276 0
M  V30 8186 H 776.209 -1.02893 4.12666 0
M  V30 8187 N 774.524 -1.57472 -0.0634922 0
M  V30 8188 C 775.772 -1.87283 -0.759563 0
M  V30 8189 C 776.093 -0.803135 -1.77693 0
M  V30 8190 O 775.363 0.167293 -1.95184 0
M  V30 8191 H 773.943 -0.691106 -0.283516 0
M  V30 8192 H 776.605 -1.94864 -0.0376091 0
M  V30 8193 H 775.701 -2.85064 -1.27062 0
M  V30 8194 N 776.003 0.335068 -1.53997 0
M  V30 8195 C 777.249 1.07594 -1.71905 0
M  V30 8196 C 777.582 1.88039 -0.485264 0
M  V30 8197 O 776.857 1.87482 0.517752 0
M  V30 8198 C 777.14 2.01016 -2.98772 0
M  V30 8199 C 776.993 1.23977 -4.32377 0
M  V30 8200 C 778.312 3.0071 -3.21343 0
M  V30 8201 H 775.431 0.38976 -0.625505 0
M  V30 8202 H 778.073 0.353684 -1.86679 0
M  V30 8203 H 776.223 2.62603 -2.86307 0
M  V30 8204 H 777.895 0.649383 -4.56706 0
M  V30 8205 H 776.138 0.541878 -4.30402 0
M  V30 8206 H 776.809 1.92512 -5.17342 0
M  V30 8207 H 779.285 2.4924 -3.33194 0
M  V30 8208 H 778.161 3.63272 -4.11491 0
M  V30 8209 H 778.422 3.72549 -2.38033 0
M  V30 8210 N 777.481 1.45874 0.596531 0
M  V30 8211 C 778.727 1.5069 1.35722 0
M  V30 8212 C 779.06 0.152506 1.936 0
M  V30 8213 O 778.335 -0.834411 1.75692 0
M  V30 8214 C 778.618 2.59474 2.4969 0
M  V30 8215 C 778.471 4.04396 1.96937 0
M  V30 8216 C 779.79 2.64451 3.51787 0
M  V30 8217 H 776.909 0.548611 0.492133 0
M  V30 8218 H 779.551 1.77741 0.671428 0
M  V30 8219 H 777.701 2.36539 3.08191 0
M  V30 8220 H 779.373 4.38576 1.43 0
M  V30 8221 H 777.616 4.14529 1.27859 0
M  V30 8222 H 778.287 4.76218 2.79143 0
M  V30 8223 H 780.763 2.85031 3.03145 0
M  V30 8224 H 779.639 3.42411 4.29006 0
M  V30 8225 H 779.9 1.69965 4.08123 0
M  V30 8226 N 778.959 -0.83999 1.33349 0
M  V30 8227 C 779.869 -1.98182 1.25543 0
M  V30 8228 C 780.885 -1.73204 0.166208 0
M  V30 8229 O 782.061 -1.97596 0.389589 0
M  V30 8230 C 779.126 -3.32157 0.993614 0
M  V30 8231 C 778.187 -3.70258 2.17273 0
M  V30 8232 C 777.42 -4.9784 1.92331 0
M  V30 8233 O 777.643 -5.63679 0.873074 0
M  V30 8234 O 776.577 -5.33418 2.78835 0
M  V30 8235 H 780.403 -2.07708 2.21565 0
M  V30 8236 H 777.988 -0.972852 1.13384 0
M  V30 8237 H 779.87 -4.12433 0.864711 0
M  V30 8238 H 778.545 -3.23637 0.0636596 0
M  V30 8239 H 777.452 -2.90497 2.35716 0
M  V30 8240 H 778.785 -3.83442 3.08598 0
M  V30 8241 N 780.437 -1.16799 -1.0581 0
M  V30 8242 C 781.685 -0.950642 -1.78346 0
M  V30 8243 C 782.006 0.522524 -1.87869 0
M  V30 8244 O 781.276 1.3795 -1.39092 0
M  V30 8245 H 779.856 -0.348736 -0.6606 0
M  V30 8246 H 782.518 -1.47158 -1.27791 0
M  V30 8247 H 781.614 -1.37359 -2.80248 0
M  V30 8248 N 781.915 1.24427 -0.967243 0
M  V30 8249 C 782.878 2.23637 -0.501927 0
M  V30 8250 C 783.878 1.55712 0.401283 0
M  V30 8251 O 785.068 1.73085 0.196808 0
M  V30 8252 C 782.2 3.39804 0.273176 0
M  V30 8253 H 783.393 2.66317 -1.37897 0
M  V30 8254 H 780.946 1.37033 -0.751783 0
M  V30 8255 H 781.681 3.02562 1.16733 0
M  V30 8256 H 781.466 3.90303 -0.37498 0
M  V30 8257 H 782.956 4.13443 0.587776 0
M  V30 8258 N 783.393 0.737304 1.3929 0
M  V30 8259 C 784.618 0.295237 2.05288 0
M  V30 8260 C 785.043 -1.06235 1.55228 0
M  V30 8261 O 784.401 -1.67365 0.697043 0
M  V30 8262 C 784.449 0.309146 3.59272 0
M  V30 8263 O 783.553 -0.702437 4.06374 0
M  V30 8264 H 782.894 0.133762 0.650387 0
M  V30 8265 H 785.424 1.00387 1.78279 0
M  V30 8266 H 785.434 0.154336 4.07708 0
M  V30 8267 H 784.109 1.29974 3.95069 0
M  V30 8268 H 782.686 -0.513574 3.69346 0
M  V30 8269 N 784.871 -1.49948 0.485112 0
M  V30 8270 C 786.282 -1.8667 0.0334041 0
M  V30 8271 C 786.633 -1.3988 -1.37579 0
M  V30 8272 O 785.758 -0.769788 -2.02245 0
M  V30 8273 C 786.353 -3.38757 0.0538426 0
M  V30 8274 C 784.912 -3.74839 -0.342453 0
M  V30 8275 C 784.059 -2.73894 0.433281 0
M  V30 8276 H 787.01 -1.42492 0.698699 0
M  V30 8277 H 787.031 -3.73132 -0.745146 0
M  V30 8278 H 786.543 -3.72782 1.07959 0
M  V30 8279 H 784.644 -3.46419 -1.37203 0
M  V30 8280 H 784.757 -4.79088 -0.0340503 0
M  V30 8281 H 783.121 -2.54441 -0.114849 0
M  V30 8282 H 783.904 -3.10763 1.45881 0
M  V30 8283 N 786.349 -0.21828 -1.56081 0
M  V30 8284 C 787.596 0.414307 -1.98216 0
M  V30 8285 C 787.924 1.60005 -1.10584 0
M  V30 8286 O 787.179 1.95124 -0.150043 0
M  V30 8287 C 787.478 0.894782 -3.46018 0
M  V30 8288 C 787.144 -0.180083 -4.5054 0
M  V30 8289 C 785.806 -0.475367 -4.78846 0
M  V30 8290 C 788.158 -0.907191 -5.13244 0
M  V30 8291 C 785.486 -1.50233 -5.67139 0
M  V30 8292 C 787.838 -1.92347 -6.02649 0
M  V30 8293 C 786.502 -2.22571 -6.293 0
M  V30 8294 H 785.772 0.151606 -0.725325 0
M  V30 8295 H 788.419 -0.320113 -1.88806 0
M  V30 8296 H 786.724 1.7079 -3.52616 0
M  V30 8297 H 788.421 1.39403 -3.75989 0
M  V30 8298 H 785.011 0.06022 -4.28558 0
M  V30 8299 H 789.195 -0.692303 -4.91448 0
M  V30 8300 H 784.451 -1.74215 -5.86054 0
M  V30 8301 H 788.625 -2.49197 -6.50288 0
M  V30 8302 H 786.252 -3.0229 -6.97513 0
M  V30 8303 N 787.827 1.57504 0.0551401 0
M  V30 8304 C 788.757 2.07864 1.06372 0
M  V30 8305 C 789.738 0.975565 1.39344 0
M  V30 8306 O 790.923 1.24929 1.48682 0
M  V30 8307 C 788.053 2.53643 2.3724 0
M  V30 8308 C 787.007 3.67978 2.18578 0
M  V30 8309 C 786.333 3.9987 3.54976 0
M  V30 8310 C 787.633 4.97405 1.59329 0
M  V30 8311 H 789.327 2.92379 0.644595 0
M  V30 8312 H 786.873 1.40654 0.308619 0
M  V30 8313 H 788.826 2.8749 3.08103 0
M  V30 8314 H 787.55 1.66177 2.81163 0
M  V30 8315 H 786.209 3.3444 1.50152 0
M  V30 8316 H 785.857 3.0951 3.965 0
M  V30 8317 H 785.557 4.76867 3.43324 0
M  V30 8318 H 787.081 4.36228 4.27244 0
M  V30 8319 H 788.495 5.29375 2.20078 0
M  V30 8320 H 786.892 5.78837 1.58327 0
M  V30 8321 H 787.962 4.81697 0.55638 0
M  V30 8322 N 789.305 -0.326896 1.54172 0
M  V30 8323 C 790.551 -1.06681 1.72473 0
M  V30 8324 C 790.884 -1.87779 0.49523 0
M  V30 8325 O 790.159 -1.87754 -0.507803 0
M  V30 8326 C 790.442 -1.99429 2.99834 0
M  V30 8327 C 790.295 -1.21682 4.33028 0
M  V30 8328 C 791.614 -2.99002 3.22933 0
M  V30 8329 H 788.733 -0.386438 0.627563 0
M  V30 8330 H 791.375 -0.343779 1.86864 0
M  V30 8331 H 789.525 -2.61081 2.87696 0
M  V30 8332 H 791.197 -0.625153 4.57044 0
M  V30 8333 H 789.44 -0.519045 4.30684 0
M  V30 8334 H 790.111 -1.89766 5.18356 0
M  V30 8335 H 792.587 -2.4747 3.34511 0
M  V30 8336 H 791.463 -3.61085 4.13412 0
M  V30 8337 H 791.724 -3.71281 2.40006 0
M  V30 8338 N 790.784 -1.46188 -0.588786 0
M  V30 8339 C 792.2 -1.31009 -0.911524 0
M  V30 8340 C 792.4 -0.277017 -1.99587 0
M  V30 8341 O 791.456 0.322532 -2.50432 0
M  V30 8342 C 792.769 -2.69459 -1.33463 0
M  V30 8343 C 794.317 -2.77502 -1.44782 0
M  V30 8344 C 794.792 -4.1652 -1.90461 0
M  V30 8345 N 796.283 -4.18907 -1.97665 0
M  V30 8346 C 797.018 -5.23359 -2.34271 0
M  V30 8347 N 796.514 -6.38143 -2.69714 0
M  V30 8348 N 798.307 -5.10723 -2.34774 0
M  V30 8349 H 790.458 -2.12016 0.127614 0
M  V30 8350 H 792.721 -0.947984 -0.00557599 0
M  V30 8351 H 792.427 -3.46336 -0.611929 0
M  V30 8352 H 792.301 -2.99165 -2.2974 0
M  V30 8353 H 794.688 -2.00917 -2.1614 0
M  V30 8354 H 794.769 -2.51488 -0.467724 0
M  V30 8355 H 794.413 -4.93597 -1.19684 0
M  V30 8356 H 794.343 -4.39937 -2.89418 0
M  V30 8357 H 796.834 -3.36084 -1.72789 0
M  V30 8358 H 797.147 -7.13624 -2.96582 0
M  V30 8359 H 795.492 -6.41514 -2.67366 0
M  V30 8360 H 798.683 -4.20088 -2.06503 0
M  V30 8361 H 798.856 -5.9224 -2.62975 0
M  V30 8362 O 792.301 0.732974 -1.43909 0
M  V30 8363 H 792.992 1.38287 -1.35633 0
M  V30 END ATOM
M  V30 BEGIN BOND
M  V30 END BOND
M  V30 END CTAB
M  END
$$$$
