drugbank_target|P9WP01 Purine nucleoside phosphorylase (DB03411; DB03551; DB04095)
 OpenBabel12092119563D

  0  0  0     0  0            999 V3000
M  V30 BEGIN CTAB
M  V30 COUNTS 3905 3943 0 0 0
M  V30 BEGIN ATOM
M  V30 1 H -0.908 1.98254 -0.117106 0
M  V30 2 N 0 1.576 0 0
M  V30 3 C 0.933 2.03868 1.02534 0
M  V30 4 C 1.911 0.928543 1.3348 0
M  V30 5 O 3.095 1.19667 1.45644 0
M  V30 6 C 0.222 2.43627 2.35294 0
M  V30 7 C -0.732 3.65373 2.2001 0
M  V30 8 S 0.101 5.13292 1.52614 0
M  V30 9 C 1.257 5.56322 2.86805 0
M  V30 10 H 1.49 2.90518 0.631377 0
M  V30 11 H -0.977 1.52953 0.210867 0
M  V30 12 H 0.981 2.67203 3.11629 0
M  V30 13 H -0.358 1.57376 2.7183 0
M  V30 14 H -1.165 3.90944 3.18086 0
M  V30 15 H -1.563 3.418 1.51819 0
M  V30 16 H 0.729 5.58782 3.83104 0
M  V30 17 H 1.672 6.56266 2.65933 0
M  V30 18 H 2.08 4.83886 2.90714 0
M  V30 19 N 1.4781 -0.272755 1.55222 0
M  V30 20 C 2.4411 -1.32041 1.87344 0
M  V30 21 C 3.4411 -1.42342 0.74803 0
M  V30 22 O 4.6311 -1.41488 1.0162 0
M  V30 23 C 1.7631 -2.70173 2.07893 0
M  V30 24 H 2.9561 -1.04789 2.80997 0
M  V30 25 H 0.5091 -0.51083 1.47717 0
M  V30 26 H 1.2441 -3.02605 1.16622 0
M  V30 27 H 1.0291 -2.64082 2.89833 0
M  V30 28 H 2.5191 -3.45869 2.34017 0
M  V30 29 N 2.9562 -1.48159 -0.537278 0
M  V30 30 C 4.2332 -1.46291 -1.29839 0
M  V30 31 C 4.6132 -0.170613 -2.10409 0
M  V30 32 O 3.9612 0.847746 -2.12192 0
M  V30 33 C 4.1712 -2.72055 -2.18603 0
M  V30 34 C 5.5192 -3.20087 -2.7898 0
M  V30 35 O 6.5432 -2.72921 -2.28894 0
M  V30 36 O 5.4022 -4.02138 -3.70064 0
M  V30 37 H 2.4962 -0.583906 -0.585647 0
M  V30 38 H 5.0422 -1.60384 -0.554534 0
M  V30 39 H 3.8142 -3.57628 -1.58801 0
M  V30 40 H 3.4372 -2.60646 -3.00249 0
M  V30 41 N 4.4343 0.785586 -1.36625 0
M  V30 42 C 5.8453 1.36101 -1.27803 0
M  V30 43 C 6.1963 1.96035 0.0804875 0
M  V30 44 O 5.3213 1.92834 0.982042 0
M  V30 45 C 5.9163 2.47442 -2.31426 0
M  V30 46 C 4.4753 3.00789 -2.26281 0
M  V30 47 C 3.6223 1.73896 -2.15999 0
M  V30 48 H 6.5733 0.586928 -1.47448 0
M  V30 49 H 6.5943 3.2656 -1.95291 0
M  V30 50 H 6.1063 2.03791 -3.30289 0
M  V30 51 H 4.2073 3.48851 -1.30896 0
M  V30 52 H 4.3203 3.57343 -3.19128 0
M  V30 53 H 2.6843 1.9628 -1.62316 0
M  V30 54 H 3.4673 1.32368 -3.16755 0
M  V30 55 N 5.9124 1.20967 1.01018 0
M  V30 56 C 7.3284 0.965905 1.27053 0
M  V30 57 C 7.5284 -0.350785 1.98423 0
M  V30 58 O 6.5844 -1.07773 2.28344 0
M  V30 59 C 7.8974 2.15294 2.09926 0
M  V30 60 C 9.4454 2.19463 2.23171 0
M  V30 61 C 9.9204 3.3767 3.09424 0
M  V30 62 N 11.4114 3.37724 3.17012 0
M  V30 63 C 12.1464 4.25837 3.83993 0
M  V30 64 N 11.6424 5.24138 4.53047 0
M  V30 65 N 13.4354 4.1366 3.80581 0
M  V30 66 H 5.5864 2.0565 0.531194 0
M  V30 67 H 7.8494 0.90024 0.297106 0
M  V30 68 H 7.5554 3.10684 1.64828 0
M  V30 69 H 7.4294 2.13923 3.10672 0
M  V30 70 H 9.8164 1.24632 2.6749 0
M  V30 71 H 9.8974 2.2488 1.21912 0
M  V30 72 H 9.5414 4.32791 2.65808 0
M  V30 73 H 9.4714 3.29491 4.10784 0
M  V30 74 H 11.9624 2.6658 2.6785 0
M  V30 75 H 12.2754 5.87684 5.01844 0
M  V30 76 H 10.6204 5.28068 4.5185 0
M  V30 77 H 13.8114 3.36127 3.25785 0
M  V30 78 H 13.9844 4.82538 4.32505 0
M  V30 79 N 7.3905 -1.2043 1.01659 0
M  V30 80 C 8.8015 -1.71517 0.737482 0
M  V30 81 C 9.1525 -1.81547 -0.743973 0
M  V30 82 O 8.2775 -1.47803 -1.58061 0
M  V30 83 C 8.8725 -3.11515 1.33206 0
M  V30 84 C 7.4315 -3.59912 1.10183 0
M  V30 85 C 6.5785 -2.37116 1.43776 0
M  V30 86 H 9.5295 -1.05444 1.18606 0
M  V30 87 H 9.5505 -3.73575 0.722636 0
M  V30 88 H 9.0625 -3.04182 2.41028 0
M  V30 89 H 7.1635 -3.72577 0.0412756 0
M  V30 90 H 7.2765 -4.44731 1.78188 0
M  V30 91 H 5.6405 -2.39857 0.856778 0
M  V30 92 H 6.4235 -2.32424 2.52654 0
M  V30 93 N 8.8686 -0.792821 -1.36206 0
M  V30 94 C 10.1456 -0.290627 -1.93429 0
M  V30 95 C 10.5256 1.21773 -1.72437 0
M  V30 96 O 9.8736 2.0108 -1.08531 0
M  V30 97 C 10.0836 -0.686973 -3.42172 0
M  V30 98 C 11.4316 -0.668643 -4.19302 0
M  V30 99 O 12.4556 -0.627658 -3.50626 0
M  V30 100 O 11.3146 -0.714597 -5.41808 0
M  V30 101 H 8.4086 -0.0727927 -0.82379 0
M  V30 102 H 10.9546 -0.875593 -1.45367 0
M  V30 103 H 9.7266 -1.72711 -3.51122 0
M  V30 104 H 9.3496 -0.0760733 -3.97527 0
M  V30 105 N 10.3467 1.47872 -0.545128 0
M  V30 106 C 11.7577 1.86384 -0.108581 0
M  V30 107 C 12.1087 1.45309 1.31832 0
M  V30 108 O 11.2337 0.850641 1.9898 0
M  V30 109 C 11.8287 3.38265 -0.190274 0
M  V30 110 C 10.3877 3.75914 0.191164 0
M  V30 111 C 9.5347 2.71926 -0.543273 0
M  V30 112 H 12.4857 1.39561 -0.755537 0
M  V30 113 H 12.5067 3.75831 0.594217 0
M  V30 114 H 12.0187 3.6813 -1.2289 0
M  V30 115 H 10.1197 3.51665 1.23136 0
M  V30 116 H 10.2327 4.78836 -0.158987 0
M  V30 117 H 8.5967 2.54697 0.0122495 0
M  V30 118 H 9.3797 3.04634 -1.58282 0
M  V30 119 N 11.8248 0.280983 1.55075 0
M  V30 120 C 13.1018 -0.386207 1.91749 0
M  V30 121 C 13.4818 -1.73264 1.20594 0
M  V30 122 O 12.8298 -2.26034 0.334784 0
M  V30 123 C 13.0398 -0.520687 3.45094 0
M  V30 124 C 14.3878 -0.800865 4.16979 0
M  V30 125 O 15.4118 -0.605271 3.5102 0
M  V30 126 O 14.2708 -1.1753 5.33712 0
M  V30 127 H 11.3648 -0.212408 0.799257 0
M  V30 128 H 13.9108 0.327568 1.66509 0
M  V30 129 H 12.6828 0.426633 3.88967 0
M  V30 130 H 12.3058 -1.2837 3.76307 0
M  V30 131 N 13.3029 -1.57598 0.00835791 0
M  V30 132 C 14.2129 -2.12385 -0.996487 0
M  V30 133 C 15.2289 -1.07108 -1.37127 0
M  V30 134 O 16.4049 -1.39055 -1.4569 0
M  V30 135 C 13.4699 -2.62314 -2.26699 0
M  V30 136 C 12.5309 -3.82225 -1.95456 0
M  V30 137 C 11.7639 -4.29763 -3.16449 0
M  V30 138 O 11.9869 -3.76584 -4.28416 0
M  V30 139 O 10.9209 -5.21832 -2.99958 0
M  V30 140 H 14.7469 -2.98479 -0.560725 0
M  V30 141 H 12.3319 -1.47903 -0.210987 0
M  V30 142 H 14.2139 -2.94589 -3.01322 0
M  V30 143 H 12.8889 -1.79313 -2.69497 0
M  V30 144 H 11.7959 -3.54909 -1.18282 0
M  V30 145 H 13.1289 -4.66324 -1.57489 0
M  V30 146 N 14.781 0.264519 -1.55364 0
M  V30 147 C 15.711 1.33121 -1.91836 0
M  V30 148 C 16.692 1.51101 -0.781192 0
M  V30 149 O 17.877 1.64003 -1.04003 0
M  V30 150 C 15.007 2.68921 -2.19769 0
M  V30 151 C 13.961 2.65661 -3.35571 0
M  V30 152 C 13.287 4.05093 -3.49004 0
M  V30 153 C 14.587 2.24187 -4.71739 0
M  V30 154 H 16.281 1.02844 -2.81182 0
M  V30 155 H 13.827 0.493286 -1.35287 0
M  V30 156 H 15.78 3.43663 -2.43872 0
M  V30 157 H 14.504 3.00799 -1.27231 0
M  V30 158 H 13.163 1.93377 -3.1145 0
M  V30 159 H 12.811 4.34206 -2.53917 0
M  V30 160 H 12.511 4.03804 -4.26868 0
M  V30 161 H 14.035 4.81561 -3.75408 0
M  V30 162 H 15.449 2.88654 -4.9533 0
M  V30 163 H 13.846 2.34044 -5.52579 0
M  V30 164 H 14.916 1.19327 -4.69988 0
M  V30 165 N 16.2591 1.48442 0.529413 0
M  V30 166 C 17.2221 1.62524 1.61612 0
M  V30 167 C 18.2221 0.498509 1.52877 0
M  V30 168 O 19.4121 0.76431 1.56537 0
M  V30 169 C 16.5441 1.59597 3.01233 0
M  V30 170 H 17.7371 2.59423 1.50465 0
M  V30 171 H 15.2901 1.37047 0.751514 0
M  V30 172 H 16.0251 0.641781 3.17886 0
M  V30 173 H 15.8101 2.41397 3.08982 0
M  V30 174 H 17.3001 1.72646 3.80241 0
M  V30 175 N 17.7372 -0.778329 1.37039 0
M  V30 176 C 19.1532 -1.07796 1.17695 0
M  V30 177 C 19.3532 -2.01498 0.00860115 0
M  V30 178 O 18.4092 -2.43901 -0.653352 0
M  V30 179 C 19.7222 -1.68178 2.49272 0
M  V30 180 C 21.2702 -1.80467 2.55735 0
M  V30 181 C 21.7452 -2.44263 3.87427 0
M  V30 182 N 23.2362 -2.51721 3.88833 0
M  V30 183 C 23.9712 -3.01919 4.87476 0
M  V30 184 N 23.4672 -3.5234 5.96513 0
M  V30 185 N 25.2602 -3.00733 4.74885 0
M  V30 186 H 17.4112 -0.156032 2.11826 0
M  V30 187 H 19.6742 -0.131844 0.938787 0
M  V30 188 H 19.3802 -1.06796 3.35093 0
M  V30 189 H 19.2542 -2.67554 2.65885 0
M  V30 190 H 21.6412 -2.40984 1.70325 0
M  V30 191 H 21.7222 -0.798656 2.43013 0
M  V30 192 H 21.3662 -1.84388 4.73248 0
M  V30 193 H 21.2962 -3.45458 3.9745 0
M  V30 194 H 23.7872 -2.1603 3.10063 0
M  V30 195 H 24.1002 -3.89027 6.67741 0
M  V30 196 H 22.4452 -3.50462 6.00168 0
M  V30 197 H 25.6362 -2.60638 3.88826 0
M  V30 198 H 25.8092 -3.39545 5.51918 0
M  V30 199 N 19.2153 -1.21501 -1.00376 0
M  V30 200 C 20.6313 -0.972629 -1.26539 0
M  V30 201 C 20.8313 0.340257 -1.98606 0
M  V30 202 O 19.8873 1.06561 -2.28913 0
M  V30 203 C 21.2003 -2.16404 -2.08781 0
M  V30 204 C 22.7483 -2.20643 -2.22004 0
M  V30 205 C 23.2233 -3.39306 -3.07629 0
M  V30 206 N 24.7143 -3.39401 -3.15217 0
M  V30 207 C 25.4493 -4.27867 -3.81729 0
M  V30 208 N 24.9453 -5.26533 -4.5026 0
M  V30 209 N 26.7383 -4.15672 -3.78382 0
M  V30 210 H 18.8893 -2.05929 -0.520281 0
M  V30 211 H 21.1523 -0.901803 -0.292328 0
M  V30 212 H 20.8583 -3.11554 -1.63178 0
M  V30 213 H 20.7323 -2.15567 -3.09533 0
M  V30 214 H 23.1193 -1.26048 -2.66825 0
M  V30 215 H 23.2003 -2.25523 -1.20718 0
M  V30 216 H 22.8443 -4.34195 -2.63509 0
M  V30 217 H 22.7743 -3.31665 -4.09031 0
M  V30 218 H 25.2653 -2.67997 -2.66432 0
M  V30 219 H 25.5783 -5.90337 -4.98721 0
M  V30 220 H 23.9233 -5.30457 -4.49044 0
M  V30 221 H 27.1143 -3.3785 -3.23998 0
M  V30 222 H 27.2873 -4.84825 -4.2994 0
M  V30 223 N 20.6934 1.19889 -1.02296 0
M  V30 224 C 21.6564 2.21116 -0.603351 0
M  V30 225 C 22.6564 1.5738 0.329884 0
M  V30 226 O 23.8464 1.73802 0.117702 0
M  V30 227 C 20.9784 3.40696 0.117992 0
M  V30 228 H 22.1714 2.59754 -1.49893 0
M  V30 229 H 19.7244 1.33463 -0.813468 0
M  V30 230 H 20.4594 3.07569 1.0282 0
M  V30 231 H 20.2444 3.88188 -0.552511 0
M  V30 232 H 21.7344 4.15692 0.398696 0
M  V30 233 N 22.1715 0.800033 1.35784 0
M  V30 234 C 23.1345 0.211565 2.28221 0
M  V30 235 C 24.1345 -0.59728 1.49296 0
M  V30 236 O 25.3245 -0.416721 1.69142 0
M  V30 237 C 22.4565 -0.705846 3.33513 0
M  V30 238 H 23.6495 1.02677 2.81776 0
M  V30 239 H 21.2025 0.570211 1.45528 0
M  V30 240 H 21.9375 -1.54498 2.85133 0
M  V30 241 H 21.7225 -0.127655 3.91892 0
M  V30 242 H 23.2125 -1.11211 4.02519 0
M  V30 243 N 23.6496 -1.47581 0.552962 0
M  V30 244 C 24.5816 -2.27997 -0.234533 0
M  V30 245 C 25.5946 -1.36753 -0.883321 0
M  V30 246 O 26.7836 -1.61612 -0.757889 0
M  V30 247 C 23.8836 -3.10879 -1.34935 0
M  V30 248 C 23.0566 -4.30056 -0.798158 0
M  V30 249 C 22.1156 -4.94567 -1.79694 0
M  V30 250 O 21.1416 -5.53087 -1.34474 0
M  V30 251 N 22.3436 -4.88878 -3.13015 0
M  V30 252 H 25.1086 -2.96222 0.455255 0
M  V30 253 H 22.6696 -1.57163 0.388761 0
M  V30 254 H 24.6616 -3.50903 -2.01616 0
M  V30 255 H 23.2316 -2.44924 -1.94244 0
M  V30 256 H 22.4516 -3.94174 0.0453079 0
M  V30 257 H 23.7396 -5.07152 -0.409173 0
M  V30 258 H 23.1376 -4.42526 -3.52402 0
M  V30 259 H 21.6946 -5.32934 -3.75266 0
M  V30 260 N 25.1277 -0.289203 -1.54924 0
M  V30 261 C 26.3737 0.323998 -2.00195 0
M  V30 262 C 26.7067 1.54441 -1.17735 0
M  V30 263 O 25.9817 1.92875 -0.250878 0
M  V30 264 C 26.2647 0.692276 -3.53383 0
M  V30 265 C 26.1177 -0.536457 -4.46589 0
M  V30 266 C 27.4367 1.52335 -4.12895 0
M  V30 267 H 24.5557 0.116289 -0.727768 0
M  V30 268 H 27.1977 -0.398954 -1.85764 0
M  V30 269 H 25.3477 1.30822 -3.65811 0
M  V30 270 H 27.0197 -1.17499 -4.46085 0
M  V30 271 H 25.2627 -1.17192 -4.1767 0
M  V30 272 H 25.9337 -0.234806 -5.515 0
M  V30 273 H 28.4097 1.00302 -4.0383 0
M  V30 274 H 27.2857 1.74982 -5.20262 0
M  V30 275 H 27.5467 2.50886 -3.64018 0
M  V30 276 N 26.6058 1.57591 -0.0167156 0
M  V30 277 C 27.8548 1.90461 0.663877 0
M  V30 278 C 28.1678 0.893515 1.73999 0
M  V30 279 O 29.3738 1.11302 2.47637 0
M  V30 280 C 27.8298 3.38155 1.23204 0
M  V30 281 C 27.4378 4.47597 0.189866 0
M  V30 282 C 29.1818 3.80111 1.88986 0
M  V30 283 C 27.0888 5.86379 0.768964 0
M  V30 284 H 26.0188 0.710738 0.251729 0
M  V30 285 H 28.6698 1.83326 -0.0799926 0
M  V30 286 H 27.0518 3.40182 2.02712 0
M  V30 287 H 28.2258 4.57112 -0.581846 0
M  V30 288 H 26.5408 4.14766 -0.368475 0
M  V30 289 H 29.1378 4.81145 2.33247 0
M  V30 290 H 29.4808 3.14511 2.72743 0
M  V30 291 H 30.0138 3.80454 1.16187 0
M  V30 292 H 26.7528 6.55493 -0.0301957 0
M  V30 293 H 26.2728 5.80496 1.50945 0
M  V30 294 H 27.9518 6.34563 1.26251 0
M  V30 295 N 28.0839 -0.256276 1.55502 0
M  V30 296 C 29.0469 -1.30047 1.88734 0
M  V30 297 C 30.0469 -1.4154 0.763086 0
M  V30 298 O 31.2369 -1.40403 1.03115 0
M  V30 299 C 28.3689 -2.67953 2.10747 0
M  V30 300 H 29.5619 -1.01802 2.82093 0
M  V30 301 H 27.1149 -0.495134 1.4825 0
M  V30 302 H 27.8499 -3.01351 1.19825 0
M  V30 303 H 27.6349 -2.60993 2.92617 0
M  V30 304 H 29.1249 -3.43368 2.37673 0
M  V30 305 N 29.562 -1.4872 -0.521534 0
M  V30 306 C 30.839 -1.4766 -1.2828 0
M  V30 307 C 31.219 -0.19292 -2.10217 0
M  V30 308 O 30.567 0.825193 -2.13079 0
M  V30 309 C 30.777 -2.74358 -2.15705 0
M  V30 310 C 32.125 -3.23028 -2.75569 0
M  V30 311 O 33.149 -2.75333 -2.25987 0
M  V30 312 O 32.008 -4.0604 -3.65778 0
M  V30 313 H 29.102 -0.590085 -0.579421 0
M  V30 314 H 31.648 -1.60963 -0.537492 0
M  V30 315 H 30.42 -3.59292 -1.54999 0
M  V30 316 H 30.043 -2.63816 -2.97467 0
M  V30 317 N 31.0401 0.771051 -1.3745 0
M  V30 318 C 32.4561 1.07171 -1.18265 0
M  V30 319 C 32.6561 2.01491 -0.019287 0
M  V30 320 O 31.7121 2.44244 0.640408 0
M  V30 321 C 33.0251 1.66854 -2.50161 0
M  V30 322 C 34.5731 1.79109 -2.56689 0
M  V30 323 C 35.0481 2.42205 -3.88717 0
M  V30 324 N 36.5391 2.49655 -3.90162 0
M  V30 325 C 37.2741 2.9933 -4.8907 0
M  V30 326 N 36.7701 3.49172 -5.98374 0
M  V30 327 N 38.5631 2.9821 -4.76474 0
M  V30 328 H 30.7141 0.144796 -2.11906 0
M  V30 329 H 32.9771 0.126863 -0.939473 0
M  V30 330 H 32.6831 1.05017 -3.35655 0
M  V30 331 H 32.5571 2.6614 -2.673 0
M  V30 332 H 34.9441 2.40077 -1.71601 0
M  V30 333 H 35.0251 0.785757 -2.43433 0
M  V30 334 H 34.6691 1.81875 -4.74219 0
M  V30 335 H 34.5991 3.43345 -3.99276 0
M  V30 336 H 37.0901 2.14383 -3.11205 0
M  V30 337 H 37.4031 3.8548 -6.69795 0
M  V30 338 H 35.7481 3.47275 -6.02018 0
M  V30 339 H 38.9391 2.58572 -3.90203 0
M  V30 340 H 39.1121 3.36613 -5.53711 0
M  V30 341 N 32.5182 1.22032 0.997298 0
M  V30 342 C 33.7462 1.06841 1.7718 0
M  V30 343 C 34.1612 -0.381325 1.84909 0
M  V30 344 O 33.5182 -1.26437 1.31605 0
M  V30 345 C 33.5692 1.66814 3.20711 0
M  V30 346 O 33.2902 3.06116 3.13408 0
M  V30 347 C 34.7912 1.56838 4.14628 0
M  V30 348 H 32.0112 0.374782 0.556578 0
M  V30 349 H 34.5552 1.61532 1.2541 0
M  V30 350 H 32.7102 1.16196 3.69564 0
M  V30 351 H 33.1242 3.34926 4.0364 0
M  V30 352 H 34.5982 2.03532 5.13107 0
M  V30 353 H 35.0752 0.524155 4.36061 0
M  V30 354 H 35.6812 2.06741 3.7167 0
M  V30 355 N 33.9963 -1.19345 1.0293 0
M  V30 356 C 35.2443 -1.88665 0.724574 0
M  V30 357 C 35.5653 -1.80036 -0.749144 0
M  V30 358 O 34.8353 -1.2111 -1.53978 0
M  V30 359 H 33.4153 -0.698406 0.265025 0
M  V30 360 H 36.0773 -1.44885 1.30362 0
M  V30 361 H 35.1733 -2.94987 1.01926 0
M  V30 362 N 35.4744 -0.807222 -1.35358 0
M  V30 363 C 36.7234 -0.384376 -1.98004 0
M  V30 364 C 37.0364 1.0543 -1.64754 0
M  V30 365 O 38.2424 1.58029 -2.20769 0
M  V30 366 C 36.6984 -0.636326 -3.5423 0
M  V30 367 C 36.3064 -2.08759 -3.96388 0
M  V30 368 C 38.0504 -0.278869 -4.23583 0
M  V30 369 C 35.9574 -2.28525 -5.45463 0
M  V30 370 H 34.8874 -0.139986 -0.740891 0
M  V30 371 H 37.5384 -0.991369 -1.54415 0
M  V30 372 H 35.9204 0.0406256 -3.95979 0
M  V30 373 H 37.0944 -2.8024 -3.6579 0
M  V30 374 H 35.4094 -2.40497 -3.39926 0
M  V30 375 H 38.0064 -0.404599 -5.33167 0
M  V30 376 H 38.3494 0.775012 -4.09022 0
M  V30 377 H 38.8824 -0.909764 -3.87257 0
M  V30 378 H 35.6214 -3.32361 -5.64992 0
M  V30 379 H 35.1414 -1.61569 -5.77629 0
M  V30 380 H 36.8204 -2.10109 -6.11934 0
M  V30 381 N 36.9525 1.47285 -0.560781 0
M  V30 382 C 38.2005 2.02064 -0.0379868 0
M  V30 383 C 38.5215 1.43711 1.31803 0
M  V30 384 O 37.7915 0.61362 1.86042 0
M  V30 385 H 36.3715 0.746918 -0.0110531 0
M  V30 386 H 39.0335 1.80648 -0.731598 0
M  V30 387 H 38.1295 3.12064 0.0474463 0
M  V30 388 N 38.4306 0.297415 1.54768 0
M  V30 389 C 39.3406 -0.58983 2.27064 0
M  V30 390 C 40.3566 -1.15144 1.30453 0
M  V30 391 O 41.5326 -1.17699 1.63428 0
M  V30 392 C 38.5976 -1.74714 2.9946 0
M  V30 393 C 37.6586 -1.21997 4.11601 0
M  V30 394 C 36.8916 -2.32212 4.80535 0
M  V30 395 O 37.1146 -3.52036 4.48806 0
M  V30 396 O 36.0486 -1.99106 5.68014 0
M  V30 397 H 39.8746 -0.00348199 3.037 0
M  V30 398 H 37.4596 0.0640035 1.49263 0
M  V30 399 H 39.3416 -2.42147 3.44881 0
M  V30 400 H 38.0166 -2.32016 2.25722 0
M  V30 401 H 36.9236 -0.511458 3.70587 0
M  V30 402 H 38.2566 -0.692419 4.87305 0
M  V30 403 N 39.9087 -1.5758 0.0250728 0
M  V30 404 C 40.8587 -2.06468 -0.967201 0
M  V30 405 C 41.8427 -0.964376 -1.28797 0
M  V30 406 O 43.0347 -1.22797 -1.27475 0
M  V30 407 C 40.1637 -2.59203 -2.25097 0
M  V30 408 C 39.2497 -3.76157 -1.95874 0
M  V30 409 N 39.6407 -4.86919 -1.36905 0
M  V30 410 C 37.9387 -3.84566 -2.25887 0
M  V30 411 C 38.6397 -5.68172 -1.24724 0
M  V30 412 N 37.6157 -5.14953 -1.74138 0
M  V30 413 H 41.4177 -2.89508 -0.506176 0
M  V30 414 H 38.9317 -1.61399 -0.18004 0
M  V30 415 H 40.9287 -2.92517 -2.97052 0
M  V30 416 H 39.5887 -1.77592 -2.71829 0
M  V30 417 H 40.5997 -5.07256 -1.04459 0
M  V30 418 H 37.2767 -3.13854 -2.75321 0
M  V30 419 H 38.6667 -6.67221 -0.791605 0
M  V30 420 N 41.3868 0.248026 -1.55636 0
M  V30 421 C 42.6638 0.998988 -1.68165 0
M  V30 422 C 43.0438 2.03409 -0.564621 0
M  V30 423 O 42.3918 2.24378 0.432076 0
M  V30 424 C 42.6018 1.63334 -3.0842 0
M  V30 425 C 43.9498 2.13562 -3.66983 0
M  V30 426 O 44.9738 1.73277 -3.11213 0
M  V30 427 O 43.8328 2.87526 -4.64749 0
M  V30 428 H 40.9268 0.464933 -0.683935 0
M  V30 429 H 43.4728 0.241902 -1.67967 0
M  V30 430 H 42.2448 0.884583 -3.8117 0
M  V30 431 H 41.8678 2.45666 -3.12624 0
M  V30 432 N 42.8649 1.48995 0.513639 0
M  V30 433 C 44.1109 1.58076 1.27042 0
M  V30 434 C 44.4439 0.261026 1.92438 0
M  V30 435 O 43.7189 -0.734393 1.80103 0
M  V30 436 C 44.0019 2.73091 2.34719 0
M  V30 437 C 43.8549 4.14821 1.73907 0
M  V30 438 C 45.1739 2.83796 3.36375 0
M  V30 439 H 42.2929 0.575391 0.460536 0
M  V30 440 H 44.9349 1.81232 0.570516 0
M  V30 441 H 43.0849 2.53479 2.94416 0
M  V30 442 H 44.7569 4.45917 1.18135 0
M  V30 443 H 42.9999 4.21058 1.0437 0
M  V30 444 H 43.6709 4.91147 2.51949 0
M  V30 445 H 46.1469 3.01611 2.86653 0
M  V30 446 H 45.0229 3.65971 4.09093 0
M  V30 447 H 45.2839 1.92624 3.9793 0
M  V30 448 N 44.343 -0.763751 1.37857 0
M  V30 449 C 45.306 -1.85889 1.34081 0
M  V30 450 C 46.306 -1.58949 0.243277 0
M  V30 451 O 47.496 -1.66882 0.499589 0
M  V30 452 C 44.628 -3.23176 1.08489 0
M  V30 453 H 45.821 -1.90648 2.31502 0
M  V30 454 H 43.374 -0.964367 1.23003 0
M  V30 455 H 44.109 -3.24091 0.116318 0
M  V30 456 H 43.894 -3.44124 1.8794 0
M  V30 457 H 45.384 -4.03254 1.08517 0
M  V30 458 N 45.8211 -1.22559 -0.990812 0
M  V30 459 C 47.0671 -1.05297 -1.73322 0
M  V30 460 C 47.4001 0.410655 -1.89808 0
M  V30 461 O 46.6751 1.30439 -1.44277 0
M  V30 462 C 46.9581 -1.76713 -3.13759 0
M  V30 463 C 46.8111 -3.30684 -3.04907 0
M  V30 464 C 48.1301 -1.52121 -4.12974 0
M  V30 465 H 45.2491 -0.38392 -0.629106 0
M  V30 466 H 47.8911 -1.50926 -1.15418 0
M  V30 467 H 46.0411 -1.37924 -3.63193 0
M  V30 468 H 47.7131 -3.7893 -2.63077 0
M  V30 469 H 45.9561 -3.60253 -2.41661 0
M  V30 470 H 46.6271 -3.75833 -4.04294 0
M  V30 471 H 49.1031 -1.85819 -3.72304 0
M  V30 472 H 47.9791 -2.04582 -5.0935 0
M  V30 473 H 48.2401 -0.454257 -4.3976 0
M  V30 474 N 47.2992 1.18797 -1.03562 0
M  V30 475 C 48.5452 1.8893 -0.737113 0
M  V30 476 C 48.8782 1.79837 0.732956 0
M  V30 477 O 48.1532 1.19525 1.5344 0
M  V30 478 C 48.4362 3.39607 -1.19745 0
M  V30 479 C 48.2892 3.57537 -2.72924 0
M  V30 480 C 49.6082 4.33069 -0.783526 0
M  V30 481 H 46.7272 0.686057 -0.269249 0
M  V30 482 H 49.3692 1.39797 -1.28673 0
M  V30 483 H 47.5192 3.81583 -0.729855 0
M  V30 484 H 49.1912 3.24688 -3.27682 0
M  V30 485 H 47.4342 3.00363 -3.12993 0
M  V30 486 H 48.1052 4.63238 -3.00191 0
M  V30 487 H 50.5812 3.98846 -1.18581 0
M  V30 488 H 49.4572 5.3707 -1.13343 0
M  V30 489 H 49.7182 4.40986 0.313681 0
M  V30 490 N 48.7773 0.814389 1.34928 0
M  V30 491 C 49.7073 0.244827 2.32213 0
M  V30 492 C 50.6883 -0.634024 1.57842 0
M  V30 493 O 51.8733 -0.562676 1.8587 0
M  V30 494 C 49.0033 -0.601106 3.42058 0
M  V30 495 C 47.9573 0.179896 4.27622 0
M  V30 496 C 47.2833 -0.788237 5.28858 0
M  V30 497 C 48.5833 1.38329 5.03649 0
M  V30 498 H 50.2773 1.05763 2.80097 0
M  V30 499 H 47.8233 0.510029 1.34665 0
M  V30 500 H 49.7763 -1.00968 4.09125 0
M  V30 501 H 48.5003 -1.44688 2.92802 0
M  V30 502 H 47.1593 0.569739 3.62146 0
M  V30 503 H 46.8073 -1.62973 4.75866 0
M  V30 504 H 46.5073 -0.269942 5.8698 0
M  V30 505 H 48.0313 -1.19485 5.98795 0
M  V30 506 H 49.4453 1.04918 5.63618 0
M  V30 507 H 47.8423 1.83662 5.71304 0
M  V30 508 H 48.9123 2.16592 4.33839 0
M  V30 509 N 50.2554 -1.46986 0.568584 0
M  V30 510 C 51.5034 -2.02041 0.0487022 0
M  V30 511 C 51.8244 -1.44408 -1.31039 0
M  V30 512 O 51.0944 -0.623477 -1.85714 0
M  V30 513 H 49.6744 -0.746849 0.015014 0
M  V30 514 H 52.3364 -1.80257 0.741168 0
M  V30 515 H 51.4324 -3.12085 -0.0308961 0
M  V30 516 N 51.7335 -0.305618 -1.54608 0
M  V30 517 C 52.9585 0.307562 -2.05107 0
M  V30 518 C 53.3835 1.46385 -1.18123 0
M  V30 519 O 52.7415 1.8034 -0.186324 0
M  V30 520 C 52.7895 0.73704 -3.52987 0
M  V30 521 O 51.8935 1.84134 -3.6901 0
M  V30 522 H 51.2345 0.0589143 -0.661381 0
M  V30 523 H 53.7645 -0.448807 -1.99617 0
M  V30 524 H 53.7745 1.02459 -3.94925 0
M  V30 525 H 52.4495 -0.108773 -4.15758 0
M  V30 526 H 51.0265 1.55398 -3.38978 0
M  V30 527 N 53.2116 1.57565 -0.0334293 0
M  V30 528 C 54.4596 1.91598 0.642999 0
M  V30 529 C 54.7806 0.910847 1.7242 0
M  V30 530 O 54.0506 -0.0469931 1.95844 0
M  V30 531 H 52.6306 0.707228 0.240496 0
M  V30 532 H 55.2926 1.94726 -0.0822488 0
M  V30 533 H 54.3886 2.92336 1.09298 0
M  V30 534 N 54.6897 -0.239769 1.55765 0
M  V30 535 C 55.9357 -0.963942 1.79108 0
M  V30 536 C 56.2907 -1.82689 0.60352 0
M  V30 537 O 55.5837 -1.87313 -0.403033 0
M  V30 538 C 55.7777 -1.852 3.05672 0
M  V30 539 C 55.6067 -1.07651 4.36625 0
M  V30 540 C 54.3767 -0.778738 4.99263 0
M  V30 541 C 56.5747 -0.45062 5.12322 0
M  V30 542 N 54.5567 0.0200708 6.13897 0
M  V30 543 C 55.9277 0.212429 6.19636 0
M  V30 544 C 57.9827 -0.361806 4.96584 0
M  V30 545 C 56.6857 0.955772 7.12922 0
M  V30 546 C 58.7117 0.368023 5.90254 0
M  V30 547 C 58.0737 1.01968 6.96981 0
M  V30 548 H 54.1727 -0.333601 0.707272 0
M  V30 549 H 56.7567 -0.236425 1.93259 0
M  V30 550 H 54.9277 -2.55149 2.92837 0
M  V30 551 H 56.6597 -2.51228 3.1728 0
M  V30 552 H 53.4147 -1.09229 4.60832 0
M  V30 553 H 53.8387 0.407777 6.75771 0
M  V30 554 H 58.4807 -0.851286 4.14141 0
M  V30 555 H 56.1987 1.45683 7.9486 0
M  V30 556 H 59.7847 0.437504 5.80153 0
M  V30 557 H 58.6647 1.5754 7.68213 0
M  V30 558 N 56.1678 -1.49265 -0.50573 0
M  V30 559 C 57.0978 -1.68495 -1.61653 0
M  V30 560 C 58.0788 -0.53366 -1.61512 0
M  V30 561 O 59.2638 -0.76897 -1.78327 0
M  V30 562 C 56.3938 -1.74709 -3.00157 0
M  V30 563 C 55.3478 -2.89581 -3.15162 0
M  V30 564 C 54.6738 -2.80903 -4.5497 0
M  V30 565 C 55.9738 -4.30578 -2.95634 0
M  V30 566 H 57.6678 -2.61493 -1.45814 0
M  V30 567 H 55.2138 -1.25838 -0.70005 0
M  V30 568 H 57.1668 -1.86748 -3.77761 0
M  V30 569 H 55.8908 -0.783067 -3.17074 0
M  V30 570 H 54.5498 -2.77136 -2.39982 0
M  V30 571 H 54.1978 -1.82419 -4.68756 0
M  V30 572 H 53.8978 -3.57999 -4.65951 0
M  V30 573 H 55.4218 -2.94944 -5.34641 0
M  V30 574 H 56.8358 -4.4373 -3.63011 0
M  V30 575 H 55.2328 -5.0886 -3.18091 0
M  V30 576 H 56.3028 -4.45352 -1.91806 0
M  V30 577 N 57.6459 0.756429 -1.3826 0
M  V30 578 C 59.0569 1.33359 -1.30661 0
M  V30 579 C 59.4079 1.96161 0.0388875 0
M  V30 580 O 58.5329 1.94874 0.940918 0
M  V30 581 C 59.1279 2.42477 -2.36622 0
M  V30 582 C 57.6869 2.95922 -2.3261 0
M  V30 583 C 56.8339 1.69275 -2.19639 0
M  V30 584 H 59.7849 0.55552 -1.4866 0
M  V30 585 H 59.8059 3.22345 -2.02174 0
M  V30 586 H 59.3179 1.96739 -3.34538 0
M  V30 587 H 57.4189 3.45996 -1.38267 0
M  V30 588 H 57.5319 3.50494 -3.26636 0
M  V30 589 H 55.8959 1.92793 -1.66442 0
M  V30 590 H 56.6789 1.25619 -3.19491 0
M  V30 591 N 59.124 1.23083 0.984299 0
M  V30 592 C 60.087 1.00979 2.05757 0
M  V30 593 C 61.087 -0.0269573 1.60777 0
M  V30 594 O 62.277 0.212403 1.729 0
M  V30 595 C 59.409 0.527072 3.36801 0
M  V30 596 H 60.602 1.9622 2.26799 0
M  V30 597 H 58.155 1.05072 1.15714 0
M  V30 598 H 58.89 -0.429294 3.21446 0
M  V30 599 H 58.675 1.27515 3.70786 0
M  V30 600 H 60.165 0.392942 4.15747 0
M  V30 601 N 60.6021 -1.18246 1.0419 0
M  V30 602 C 61.8481 -1.88536 0.747122 0
M  V30 603 C 62.1811 -1.80223 -0.723409 0
M  V30 604 O 61.4561 -1.20337 -1.52804 0
M  V30 605 C 61.7391 -3.38968 1.21544 0
M  V30 606 C 61.5921 -3.56084 2.74816 0
M  V30 607 C 62.9111 -4.32648 0.806482 0
M  V30 608 H 60.0301 -0.684619 0.272883 0
M  V30 609 H 62.6721 -1.39113 1.29413 0
M  V30 610 H 60.8221 -3.8119 0.750081 0
M  V30 611 H 62.4941 -3.22946 3.29399 0
M  V30 612 H 60.7371 -2.98699 3.14582 0
M  V30 613 H 61.4081 -4.61639 3.02644 0
M  V30 614 H 63.8841 -3.98211 1.20695 0
M  V30 615 H 62.7601 -5.36462 1.1619 0
M  V30 616 H 63.0211 -4.41146 -0.29029 0
M  V30 617 N 62.0802 -0.821533 -1.34494 0
M  V30 618 C 63.0432 -0.247847 -2.27856 0
M  V30 619 C 64.0432 0.573453 -1.50227 0
M  V30 620 O 65.2332 0.389759 -1.69784 0
M  V30 621 C 62.3652 0.652698 -3.34593 0
M  V30 622 H 63.5582 -1.07146 -2.80107 0
M  V30 623 H 61.1112 -0.593291 -1.44602 0
M  V30 624 H 61.8462 1.49943 -2.87555 0
M  V30 625 H 61.6312 0.065292 -3.92046 0
M  V30 626 H 63.1212 1.04793 -4.04238 0
M  V30 627 N 63.5583 1.46682 -0.576371 0
M  V30 628 C 64.5213 2.28707 0.150239 0
M  V30 629 C 65.5213 1.38035 0.824794 0
M  V30 630 O 66.7113 1.60476 0.677719 0
M  V30 631 C 63.8433 3.18248 1.22192 0
M  V30 632 H 65.0363 2.94423 -0.570521 0
M  V30 633 H 62.5893 1.52688 -0.334078 0
M  V30 634 H 63.3243 2.57265 1.97447 0
M  V30 635 H 63.1093 3.85 0.742812 0
M  V30 636 H 64.5993 3.80001 1.73172 0
M  V30 637 N 65.0364 0.313813 1.54444 0
M  V30 638 C 65.9664 -0.549454 2.26943 0
M  V30 639 C 66.9474 -1.12741 1.27372 0
M  V30 640 O 68.1324 -1.15436 1.56167 0
M  V30 641 C 65.2624 -1.71523 3.01989 0
M  V30 642 C 64.2164 -1.26703 4.08816 0
M  V30 643 C 63.5424 -2.51898 4.71647 0
M  V30 644 C 64.8424 -0.388962 5.2085 0
M  V30 645 H 66.5364 0.0552661 2.99349 0
M  V30 646 H 64.0824 0.0280207 1.43973 0
M  V30 647 H 66.0354 -2.32535 3.51433 0
M  V30 648 H 64.7594 -2.34639 2.27183 0
M  V30 649 H 63.4184 -0.679896 3.6024 0
M  V30 650 H 63.0664 -3.13356 3.93468 0
M  V30 651 H 62.7664 -2.22605 5.43802 0
M  V30 652 H 64.2904 -3.1369 5.23861 0
M  V30 653 H 65.7044 -0.905107 5.6611 0
M  V30 654 H 64.1014 -0.18924 5.99802 0
M  V30 655 H 65.1714 0.582699 4.81386 0
M  V30 656 N 66.5145 -1.57545 0.0417849 0
M  V30 657 C 67.7625 -1.91937 -0.632829 0
M  V30 658 C 68.0835 -0.919978 -1.71934 0
M  V30 659 O 67.3535 0.0366064 -1.95866 0
M  V30 660 H 65.9335 -0.708493 -0.236742 0
M  V30 661 H 68.5955 -1.9468 0.0925745 0
M  V30 662 H 67.6915 -2.92912 -1.07746 0
M  V30 663 N 67.9926 0.231505 -1.5589 0
M  V30 664 C 69.2176 0.978689 -1.82856 0
M  V30 665 C 69.6426 1.77559 -0.620846 0
M  V30 666 O 69.0006 1.76119 0.430305 0
M  V30 667 C 69.0486 1.87997 -3.07716 0
M  V30 668 O 68.1526 2.97393 -2.85712 0
M  V30 669 H 67.4936 0.277663 -0.603158 0
M  V30 670 H 70.0236 0.24783 -2.03093 0
M  V30 671 H 70.0336 2.2917 -3.37558 0
M  V30 672 H 68.7086 1.29417 -3.95252 0
M  V30 673 H 67.2856 2.60238 -2.67078 0
M  V30 674 N 69.4707 1.49531 0.497807 0
M  V30 675 C 70.8817 1.52344 1.07927 0
M  V30 676 C 71.2327 0.311469 1.93712 0
M  V30 677 O 70.3577 -0.578405 2.08527 0
M  V30 678 C 70.9527 2.76062 1.96405 0
M  V30 679 C 69.5117 2.81643 2.49709 0
M  V30 680 C 68.6587 2.46299 1.27404 0
M  V30 681 H 71.6097 1.56182 0.281576 0
M  V30 682 H 71.6307 2.56405 2.81135 0
M  V30 683 H 71.1427 3.64254 1.33943 0
M  V30 684 H 69.2437 1.97739 3.15801 0
M  V30 685 H 69.3567 3.83891 2.86643 0
M  V30 686 H 67.7207 1.98148 1.60029 0
M  V30 687 H 68.5037 3.36769 0.66645 0
M  V30 688 N 70.9488 -0.749086 1.3866 0
M  V30 689 C 72.1768 -1.53834 1.38358 0
M  V30 690 C 72.5918 -1.88783 -0.0255219 0
M  V30 691 O 71.9488 -1.53101 -0.993292 0
M  V30 692 C 71.9998 -2.83468 2.2434 0
M  V30 693 O 71.7208 -2.50008 3.5976 0
M  V30 694 C 73.2218 -3.7758 2.32267 0
M  V30 695 H 70.4418 -0.47585 0.473083 0
M  V30 696 H 72.9858 -0.926726 1.82297 0
M  V30 697 H 71.1408 -3.40995 1.83851 0
M  V30 698 H 71.5548 -3.33182 4.05081 0
M  V30 699 H 73.0288 -4.65478 2.96706 0
M  V30 700 H 73.5058 -4.18334 1.33765 0
M  V30 701 H 74.1118 -3.25976 2.73166 0
M  V30 702 N 72.4269 -1.23603 -0.977757 0
M  V30 703 C 73.6549 -1.09646 -1.75458 0
M  V30 704 C 74.0699 0.351859 -1.85492 0
M  V30 705 O 73.4269 1.24327 -1.336 0
M  V30 706 C 73.4779 -1.71895 -3.18016 0
M  V30 707 O 73.1989 -3.11063 -3.08498 0
M  V30 708 C 74.6999 -1.63415 -4.12081 0
M  V30 709 H 71.9199 -0.38359 -0.550545 0
M  V30 710 H 74.4639 -1.63507 -1.22824 0
M  V30 711 H 72.6189 -1.22061 -3.67668 0
M  V30 712 H 73.0329 -3.41305 -3.9826 0
M  V30 713 H 74.5069 -2.11669 -5.09804 0
M  V30 714 H 74.9839 -0.593462 -4.35172 0
M  V30 715 H 75.5899 -2.12628 -3.68334 0
M  V30 716 N 73.905 1.17692 -1.04816 0
M  V30 717 C 75.151 1.88137 -0.75711 0
M  V30 718 C 75.484 1.80604 0.713841 0
M  V30 719 O 74.759 1.21146 1.52164 0
M  V30 720 C 75.042 3.38318 -1.2334 0
M  V30 721 C 74.895 3.54622 -2.76701 0
M  V30 722 C 76.214 4.32214 -0.829415 0
M  V30 723 H 73.333 0.683163 -0.27651 0
M  V30 724 H 75.975 1.38424 -1.30149 0
M  V30 725 H 74.125 3.80787 -0.770286 0
M  V30 726 H 75.797 3.21194 -3.31107 0
M  V30 727 H 74.04 2.97026 -3.16161 0
M  V30 728 H 74.711 4.60028 -3.05088 0
M  V30 729 H 77.187 3.97565 -1.22805 0
M  V30 730 H 76.063 5.35838 -1.19033 0
M  V30 731 H 76.324 4.41294 0.266891 0
M  V30 732 N 75.3831 0.828654 1.34056 0
M  V30 733 C 76.3131 0.269443 2.3194 0
M  V30 734 C 77.2941 -0.617247 1.58506 0
M  V30 735 O 78.4791 -0.542931 1.86456 0
M  V30 736 C 75.6091 -0.564793 3.42677 0
M  V30 737 C 74.5631 0.225241 4.27407 0
M  V30 738 C 73.8891 -0.7321 5.29664 0
M  V30 739 C 75.1891 1.43663 5.02154 0
M  V30 740 H 76.8831 1.08728 2.7896 0
M  V30 741 H 74.4291 0.524283 1.34117 0
M  V30 742 H 76.3821 -0.966233 4.10173 0
M  V30 743 H 75.1061 -1.41574 2.9432 0
M  V30 744 H 73.7651 0.608117 3.61521 0
M  V30 745 H 73.4131 -1.57916 4.77568 0
M  V30 746 H 73.1131 -0.20767 5.87233 0
M  V30 747 H 74.6371 -1.13128 6.00029 0
M  V30 748 H 76.0511 1.1089 5.62473 0
M  V30 749 H 74.4481 1.89711 5.69324 0
M  V30 750 H 75.5181 2.21181 4.31517 0
M  V30 751 N 76.8612 -1.46375 0.584142 0
M  V30 752 C 78.2722 -1.86031 0.157959 0
M  V30 753 C 78.6232 -1.48753 -1.27933 0
M  V30 754 O 77.7482 -0.903098 -1.96655 0
M  V30 755 C 78.3432 -3.37642 0.279892 0
M  V30 756 C 76.9022 -3.76289 -0.09143 0
M  V30 757 C 76.0492 -2.7039 0.615178 0
M  V30 758 H 79.0002 -1.37509 0.792274 0
M  V30 759 H 79.0212 -3.77275 -0.494364 0
M  V30 760 H 78.5332 -3.64742 1.32607 0
M  V30 761 H 76.6342 -3.54806 -1.13769 0
M  V30 762 H 76.7472 -4.78246 0.285886 0
M  V30 763 H 75.1112 -2.5464 0.0552833 0
M  V30 764 H 75.8942 -3.0033 1.66303 0
M  V30 765 N 78.3393 -0.321999 -1.54275 0
M  V30 766 C 79.2713 0.578671 -2.21775 0
M  V30 767 C 80.2843 1.08109 -1.21722 0
M  V30 768 O 81.4733 0.994938 -1.482 0
M  V30 769 C 78.5733 1.80661 -2.86731 0
M  V30 770 C 77.7463 1.44314 -4.12907 0
M  V30 771 C 76.8053 2.52845 -4.61472 0
M  V30 772 O 75.8313 2.17054 -5.2619 0
M  V30 773 N 77.0333 3.83748 -4.35566 0
M  V30 774 H 79.7983 0.000709447 -2.997 0
M  V30 775 H 77.3593 -0.145132 -1.61248 0
M  V30 776 H 79.3513 2.52655 -3.16145 0
M  V30 777 H 77.9213 2.29245 -2.12521 0
M  V30 778 H 77.1413 0.554906 -3.90275 0
M  V30 779 H 78.4293 1.17598 -4.95023 0
M  V30 780 H 77.8273 4.15625 -3.83761 0
M  V30 781 H 76.3843 4.51977 -4.69638 0
M  V30 782 N 79.8174 1.5752 -0.0501392 0
M  V30 783 C 80.7804 2.1037 0.909786 0
M  V30 784 C 81.7804 1.02308 1.24056 0
M  V30 785 O 82.9704 1.28385 1.17741 0
M  V30 786 C 80.1024 2.58708 2.21998 0
M  V30 787 H 81.2954 2.96479 0.451665 0
M  V30 788 H 78.8484 1.55038 0.198248 0
M  V30 789 H 79.5834 1.75989 2.72394 0
M  V30 790 H 79.3684 3.37675 1.99295 0
M  V30 791 H 80.8584 2.99747 2.9076 0
M  V30 792 N 81.2955 -0.223234 1.56011 0
M  V30 793 C 82.2055 -1.29766 1.95443 0
M  V30 794 C 83.2215 -1.51373 0.858028 0
M  V30 795 O 84.3975 -1.64536 1.16146 0
M  V30 796 C 81.4625 -2.62772 2.26167 0
M  V30 797 C 80.5235 -2.49482 3.49367 0
M  V30 798 C 79.7565 -3.76145 3.78616 0
M  V30 799 O 79.9795 -4.79087 3.09568 0
M  V30 800 O 78.9135 -3.73358 4.72109 0
M  V30 801 H 82.7395 -0.99309 2.87004 0
M  V30 802 H 80.3245 -0.425958 1.43199 0
M  V30 803 H 82.2065 -3.41327 2.47131 0
M  V30 804 H 80.8815 -2.92913 1.37781 0
M  V30 805 H 79.7885 -1.69133 3.33684 0
M  V30 806 H 81.1215 -2.2428 4.38131 0
M  V30 807 N 82.7736 -1.49793 -0.48987 0
M  V30 808 C 83.7036 -1.70201 -1.59856 0
M  V30 809 C 84.6846 -0.55076 -1.60937 0
M  V30 810 O 85.8696 -0.787841 -1.77501 0
M  V30 811 C 82.9996 -1.77882 -2.98287 0
M  V30 812 C 81.9536 -2.92907 -3.12073 0
M  V30 813 C 81.2796 -2.85712 -4.51965 0
M  V30 814 C 82.5796 -4.3369 -2.91051 0
M  V30 815 H 84.2736 -2.63025 -1.43032 0
M  V30 816 H 81.8196 -1.26574 -0.686664 0
M  V30 817 H 83.7726 -1.90744 -3.75759 0
M  V30 818 H 82.4966 -0.816653 -3.16225 0
M  V30 819 H 81.1556 -2.79665 -2.37029 0
M  V30 820 H 80.8036 -1.8738 -4.66795 0
M  V30 821 H 80.5036 -3.62921 -4.62128 0
M  V30 822 H 82.0276 -3.00598 -5.31482 0
M  V30 823 H 83.4416 -4.47555 -3.58284 0
M  V30 824 H 81.8386 -5.12205 -3.12675 0
M  V30 825 H 82.9086 -4.47362 -1.87071 0
M  V30 826 N 84.2517 0.741722 -1.39055 0
M  V30 827 C 85.6627 1.31966 -1.32068 0
M  V30 828 C 86.0137 1.96192 0.0180797 0
M  V30 829 O 85.1387 1.95861 0.920196 0
M  V30 830 C 85.7337 2.39954 -2.39181 0
M  V30 831 C 84.2927 2.93438 -2.35735 0
M  V30 832 C 83.4397 1.66936 -2.21422 0
M  V30 833 H 86.3907 0.539721 -1.4924 0
M  V30 834 H 86.4117 3.20182 -2.05581 0
M  V30 835 H 85.9237 1.9318 -3.36605 0
M  V30 836 H 84.0247 3.4451 -1.41929 0
M  V30 837 H 84.1377 3.4701 -3.30335 0
M  V30 838 H 82.5017 1.91016 -1.68478 0
M  V30 839 H 83.2847 1.22224 -3.20806 0
M  V30 840 N 85.7298 1.2412 0.971189 0
M  V30 841 C 86.9778 1.07668 1.71032 0
M  V30 842 C 87.2988 -0.385797 1.91146 0
M  V30 843 O 86.5688 -1.27569 1.4867 0
M  V30 844 H 85.1488 0.395429 0.633755 0
M  V30 845 H 87.8108 1.55984 1.16855 0
M  V30 846 H 86.9068 1.57195 2.69622 0
M  V30 847 N 87.2079 -1.17134 1.05439 0
M  V30 848 C 88.4549 -1.87456 0.765942 0
M  V30 849 C 88.7829 -1.81189 -0.707153 0
M  V30 850 O 88.0379 -1.21633 -1.5331 0
M  V30 851 C 88.3369 -3.36833 1.19491 0
M  V30 852 C 88.0029 -3.63301 2.67063 0
M  V30 853 C 86.6649 -3.70234 3.07376 0
M  V30 854 C 89.0169 -3.74575 3.62413 0
M  V30 855 C 86.3449 -3.85933 4.41896 0
M  V30 856 C 88.6969 -3.91793 4.9667 0
M  V30 857 C 87.3609 -3.96966 5.36633 0
M  V30 858 H 86.6309 -0.685948 0.280278 0
M  V30 859 H 89.2779 -1.38556 1.32192 0
M  V30 860 H 87.5829 -3.87807 0.557969 0
M  V30 861 H 89.2799 -3.89611 0.948893 0
M  V30 862 H 85.8699 -3.58532 2.34846 0
M  V30 863 H 90.0539 -3.68537 3.32406 0
M  V30 864 H 85.3099 -3.88187 4.72357 0
M  V30 865 H 89.4839 -3.99458 5.70444 0
M  V30 866 H 87.1109 -4.08883 6.40874 0
M  V30 867 N 88.686 -0.835752 -1.33615 0
M  V30 868 C 89.932 -0.430596 -1.98176 0
M  V30 869 C 90.265 1.00684 -1.66061 0
M  V30 870 O 89.54 1.70339 -0.938877 0
M  V30 871 C 89.823 -0.648065 -3.5422 0
M  V30 872 C 89.676 -2.13255 -3.96033 0
M  V30 873 C 90.995 -0.0922113 -4.40003 0
M  V30 874 H 88.114 -0.157924 -0.719881 0
M  V30 875 H 90.756 -1.05069 -1.58305 0
M  V30 876 H 88.906 -0.120237 -3.88314 0
M  V30 877 H 90.578 -2.725 -3.72211 0
M  V30 878 H 88.821 -2.61823 -3.45878 0
M  V30 879 H 89.492 -2.23547 -5.04708 0
M  V30 880 H 91.968 -0.543343 -4.12537 0
M  V30 881 H 90.844 -0.274083 -5.48215 0
M  V30 882 H 91.105 1.00378 -4.30554 0
M  V30 883 N 90.1641 1.46063 -0.591896 0
M  V30 884 C 91.5751 1.85944 -0.167822 0
M  V30 885 C 91.9261 1.49429 1.27143 0
M  V30 886 O 91.0511 0.913515 1.96173 0
M  V30 887 C 91.6461 3.37489 -0.297794 0
M  V30 888 C 90.2051 3.76332 0.0714732 0
M  V30 889 C 89.3521 2.7006 -0.629509 0
M  V30 890 H 92.3031 1.37087 -0.799555 0
M  V30 891 H 92.3241 3.77532 0.474349 0
M  V30 892 H 91.8361 3.64034 -1.3454 0
M  V30 893 H 89.9371 3.55405 1.11886 0
M  V30 894 H 90.0501 4.78088 -0.311245 0
M  V30 895 H 88.4141 2.54607 -0.0687867 0
M  V30 896 H 89.1971 2.99444 -1.67894 0
M  V30 897 N 91.6422 0.330177 1.54103 0
M  V30 898 C 93.0532 -0.15652 1.86043 0
M  V30 899 C 93.4042 -1.51086 1.2517 0
M  V30 900 O 92.5292 -2.09023 0.560217 0
M  V30 901 C 93.1242 -0.290784 3.3755 0
M  V30 902 C 91.6832 -0.721705 3.69416 0
M  V30 903 C 90.8302 0.152622 2.7688 0
M  V30 904 H 93.7812 0.550237 1.48856 0
M  V30 905 H 93.8022 -1.12058 3.63625 0
M  V30 906 H 93.3142 0.695068 3.81825 0
M  V30 907 H 91.4152 -1.71706 3.30678 0
M  V30 908 H 91.5282 -0.520869 4.7626 0
M  V30 909 H 89.8922 -0.372894 2.51956 0
M  V30 910 H 90.6752 1.13536 3.23982 0
M  V30 911 N 93.1203 -1.57491 0.0584922 0
M  V30 912 C 94.3483 -1.97296 -0.623037 0
M  V30 913 C 94.7633 -0.936338 -1.63946 0
M  V30 914 O 94.1203 0.0785981 -1.82331 0
M  V30 915 C 94.1713 -3.37183 -1.30345 0
M  V30 916 O 93.8923 -4.36872 -0.32773 0
M  V30 917 C 95.3933 -3.91788 -2.07406 0
M  V30 918 H 92.6133 -0.649153 -0.169826 0
M  V30 919 H 95.1573 -2.04106 0.12696 0
M  V30 920 H 93.3123 -3.31502 -2.00463 0
M  V30 921 H 93.7263 -5.18141 -0.814269 0
M  V30 922 H 95.2003 -4.91926 -2.50425 0
M  V30 923 H 95.6773 -3.27609 -2.92521 0
M  V30 924 H 96.2833 -4.00829 -1.42184 0
M  V30 925 N 94.5984 0.214957 -1.56127 0
M  V30 926 C 95.5614 1.24997 -1.92116 0
M  V30 927 C 96.5614 1.39467 -0.800344 0
M  V30 928 O 97.7514 1.37619 -1.06802 0
M  V30 929 C 94.8834 2.62271 -2.17777 0
M  V30 930 H 96.0764 0.942875 -2.84693 0
M  V30 931 H 93.6294 0.455654 -1.49511 0
M  V30 932 H 94.3644 2.98068 -1.27773 0
M  V30 933 H 94.1494 2.53143 -2.99434 0
M  V30 934 H 95.6394 3.36946 -2.46693 0
M  V30 935 N 96.0765 1.50051 0.48192 0
M  V30 936 C 97.0395 1.67584 1.5636 0
M  V30 937 C 98.0395 0.546894 1.51214 0
M  V30 938 O 99.2295 0.813725 1.54026 0
M  V30 939 C 96.3615 1.691 2.96003 0
M  V30 940 H 97.5545 2.64078 1.42136 0
M  V30 941 H 95.1075 1.39369 0.707533 0
M  V30 942 H 95.8425 0.742589 3.15684 0
M  V30 943 H 95.6275 2.51105 3.01146 0
M  V30 944 H 97.1175 1.84656 3.74556 0
M  V30 945 N 97.5546 -0.734337 1.39446 0
M  V30 946 C 98.8026 -1.49096 1.36436 0
M  V30 947 C 99.1236 -1.94961 -0.0388255 0
M  V30 948 O 98.3936 -1.69033 -0.990191 0
M  V30 949 H 96.9736 -0.5531 0.502085 0
M  V30 950 H 99.6356 -0.871725 1.74319 0
M  V30 951 H 98.7316 -2.37276 2.02747 0
M  V30 952 N 99.0327 -1.24633 -0.964593 0
M  V30 953 C 99.9827 -1.00841 -2.04487 0
M  V30 954 C 100.967 0.0512468 -1.60818 0
M  V30 955 O 102.159 -0.162865 -1.76249 0
M  V30 956 C 99.2877 -0.618474 -3.37683 0
M  V30 957 C 98.3737 -1.71437 -3.87905 0
M  V30 958 N 98.7647 -2.9477 -4.11029 0
M  V30 959 C 97.0627 -1.5926 -4.16596 0
M  V30 960 C 97.7637 -3.65834 -4.52261 0
M  V30 961 N 96.7397 -2.9341 -4.57615 0
M  V30 962 H 100.542 -1.94487 -2.20345 0
M  V30 963 H 98.0557 -1.14805 -1.14863 0
M  V30 964 H 100.053 -0.429247 -4.14684 0
M  V30 965 H 98.7127 0.310766 -3.23209 0
M  V30 966 H 99.7237 -3.30917 -3.9839 0
M  V30 967 H 96.4007 -0.731606 -4.1104 0
M  V30 968 H 97.7907 -4.71646 -4.78539 0
M  V30 969 N 100.511 1.16574 -1.06058 0
M  V30 970 C 101.474 2.19085 -0.673392 0
M  V30 971 C 102.474 1.5835 0.279648 0
M  V30 972 O 103.664 1.74088 0.0623488 0
M  V30 973 C 100.796 3.40899 0.00954234 0
M  V30 974 H 101.989 2.54853 -1.58081 0
M  V30 975 H 99.5418 1.30808 -0.855516 0
M  V30 976 H 100.277 3.10684 0.929826 0
M  V30 977 H 100.062 3.86233 -0.67573 0
M  V30 978 H 101.552 4.1675 0.266245 0
M  V30 979 N 101.989 0.842826 1.3317 0
M  V30 980 C 103.237 0.439577 1.97262 0
M  V30 981 C 103.558 -1.00548 1.67078 0
M  V30 982 O 102.828 -1.70098 0.971779 0
M  V30 983 H 101.408 0.159558 0.72976 0
M  V30 984 H 104.07 1.07665 1.62463 0
M  V30 985 H 103.166 0.574886 3.0676 0
M  V30 986 N 103.467 -1.45747 0.599634 0
M  V30 987 C 104.377 -2.34262 -0.125888 0
M  V30 988 C 105.393 -1.50768 -0.868625 0
M  V30 989 O 106.569 -1.83592 -0.828003 0
M  V30 990 C 103.634 -3.28252 -1.11587 0
M  V30 991 C 102.695 -4.27651 -0.375956 0
M  V30 992 C 101.928 -5.1715 -1.31877 0
M  V30 993 O 102.151 -5.09916 -2.55621 0
M  V30 994 O 101.085 -5.96286 -0.820157 0
M  V30 995 H 104.911 -2.97688 0.601315 0
M  V30 996 H 102.496 -1.44999 0.359934 0
M  V30 997 H 104.378 -3.86191 -1.68626 0
M  V30 998 H 103.053 -2.67401 -1.82424 0
M  V30 999 H 101.96 -3.7335 0.236698 0
M  V30 1000 H 103.293 -4.91334 0.29177 0
M  V30 1001 N 104.945 -0.338344 -1.53925 0
M  V30 1002 C 105.875 0.51328 -2.27789 0
M  V30 1003 C 106.856 1.107 -1.29149 0
M  V30 1004 O 108.041 1.12937 -1.57984 0
M  V30 1005 C 105.171 1.66697 -3.04679 0
M  V30 1006 C 104.125 1.20183 -4.1078 0
M  V30 1007 C 103.451 2.44363 -4.75595 0
M  V30 1008 C 104.751 0.30605 -5.21403 0
M  V30 1009 H 106.445 -0.102883 -2.99223 0
M  V30 1010 H 103.991 -0.0509219 -1.4391 0
M  V30 1011 H 105.944 2.26915 -3.55088 0
M  V30 1012 H 104.668 2.30995 -2.30887 0
M  V30 1013 H 103.327 0.622499 -3.61276 0
M  V30 1014 H 102.975 3.07057 -3.98403 0
M  V30 1015 H 102.675 2.13925 -5.47275 0
M  V30 1016 H 104.199 3.05317 -5.28786 0
M  V30 1017 H 105.613 0.814929 -5.67478 0
M  V30 1018 H 104.01 0.0937929 -6.00027 0
M  V30 1019 H 105.08 -0.65921 -4.80398 0
M  V30 1020 N 106.423 1.57458 -0.0668435 0
M  V30 1021 C 107.353 2.15468 0.899764 0
M  V30 1022 C 108.334 1.08042 1.31381 0
M  V30 1023 O 109.519 1.36054 1.38574 0
M  V30 1024 C 106.649 2.71232 2.16911 0
M  V30 1025 C 105.603 3.83781 1.89463 0
M  V30 1026 C 104.929 4.26127 3.22986 0
M  V30 1027 C 106.229 5.08238 1.20381 0
M  V30 1028 H 107.923 2.96488 0.416529 0
M  V30 1029 H 105.469 1.4262 0.198908 0
M  V30 1030 H 107.422 3.10458 2.84945 0
M  V30 1031 H 106.146 1.87426 2.67468 0
M  V30 1032 H 104.805 3.45051 1.23836 0
M  V30 1033 H 104.453 3.39249 3.71374 0
M  V30 1034 H 104.153 5.01993 3.05413 0
M  V30 1035 H 105.677 4.67966 3.92225 0
M  V30 1036 H 107.091 5.44811 1.78475 0
M  V30 1037 H 105.488 5.89349 1.13083 0
M  V30 1038 H 106.558 4.84558 0.182153 0
M  V30 1039 N 107.901 -0.206675 1.56239 0
M  V30 1040 C 109.126 -0.949474 1.8439 0
M  V30 1041 C 109.551 -1.76549 0.649016 0
M  V30 1042 O 108.909 -1.76782 -0.402231 0
M  V30 1043 C 108.957 -1.83078 3.10668 0
M  V30 1044 O 108.061 -2.9281 2.90407 0
M  V30 1045 H 107.402 -0.268033 0.607499 0
M  V30 1046 H 109.932 -0.215488 2.03462 0
M  V30 1047 H 109.942 -2.2377 3.41161 0
M  V30 1048 H 108.617 -1.23112 3.97261 0
M  V30 1049 H 107.194 -2.55956 2.71184 0
M  V30 1050 N 109.379 -1.50304 -0.473955 0
M  V30 1051 C 110.625 -1.61389 -1.22806 0
M  V30 1052 C 110.958 -0.311955 -1.91678 0
M  V30 1053 O 110.233 0.686384 -1.81986 0
M  V30 1054 C 110.516 -2.79219 -2.27396 0
M  V30 1055 C 110.369 -4.19286 -1.62848 0
M  V30 1056 C 111.688 -2.92614 -3.28732 0
M  V30 1057 H 108.807 -0.587399 -0.445119 0
M  V30 1058 H 111.449 -1.82681 -0.522265 0
M  V30 1059 H 109.599 -2.61195 -2.87592 0
M  V30 1060 H 111.271 -4.48892 -1.06271 0
M  V30 1061 H 109.514 -4.23677 -0.931693 0
M  V30 1062 H 110.185 -4.97655 -2.38838 0
M  V30 1063 H 112.661 -3.09105 -2.78556 0
M  V30 1064 H 111.537 -3.76688 -3.99246 0
M  V30 1065 H 111.798 -2.03107 -3.92683 0
M  V30 1066 N 110.857 0.726932 -1.39834 0
M  V30 1067 C 112.268 1.30558 -1.3346 0
M  V30 1068 C 112.619 1.962 -0.00273003 0
M  V30 1069 O 111.744 1.96826 0.899371 0
M  V30 1070 C 112.339 2.37404 -2.41713 0
M  V30 1071 C 110.898 2.90921 -2.38835 0
M  V30 1072 C 110.045 1.64578 -2.2318 0
M  V30 1073 H 112.996 0.523862 -1.49804 0
M  V30 1074 H 113.017 3.17984 -2.08966 0
M  V30 1075 H 112.529 1.89599 -3.38635 0
M  V30 1076 H 110.63 3.42985 -1.45575 0
M  V30 1077 H 110.743 3.43487 -3.33997 0
M  V30 1078 H 109.107 1.89219 -1.70494 0
M  V30 1079 H 109.89 1.18814 -3.22084 0
M  V30 1080 N 112.336 1.25143 0.95797 0
M  V30 1081 C 113.585 1.0909 1.69654 0
M  V30 1082 C 113.898 -0.368548 1.92097 0
M  V30 1083 O 115.104 -0.649455 2.63618 0
M  V30 1084 C 113.56 1.90395 3.05414 0
M  V30 1085 C 113.168 3.4081 2.90779 0
M  V30 1086 C 114.912 1.82901 3.83076 0
M  V30 1087 C 112.819 4.14423 4.21909 0
M  V30 1088 H 111.749 0.404625 0.636235 0
M  V30 1089 H 114.4 1.4931 1.06672 0
M  V30 1090 H 112.782 1.42996 3.69281 0
M  V30 1091 H 113.956 3.95859 2.35865 0
M  V30 1092 H 112.271 3.49361 2.26575 0
M  V30 1093 H 114.868 2.35196 4.80195 0
M  V30 1094 H 115.211 0.796224 4.08615 0
M  V30 1095 H 115.744 2.28033 3.25954 0
M  V30 1096 H 112.483 5.18102 4.01561 0
M  V30 1097 H 112.003 3.64159 4.76601 0
M  V30 1098 H 113.682 4.21956 4.90471 0
M  V30 1099 N 113.814 -1.1601 1.06675 0
M  V30 1100 C 115.062 -1.86264 0.784229 0
M  V30 1101 C 115.383 -1.82328 -0.691488 0
M  V30 1102 O 114.653 -1.25947 -1.50047 0
M  V30 1103 H 113.233 -0.689621 0.28711 0
M  V30 1104 H 115.895 -1.40664 1.34906 0
M  V30 1105 H 114.991 -2.91595 1.11259 0
M  V30 1106 N 115.292 -0.849877 -1.32721 0
M  V30 1107 C 116.255 -0.296122 -2.27279 0
M  V30 1108 C 117.255 0.541458 -1.5141 0
M  V30 1109 O 118.445 0.353658 -1.70572 0
M  V30 1110 C 115.577 0.581579 -3.35902 0
M  V30 1111 H 116.77 -1.13064 -2.77771 0
M  V30 1112 H 114.323 -0.62383 -1.43311 0
M  V30 1113 H 115.058 1.43809 -2.9067 0
M  V30 1114 H 114.843 -0.0178814 -3.92096 0
M  V30 1115 H 116.333 0.961951 -4.0637 0
M  V30 1116 N 116.77 1.45427 -0.607355 0
M  V30 1117 C 117.72 2.27612 0.133038 0
M  V30 1118 C 118.704 1.37307 0.838785 0
M  V30 1119 O 119.896 1.61299 0.728813 0
M  V30 1120 C 117.025 3.24173 1.12991 0
M  V30 1121 C 116.111 4.21965 0.425011 0
M  V30 1122 N 116.502 5.02982 -0.533217 0
M  V30 1123 C 114.8 4.40899 0.672593 0
M  V30 1124 C 115.501 5.73931 -0.947518 0
M  V30 1125 N 114.477 5.42819 -0.291321 0
M  V30 1126 H 118.279 2.87649 -0.602935 0
M  V30 1127 H 115.793 1.56576 -0.431006 0
M  V30 1128 H 117.79 3.81783 1.67473 0
M  V30 1129 H 116.45 2.65696 1.86644 0
M  V30 1130 H 117.461 5.09843 -0.90995 0
M  V30 1131 H 114.138 3.93547 1.39382 0
M  V30 1132 H 115.528 6.49037 -1.73782 0
M  V30 1133 N 118.248 0.346503 1.53744 0
M  V30 1134 C 119.664 -0.00530975 1.59599 0
M  V30 1135 C 119.864 -1.48465 1.36236 0
M  V30 1136 O 118.92 -2.24376 1.15808 0
M  V30 1137 C 120.233 0.433516 2.97559 0
M  V30 1138 C 121.781 0.386111 3.10609 0
M  V30 1139 C 122.256 0.800451 4.50951 0
M  V30 1140 N 123.747 0.754753 4.5701 0
M  V30 1141 C 124.482 1.04727 5.63755 0
M  V30 1142 N 123.978 1.4081 6.7834 0
M  V30 1143 N 125.771 0.971316 5.53644 0
M  V30 1144 H 117.922 1.31009 1.67184 0
M  V30 1145 H 120.185 0.534242 0.783128 0
M  V30 1146 H 119.891 1.46509 3.19731 0
M  V30 1147 H 119.765 -0.189753 3.76722 0
M  V30 1148 H 122.152 -0.636295 2.88158 0
M  V30 1149 H 122.233 1.04462 2.33498 0
M  V30 1150 H 121.877 1.82088 4.74137 0
M  V30 1151 H 121.807 0.119386 5.26465 0
M  V30 1152 H 124.298 0.488662 3.74727 0
M  V30 1153 H 124.611 1.61607 7.55714 0
M  V30 1154 H 122.956 1.44657 6.79779 0
M  V30 1155 H 126.147 0.688748 4.63005 0
M  V30 1156 H 126.32 1.20263 6.36742 0
M  V30 1157 N 119.726 -1.57421 0.075193 0
M  V30 1158 C 120.972 -1.93905 -0.594025 0
M  V30 1159 C 121.305 -0.955701 -1.69056 0
M  V30 1160 O 120.58 0.0145373 -1.94495 0
M  V30 1161 C 120.863 -3.40638 -1.1678 0
M  V30 1162 C 120.716 -4.49733 -0.0776792 0
M  V30 1163 C 122.035 -3.88259 -2.07228 0
M  V30 1164 H 119.154 -0.705105 -0.214466 0
M  V30 1165 H 121.796 -1.8947 0.141854 0
M  V30 1166 H 119.946 -3.44549 -1.79494 0
M  V30 1167 H 121.618 -4.57942 0.555573 0
M  V30 1168 H 119.861 -4.29751 0.591286 0
M  V30 1169 H 120.532 -5.49549 -0.519603 0
M  V30 1170 H 123.008 -3.86376 -1.54445 0
M  V30 1171 H 121.884 -4.91533 -2.44308 0
M  V30 1172 H 122.145 -3.26396 -2.98191 0
M  V30 1173 N 121.204 0.198386 -1.56346 0
M  V30 1174 C 122.134 1.24865 -1.9731 0
M  V30 1175 C 123.115 1.47651 -0.844576 0
M  V30 1176 O 124.3 1.59444 -1.10866 0
M  V30 1177 C 121.43 2.59358 -2.30977 0
M  V30 1178 C 120.384 2.5119 -3.46537 0
M  V30 1179 C 119.71 3.89926 -3.65871 0
M  V30 1180 C 121.01 2.03977 -4.80823 0
M  V30 1181 H 122.704 0.908252 -2.85291 0
M  V30 1182 H 120.25 0.435462 -1.37258 0
M  V30 1183 H 122.203 3.33011 -2.58228 0
M  V30 1184 H 120.927 2.95132 -1.39874 0
M  V30 1185 H 119.586 1.79993 -3.19371 0
M  V30 1186 H 119.234 4.23046 -2.72105 0
M  V30 1187 H 118.934 3.85336 -4.4361 0
M  V30 1188 H 120.458 4.65205 -3.95495 0
M  V30 1189 H 121.872 2.67386 -5.07127 0
M  V30 1190 H 120.269 2.10397 -5.62008 0
M  V30 1191 H 121.339 0.992861 -4.74626 0
M  V30 1192 N 122.682 1.50554 0.465978 0
M  V30 1193 C 123.928 1.62038 1.21949 0
M  V30 1194 C 124.261 0.322116 1.9151 0
M  V30 1195 O 123.536 -0.676723 1.82348 0
M  V30 1196 C 123.819 2.80421 2.25912 0
M  V30 1197 C 123.672 4.20144 1.60622 0
M  V30 1198 C 124.991 2.94354 3.27176 0
M  V30 1199 H 122.11 0.589752 0.441998 0
M  V30 1200 H 124.752 1.82956 0.51257 0
M  V30 1201 H 122.902 2.62717 2.86203 0
M  V30 1202 H 124.574 4.49449 1.03889 0
M  V30 1203 H 122.817 4.24165 0.909211 0
M  V30 1204 H 123.488 4.98914 2.36196 0
M  V30 1205 H 125.964 3.10578 2.76913 0
M  V30 1206 H 124.84 3.788 3.97242 0
M  V30 1207 H 125.101 2.05186 3.916 0
M  V30 1208 N 124.16 -0.719506 1.40217 0
M  V30 1209 C 125.09 -1.8465 1.42922 0
M  V30 1210 C 126.071 -1.67599 0.29062 0
M  V30 1211 O 127.256 -1.87688 0.498677 0
M  V30 1212 C 124.386 -3.22565 1.28722 0
M  V30 1213 C 123.34 -3.54281 2.40144 0
M  V30 1214 C 122.666 -4.91298 2.11023 0
M  V30 1215 C 123.966 -3.55676 3.82481 0
M  V30 1216 H 125.66 -1.82644 2.37237 0
M  V30 1217 H 123.206 -0.877305 1.1419 0
M  V30 1218 H 125.159 -4.01095 1.29232 0
M  V30 1219 H 123.883 -3.25137 0.308811 0
M  V30 1220 H 122.542 -2.78088 2.38877 0
M  V30 1221 H 122.19 -4.90468 1.11582 0
M  V30 1222 H 121.89 -5.13485 2.8567 0
M  V30 1223 H 123.414 -5.72166 2.13209 0
M  V30 1224 H 124.828 -4.24254 3.85592 0
M  V30 1225 H 123.225 -3.89388 4.56614 0
M  V30 1226 H 124.295 -2.55144 4.12346 0
M  V30 1227 N 125.638 -1.25649 -0.95132 0
M  V30 1228 C 126.601 -1.06399 -2.03007 0
M  V30 1229 C 127.601 -0.0156794 -1.60792 0
M  V30 1230 O 128.791 -0.25817 -1.72276 0
M  V30 1231 C 125.923 -0.616184 -3.35285 0
M  V30 1232 H 127.116 -2.02164 -2.21517 0
M  V30 1233 H 124.669 -1.08103 -1.12887 0
M  V30 1234 H 125.404 0.343917 -3.22471 0
M  V30 1235 H 125.189 -1.37301 -3.67275 0
M  V30 1236 H 126.679 -0.503032 -4.14559 0
M  V30 1237 N 127.117 1.15442 -1.07289 0
M  V30 1238 C 128.365 1.85845 -0.794096 0
M  V30 1239 C 128.686 1.82692 0.681809 0
M  V30 1240 O 127.956 1.26741 1.49377 0
M  V30 1241 H 126.536 0.688089 -0.290763 0
M  V30 1242 H 129.198 1.39947 -1.3565 0
M  V30 1243 H 128.294 2.91001 -1.12804 0
M  V30 1244 N 128.595 0.856903 1.32268 0
M  V30 1245 C 130.011 0.547061 1.49931 0
M  V30 1246 C 130.211 -0.921781 1.7918 0
M  V30 1247 O 129.267 -1.70469 1.8627 0
M  V30 1248 C 130.58 1.43599 2.64196 0
M  V30 1249 C 132.128 1.43665 2.78081 0
M  V30 1250 C 132.603 2.31085 3.95428 0
M  V30 1251 N 134.094 2.28893 4.02694 0
M  V30 1252 C 134.829 2.93262 4.92732 0
M  V30 1253 N 134.325 3.66751 5.87763 0
M  V30 1254 N 136.118 2.82638 4.85873 0
M  V30 1255 H 128.269 1.8075 1.11549 0
M  V30 1256 H 130.532 0.772144 0.549997 0
M  V30 1257 H 130.238 2.48058 2.49319 0
M  V30 1258 H 130.112 1.12502 3.60032 0
M  V30 1259 H 132.499 0.399701 2.92381 0
M  V30 1260 H 132.58 1.7878 1.82952 0
M  V30 1261 H 132.224 3.34849 3.81888 0
M  V30 1262 H 132.154 1.93302 4.89839 0
M  V30 1263 H 134.645 1.75466 3.34694 0
M  V30 1264 H 134.958 4.13027 6.53168 0
M  V30 1265 H 133.303 3.70859 5.87783 0
M  V30 1266 H 136.494 2.24774 4.10602 0
M  V30 1267 H 136.667 3.33084 5.55841 0
M  V30 1268 N 130.073 -1.45103 0.615059 0
M  V30 1269 C 131.322 -2.01396 0.110718 0
M  V30 1270 C 131.635 -1.48834 -1.26916 0
M  V30 1271 O 132.841 -1.97152 -1.86664 0
M  V30 1272 C 131.297 -3.59599 0.14723 0
M  V30 1273 C 130.905 -4.21158 1.52743 0
M  V30 1274 C 132.649 -4.23428 -0.30148 0
M  V30 1275 C 130.556 -5.71535 1.51992 0
M  V30 1276 H 129.486 -0.753061 0.0376241 0
M  V30 1277 H 132.137 -1.66494 0.77149 0
M  V30 1278 H 130.519 -3.91724 -0.580339 0
M  V30 1279 H 131.693 -4.00594 2.2773 0
M  V30 1280 H 130.008 -3.69552 1.91886 0
M  V30 1281 H 132.605 -5.33703 -0.326392 0
M  V30 1282 H 132.948 -3.94629 -1.32565 0
M  V30 1283 H 133.481 -3.96047 0.373065 0
M  V30 1284 H 130.22 -6.05044 2.52193 0
M  V30 1285 H 129.74 -5.94268 0.81274 0
M  V30 1286 H 131.419 -6.34873 1.24681 0
M  V30 1287 N 131.551 -0.354651 -1.53558 0
M  V30 1288 C 132.501 0.513179 -2.2215 0
M  V30 1289 C 133.485 1.05734 -1.21281 0
M  V30 1290 O 134.677 0.989202 -1.46778 0
M  V30 1291 C 131.806 1.65798 -3.00609 0
M  V30 1292 C 130.892 1.12722 -4.08845 0
M  V30 1293 N 131.283 0.318563 -5.04796 0
M  V30 1294 C 129.581 1.40307 -4.23356 0
M  V30 1295 C 130.282 0.0292224 -5.81693 0
M  V30 1296 N 129.258 0.623891 -5.40008 0
M  V30 1297 H 133.06 -0.111586 -2.93688 0
M  V30 1298 H 130.574 -0.162091 -1.61589 0
M  V30 1299 H 132.571 2.29176 -3.48258 0
M  V30 1300 H 131.231 2.28591 -2.306 0
M  V30 1301 H 132.242 -0.0413091 -5.17884 0
M  V30 1302 H 128.919 2.03458 -3.6457 0
M  V30 1303 H 130.309 -0.623808 -6.68998 0
M  V30 1304 N 133.029 1.57378 -0.0835403 0
M  V30 1305 C 133.992 2.12252 0.864959 0
M  V30 1306 C 134.992 1.04916 1.21858 0
M  V30 1307 O 136.182 1.30853 1.14991 0
M  V30 1308 C 133.314 2.63358 2.16461 0
M  V30 1309 H 134.507 2.97371 0.388676 0
M  V30 1310 H 132.06 1.55423 0.165317 0
M  V30 1311 H 132.795 1.81727 2.686 0
M  V30 1312 H 132.58 3.41826 1.92087 0
M  V30 1313 H 134.07 3.05847 2.84337 0
M  V30 1314 N 134.507 -0.190092 1.56449 0
M  V30 1315 C 135.737 -0.92443 1.84764 0
M  V30 1316 C 136.145 -1.77146 0.664529 0
M  V30 1317 O 135.488 -1.79812 -0.375957 0
M  V30 1318 C 135.55 -1.86651 3.07248 0
M  V30 1319 C 135.214 -1.20094 4.40938 0
M  V30 1320 C 136.211 -0.575445 5.16706 0
M  V30 1321 C 133.896 -1.2033 4.87674 0
M  V30 1322 C 135.89 0.0388111 6.37388 0
M  V30 1323 C 133.577 -0.585214 6.08291 0
M  V30 1324 C 134.575 0.0347578 6.82991 0
M  V30 1325 O 134.263 0.643147 8.01323 0
M  V30 1326 H 133.995 -0.274974 0.617548 0
M  V30 1327 H 136.549 -0.200788 2.04416 0
M  V30 1328 H 134.779 -2.62998 2.83494 0
M  V30 1329 H 136.468 -2.46907 3.22167 0
M  V30 1330 H 137.234 -0.565728 4.81689 0
M  V30 1331 H 133.113 -1.67526 4.29484 0
M  V30 1332 H 136.657 0.523329 6.95634 0
M  V30 1333 H 132.554 -0.592451 6.42775 0
M  V30 1334 H 133.322 0.540545 8.16713 0
M  V30 1335 N 135.985 -1.50799 -0.457987 0
M  V30 1336 C 136.895 -1.73426 -1.57989 0
M  V30 1337 C 137.911 -0.617745 -1.62665 0
M  V30 1338 O 139.087 -0.897614 -1.80291 0
M  V30 1339 C 136.152 -1.83557 -2.94122 0
M  V30 1340 C 135.213 -3.07345 -2.99729 0
M  V30 1341 C 134.446 -3.16983 -4.29368 0
M  V30 1342 O 134.669 -2.33077 -5.20607 0
M  V30 1343 O 133.603 -4.09812 -4.40837 0
M  V30 1344 H 137.429 -2.68555 -1.41817 0
M  V30 1345 H 135.014 -1.35052 -0.638859 0
M  V30 1346 H 136.896 -1.92326 -3.74952 0
M  V30 1347 H 135.571 -0.916137 -3.10465 0
M  V30 1348 H 134.478 -3.04068 -2.1793 0
M  V30 1349 H 135.811 -3.9891 -2.88326 0
M  V30 1350 N 137.463 0.71206 -1.40597 0
M  V30 1351 C 138.711 1.46907 -1.38791 0
M  V30 1352 C 139.032 1.94998 0.00780391 0
M  V30 1353 O 138.302 1.70587 0.963174 0
M  V30 1354 H 136.882 0.545043 -0.51082 0
M  V30 1355 H 139.544 0.843882 -1.75683 0
M  V30 1356 H 138.64 2.34021 -2.06496 0
M  V30 1357 N 138.941 1.26152 0.944643 0
M  V30 1358 C 139.891 1.04081 2.02857 0
M  V30 1359 C 140.875 -0.0256555 1.6088 0
M  V30 1360 O 142.067 0.190884 1.75968 0
M  V30 1361 C 139.196 0.672118 3.36656 0
M  V30 1362 C 138.282 1.77586 3.85128 0
M  V30 1363 N 138.673 3.01272 4.06287 0
M  V30 1364 C 136.971 1.65867 4.1401 0
M  V30 1365 C 137.672 3.72983 4.46384 0
M  V30 1366 N 136.648 3.00653 4.52889 0
M  V30 1367 H 140.45 1.97968 2.17223 0
M  V30 1368 H 137.964 1.16618 1.13022 0
M  V30 1369 H 139.961 0.495166 4.13949 0
M  V30 1370 H 138.621 -0.259307 3.23663 0
M  V30 1371 H 139.632 3.37213 3.93075 0
M  V30 1372 H 136.309 0.796907 4.09824 0
M  V30 1373 H 137.699 4.792 4.70975 0
M  V30 1374 N 140.419 -1.14872 1.07899 0
M  V30 1375 C 141.696 -1.81928 0.71845 0
M  V30 1376 C 142.076 -1.95417 -0.798455 0
M  V30 1377 O 141.424 -1.50997 -1.715 0
M  V30 1378 C 141.634 -3.17937 1.43935 0
M  V30 1379 C 142.982 -3.93501 1.59506 0
M  V30 1380 O 144.006 -3.27509 1.40058 0
M  V30 1381 O 142.865 -5.1183 1.91551 0
M  V30 1382 H 139.959 -0.78628 0.256305 0
M  V30 1383 H 142.505 -1.21934 1.18026 0
M  V30 1384 H 141.277 -3.0325 2.47295 0
M  V30 1385 H 140.9 -3.85619 0.968687 0
M  V30 1386 N 141.898 -0.863906 -1.31812 0
M  V30 1387 C 142.828 -0.330843 -2.31144 0
M  V30 1388 C 143.809 0.575005 -1.60087 0
M  V30 1389 O 144.994 0.493304 -1.8783 0
M  V30 1390 C 142.124 0.47374 -3.44054 0
M  V30 1391 C 141.078 -0.338481 -4.26659 0
M  V30 1392 C 140.404 0.591412 -5.31419 0
M  V30 1393 C 141.704 -1.56926 -4.98168 0
M  V30 1394 H 143.398 -1.16086 -2.75979 0
M  V30 1395 H 140.944 -0.559657 -1.32679 0
M  V30 1396 H 142.897 0.857143 -4.12591 0
M  V30 1397 H 141.621 1.33721 -2.9797 0
M  V30 1398 H 140.28 -0.703754 -3.59782 0
M  V30 1399 H 139.928 1.45199 -4.81587 0
M  V30 1400 H 139.628 0.0519022 -5.87577 0
M  V30 1401 H 141.152 0.97179 -6.02817 0
M  V30 1402 H 142.566 -1.25764 -5.59336 0
M  V30 1403 H 140.963 -2.04739 -5.64094 0
M  V30 1404 H 142.033 -2.32544 -4.25501 0
M  V30 1405 N 143.376 1.44774 -0.622745 0
M  V30 1406 C 144.792 1.56986 -0.287652 0
M  V30 1407 C 144.992 1.61167 1.20944 0
M  V30 1408 O 144.048 1.55015 1.99315 0
M  V30 1409 C 145.361 2.84551 -0.972188 0
M  V30 1410 C 146.909 2.9825 -0.949536 0
M  V30 1411 C 147.384 4.28605 -1.61437 0
M  V30 1412 N 148.875 4.35399 -1.58057 0
M  V30 1413 C 149.61 5.34964 -2.064 0
M  V30 1414 N 149.106 6.40981 -2.62897 0
M  V30 1415 N 150.899 5.26419 -1.97078 0
M  V30 1416 H 143.05 1.40304 -1.59463 0
M  V30 1417 H 145.313 0.671794 -0.668878 0
M  V30 1418 H 145.019 2.87417 -2.02693 0
M  V30 1419 H 144.893 3.73807 -0.504771 0
M  V30 1420 H 147.28 2.94941 0.0967067 0
M  V30 1421 H 147.361 2.10364 -1.45536 0
M  V30 1422 H 147.005 4.32672 -2.66002 0
M  V30 1423 H 146.935 5.15334 -1.08344 0
M  V30 1424 H 149.426 3.59397 -1.16801 0
M  V30 1425 H 149.739 7.13225 -2.97539 0
M  V30 1426 H 148.084 6.4169 -2.66943 0
M  V30 1427 H 151.275 4.42504 -1.52669 0
M  V30 1428 H 151.448 6.03861 -2.35066 0
M  V30 1429 N 144.854 0.36279 1.53368 0
M  V30 1430 C 146.084 -0.228281 2.05335 0
M  V30 1431 C 146.492 -1.43226 1.23625 0
M  V30 1432 O 145.835 -1.81717 0.269206 0
M  V30 1433 C 145.897 -0.688549 3.52845 0
M  V30 1434 C 145.561 0.398362 4.5526 0
M  V30 1435 C 146.558 1.24732 5.04716 0
M  V30 1436 C 144.243 0.557805 4.99193 0
M  V30 1437 C 146.237 2.2411 5.96702 0
M  V30 1438 C 143.924 1.55495 5.90986 0
M  V30 1439 C 144.922 2.39503 6.39631 0
M  V30 1440 O 144.61 3.37517 7.29615 0
M  V30 1441 H 144.342 -0.044395 0.674541 0
M  V30 1442 H 146.896 0.518668 1.98744 0
M  V30 1443 H 145.126 -1.48706 3.56964 0
M  V30 1444 H 146.815 -1.20231 3.87685 0
M  V30 1445 H 147.581 1.13532 4.71525 0
M  V30 1446 H 143.46 -0.0862959 4.60919 0
M  V30 1447 H 147.004 2.89718 6.34594 0
M  V30 1448 H 142.901 1.66744 6.23592 0
M  V30 1449 H 143.669 3.33213 7.47604 0
M  V30 1450 N 146.332 -1.57332 0.0918853 0
M  V30 1451 C 147.578 -1.94524 -0.573425 0
M  V30 1452 C 147.911 -0.973578 -1.68033 0
M  V30 1453 O 147.186 -0.00609226 -1.94499 0
M  V30 1454 C 147.469 -3.41858 -1.13161 0
M  V30 1455 C 147.322 -4.4979 -0.0299747 0
M  V30 1456 C 148.641 -3.90435 -2.03098 0
M  V30 1457 H 145.76 -0.70734 -0.206975 0
M  V30 1458 H 148.402 -1.89309 0.161942 0
M  V30 1459 H 146.552 -3.46433 -1.7583 0
M  V30 1460 H 148.224 -4.57327 0.604112 0
M  V30 1461 H 146.467 -4.291 0.636833 0
M  V30 1462 H 147.138 -5.50069 -0.461287 0
M  V30 1463 H 149.614 -3.87992 -1.50338 0
M  V30 1464 H 148.49 -4.94097 -2.39081 0
M  V30 1465 H 148.751 -3.29541 -2.94712 0
M  V30 1466 N 147.81 0.181792 -1.56548 0
M  V30 1467 C 149.056 0.901431 -1.81665 0
M  V30 1468 C 149.389 1.82347 -0.668075 0
M  V30 1469 O 148.664 1.91669 0.330615 0
M  V30 1470 C 148.947 1.70618 -3.17115 0
M  V30 1471 C 148.8 0.807964 -4.42484 0
M  V30 1472 C 150.119 2.67605 -3.49393 0
M  V30 1473 H 147.238 0.32627 -0.660846 0
M  V30 1474 H 149.88 0.168134 -1.89255 0
M  V30 1475 H 148.03 2.33133 -3.10775 0
M  V30 1476 H 149.702 0.19649 -4.60881 0
M  V30 1477 H 147.945 0.115411 -4.33646 0
M  V30 1478 H 148.616 1.40632 -5.33785 0
M  V30 1479 H 151.092 2.15218 -3.56118 0
M  V30 1480 H 149.968 3.20985 -4.45264 0
M  V30 1481 H 150.229 3.47298 -2.73563 0
M  V30 1482 N 149.288 1.51039 0.449983 0
M  V30 1483 C 150.238 1.67824 1.54335 0
M  V30 1484 C 151.222 0.5324 1.51836 0
M  V30 1485 O 152.414 0.787762 1.58503 0
M  V30 1486 C 149.543 1.7951 2.92628 0
M  V30 1487 C 148.629 2.99838 2.9993 0
M  V30 1488 N 149.02 4.23207 2.77001 0
M  V30 1489 C 147.318 2.98832 3.31082 0
M  V30 1490 C 148.019 5.04361 2.89818 0
M  V30 1491 N 146.995 4.38746 3.2094 0
M  V30 1492 H 150.797 2.60884 1.35339 0
M  V30 1493 H 148.311 1.48513 0.657085 0
M  V30 1494 H 150.308 1.89642 3.7127 0
M  V30 1495 H 148.968 0.876227 3.12654 0
M  V30 1496 H 149.979 4.5236 2.52172 0
M  V30 1497 H 146.656 2.16527 3.56963 0
M  V30 1498 H 148.046 6.12528 2.76151 0
M  V30 1499 N 150.766 -0.704594 1.40972 0
M  V30 1500 C 152.177 -1.28418 1.3552 0
M  V30 1501 C 152.528 -1.96171 0.0339434 0
M  V30 1502 O 151.653 -1.98231 -0.867944 0
M  V30 1503 C 152.248 -2.33528 2.45459 0
M  V30 1504 C 150.807 -2.87085 2.43433 0
M  V30 1505 C 149.954 -1.61007 2.2577 0
M  V30 1506 H 152.905 -0.499963 1.50619 0
M  V30 1507 H 152.926 -3.14619 2.13998 0
M  V30 1508 H 152.438 -1.84187 3.41609 0
M  V30 1509 H 150.539 -3.40626 1.51013 0
M  V30 1510 H 150.652 -3.3813 3.39419 0
M  V30 1511 H 149.016 -1.86482 1.73483 0
M  V30 1512 H 149.799 -1.13675 3.23933 0
M  V30 1513 N 152.244 -1.26651 -0.937939 0
M  V30 1514 C 153.49 -1.12553 -1.687 0
M  V30 1515 C 153.823 0.329782 -1.91379 0
M  V30 1516 O 153.098 1.24202 -1.4968 0
M  V30 1517 C 153.381 -1.89862 -3.05981 0
M  V30 1518 C 153.234 -3.43318 -2.90607 0
M  V30 1519 C 154.553 -1.69499 -4.0615 0
M  V30 1520 H 151.672 -0.410257 -0.612257 0
M  V30 1521 H 154.314 -1.55685 -1.08913 0
M  V30 1522 H 152.464 -1.53204 -3.57017 0
M  V30 1523 H 154.136 -3.89747 -2.46769 0
M  V30 1524 H 152.379 -3.70179 -2.26164 0
M  V30 1525 H 153.05 -3.92642 -3.8799 0
M  V30 1526 H 155.526 -2.01442 -3.64088 0
M  V30 1527 H 154.402 -2.26002 -5.00214 0
M  V30 1528 H 154.663 -0.640365 -4.37438 0
M  V30 1529 N 153.722 1.14298 -1.08507 0
M  V30 1530 C 155.138 1.37347 -0.812901 0
M  V30 1531 C 155.338 1.93052 0.577325 0
M  V30 1532 O 154.394 2.14389 1.33393 0
M  V30 1533 C 155.707 2.33359 -1.89642 0
M  V30 1534 C 157.255 2.46996 -1.92255 0
M  V30 1535 C 157.73 3.46309 -2.99724 0
M  V30 1536 N 159.221 3.53853 -2.98902 0
M  V30 1537 C 159.956 4.3055 -3.787 0
M  V30 1538 N 159.452 5.10482 -4.6838 0
M  V30 1539 N 161.245 4.25757 -3.66998 0
M  V30 1540 H 153.396 0.764867 -1.9815 0
M  V30 1541 H 155.659 0.398966 -0.859959 0
M  V30 1542 H 155.365 1.99565 -2.89597 0
M  V30 1543 H 155.239 3.33274 -1.76659 0
M  V30 1544 H 157.626 2.80081 -0.929445 0
M  V30 1545 H 157.707 1.47039 -2.09316 0
M  V30 1546 H 157.351 3.13957 -3.99241 0
M  V30 1547 H 157.281 4.46049 -2.79907 0
M  V30 1548 H 159.772 2.96812 -2.33904 0
M  V30 1549 H 160.085 5.66284 -5.25873 0
M  V30 1550 H 158.43 5.09747 -4.72422 0
M  V30 1551 H 161.621 3.62383 -2.96304 0
M  V30 1552 H 161.794 4.85279 -4.29427 0
M  V30 1553 N 155.201 0.870884 1.31352 0
M  V30 1554 C 156.164 0.332243 2.26779 0
M  V30 1555 C 157.164 -0.517302 1.52252 0
M  V30 1556 O 158.354 -0.326477 1.71113 0
M  V30 1557 C 155.486 -0.528066 3.36785 0
M  V30 1558 H 156.679 1.17469 2.75937 0
M  V30 1559 H 154.232 0.64655 1.423 0
M  V30 1560 H 154.967 -1.39167 2.92922 0
M  V30 1561 H 154.752 0.0802582 3.92018 0
M  V30 1562 H 156.242 -0.897179 4.07849 0
M  V30 1563 N 156.679 -1.44442 0.630414 0
M  V30 1564 C 157.642 -2.29107 -0.0652523 0
M  V30 1565 C 158.642 -1.41002 -0.772995 0
M  V30 1566 O 159.832 -1.62881 -0.617692 0
M  V30 1567 C 156.964 -3.22564 -1.10296 0
M  V30 1568 H 158.157 -2.92103 0.679401 0
M  V30 1569 H 155.71 -1.51343 0.390517 0
M  V30 1570 H 156.445 -2.64416 -1.87762 0
M  V30 1571 H 156.23 -3.87491 -0.59941 0
M  V30 1572 H 157.72 -3.86167 -1.5895 0
M  V30 1573 N 158.157 -0.370918 -1.53173 0
M  V30 1574 C 159.573 -0.0200818 -1.59587 0
M  V30 1575 C 159.773 1.46279 -1.38581 0
M  V30 1576 O 158.829 2.22506 -1.19363 0
M  V30 1577 C 160.142 -0.4808 -2.96831 0
M  V30 1578 C 161.69 -0.435477 -3.09956 0
M  V30 1579 C 162.165 -0.872092 -4.4962 0
M  V30 1580 N 163.656 -0.827364 -4.55751 0
M  V30 1581 C 164.391 -1.13683 -5.62018 0
M  V30 1582 N 163.887 -1.51584 -6.76014 0
M  V30 1583 N 165.68 -1.05927 -5.52029 0
M  V30 1584 H 157.831 -1.33652 -1.65079 0
M  V30 1585 H 160.094 -0.546634 -0.774529 0
M  V30 1586 H 159.8 -1.51577 -3.1736 0
M  V30 1587 H 159.674 0.129796 -3.76977 0
M  V30 1588 H 162.061 0.590371 -2.89134 0
M  V30 1589 H 162.142 -1.08164 -2.31806 0
M  V30 1590 H 161.786 -1.89608 -4.71181 0
M  V30 1591 H 161.716 -0.203127 -5.26208 0
M  V30 1592 H 164.207 -0.548216 -3.73902 0
M  V30 1593 H 164.52 -1.73609 -7.53047 0
M  V30 1594 H 162.865 -1.55454 -6.77391 0
M  V30 1595 H 166.056 -0.762321 -4.61851 0
M  V30 1596 H 166.229 -1.30378 -6.34749 0
M  V30 1597 N 159.635 1.57281 -0.100228 0
M  V30 1598 C 160.598 2.13158 0.842398 0
M  V30 1599 C 161.598 1.06202 1.20738 0
M  V30 1600 O 162.788 1.32066 1.13597 0
M  V30 1601 C 159.92 2.65639 2.13655 0
M  V30 1602 H 161.113 2.97766 0.357114 0
M  V30 1603 H 158.666 1.5559 0.148823 0
M  V30 1604 H 159.401 1.84566 2.66657 0
M  V30 1605 H 159.186 3.43844 1.88451 0
M  V30 1606 H 160.676 3.08846 2.81077 0
M  V30 1607 N 161.113 -0.173488 1.56642 0
M  V30 1608 C 162.076 -1.19859 1.95362 0
M  V30 1609 C 163.076 -1.37296 0.83704 0
M  V30 1610 O 164.266 -1.34739 1.10413 0
M  V30 1611 C 161.398 -2.56405 2.24654 0
M  V30 1612 H 162.591 -0.867062 2.87092 0
M  V30 1613 H 160.144 -0.415853 1.50666 0
M  V30 1614 H 160.879 -2.94576 1.35631 0
M  V30 1615 H 160.664 -2.45115 3.06041 0
M  V30 1616 H 162.154 -3.30287 2.5554 0
M  V30 1617 N 162.591 -1.51276 -0.441967 0
M  V30 1618 C 163.839 -1.63392 -1.18943 0
M  V30 1619 C 164.16 -0.350159 -1.9183 0
M  V30 1620 O 163.43 0.633784 -1.85364 0
M  V30 1621 H 162.01 -0.602164 -0.442049 0
M  V30 1622 H 164.672 -1.88186 -0.507165 0
M  V30 1623 H 163.768 -2.45934 -1.92154 0
M  V30 1624 N 164.069 0.697108 -1.41344 0
M  V30 1625 C 165.032 1.79281 -1.42797 0
M  V30 1626 C 166.032 1.57607 -0.318837 0
M  V30 1627 O 167.222 1.64309 -0.578642 0
M  V30 1628 C 164.354 3.17632 -1.23785 0
M  V30 1629 H 165.547 1.79385 -2.40335 0
M  V30 1630 H 163.1 0.904582 -1.27464 0
M  V30 1631 H 163.835 3.23167 -0.270814 0
M  V30 1632 H 163.62 3.34765 -2.04144 0
M  V30 1633 H 165.11 3.97617 -1.27633 0
M  V30 1634 N 165.547 1.27147 0.931209 0
M  V30 1635 C 166.479 1.05364 2.03546 0
M  V30 1636 C 167.492 0.0108438 1.62796 0
M  V30 1637 O 168.681 0.25202 1.76712 0
M  V30 1638 C 165.781 0.575566 3.33977 0
M  V30 1639 C 164.954 1.68985 4.03439 0
M  V30 1640 C 164.013 1.20813 5.12143 0
M  V30 1641 O 163.039 1.90712 5.363 0
M  V30 1642 N 164.241 0.0618851 5.80467 0
M  V30 1643 H 167.006 2.00454 2.22796 0
M  V30 1644 H 164.567 1.18666 1.10136 0
M  V30 1645 H 166.559 0.237264 4.04004 0
M  V30 1646 H 165.129 -0.282016 3.11325 0
M  V30 1647 H 164.349 2.19861 3.27192 0
M  V30 1648 H 165.637 2.4378 4.46597 0
M  V30 1649 H 165.035 -0.521621 5.6329 0
M  V30 1650 H 163.592 -0.217264 6.51438 0
M  V30 1651 N 167.025 -1.13721 1.09112 0
M  V30 1652 C 168.274 -1.84275 0.82009 0
M  V30 1653 C 168.587 -1.84253 -0.656509 0
M  V30 1654 O 169.793 -2.50668 -1.04296 0
M  V30 1655 C 168.249 -3.30825 1.41714 0
M  V30 1656 C 167.857 -3.39244 2.92605 0
M  V30 1657 C 169.601 -4.06443 1.22492 0
M  V30 1658 C 167.508 -4.80047 3.45411 0
M  V30 1659 H 166.438 -0.690387 0.30312 0
M  V30 1660 H 169.089 -1.28146 1.31343 0
M  V30 1661 H 167.471 -3.86737 0.851498 0
M  V30 1662 H 168.645 -2.93344 3.55367 0
M  V30 1663 H 166.96 -2.77088 3.10823 0
M  V30 1664 H 169.557 -5.10387 1.59402 0
M  V30 1665 H 169.9 -4.15972 0.165299 0
M  V30 1666 H 170.433 -3.56852 1.75788 0
M  V30 1667 H 167.172 -4.75709 4.50978 0
M  V30 1668 H 166.692 -5.26455 2.87411 0
M  V30 1669 H 168.371 -5.48957 3.42425 0
M  V30 1670 N 168.503 -0.877838 -1.30888 0
M  V30 1671 C 169.436 -0.283995 -2.26426 0
M  V30 1672 C 170.414 0.591361 -1.51465 0
M  V30 1673 O 171.598 0.54304 -1.80509 0
M  V30 1674 C 168.725 0.597129 -3.33395 0
M  V30 1675 C 167.771 -0.207937 -4.25993 0
M  V30 1676 S 168.604 -1.59158 -5.11301 0
M  V30 1677 C 169.76 -0.716791 -6.21782 0
M  V30 1678 H 169.993 -1.09383 -2.76446 0
M  V30 1679 H 167.526 -0.676828 -1.38775 0
M  V30 1680 H 169.484 1.09978 -3.95493 0
M  V30 1681 H 168.145 1.38099 -2.82113 0
M  V30 1682 H 167.338 0.464163 -5.01858 0
M  V30 1683 H 166.94 -0.642963 -3.68432 0
M  V30 1684 H 169.232 0.0692833 -6.77465 0
M  V30 1685 H 170.175 -1.44682 -6.93161 0
M  V30 1686 H 170.583 -0.280855 -5.63801 0
M  V30 1687 N 169.982 1.44106 -0.638065 0
M  V30 1688 C 171.228 2.02277 -0.145546 0
M  V30 1689 C 171.561 1.50125 1.23191 0
M  V30 1690 O 170.836 0.688133 1.8192 0
M  V30 1691 C 171.119 3.59829 -0.139791 0
M  V30 1692 C 170.972 4.22247 -1.55008 0
M  V30 1693 C 172.291 4.36873 0.531966 0
M  V30 1694 H 169.41 0.734992 -0.0543632 0
M  V30 1695 H 172.052 1.71592 -0.815863 0
M  V30 1696 H 170.202 3.86102 0.431007 0
M  V30 1697 H 171.874 4.07057 -2.1703 0
M  V30 1698 H 170.117 3.79476 -2.10191 0
M  V30 1699 H 170.788 5.31284 -1.49804 0
M  V30 1700 H 173.264 4.16074 0.0464781 0
M  V30 1701 H 172.14 5.4657 0.505206 0
M  V30 1702 H 172.401 4.11995 1.60352 0
M  V30 1703 N 171.46 0.379036 1.52974 0
M  V30 1704 C 172.39 -0.452706 2.29069 0
M  V30 1705 C 173.371 -1.07237 1.32039 0
M  V30 1706 O 174.556 -1.08708 1.60923 0
M  V30 1707 C 171.686 -1.5856 3.08992 0
M  V30 1708 C 170.64 -1.0925 4.13822 0
M  V30 1709 C 169.966 -2.31668 4.81907 0
M  V30 1710 C 171.266 -0.167702 5.22031 0
M  V30 1711 H 172.96 0.182181 2.98845 0
M  V30 1712 H 170.506 0.0890592 1.43724 0
M  V30 1713 H 172.459 -2.1742 3.6098 0
M  V30 1714 H 171.183 -2.24792 2.36931 0
M  V30 1715 H 169.842 -0.526494 3.628 0
M  V30 1716 H 169.49 -2.96386 4.06404 0
M  V30 1717 H 169.19 -1.9934 5.52754 0
M  V30 1718 H 170.714 -2.91189 5.36695 0
M  V30 1719 H 172.128 -0.664186 5.6944 0
M  V30 1720 H 170.525 0.0653265 6.00064 0
M  V30 1721 H 171.595 0.786347 4.78482 0
M  V30 1722 N 172.938 -1.57226 0.108567 0
M  V30 1723 C 174.166 -1.99179 -0.559954 0
M  V30 1724 C 174.581 -0.988022 -1.60884 0
M  V30 1725 O 173.938 0.0205512 -1.82488 0
M  V30 1726 C 173.989 -3.41159 -1.19552 0
M  V30 1727 O 173.71 -4.37694 -0.188577 0
M  V30 1728 C 175.211 -3.98188 -1.94837 0
M  V30 1729 H 172.431 -0.654228 -0.149088 0
M  V30 1730 H 174.975 -2.03598 0.19183 0
M  V30 1731 H 173.13 -3.37711 -1.89815 0
M  V30 1732 H 173.544 -5.20469 -0.649014 0
M  V30 1733 H 175.018 -4.99644 -2.34648 0
M  V30 1734 H 175.495 -3.3675 -2.81951 0
M  V30 1735 H 176.101 -4.0515 -1.2936 0
M  V30 1736 N 174.416 0.165178 -1.56732 0
M  V30 1737 C 175.364 1.22369 -1.97809 0
M  V30 1738 C 176.358 1.45488 -0.867741 0
M  V30 1739 O 177.564 1.45995 -1.05288 0
M  V30 1740 H 173.939 0.411486 -0.629431 0
M  V30 1741 H 175.91 0.850425 -2.86025 0
M  V30 1742 C 174.659 2.55403 -2.35934 0
M  V30 1743 H 173.982 2.38438 -3.20916 0
M  V30 1744 H 175.422 3.2814 -2.68514 0
M  V30 1745 C 173.881 3.14611 -1.20506 0
M  V30 1746 O 174.411 3.98626 -0.496016 0
M  V30 1747 N 172.617 2.7379 -0.97403 0
M  V30 1748 H 172.164 2.0557 -1.55238 0
M  V30 1749 H 172.122 3.1374 -0.203573 0
M  V30 1750 N 175.894 1.51508 0.433938 0
M  V30 1751 C 176.857 1.72473 1.50949 0
M  V30 1752 C 177.857 0.594725 1.49398 0
M  V30 1753 O 179.047 0.862315 1.5136 0
M  V30 1754 C 176.179 1.78431 2.90474 0
M  V30 1755 H 177.372 2.68467 1.33662 0
M  V30 1756 H 174.925 1.41549 0.662836 0
M  V30 1757 H 175.66 0.842645 3.13161 0
M  V30 1758 H 175.445 2.60558 2.93005 0
M  V30 1759 H 176.935 1.96479 3.68491 0
M  V30 1760 N 177.372 -0.689602 1.41712 0
M  V30 1761 C 178.335 -1.78521 1.43746 0
M  V30 1762 C 179.335 -1.57436 0.327191 0
M  V30 1763 O 180.525 -1.64 0.587348 0
M  V30 1764 C 177.657 -3.16971 1.25467 0
M  V30 1765 H 178.85 -1.78108 2.41283 0
M  V30 1766 H 176.403 -0.89781 1.27942 0
M  V30 1767 H 177.138 -3.23019 0.287948 0
M  V30 1768 H 176.923 -3.33678 2.05917 0
M  V30 1769 H 178.413 -3.96935 1.2974 0
M  V30 1770 N 178.85 -1.27639 -0.924453 0
M  V30 1771 C 180.098 -1.13941 -1.66918 0
M  V30 1772 C 180.419 0.314589 -1.92446 0
M  V30 1773 O 179.689 1.21964 -1.53303 0
M  V30 1774 H 178.269 -0.418678 -0.618642 0
M  V30 1775 H 180.931 -1.60213 -1.10985 0
M  V30 1776 H 180.027 -1.67094 -2.63602 0
M  V30 1777 N 180.328 1.1314 -1.09713 0
M  V30 1778 C 181.576 1.84119 -0.833338 0
M  V30 1779 C 181.897 1.84097 0.642904 0
M  V30 1780 O 181.167 1.29881 1.46655 0
M  V30 1781 H 179.747 0.681766 -0.305293 0
M  V30 1782 H 182.409 1.37038 -1.38588 0
M  V30 1783 H 181.505 2.88543 -1.18951 0
M  V30 1784 N 181.806 0.884767 1.30421 0
M  V30 1785 C 182.736 0.367574 2.30589 0
M  V30 1786 C 183.717 -0.549464 1.60981 0
M  V30 1787 O 184.902 -0.46336 1.88591 0
M  V30 1788 C 182.032 -0.418944 3.44764 0
M  V30 1789 C 180.986 0.406316 4.26067 0
M  V30 1790 C 180.312 -0.506793 5.32293 0
M  V30 1791 C 181.612 1.64832 4.95608 0
M  V30 1792 H 183.306 1.20462 2.74097 0
M  V30 1793 H 180.852 0.580695 1.31772 0
M  V30 1794 H 182.805 -0.791395 4.13902 0
M  V30 1795 H 181.529 -1.28964 3.0006 0
M  V30 1796 H 180.188 0.760903 3.58617 0
M  V30 1797 H 179.836 -1.37519 4.83836 0
M  V30 1798 H 179.536 0.0415828 5.87585 0
M  V30 1799 H 181.06 -0.875764 6.04287 0
M  V30 1800 H 182.474 1.34646 5.57264 0
M  V30 1801 H 180.871 2.13688 5.60765 0
M  V30 1802 H 181.941 2.39284 4.21748 0
M  V30 1803 N 183.284 -1.43765 0.645699 0
M  V30 1804 C 184.7 -1.56509 0.312591 0
M  V30 1805 C 184.9 -1.6307 -1.18365 0
M  V30 1806 O 183.956 -1.58167 -1.96824 0
M  V30 1807 C 185.269 -2.82968 1.01733 0
M  V30 1808 C 186.817 -2.96701 0.996865 0
M  V30 1809 C 187.292 -4.25982 1.68236 0
M  V30 1810 N 188.783 -4.32829 1.64964 0
M  V30 1811 C 189.518 -5.31613 2.14885 0
M  V30 1812 N 189.014 -6.36718 2.73061 0
M  V30 1813 N 190.807 -5.23217 2.05428 0
M  V30 1814 H 182.958 -1.3775 1.61675 0
M  V30 1815 H 185.221 -0.661067 0.679481 0
M  V30 1816 H 184.927 -2.84156 2.0724 0
M  V30 1817 H 184.801 -3.72957 0.564177 0
M  V30 1818 H 187.188 -2.95058 -0.0497719 0
M  V30 1819 H 187.269 -2.08022 1.48865 0
M  V30 1820 H 186.913 -4.28386 2.72852 0
M  V30 1821 H 186.843 -5.13545 1.16529 0
M  V30 1822 H 189.334 -3.57493 1.22503 0
M  V30 1823 H 189.647 -7.08401 3.08848 0
M  V30 1824 H 187.992 -6.37362 2.77118 0
M  V30 1825 H 191.183 -4.40019 1.59689 0
M  V30 1826 H 191.356 -6.00045 2.44643 0
M  V30 1827 N 184.763 -0.387143 -1.52771 0
M  V30 1828 C 185.726 0.436939 -2.24997 0
M  V30 1829 C 186.726 0.991991 -1.26555 0
M  V30 1830 O 187.916 0.874335 -1.50669 0
M  V30 1831 C 185.048 1.61281 -3.00335 0
M  V30 1832 H 186.241 -0.195365 -2.99263 0
M  V30 1833 H 183.794 -0.139218 -1.55679 0
M  V30 1834 H 184.529 2.2826 -2.30364 0
M  V30 1835 H 184.314 1.22154 -3.72587 0
M  V30 1836 H 185.804 2.19629 -3.5518 0
M  V30 1837 N 186.241 1.57166 -0.116904 0
M  V30 1838 C 187.518 1.86645 0.585049 0
M  V30 1839 C 187.898 1.0177 1.84949 0
M  V30 1840 O 187.246 0.0960379 2.28298 0
M  V30 1841 C 187.456 3.37736 0.879507 0
M  V30 1842 C 188.804 4.06289 1.23348 0
M  V30 1843 O 189.828 3.42743 0.969836 0
M  V30 1844 O 188.687 5.18455 1.7282 0
M  V30 1845 H 185.781 0.772593 0.295007 0
M  V30 1846 H 188.327 1.69025 -0.151249 0
M  V30 1847 H 187.099 3.91296 -0.0166136 0
M  V30 1848 H 186.722 3.6078 1.67103 0
M  V30 1849 N 187.719 -0.156864 1.56817 0
M  V30 1850 C 188.649 -1.19589 2.00551 0
M  V30 1851 C 189.63 -1.4536 0.883426 0
M  V30 1852 O 190.815 -1.56449 1.15054 0
M  V30 1853 C 187.945 -2.53143 2.37773 0
M  V30 1854 C 186.899 -2.41913 3.53075 0
M  V30 1855 C 186.225 -3.80088 3.76081 0
M  V30 1856 C 187.525 -1.91157 4.86062 0
M  V30 1857 H 189.219 -0.832293 2.87599 0
M  V30 1858 H 186.765 -0.398918 1.38364 0
M  V30 1859 H 188.718 -3.26047 2.66967 0
M  V30 1860 H 187.442 -2.91319 1.4765 0
M  V30 1861 H 186.101 -1.71462 3.24031 0
M  V30 1862 H 185.749 -4.15683 2.83225 0
M  V30 1863 H 185.449 -3.73439 4.53671 0
M  V30 1864 H 186.973 -4.54556 4.0769 0
M  V30 1865 H 188.387 -2.53846 5.14038 0
M  V30 1866 H 186.784 -1.95422 5.67389 0
M  V30 1867 H 187.854 -0.866673 4.77092 0
M  V30 1868 N 189.197 -1.51736 -0.425897 0
M  V30 1869 C 190.129 -1.70083 -1.53638 0
M  V30 1870 C 191.142 -0.581349 -1.52066 0
M  V30 1871 O 192.331 -0.856017 -1.56635 0
M  V30 1872 C 189.431 -1.71078 -2.9255 0
M  V30 1873 C 188.604 -2.99795 -3.185 0
M  V30 1874 C 187.663 -2.92825 -4.37196 0
M  V30 1875 O 186.689 -3.66756 -4.35291 0
M  V30 1876 N 187.891 -2.0946 -5.41393 0
M  V30 1877 H 190.656 -2.65882 -1.383 0
M  V30 1878 H 188.217 -1.49765 -0.614988 0
M  V30 1879 H 190.209 -1.63969 -3.69995 0
M  V30 1880 H 188.779 -0.828242 -3.01428 0
M  V30 1881 H 187.999 -3.20684 -2.2925 0
M  V30 1882 H 189.287 -3.84977 -3.32671 0
M  V30 1883 H 188.685 -1.48792 -5.45781 0
M  V30 1884 H 187.242 -2.08221 -6.17647 0
M  V30 1885 N 190.675 0.682077 -1.42076 0
M  V30 1886 C 191.921 1.44428 -1.42367 0
M  V30 1887 C 192.254 1.94164 -0.0373056 0
M  V30 1888 O 191.529 1.70429 0.937239 0
M  V30 1889 C 191.812 2.64654 -2.44194 0
M  V30 1890 C 191.665 2.20596 -3.91991 0
M  V30 1891 C 192.984 3.66865 -2.431 0
M  V30 1892 H 190.103 0.523834 -0.518428 0
M  V30 1893 H 192.745 0.77576 -1.73442 0
M  V30 1894 H 190.895 3.2169 -2.17826 0
M  V30 1895 H 192.567 1.68783 -4.29313 0
M  V30 1896 H 190.81 1.52242 -4.06208 0
M  V30 1897 H 191.481 3.06921 -4.58807 0
M  V30 1898 H 193.957 3.19531 -2.66532 0
M  V30 1899 H 192.833 4.48577 -3.16339 0
M  V30 1900 H 193.094 4.17493 -1.45437 0
M  V30 1901 N 192.153 1.28127 0.917671 0
M  V30 1902 C 193.401 1.14825 1.66312 0
M  V30 1903 C 193.722 -0.304379 1.9261 0
M  V30 1904 O 192.992 -1.21149 1.53947 0
M  V30 1905 H 191.572 0.421953 0.616413 0
M  V30 1906 H 194.234 1.608 1.10134 0
M  V30 1907 H 193.33 1.68489 2.62712 0
M  V30 1908 N 193.631 -1.12557 1.10312 0
M  V30 1909 C 194.563 -2.17971 0.708625 0
M  V30 1910 C 195.576 -1.60806 -0.254027 0
M  V30 1911 O 196.765 -1.78458 -0.0386891 0
M  V30 1912 C 193.865 -3.38891 0.0248198 0
M  V30 1913 C 193.038 -4.25548 1.01132 0
M  V30 1914 C 192.097 -5.24972 0.35924 0
M  V30 1915 O 191.123 -5.60174 1.00965 0
M  V30 1916 N 192.325 -5.73747 -0.882847 0
M  V30 1917 H 195.09 -2.52427 1.61557 0
M  V30 1918 H 192.651 -1.27967 0.991771 0
M  V30 1919 H 194.643 -4.02485 -0.422852 0
M  V30 1920 H 193.213 -3.02596 -0.784514 0
M  V30 1921 H 192.433 -3.58589 1.6373 0
M  V30 1922 H 193.721 -4.80294 1.67914 0
M  V30 1923 H 193.119 -5.4731 -1.43065 0
M  V30 1924 H 191.676 -6.39234 -1.27369 0
M  V30 1925 N 195.109 -0.891671 -1.2995 0
M  V30 1926 C 196.52 -0.563104 -1.78006 0
M  V30 1927 C 196.871 0.920978 -1.73241 0
M  V30 1928 O 195.996 1.71987 -1.31337 0
M  V30 1929 C 196.591 -1.01539 -3.23226 0
M  V30 1930 C 195.15 -0.738124 -3.69092 0
M  V30 1931 C 194.297 -1.19461 -2.50249 0
M  V30 1932 H 197.248 -1.07522 -1.16725 0
M  V30 1933 H 197.269 -0.347217 -3.78912 0
M  V30 1934 H 196.781 -2.09555 -3.26662 0
M  V30 1935 H 194.882 0.329766 -3.71138 0
M  V30 1936 H 194.995 -1.33037 -4.60259 0
M  V30 1937 H 193.359 -0.613787 -2.47194 0
M  V30 1938 H 194.142 -2.28265 -2.56417 0
M  V30 1939 N 196.587 1.43421 -0.653314 0
M  V30 1940 C 197.833 2.02111 -0.166992 0
M  V30 1941 C 198.166 1.51423 1.21592 0
M  V30 1942 O 197.441 0.707389 1.8118 0
M  V30 1943 C 197.724 3.5966 -0.177948 0
M  V30 1944 C 197.577 4.20579 -1.59478 0
M  V30 1945 C 198.896 4.37413 0.4856 0
M  V30 1946 H 196.015 0.734374 -0.0621557 0
M  V30 1947 H 198.657 1.70717 -0.834016 0
M  V30 1948 H 196.807 3.86537 0.390032 0
M  V30 1949 H 198.479 4.04732 -2.21336 0
M  V30 1950 H 196.722 3.77226 -2.14204 0
M  V30 1951 H 197.393 5.29665 -1.5543 0
M  V30 1952 H 199.869 4.161 0.00234528 0
M  V30 1953 H 198.745 5.47075 0.447207 0
M  V30 1954 H 199.006 4.13672 1.55974 0
M  V30 1955 N 198.065 0.39524 1.52563 0
M  V30 1956 C 198.995 -0.428384 2.29537 0
M  V30 1957 C 199.976 -1.05831 1.33169 0
M  V30 1958 O 201.161 -1.06995 1.62067 0
M  V30 1959 C 198.291 -1.55274 3.10656 0
M  V30 1960 C 197.245 -1.04855 4.14957 0
M  V30 1961 C 196.571 -2.26543 4.84337 0
M  V30 1962 C 197.871 -0.112324 5.22179 0
M  V30 1963 H 199.565 0.213867 2.98635 0
M  V30 1964 H 197.111 0.104298 1.43622 0
M  V30 1965 H 199.064 -2.1358 3.63265 0
M  V30 1966 H 197.788 -2.22266 2.39302 0
M  V30 1967 H 196.447 -0.487985 3.63338 0
M  V30 1968 H 196.095 -2.92059 4.09525 0
M  V30 1969 H 195.795 -1.93466 5.54837 0
M  V30 1970 H 197.319 -2.85481 5.39753 0
M  V30 1971 H 198.733 -0.603752 5.70112 0
M  V30 1972 H 197.13 0.128968 5.99961 0
M  V30 1973 H 198.2 0.837052 4.77621 0
M  V30 1974 N 199.544 -1.57102 0.125237 0
M  V30 1975 C 200.793 -1.94582 -0.531095 0
M  V30 1976 C 201.106 -1.01126 -1.6743 0
M  V30 1977 O 202.312 -1.28097 -2.39381 0
M  V30 1978 C 200.768 -3.45839 -0.996164 0
M  V30 1979 C 200.376 -4.47842 0.118926 0
M  V30 1980 C 202.12 -3.92227 -1.62352 0
M  V30 1981 C 200.027 -5.90284 -0.363192 0
M  V30 1982 H 198.957 -0.726391 -0.20217 0
M  V30 1983 H 201.608 -1.82339 0.206092 0
M  V30 1984 H 199.99 -3.53338 -1.78796 0
M  V30 1985 H 201.164 -4.52018 0.895358 0
M  V30 1986 H 199.479 -4.11243 0.653324 0
M  V30 1987 H 202.076 -4.96069 -1.99548 0
M  V30 1988 H 202.419 -3.32552 -2.50429 0
M  V30 1989 H 202.952 -3.87554 -0.897019 0
M  V30 1990 H 199.691 -6.53728 0.481679 0
M  V30 1991 H 199.211 -5.89515 -1.10597 0
M  V30 1992 H 200.89 -6.41752 -0.822377 0
M  V30 1993 N 201.022 0.148545 -1.56898 0
M  V30 1994 C 202.247 0.880385 -1.87787 0
M  V30 1995 C 202.672 1.74018 -0.714093 0
M  V30 1996 O 202.03 1.78153 0.336343 0
M  V30 1997 C 202.078 1.71422 -3.17249 0
M  V30 1998 O 201.182 2.8183 -3.01074 0
M  V30 1999 H 200.523 0.245301 -0.617028 0
M  V30 2000 H 203.053 0.139826 -2.04122 0
M  V30 2001 H 203.063 2.10954 -3.49231 0
M  V30 2002 H 201.738 1.08284 -4.01556 0
M  V30 2003 H 200.315 2.45715 -2.80497 0
M  V30 2004 N 202.5 1.5196 0.417844 0
M  V30 2005 C 203.777 1.56146 1.17803 0
M  V30 2006 C 204.157 0.337275 2.08388 0
M  V30 2007 O 203.505 -0.676447 2.18258 0
M  V30 2008 C 203.715 2.88566 1.96293 0
M  V30 2009 C 205.063 3.41244 2.52662 0
M  V30 2010 O 206.087 2.90247 2.06483 0
M  V30 2011 O 204.946 4.30273 3.36938 0
M  V30 2012 H 202.04 0.628598 0.537395 0
M  V30 2013 H 204.586 1.64283 0.425331 0
M  V30 2014 H 203.358 3.69116 1.2988 0
M  V30 2015 H 202.981 2.83681 2.78587 0
M  V30 2016 N 203.978 -0.674533 1.42435 0
M  V30 2017 C 204.928 -1.7807 1.4239 0
M  V30 2018 C 205.912 -1.58169 0.295202 0
M  V30 2019 O 207.104 -1.68643 0.537449 0
M  V30 2020 C 204.233 -3.16532 1.32901 0
M  V30 2021 C 203.319 -3.42055 2.50717 0
M  V30 2022 N 203.71 -3.38162 3.76139 0
M  V30 2023 C 202.008 -3.72692 2.44983 0
M  V30 2024 C 202.709 -3.63177 4.54398 0
M  V30 2025 N 201.685 -3.83954 3.84812 0
M  V30 2026 H 205.487 -1.73454 2.37257 0
M  V30 2027 H 203.001 -0.875381 1.36788 0
M  V30 2028 H 204.998 -3.958 1.30951 0
M  V30 2029 H 203.658 -3.22345 0.390363 0
M  V30 2030 H 204.669 -3.18057 4.0873 0
M  V30 2031 H 201.346 -3.85749 1.59699 0
M  V30 2032 H 202.736 -3.66125 5.63384 0
M  V30 2033 N 205.456 -1.28612 -0.910864 0
M  V30 2034 C 206.386 -1.15326 -2.03032 0
M  V30 2035 C 207.367 -0.0502924 -1.70026 0
M  V30 2036 O 208.552 -0.227797 -1.92859 0
M  V30 2037 C 205.682 -0.817343 -3.37545 0
M  V30 2038 C 204.636 -1.8754 -3.84724 0
M  V30 2039 C 203.962 -1.39305 -5.16235 0
M  V30 2040 C 205.262 -3.28244 -4.06267 0
M  V30 2041 H 206.956 -2.08975 -2.14406 0
M  V30 2042 H 204.502 -1.00612 -1.03021 0
M  V30 2043 H 206.455 -0.711151 -4.15356 0
M  V30 2044 H 205.179 0.154846 -3.26233 0
M  V30 2045 H 203.838 -1.97079 -3.09121 0
M  V30 2046 H 203.486 -0.409846 -5.01328 0
M  V30 2047 H 203.186 -2.10057 -5.48771 0
M  V30 2048 H 204.71 -1.30014 -5.96598 0
M  V30 2049 H 206.124 -3.21611 -4.74594 0
M  V30 2050 H 204.521 -3.96855 -4.5014 0
M  V30 2051 H 205.591 -3.72048 -3.10979 0
M  V30 2052 N 206.934 1.1197 -1.10907 0
M  V30 2053 C 207.882 2.19927 -0.757303 0
M  V30 2054 C 208.876 1.67564 0.248747 0
M  V30 2055 O 210.082 1.79672 0.108605 0
M  V30 2056 H 206.457 0.716925 -0.226987 0
M  V30 2057 H 208.428 2.46847 -1.67658 0
M  V30 2058 C 207.177 3.47061 -0.210671 0
M  V30 2059 H 206.5 3.87703 -0.976049 0
M  V30 2060 H 207.94 4.24 -0.0026584 0
M  V30 2061 C 206.399 3.19864 1.05777 0
M  V30 2062 O 206.929 3.40049 2.13845 0
M  V30 2063 N 205.135 2.73636 0.978349 0
M  V30 2064 H 204.682 2.5741 0.0988246 0
M  V30 2065 H 204.64 2.55815 1.82773 0
M  V30 2066 N 208.412 0.89855 1.29475 0
M  V30 2067 C 209.342 0.39201 2.30186 0
M  V30 2068 C 210.323 -0.532359 1.61555 0
M  V30 2069 O 211.508 -0.443331 1.89072 0
M  V30 2070 C 208.638 -0.382353 3.45189 0
M  V30 2071 C 207.592 0.451483 4.25612 0
M  V30 2072 C 206.918 -0.450307 5.328 0
M  V30 2073 C 208.218 1.70079 4.93832 0
M  V30 2074 H 209.912 1.23362 2.72804 0
M  V30 2075 H 207.458 0.594638 1.31149 0
M  V30 2076 H 209.411 -0.747451 4.14718 0
M  V30 2077 H 208.135 -1.25774 3.01411 0
M  V30 2078 H 206.794 0.798897 3.57789 0
M  V30 2079 H 206.442 -1.32379 4.85268 0
M  V30 2080 H 206.142 0.103902 5.87508 0
M  V30 2081 H 207.666 -0.811623 6.05182 0
M  V30 2082 H 209.08 1.40549 5.55805 0
M  V30 2083 H 207.477 2.19623 5.58467 0
M  V30 2084 H 208.547 2.43744 4.19186 0
M  V30 2085 N 209.89 -1.43072 0.660911 0
M  V30 2086 C 211.118 -2.06067 0.185422 0
M  V30 2087 C 211.533 -1.49582 -1.15198 0
M  V30 2088 O 210.89 -0.630134 -1.71276 0
M  V30 2089 C 210.941 -3.61371 0.0966523 0
M  V30 2090 O 210.662 -4.15758 1.38119 0
M  V30 2091 C 212.163 -4.41455 -0.403996 0
M  V30 2092 H 209.383 -0.664459 0.0934604 0
M  V30 2093 H 211.927 -1.83447 0.90373 0
M  V30 2094 H 210.082 -3.8315 -0.572259 0
M  V30 2095 H 210.496 -5.09499 1.24542 0
M  V30 2096 H 211.97 -5.50437 -0.415045 0
M  V30 2097 H 212.447 -4.15036 -1.43674 0
M  V30 2098 H 213.053 -4.24663 0.232691 0
M  V30 2099 N 211.368 -0.403325 -1.52352 0
M  V30 2100 C 212.331 0.413051 -2.25447 0
M  V30 2101 C 213.331 0.978513 -1.276 0
M  V30 2102 O 214.521 0.858305 -1.51587 0
M  V30 2103 C 211.653 1.58087 -3.02029 0
M  V30 2104 H 212.846 -0.227094 -2.99039 0
M  V30 2105 H 210.399 -0.155722 -1.55522 0
M  V30 2106 H 211.134 2.25804 -2.32772 0
M  V30 2107 H 210.919 1.18195 -3.73861 0
M  V30 2108 H 212.409 2.1585 -3.57489 0
M  V30 2109 N 212.846 1.57033 -0.133567 0
M  V30 2110 C 214.262 1.58035 0.222944 0
M  V30 2111 C 214.462 1.14713 1.6566 0
M  V30 2112 O 213.518 0.841218 2.38075 0
M  V30 2113 C 214.831 3.00691 -0.0236116 0
M  V30 2114 C 216.379 3.12973 0.0411512 0
M  V30 2115 C 216.854 4.57654 -0.177899 0
M  V30 2116 N 218.345 4.63033 -0.124365 0
M  V30 2117 C 219.08 5.72771 -0.268553 0
M  V30 2118 N 218.576 6.91206 -0.46972 0
M  V30 2119 N 220.369 5.61718 -0.2071 0
M  V30 2120 H 212.52 1.8349 -1.06981 0
M  V30 2121 H 214.783 0.848677 -0.422436 0
M  V30 2122 H 214.489 3.36726 -1.0153 0
M  V30 2123 H 214.363 3.70614 0.701808 0
M  V30 2124 H 216.75 2.76787 1.02338 0
M  V30 2125 H 216.831 2.45564 -0.716383 0
M  V30 2126 H 216.475 4.94542 -1.15717 0
M  V30 2127 H 216.405 5.23173 0.599797 0
M  V30 2128 H 218.896 3.7789 0.027011 0
M  V30 2129 H 219.209 7.70693 -0.570212 0
M  V30 2130 H 217.554 6.93156 -0.505876 0
M  V30 2131 H 220.745 4.68072 -0.0507986 0
M  V30 2132 H 220.918 6.47195 -0.322909 0
M  V30 2133 N 214.325 -0.140222 1.56975 0
M  V30 2134 C 215.55 -0.870414 1.88251 0
M  V30 2135 C 215.975 -1.73637 0.723312 0
M  V30 2136 O 215.333 -1.78329 -0.32689 0
M  V30 2137 C 215.381 -1.69737 3.18154 0
M  V30 2138 O 214.485 -2.80229 3.02565 0
M  V30 2139 H 213.826 -0.242025 0.61832 0
M  V30 2140 H 216.356 -0.128999 2.04193 0
M  V30 2141 H 216.366 -2.09099 3.50345 0
M  V30 2142 H 215.041 -1.06152 4.02125 0
M  V30 2143 H 213.618 -2.44224 2.81796 0
M  V30 2144 N 215.803 -1.52179 -0.40978 0
M  V30 2145 C 217.214 -1.58377 -0.988615 0
M  V30 2146 C 217.565 -0.423879 -1.91566 0
M  V30 2147 O 216.69 0.455844 -2.11544 0
M  V30 2148 C 217.285 -2.87044 -1.79976 0
M  V30 2149 C 215.844 -2.95722 -2.32863 0
M  V30 2150 C 214.991 -2.53309 -1.12828 0
M  V30 2151 H 217.942 -1.57558 -0.190039 0
M  V30 2152 H 217.963 -2.7236 -2.65707 0
M  V30 2153 H 217.475 -3.71444 -1.12478 0
M  V30 2154 H 215.576 -2.15814 -3.03735 0
M  V30 2155 H 215.689 -3.99951 -2.63773 0
M  V30 2156 H 214.053 -2.07142 -1.48204 0
M  V30 2157 H 214.836 -3.40082 -0.46897 0
M  V30 2158 N 217.281 0.66697 -1.42791 0
M  V30 2159 C 218.211 1.79218 -1.49677 0
M  V30 2160 C 219.192 1.66405 -0.352623 0
M  V30 2161 O 220.377 1.85708 -0.567993 0
M  V30 2162 C 217.507 3.17565 -1.40605 0
M  V30 2163 C 216.461 3.45124 -2.53127 0
M  V30 2164 C 215.787 4.83127 -2.29112 0
M  V30 2165 C 217.087 3.41236 -3.95418 0
M  V30 2166 H 218.781 1.73713 -2.43853 0
M  V30 2167 H 216.327 0.83432 -1.17367 0
M  V30 2168 H 218.28 3.96022 -1.44029 0
M  V30 2169 H 217.004 3.23767 -0.429271 0
M  V30 2170 H 215.663 2.69031 -2.49034 0
M  V30 2171 H 215.311 4.85988 -1.29709 0
M  V30 2172 H 215.011 5.02528 -3.04531 0
M  V30 2173 H 216.535 5.63859 -2.34297 0
M  V30 2174 H 217.949 4.09651 -4.01073 0
M  V30 2175 H 216.346 3.72173 -4.70752 0
M  V30 2176 H 217.416 2.39665 -4.21532 0
M  V30 2177 N 218.759 1.29093 0.90403 0
M  V30 2178 C 220.005 1.16986 1.65656 0
M  V30 2179 C 220.338 -0.278925 1.92186 0
M  V30 2180 O 219.613 -1.2019 1.5292 0
M  V30 2181 C 219.896 1.97908 3.0084 0
M  V30 2182 C 219.749 3.50903 2.81403 0
M  V30 2183 C 221.068 1.80208 4.01513 0
M  V30 2184 H 218.187 0.426346 0.601164 0
M  V30 2185 H 220.829 1.58518 1.04747 0
M  V30 2186 H 218.979 1.62616 3.52829 0
M  V30 2187 H 220.651 3.96153 2.36348 0
M  V30 2188 H 218.894 3.76045 2.1627 0
M  V30 2189 H 219.565 4.02791 3.77443 0
M  V30 2190 H 222.041 2.11025 3.58619 0
M  V30 2191 H 220.917 2.39184 4.94047 0
M  V30 2192 H 221.178 0.756119 4.35586 0
M  V30 2193 N 220.237 -1.11381 1.11499 0
M  V30 2194 C 221.485 -1.8277 0.862524 0
M  V30 2195 C 221.806 -1.85097 -0.613534 0
M  V30 2196 O 221.076 -1.32198 -1.4457 0
M  V30 2197 H 219.656 -0.676823 0.316101 0
M  V30 2198 H 222.318 -1.34816 1.4075 0
M  V30 2199 H 221.414 -2.86614 1.23527 0
M  V30 2200 N 221.715 -0.905404 -1.28997 0
M  V30 2201 C 222.963 -0.533192 -1.9494 0
M  V30 2202 C 223.284 0.924618 -1.71685 0
M  V30 2203 O 222.554 1.65268 -1.05183 0
M  V30 2204 H 221.134 -0.194194 -0.721317 0
M  V30 2205 H 223.796 -1.15294 -1.57141 0
M  V30 2206 H 222.892 -0.72059 -3.03667 0
M  V30 2207 N 223.193 1.4272 -0.668489 0
M  V30 2208 C 224.103 2.34596 0.0139753 0
M  V30 2209 C 225.119 1.5474 0.795703 0
M  V30 2210 O 226.295 1.87334 0.739466 0
M  V30 2211 C 223.36 3.33202 0.957982 0
M  V30 2212 C 222.421 4.28957 0.17149 0
M  V30 2213 C 221.654 5.22853 1.07053 0
M  V30 2214 O 221.877 5.21531 2.31001 0
M  V30 2215 O 220.811 5.9952 0.534727 0
M  V30 2216 H 224.637 2.9448 -0.742661 0
M  V30 2217 H 222.222 1.43117 -0.428705 0
M  V30 2218 H 224.104 3.93796 1.50008 0
M  V30 2219 H 222.779 2.758 1.69458 0
M  V30 2220 H 221.686 3.71796 -0.414558 0
M  V30 2221 H 223.019 4.89383 -0.52586 0
M  V30 2222 N 224.671 0.411399 1.52136 0
M  V30 2223 C 225.918 -0.163645 2.01838 0
M  V30 2224 C 226.246 -1.4495 1.29691 0
M  V30 2225 O 225.501 -1.91725 0.392431 0
M  V30 2226 C 225.8 -0.455872 3.54481 0
M  V30 2227 C 225.466 0.741055 4.44769 0
M  V30 2228 C 224.128 1.06936 4.69167 0
M  V30 2229 C 226.48 1.54075 4.97906 0
M  V30 2230 C 223.808 2.19851 5.43951 0
M  V30 2231 C 226.16 2.66067 5.73926 0
M  V30 2232 C 224.824 2.99381 5.96596 0
M  V30 2233 H 224.094 -0.0598821 0.738576 0
M  V30 2234 H 226.741 0.553283 1.83333 0
M  V30 2235 H 225.046 -1.2544 3.71177 0
M  V30 2236 H 226.743 -0.913802 3.90449 0
M  V30 2237 H 223.333 0.475192 4.25958 0
M  V30 2238 H 227.517 1.30033 4.78963 0
M  V30 2239 H 222.773 2.46006 5.59724 0
M  V30 2240 H 226.947 3.28419 6.14096 0
M  V30 2241 H 224.574 3.86992 6.54325 0
M  V30 2242 N 226.149 -1.5696 0.141893 0
M  V30 2243 C 227.395 -1.9625 -0.511248 0
M  V30 2244 C 227.728 -1.02654 -1.64851 0
M  V30 2245 O 227.003 -0.0679676 -1.94381 0
M  V30 2246 C 227.286 -3.45285 -1.02227 0
M  V30 2247 C 227.139 -4.49658 0.113138 0
M  V30 2248 C 228.458 -3.96698 -1.90574 0
M  V30 2249 H 225.577 -0.713567 -0.184367 0
M  V30 2250 H 228.219 -1.88698 0.222087 0
M  V30 2251 H 226.369 -3.51852 -1.64719 0
M  V30 2252 H 228.041 -4.55174 0.749302 0
M  V30 2253 H 226.284 -4.26857 0.773026 0
M  V30 2254 H 226.955 -5.51258 -0.286053 0
M  V30 2255 H 229.431 -3.92578 -1.37918 0
M  V30 2256 H 228.307 -5.01453 -2.2324 0
M  V30 2257 H 228.568 -3.3875 -2.84079 0
M  V30 2258 N 227.627 0.131896 -1.57047 0
M  V30 2259 C 228.904 0.871495 -1.75112 0
M  V30 2260 C 229.284 1.9866 -0.713949 0
M  V30 2261 O 228.632 2.26965 0.264447 0
M  V30 2262 C 228.842 1.40007 -3.19686 0
M  V30 2263 C 230.19 1.85752 -3.81813 0
M  V30 2264 O 231.214 1.49715 -3.23209 0
M  V30 2265 O 230.073 2.5226 -4.84796 0
M  V30 2266 H 227.167 0.412919 -0.716538 0
M  V30 2267 H 229.713 0.116641 -1.69299 0
M  V30 2268 H 228.485 0.599404 -3.86682 0
M  V30 2269 H 228.108 2.218 -3.29986 0
M  V30 2270 N 229.106 1.52395 0.401703 0
M  V30 2271 C 230.036 1.79231 1.49661 0
M  V30 2272 C 231.017 0.643654 1.57452 0
M  V30 2273 O 232.202 0.889989 1.72606 0
M  V30 2274 C 229.332 1.94971 2.87409 0
M  V30 2275 C 228.286 3.10604 2.94465 0
M  V30 2276 C 227.612 3.11577 4.34538 0
M  V30 2277 C 228.912 4.49921 2.6527 0
M  V30 2278 H 230.606 2.70917 1.27454 0
M  V30 2279 H 228.152 1.30362 0.6117 0
M  V30 2280 H 230.105 2.12328 3.63999 0
M  V30 2281 H 228.829 0.999632 3.10926 0
M  V30 2282 H 227.488 2.93009 2.20321 0
M  V30 2283 H 227.136 2.14277 4.55076 0
M  V30 2284 H 226.836 3.89247 4.40183 0
M  V30 2285 H 228.36 3.31073 5.13053 0
M  V30 2286 H 229.774 4.67683 3.31581 0
M  V30 2287 H 228.171 5.29564 2.82281 0
M  V30 2288 H 229.241 4.57507 1.60671 0
M  V30 2289 N 230.584 -0.659388 1.43143 0
M  V30 2290 C 231.812 -1.44723 1.47861 0
M  V30 2291 C 232.227 -1.88563 0.0945886 0
M  V30 2292 O 231.584 -1.59108 -0.893915 0
M  V30 2293 C 231.635 -2.68627 2.41913 0
M  V30 2294 O 231.356 -2.26623 3.74932 0
M  V30 2295 C 232.857 -3.62045 2.55809 0
M  V30 2296 H 230.077 -0.444801 0.502387 0
M  V30 2297 H 232.621 -0.808916 1.87821 0
M  V30 2298 H 230.776 -3.28613 2.05164 0
M  V30 2299 H 231.19 -3.06745 4.2545 0
M  V30 2300 H 232.664 -4.45666 3.25708 0
M  V30 2301 H 233.141 -4.08981 1.60099 0
M  V30 2302 H 233.747 -3.07944 2.93344 0
M  V30 2303 N 232.062 -1.29571 -0.897171 0
M  V30 2304 C 233.339 -1.08365 -1.62839 0
M  V30 2305 C 233.719 0.371331 -2.07808 0
M  V30 2306 O 233.067 1.3606 -1.83576 0
M  V30 2307 C 233.277 -2.0735 -2.80726 0
M  V30 2308 C 234.625 -2.38406 -3.51351 0
M  V30 2309 O 235.649 -2.05564 -2.90898 0
M  V30 2310 O 234.508 -2.9453 -4.60341 0
M  V30 2311 H 231.602 -0.415345 -0.715134 0
M  V30 2312 H 234.148 -1.40952 -0.945018 0
M  V30 2313 H 232.92 -3.05339 -2.44711 0
M  V30 2314 H 232.543 -1.75507 -3.56767 0
M  V30 2315 N 233.54 1.10788 -1.12088 0
M  V30 2316 C 234.503 2.15207 -0.788577 0
M  V30 2317 C 235.503 1.59609 0.195317 0
M  V30 2318 O 236.693 1.74174 -0.0300193 0
M  V30 2319 C 233.825 3.4047 -0.171174 0
M  V30 2320 H 235.018 2.46116 -1.71368 0
M  V30 2321 H 232.571 1.26089 -0.923652 0
M  V30 2322 H 233.306 3.15176 0.763832 0
M  V30 2323 H 233.091 3.82109 -0.879514 0
M  V30 2324 H 234.581 4.17576 0.04496 0
M  V30 2325 N 235.018 0.912232 1.28515 0
M  V30 2326 C 236.248 0.559604 1.98877 0
M  V30 2327 C 236.656 -0.863113 1.68366 0
M  V30 2328 O 235.999 -1.58304 0.931969 0
M  V30 2329 C 236.061 0.68703 3.52874 0
M  V30 2330 C 235.725 2.07901 4.06972 0
M  V30 2331 C 236.722 3.05157 4.20922 0
M  V30 2332 C 234.407 2.39178 4.417 0
M  V30 2333 C 236.401 4.31806 4.68852 0
M  V30 2334 C 234.088 3.66068 4.89324 0
M  V30 2335 C 235.086 4.62195 5.02856 0
M  V30 2336 O 234.774 5.86829 5.49442 0
M  V30 2337 H 234.506 0.212191 0.641834 0
M  V30 2338 H 237.06 1.22712 1.64715 0
M  V30 2339 H 235.29 -0.0375486 3.86682 0
M  V30 2340 H 236.979 0.341727 4.04459 0
M  V30 2341 H 237.745 2.82311 3.94367 0
M  V30 2342 H 233.624 1.65109 4.30418 0
M  V30 2343 H 237.168 5.06842 4.79329 0
M  V30 2344 H 233.065 3.88739 5.15318 0
M  V30 2345 H 233.833 5.89597 5.6773 0
M  V30 2346 N 236.496 -1.42363 0.676048 0
M  V30 2347 C 237.721 -2.06377 0.205705 0
M  V30 2348 C 238.146 -1.50463 -1.12883 0
M  V30 2349 O 237.504 -0.623619 -1.70237 0
M  V30 2350 C 237.552 -3.60277 0.152655 0
M  V30 2351 O 236.656 -4.02935 -0.87845 0
M  V30 2352 H 235.997 -0.655588 0.105359 0
M  V30 2353 H 238.527 -1.82475 0.925412 0
M  V30 2354 H 238.537 -4.07993 -0.0230675 0
M  V30 2355 H 237.212 -4.00346 1.12675 0
M  V30 2356 H 235.789 -3.66764 -0.673668 0
M  V30 2357 N 237.974 -0.419461 -1.51915 0
M  V30 2358 C 239.385 0.0477853 -1.86639 0
M  V30 2359 C 239.736 1.43531 -1.33766 0
M  V30 2360 O 238.861 2.05401 -0.68113 0
M  V30 2361 C 239.456 0.0934885 -3.38671 0
M  V30 2362 C 238.015 0.505097 -3.72996 0
M  V30 2363 C 237.162 -0.313792 -2.75519 0
M  V30 2364 H 240.113 -0.636088 -1.45395 0
M  V30 2365 H 240.134 0.906667 -3.6954 0
M  V30 2366 H 239.646 -0.916501 -3.77123 0
M  V30 2367 H 237.747 1.52135 -3.40126 0
M  V30 2368 H 237.86 0.242309 -4.78487 0
M  V30 2369 H 236.224 0.225363 -2.53701 0
M  V30 2370 H 237.007 -1.32232 -3.16812 0
M  V30 2371 N 239.452 1.56882 -0.150215 0
M  V30 2372 C 240.868 1.58263 0.20617 0
M  V30 2373 C 241.068 1.16464 1.64434 0
M  V30 2374 O 240.124 0.866422 2.3717 0
M  V30 2375 C 241.437 3.00649 -0.0555025 0
M  V30 2376 C 242.985 3.12999 0.00795388 0
M  V30 2377 C 243.46 4.5744 -0.226429 0
M  V30 2378 N 244.951 4.62875 -0.173469 0
M  V30 2379 C 245.686 5.72454 -0.329288 0
M  V30 2380 N 245.182 6.90669 -0.543005 0
M  V30 2381 N 246.975 5.61467 -0.266666 0
M  V30 2382 H 239.126 1.82345 -1.08922 0
M  V30 2383 H 241.389 0.844149 -0.431413 0
M  V30 2384 H 241.095 3.3563 -1.05096 0
M  V30 2385 H 240.969 3.71337 0.66246 0
M  V30 2386 H 243.356 2.77857 0.993966 0
M  V30 2387 H 243.437 2.4479 -0.742388 0
M  V30 2388 H 243.081 4.93287 -1.20956 0
M  V30 2389 H 243.011 5.2378 0.544274 0
M  V30 2390 H 245.502 3.77898 -0.0130709 0
M  V30 2391 H 245.815 7.70045 -0.651922 0
M  V30 2392 H 244.16 6.92581 -0.579366 0
M  V30 2393 H 247.351 4.67992 -0.100441 0
M  V30 2394 H 247.524 6.46816 -0.391535 0
M  V30 2395 N 240.93 -0.123565 1.57115 0
M  V30 2396 C 241.86 -1.15309 2.03042 0
M  V30 2397 C 242.841 -1.43454 0.914061 0
M  V30 2398 O 244.026 -1.53973 1.18347 0
M  V30 2399 C 241.156 -2.48043 2.43089 0
M  V30 2400 C 240.11 -2.3437 3.58127 0
M  V30 2401 C 239.436 -3.72026 3.84059 0
M  V30 2402 C 240.736 -1.80804 4.90007 0
M  V30 2403 H 242.43 -0.771102 2.893 0
M  V30 2404 H 239.976 -0.369479 1.39179 0
M  V30 2405 H 241.929 -3.20311 2.73823 0
M  V30 2406 H 240.653 -2.88122 1.53796 0
M  V30 2407 H 239.312 -1.64551 3.27595 0
M  V30 2408 H 238.96 -4.09582 2.91979 0
M  V30 2409 H 238.66 -3.63732 4.6149 0
M  V30 2410 H 240.184 -4.45806 4.1724 0
M  V30 2411 H 241.598 -2.42886 5.19307 0
M  V30 2412 H 239.995 -1.83343 5.71407 0
M  V30 2413 H 241.065 -0.76528 4.78823 0
M  V30 2414 N 242.408 -1.52605 -0.393616 0
M  V30 2415 C 243.824 -1.41753 -0.733357 0
M  V30 2416 C 244.024 -0.534293 -1.94287 0
M  V30 2417 O 243.08 -0.0059787 -2.52499 0
M  V30 2418 C 244.393 -2.84531 -0.972772 0
M  V30 2419 C 245.941 -2.93978 -1.07453 0
M  V30 2420 C 246.416 -4.37756 -1.3466 0
M  V30 2421 N 247.907 -4.4106 -1.41492 0
M  V30 2422 C 248.642 -5.49387 -1.642 0
M  V30 2423 N 248.138 -6.67806 -1.8441 0
M  V30 2424 N 249.931 -5.36923 -1.66342 0
M  V30 2425 H 242.082 -2.08555 0.402328 0
M  V30 2426 H 244.345 -0.940654 0.117789 0
M  V30 2427 H 244.051 -3.51353 -0.156204 0
M  V30 2428 H 243.925 -3.26508 -1.88871 0
M  V30 2429 H 246.312 -2.27326 -1.88167 0
M  V30 2430 H 246.393 -2.55435 -0.136605 0
M  V30 2431 H 246.037 -5.04972 -0.544581 0
M  V30 2432 H 245.967 -4.73848 -2.2973 0
M  V30 2433 H 248.458 -3.55705 -1.27601 0
M  V30 2434 H 248.771 -7.46141 -2.01231 0
M  V30 2435 H 247.116 -6.70843 -1.81644 0
M  V30 2436 H 250.307 -4.43381 -1.50102 0
M  V30 2437 H 250.48 -6.21416 -1.837 0
M  V30 2438 N 243.887 0.651787 -1.4349 0
M  V30 2439 C 244.797 1.79368 -1.5121 0
M  V30 2440 C 245.813 1.69361 -0.399093 0
M  V30 2441 O 246.989 1.90505 -0.653431 0
M  V30 2442 C 244.054 3.15653 -1.43401 0
M  V30 2443 C 243.115 3.37446 -2.65384 0
M  V30 2444 C 242.348 4.67229 -2.57939 0
M  V30 2445 O 242.571 5.46676 -1.62792 0
M  V30 2446 O 241.505 4.90773 -3.48462 0
M  V30 2447 H 245.331 1.7581 -2.47638 0
M  V30 2448 H 242.916 0.810447 -1.25507 0
M  V30 2449 H 244.798 3.96935 -1.41494 0
M  V30 2450 H 243.473 3.19798 -0.501085 0
M  V30 2451 H 242.38 2.55923 -2.72863 0
M  V30 2452 H 243.713 3.38148 -3.57654 0
M  V30 2453 N 245.365 1.30045 0.890287 0
M  V30 2454 C 246.295 1.18541 2.01172 0
M  V30 2455 C 247.276 0.0773356 1.69924 0
M  V30 2456 O 248.461 0.25845 1.92473 0
M  V30 2457 C 245.591 0.870941 3.36202 0
M  V30 2458 C 244.545 1.93637 3.81692 0
M  V30 2459 C 243.871 1.475 5.13953 0
M  V30 2460 C 245.171 3.34666 4.00994 0
M  V30 2461 H 246.865 2.12359 2.11054 0
M  V30 2462 H 244.411 1.02238 1.01407 0
M  V30 2463 H 246.364 0.777141 4.14172 0
M  V30 2464 H 245.088 -0.102926 3.26438 0
M  V30 2465 H 243.747 2.01972 3.05946 0
M  V30 2466 H 243.395 0.489551 5.00612 0
M  V30 2467 H 243.095 2.1876 5.4536 0
M  V30 2468 H 244.619 1.39489 5.94454 0
M  V30 2469 H 246.033 3.2912 4.69417 0
M  V30 2470 H 244.43 4.03966 4.43769 0
M  V30 2471 H 245.5 3.76949 3.05021 0
M  V30 2472 N 246.843 -1.10192 1.12674 0
M  V30 2473 C 247.806 -2.14786 0.799979 0
M  V30 2474 C 248.806 -1.59711 -0.18685 0
M  V30 2475 O 249.996 -1.74156 0.0392558 0
M  V30 2476 C 247.128 -3.40374 0.189228 0
M  V30 2477 H 248.321 -2.45203 1.72671 0
M  V30 2478 H 245.874 -1.25597 0.930326 0
M  V30 2479 H 246.609 -3.15577 -0.747107 0
M  V30 2480 H 246.394 -3.81637 0.899766 0
M  V30 2481 H 247.884 -4.17594 -0.0228143 0
M  V30 2482 N 248.321 -0.919034 -1.28029 0
M  V30 2483 C 249.737 -0.617972 -1.4715 0
M  V30 2484 C 249.937 0.835242 -1.83374 0
M  V30 2485 O 248.993 1.61388 -1.94191 0
M  V30 2486 C 250.306 -1.56041 -2.57044 0
M  V30 2487 C 251.854 -1.56769 -2.7091 0
M  V30 2488 C 252.329 -2.49688 -3.83953 0
M  V30 2489 N 253.82 -2.47845 -3.91314 0
M  V30 2490 C 254.555 -3.16437 -4.78179 0
M  V30 2491 N 254.051 -3.94376 -5.69596 0
M  V30 2492 N 255.844 -3.05498 -4.71834 0
M  V30 2493 H 247.995 -1.85866 -1.02798 0
M  V30 2494 H 250.258 -0.797506 -0.512531 0
M  V30 2495 H 249.964 -2.59671 -2.372 0
M  V30 2496 H 249.838 -1.29551 -3.54255 0
M  V30 2497 H 252.225 -0.538745 -2.90141 0
M  V30 2498 H 252.306 -1.87305 -1.74214 0
M  V30 2499 H 251.95 -3.52688 -3.65477 0
M  V30 2500 H 251.88 -2.16453 -4.80058 0
M  V30 2501 H 254.371 -1.91234 -3.25941 0
M  V30 2502 H 254.684 -4.43721 -6.32718 0
M  V30 2503 H 253.029 -3.98481 -5.69419 0
M  V30 2504 H 256.22 -2.44108 -3.99411 0
M  V30 2505 H 256.393 -3.59225 -5.39316 0
M  V30 2506 N 249.799 1.42003 -0.683588 0
M  V30 2507 C 250.731 2.29183 0.0283068 0
M  V30 2508 C 251.744 1.4415 0.756611 0
M  V30 2509 O 252.933 1.67779 0.609306 0
M  V30 2510 C 250.033 3.21765 1.06398 0
M  V30 2511 C 249.206 4.35496 0.407723 0
M  V30 2512 C 248.265 5.08737 1.34437 0
M  V30 2513 O 247.291 5.62948 0.841318 0
M  V30 2514 N 248.493 5.15075 2.67728 0
M  V30 2515 H 251.258 2.9092 -0.720105 0
M  V30 2516 H 248.819 1.53025 -0.528682 0
M  V30 2517 H 250.811 3.6763 1.69204 0
M  V30 2518 H 249.381 2.61418 1.71404 0
M  V30 2519 H 248.601 3.92165 -0.400012 0
M  V30 2520 H 249.889 5.08776 -0.0490956 0
M  V30 2521 H 249.287 4.72457 3.11129 0
M  V30 2522 H 247.844 5.64556 3.2576 0
M  V30 2523 N 251.277 0.427512 1.51691 0
M  V30 2524 C 252.502 -0.143601 2.06902 0
M  V30 2525 C 252.927 -1.36536 1.29382 0
M  V30 2526 O 252.285 -1.78289 0.329043 0
M  V30 2527 C 252.333 -0.454207 3.57728 0
M  V30 2528 O 251.437 -1.54228 3.82475 0
M  V30 2529 H 250.778 -0.00617128 0.663971 0
M  V30 2530 H 253.308 0.606014 1.95419 0
M  V30 2531 H 253.318 -0.707525 4.01818 0
M  V30 2532 H 251.993 0.438812 4.13579 0
M  V30 2533 H 250.57 -1.2797 3.50254 0
M  V30 2534 N 252.755 -1.56801 0.158532 0
M  V30 2535 C 254.032 -1.88131 -0.535357 0
M  V30 2536 C 254.412 -1.06638 -1.82186 0
M  V30 2537 O 253.76 -0.156533 -2.27963 0
M  V30 2538 C 253.97 -3.39949 -0.789653 0
M  V30 2539 C 255.318 -4.09416 -1.12533 0
M  V30 2540 O 256.342 -3.45194 -0.878622 0
M  V30 2541 O 255.201 -5.22855 -1.59014 0
M  V30 2542 H 252.295 -0.780143 -0.27442 0
M  V30 2543 H 254.841 -1.68564 0.19601 0
M  V30 2544 H 253.613 -3.91115 0.120353 0
M  V30 2545 H 253.236 -3.65084 -1.57479 0
M  V30 2546 N 254.233 0.115231 -1.57178 0
M  V30 2547 C 255.644 0.67197 -1.74188 0
M  V30 2548 C 255.995 1.80125 -0.777777 0
M  V30 2549 O 255.12 2.16346 0.0484376 0
M  V30 2550 C 255.715 1.22573 -3.1585 0
M  V30 2551 C 254.274 1.72872 -3.34353 0
M  V30 2552 C 253.421 0.629972 -2.70049 0
M  V30 2553 H 256.372 -0.110712 -1.58313 0
M  V30 2554 H 256.393 2.09535 -3.17609 0
M  V30 2555 H 255.905 0.403598 -3.85996 0
M  V30 2556 H 254.006 2.5755 -2.69256 0
M  V30 2557 H 254.119 1.83557 -4.42542 0
M  V30 2558 H 252.483 1.0645 -2.31388 0
M  V30 2559 H 253.266 -0.181241 -3.42821 0
M  V30 2560 N 255.711 1.52812 0.385517 0
M  V30 2561 C 256.643 1.74096 1.49074 0
M  V30 2562 C 257.656 0.621462 1.50472 0
M  V30 2563 O 258.845 0.897245 1.54311 0
M  V30 2564 C 255.945 1.78774 2.87911 0
M  V30 2565 C 255.118 3.08134 3.10439 0
M  V30 2566 C 254.177 3.04313 4.29278 0
M  V30 2567 O 253.203 3.78168 4.25415 0
M  V30 2568 N 254.405 2.23741 5.35649 0
M  V30 2569 H 257.17 2.69455 1.31202 0
M  V30 2570 H 254.731 1.51343 0.575065 0
M  V30 2571 H 256.723 1.73721 3.65518 0
M  V30 2572 H 255.293 0.907869 2.99126 0
M  V30 2573 H 254.513 3.26649 2.20667 0
M  V30 2574 H 255.801 3.93662 3.22347 0
M  V30 2575 H 255.199 1.63211 5.41645 0
M  V30 2576 H 253.756 2.24524 6.11909 0
M  V30 2577 N 257.189 -0.644168 1.43834 0
M  V30 2578 C 258.119 -1.76814 1.52509 0
M  V30 2579 C 259.1 -1.65823 0.379052 0
M  V30 2580 O 260.285 -1.84781 0.597466 0
M  V30 2581 C 257.415 -3.15288 1.4564 0
M  V30 2582 C 256.369 -3.41053 2.58586 0
M  V30 2583 C 255.695 -4.79421 2.36769 0
M  V30 2584 C 256.995 -3.34902 4.00797 0
M  V30 2585 H 258.689 -1.69812 2.46586 0
M  V30 2586 H 256.235 -0.815542 1.1868 0
M  V30 2587 H 258.188 -3.93681 1.50311 0
M  V30 2588 H 256.912 -3.23043 0.480725 0
M  V30 2589 H 255.571 -2.65035 2.53282 0
M  V30 2590 H 255.219 -4.83863 1.37424 0
M  V30 2591 H 254.919 -4.9762 3.12487 0
M  V30 2592 H 256.443 -5.6006 2.43238 0
M  V30 2593 H 257.857 -4.03218 4.07539 0
M  V30 2594 H 256.254 -3.64637 4.76613 0
M  V30 2595 H 257.324 -2.32928 4.25291 0
M  V30 2596 N 258.668 -1.30515 -0.883378 0
M  V30 2597 C 259.631 -1.1701 -1.97082 0
M  V30 2598 C 260.631 -0.10089 -1.60483 0
M  V30 2599 O 261.821 -0.349127 -1.70666 0
M  V30 2600 C 258.953 -0.793045 -3.31547 0
M  V30 2601 H 260.146 -2.13622 -2.10489 0
M  V30 2602 H 257.699 -1.13935 -1.06998 0
M  V30 2603 H 258.434 0.172499 -3.23841 0
M  V30 2604 H 258.219 -1.56576 -3.5948 0
M  V30 2605 H 259.709 -0.722073 -4.1131 0
M  V30 2606 N 260.146 1.09593 -1.13257 0
M  V30 2607 C 261.056 2.19739 -0.821691 0
M  V30 2608 C 262.072 1.72926 0.19302 0
M  V30 2609 O 263.248 2.01385 0.0244895 0
M  V30 2610 C 260.313 3.45482 -0.290333 0
M  V30 2611 C 259.374 4.06985 -1.36607 0
M  V30 2612 C 258.607 5.26726 -0.859975 0
M  V30 2613 O 258.83 5.69594 0.303082 0
M  V30 2614 O 257.764 5.7931 -1.63351 0
M  V30 2615 H 261.59 2.48781 -1.74189 0
M  V30 2616 H 259.175 1.18496 -0.909894 0
M  V30 2617 H 261.057 4.214 0.000674022 0
M  V30 2618 H 259.732 3.18047 0.602306 0
M  V30 2619 H 258.639 3.32712 -1.71037 0
M  V30 2620 H 259.972 4.38643 -2.23279 0
M  V30 2621 N 261.624 0.925811 1.2754 0
M  V30 2622 C 262.872 0.564138 1.94067 0
M  V30 2623 C 263.193 -0.897188 1.73134 0
M  V30 2624 O 262.463 -1.63573 1.07799 0
M  V30 2625 H 261.043 0.205645 0.718136 0
M  V30 2626 H 263.705 1.1778 1.55287 0
M  V30 2627 H 262.801 0.76881 3.02483 0
M  V30 2628 N 263.102 -1.41638 0.69111 0
M  V30 2629 C 264.348 -2.01598 0.220519 0
M  V30 2630 C 264.681 -1.54594 -1.17535 0
M  V30 2631 O 263.956 -0.755177 -1.79241 0
M  V30 2632 C 264.239 -3.59062 0.273243 0
M  V30 2633 C 264.092 -4.16203 1.70573 0
M  V30 2634 C 265.411 -4.38546 -0.369457 0
M  V30 2635 H 262.53 -0.732468 0.0816045 0
M  V30 2636 H 265.172 -1.68445 0.878986 0
M  V30 2637 H 263.322 -3.87435 -0.287411 0
M  V30 2638 H 264.994 -3.98722 2.31989 0
M  V30 2639 H 263.237 -3.71414 2.2413 0
M  V30 2640 H 263.908 -5.25358 1.69419 0
M  V30 2641 H 266.384 -4.1596 0.107977 0
M  V30 2642 H 265.26 -5.48069 -0.302002 0
M  V30 2643 H 265.521 -4.17662 -1.44951 0
M  V30 2644 N 264.58 -0.43555 -1.51462 0
M  V30 2645 C 265.81 0.130053 -2.0619 0
M  V30 2646 C 266.218 1.37164 -1.30317 0
M  V30 2647 O 265.561 1.80225 -0.355598 0
M  V30 2648 C 265.623 0.519418 -3.55728 0
M  V30 2649 C 265.287 -0.615119 -4.52841 0
M  V30 2650 C 266.284 -1.48671 -4.9819 0
M  V30 2651 C 263.969 -0.795341 -4.95963 0
M  V30 2652 C 265.963 -2.52324 -5.8533 0
M  V30 2653 C 263.65 -1.83514 -5.82894 0
M  V30 2654 C 264.648 -2.69748 -6.27475 0
M  V30 2655 O 264.336 -3.71944 -7.1268 0
M  V30 2656 H 264.068 0.0121612 -0.675891 0
M  V30 2657 H 266.622 -0.6129 -1.96043 0
M  V30 2658 H 264.852 1.31505 -3.63653 0
M  V30 2659 H 266.541 1.01597 -3.92979 0
M  V30 2660 H 267.307 -1.359 -4.65571 0
M  V30 2661 H 263.186 -0.133713 -4.60806 0
M  V30 2662 H 266.73 -3.19665 -6.20048 0
M  V30 2663 H 262.627 -1.96306 -6.14926 0
M  V30 2664 H 263.395 -3.68503 -7.30854 0
M  V30 2665 N 266.058 1.56714 -0.166846 0
M  V30 2666 C 267.021 2.16539 0.751232 0
M  V30 2667 C 268.021 1.11228 1.16125 0
M  V30 2668 O 269.211 1.36765 1.07894 0
M  V30 2669 C 266.343 2.74462 2.02196 0
M  V30 2670 H 267.536 2.99013 0.230499 0
M  V30 2671 H 265.089 1.56081 0.0826982 0
M  V30 2672 H 265.824 1.95709 2.58589 0
M  V30 2673 H 265.609 3.51527 1.73698 0
M  V30 2674 H 267.099 3.20489 2.67725 0
M  V30 2675 N 267.536 -0.106894 1.57237 0
M  V30 2676 C 268.784 -0.810921 1.85117 0
M  V30 2677 C 269.105 -1.7984 0.753827 0
M  V30 2678 O 268.375 -1.94649 -0.221056 0
M  V30 2679 H 266.955 -0.302466 0.683025 0
M  V30 2680 H 269.617 -0.0913324 1.94686 0
M  V30 2681 H 268.713 -1.34875 2.81452 0
M  V30 2682 N 269.014 -1.53014 -0.377408 0
M  V30 2683 C 269.944 -1.81589 -1.46791 0
M  V30 2684 C 270.925 -0.668622 -1.56408 0
M  V30 2685 O 272.11 -0.917337 -1.71168 0
M  V30 2686 C 269.24 -1.99519 -2.8427 0
M  V30 2687 C 268.194 -3.15249 -2.89486 0
M  V30 2688 C 267.52 -3.18451 -4.29527 0
M  V30 2689 C 268.82 -4.54084 -2.58079 0
M  V30 2690 H 270.514 -2.7291 -1.23127 0
M  V30 2691 H 268.06 -1.31319 -0.590883 0
M  V30 2692 H 270.013 -2.18092 -3.60575 0
M  V30 2693 H 268.737 -1.04897 -3.09296 0
M  V30 2694 H 267.396 -2.96477 -2.15631 0
M  V30 2695 H 267.044 -2.2149 -4.5161 0
M  V30 2696 H 266.744 -3.962 -4.33934 0
M  V30 2697 H 268.268 -3.39193 -5.07721 0
M  V30 2698 H 269.682 -4.72899 -3.24098 0
M  V30 2699 H 268.079 -5.33987 -2.7382 0
M  V30 2700 H 269.149 -4.60006 -1.53372 0
M  V30 2701 N 270.492 0.636531 -1.44174 0
M  V30 2702 C 271.903 1.21806 -1.41493 0
M  V30 2703 C 272.254 1.95785 -0.1275 0
M  V30 2704 O 271.379 2.02147 0.772376 0
M  V30 2705 C 271.974 2.21551 -2.56321 0
M  V30 2706 C 270.533 2.75143 -2.56853 0
M  V30 2707 C 269.68 1.50052 -2.33195 0
M  V30 2708 H 272.631 0.427531 -1.52833 0
M  V30 2709 H 272.652 3.0405 -2.28765 0
M  V30 2710 H 272.164 1.67679 -3.50008 0
M  V30 2711 H 270.265 3.33033 -1.67093 0
M  V30 2712 H 270.378 3.2155 -3.55165 0
M  V30 2713 H 268.742 1.77993 -1.82183 0
M  V30 2714 H 269.525 0.980903 -3.28988 0
M  V30 2715 N 271.97 1.30982 0.876444 0
M  V30 2716 C 273.218 1.20058 1.62575 0
M  V30 2717 C 273.539 -0.242947 1.93481 0
M  V30 2718 O 272.809 -1.1619 1.57724 0
M  V30 2719 H 271.389 0.44135 0.602677 0
M  V30 2720 H 274.051 1.64222 1.04962 0
M  V30 2721 H 273.147 1.76762 2.57219 0
M  V30 2722 N 273.449 -1.08991 1.13837 0
M  V30 2723 C 274.86 -1.62746 0.914917 0
M  V30 2724 C 275.211 -1.88403 -0.547594 0
M  V30 2725 O 274.336 -1.63706 -1.41525 0
M  V30 2726 C 274.931 -2.95662 1.65437 0
M  V30 2727 C 273.49 -3.46225 1.47666 0
M  V30 2728 C 272.637 -2.20562 1.6807 0
M  V30 2729 H 275.588 -0.922946 1.29102 0
M  V30 2730 H 275.609 -3.63825 1.11407 0
M  V30 2731 H 275.121 -2.76956 2.71877 0
M  V30 2732 H 273.222 -3.70046 0.435478 0
M  V30 2733 H 273.335 -4.23368 2.24268 0
M  V30 2734 H 271.699 -2.29439 1.10589 0
M  V30 2735 H 272.482 -2.0437 2.7584 0
M  V30 2736 N 274.927 -0.932562 -1.27047 0
M  V30 2737 C 275.877 -0.406392 -2.24349 0
M  V30 2738 C 276.861 0.492066 -1.53191 0
M  V30 2739 O 278.053 0.328717 -1.73921 0
M  V30 2740 C 275.182 0.335214 -3.41659 0
M  V30 2741 C 274.268 -0.58004 -4.20115 0
M  V30 2742 N 274.659 -1.70203 -4.76303 0
M  V30 2743 C 272.957 -0.383974 -4.44344 0
M  V30 2744 C 273.658 -2.27167 -5.35509 0
M  V30 2745 N 272.634 -1.56068 -5.20715 0
M  V30 2746 H 276.436 -1.26299 -2.65378 0
M  V30 2747 H 273.95 -0.787408 -1.42034 0
M  V30 2748 H 275.947 0.729142 -4.10474 0
M  V30 2749 H 274.607 1.18868 -3.0216 0
M  V30 2750 H 275.618 -2.08433 -4.74106 0
M  V30 2751 H 272.295 0.428436 -4.15296 0
M  V30 2752 H 273.685 -3.21654 -5.89905 0
M  V30 2753 N 276.405 1.4127 -0.698611 0
M  V30 2754 C 277.635 2.05205 -0.239644 0
M  V30 2755 C 278.043 1.52684 1.11733 0
M  V30 2756 O 277.386 0.671222 1.70998 0
M  V30 2757 C 277.448 3.59289 -0.123126 0
M  V30 2758 C 277.112 4.34619 -1.41263 0
M  V30 2759 C 278.109 4.63701 -2.35111 0
M  V30 2760 C 275.794 4.73837 -1.66684 0
M  V30 2761 C 277.788 5.30966 -3.52639 0
M  V30 2762 C 275.475 5.40837 -2.84498 0
M  V30 2763 C 276.473 5.69329 -3.77298 0
M  V30 2764 O 276.161 6.34949 -4.93047 0
M  V30 2765 H 275.893 0.66723 -0.108537 0
M  V30 2766 H 278.447 1.81974 -0.952602 0
M  V30 2767 H 276.677 3.81272 0.645628 0
M  V30 2768 H 278.366 4.04797 0.299056 0
M  V30 2769 H 279.132 4.33882 -2.16729 0
M  V30 2770 H 275.011 4.51039 -0.953135 0
M  V30 2771 H 278.555 5.53121 -4.25091 0
M  V30 2772 H 274.452 5.70075 -3.02795 0
M  V30 2773 H 275.22 6.53445 -4.92902 0
M  V30 2774 N 277.883 0.443576 1.51229 0
M  V30 2775 C 278.793 -0.370721 2.31652 0
M  V30 2776 C 279.809 -1.02186 1.40833 0
M  V30 2777 O 280.985 -1.01586 1.73903 0
M  V30 2778 C 278.05 -1.45376 3.14749 0
M  V30 2779 C 277.111 -0.822099 4.21355 0
M  V30 2780 C 276.344 -1.85353 5.0048 0
M  V30 2781 O 276.567 -3.07656 4.80316 0
M  V30 2782 O 275.501 -1.4406 5.84406 0
M  V30 2783 H 279.327 0.286002 3.0235 0
M  V30 2784 H 276.912 0.20598 1.47973 0
M  V30 2785 H 278.794 -2.08173 3.66391 0
M  V30 2786 H 277.469 -2.09445 2.46809 0
M  V30 2787 H 276.376 -0.155909 3.73775 0
M  V30 2788 H 277.709 -0.224797 4.91686 0
M  V30 2789 N 279.361 -1.56624 0.175154 0
M  V30 2790 C 280.589 -2.01374 -0.474971 0
M  V30 2791 C 281.004 -1.05537 -1.56548 0
M  V30 2792 O 280.361 -0.0568668 -1.82411 0
M  V30 2793 C 280.412 -3.45923 -1.04975 0
M  V30 2794 O 280.133 -4.381 -0.00276605 0
M  V30 2795 C 281.634 -4.06093 -1.77773 0
M  V30 2796 H 278.854 -0.659962 -0.121206 0
M  V30 2797 H 281.398 -2.02601 0.27801 0
M  V30 2798 H 279.553 -3.45458 -1.75321 0
M  V30 2799 H 279.967 -5.22753 -0.427681 0
M  V30 2800 H 281.441 -5.09147 -2.13245 0
M  V30 2801 H 281.918 -3.48405 -2.67414 0
M  V30 2802 H 282.524 -4.10272 -1.12059 0
M  V30 2803 N 280.839 0.0985539 -1.57292 0
M  V30 2804 C 282.25 0.653457 -1.74891 0
M  V30 2805 C 282.601 1.7929 -0.796838 0
M  V30 2806 O 281.726 2.16385 0.0254886 0
M  V30 2807 C 282.321 1.19216 -3.17133 0
M  V30 2808 C 280.88 1.69316 -3.36168 0
M  V30 2809 C 280.027 0.601294 -2.70702 0
M  V30 2810 H 282.978 -0.127497 -1.58187 0
M  V30 2811 H 282.999 2.06154 -3.19814 0
M  V30 2812 H 282.511 0.362635 -3.86402 0
M  V30 2813 H 280.612 2.5468 -2.71972 0
M  V30 2814 H 280.725 1.78853 -4.44464 0
M  V30 2815 H 279.089 1.0399 -2.32504 0
M  V30 2816 H 279.872 -0.217592 -3.4261 0
M  V30 2817 N 282.317 1.53212 0.369288 0
M  V30 2818 C 283.28 1.7872 1.43498 0
M  V30 2819 C 284.28 0.657554 1.46741 0
M  V30 2820 O 285.47 0.925736 1.47566 0
M  V30 2821 C 282.602 1.90591 2.82645 0
M  V30 2822 H 283.795 2.73894 1.22156 0
M  V30 2823 H 281.348 1.44233 0.602203 0
M  V30 2824 H 282.083 0.974709 3.09306 0
M  V30 2825 H 281.868 2.72751 2.8169 0
M  V30 2826 H 283.358 2.11931 3.59826 0
M  V30 2827 N 283.795 -0.628877 1.44509 0
M  V30 2828 C 284.705 -1.7694 1.54044 0
M  V30 2829 C 285.721 -1.68705 0.425987 0
M  V30 2830 O 286.897 -1.89442 0.683656 0
M  V30 2831 C 283.962 -3.13332 1.48405 0
M  V30 2832 C 283.023 -3.33181 2.70719 0
M  V30 2833 C 282.256 -4.63067 2.6534 0
M  V30 2834 O 282.479 -5.44017 1.71469 0
M  V30 2835 O 281.413 -4.85167 3.56226 0
M  V30 2836 H 285.239 -1.71848 2.50403 0
M  V30 2837 H 282.824 -0.790378 1.26781 0
M  V30 2838 H 284.706 -3.94634 1.47791 0
M  V30 2839 H 283.381 -3.1896 0.551898 0
M  V30 2840 H 282.288 -2.51549 2.769 0
M  V30 2841 H 283.621 -3.32416 3.62988 0
M  V30 2842 N 285.273 -1.31445 -0.869486 0
M  V30 2843 C 286.522 -1.20517 -1.61736 0
M  V30 2844 C 286.835 0.235341 -1.94179 0
M  V30 2845 O 288.041 0.466312 -2.67465 0
M  V30 2846 C 286.497 -2.10982 -2.91573 0
M  V30 2847 C 286.105 -3.60032 -2.66611 0
M  V30 2848 C 287.849 -2.08856 -3.69567 0
M  V30 2849 C 285.756 -4.42503 -3.92358 0
M  V30 2850 H 284.686 -0.447493 -0.606849 0
M  V30 2851 H 287.337 -1.56303 -0.96133 0
M  V30 2852 H 285.719 -1.68095 -3.58553 0
M  V30 2853 H 286.893 -4.11167 -2.08035 0
M  V30 2854 H 285.208 -3.64139 -2.0197 0
M  V30 2855 H 287.805 -2.67716 -4.62852 0
M  V30 2856 H 288.148 -1.07582 -4.02159 0
M  V30 2857 H 288.681 -2.49945 -3.09471 0
M  V30 2858 H 285.42 -5.44533 -3.64916 0
M  V30 2859 H 284.94 -3.96125 -4.50383 0
M  V30 2860 H 286.619 -4.54741 -4.60238 0
M  V30 2861 N 286.751 1.08385 -1.14413 0
M  V30 2862 C 288.167 1.32844 -0.884563 0
M  V30 2863 C 288.367 1.95841 0.474181 0
M  V30 2864 O 287.423 2.21158 1.21842 0
M  V30 2865 C 288.736 2.22978 -2.01745 0
M  V30 2866 C 290.284 2.36458 -2.05077 0
M  V30 2867 C 290.759 3.29934 -3.1766 0
M  V30 2868 N 292.25 3.37511 -3.17239 0
M  V30 2869 C 292.985 4.09871 -4.0099 0
M  V30 2870 N 292.481 4.84936 -4.94781 0
M  V30 2871 N 294.274 4.05704 -3.89051 0
M  V30 2872 H 286.425 0.658756 -2.01926 0
M  V30 2873 H 288.688 0.352821 -0.879899 0
M  V30 2874 H 288.394 1.83934 -2.99769 0
M  V30 2875 H 288.268 3.23441 -1.94077 0
M  V30 2876 H 290.655 2.7476 -1.0766 0
M  V30 2877 H 290.736 1.35736 -2.16816 0
M  V30 2878 H 290.38 2.92352 -4.15322 0
M  V30 2879 H 290.31 4.30584 -3.03158 0
M  V30 2880 H 292.801 2.83996 -2.49308 0
M  V30 2881 H 293.114 5.37612 -5.55151 0
M  V30 2882 H 291.459 4.83988 -4.98779 0
M  V30 2883 H 294.65 3.46167 -3.15097 0
M  V30 2884 H 294.823 4.61834 -4.54547 0
M  V30 2885 N 288.23 0.939286 1.26551 0
M  V30 2886 C 289.163 0.391702 2.24813 0
M  V30 2887 C 290.141 -0.518421 1.54114 0
M  V30 2888 O 291.325 -0.456299 1.82894 0
M  V30 2889 C 288.452 -0.437382 3.35864 0
M  V30 2890 C 287.498 0.410946 4.24516 0
M  V30 2891 S 288.331 1.83372 5.03125 0
M  V30 2892 C 289.487 1.01264 6.17654 0
M  V30 2893 H 289.72 1.22448 2.70913 0
M  V30 2894 H 287.253 0.742269 1.35387 0
M  V30 2895 H 289.211 -0.909837 4.0029 0
M  V30 2896 H 287.872 -1.24482 2.8838 0
M  V30 2897 H 287.065 -0.224191 5.03501 0
M  V30 2898 H 286.667 0.818014 3.64945 0
M  V30 2899 H 288.959 0.254023 6.77024 0
M  V30 2900 H 289.902 1.77589 6.85469 0
M  V30 2901 H 290.31 0.549532 5.61819 0
M  V30 2902 N 289.708 -1.40897 0.706093 0
M  V30 2903 C 290.638 -2.33418 0.0620085 0
M  V30 2904 C 291.619 -1.52385 -0.755827 0
M  V30 2905 O 292.804 -1.80886 -0.706674 0
M  V30 2906 C 289.934 -3.36293 -0.867445 0
M  V30 2907 C 288.888 -4.27716 -0.155932 0
M  V30 2908 C 288.214 -5.2105 -1.20046 0
M  V30 2909 C 289.514 -5.12944 0.984149 0
M  V30 2910 H 291.208 -2.87527 0.83477 0
M  V30 2911 H 288.754 -1.38249 0.402875 0
M  V30 2912 H 290.707 -3.99949 -1.32735 0
M  V30 2913 H 289.431 -2.80556 -1.67199 0
M  V30 2914 H 288.09 -3.65498 0.284047 0
M  V30 2915 H 287.738 -4.61624 -1.99781 0
M  V30 2916 H 287.438 -5.83056 -0.729328 0
M  V30 2917 H 288.962 -5.87584 -1.66066 0
M  V30 2918 H 290.376 -5.70109 0.604048 0
M  V30 2919 H 288.773 -5.83945 1.38304 0
M  V30 2920 H 289.843 -4.49485 1.81911 0
M  V30 2921 N 291.186 -0.45159 -1.50991 0
M  V30 2922 C 292.118 0.388634 -2.25881 0
M  V30 2923 C 293.131 0.974041 -1.30446 0
M  V30 2924 O 294.32 0.865758 -1.56099 0
M  V30 2925 C 291.42 1.5571 -3.01011 0
M  V30 2926 C 290.593 1.08801 -4.23652 0
M  V30 2927 C 289.652 2.12825 -4.8124 0
M  V30 2928 O 288.678 1.71678 -5.42693 0
M  V30 2929 N 289.88 3.45453 -4.66522 0
M  V30 2930 H 292.645 -0.25329 -2.98628 0
M  V30 2931 H 290.206 -0.281268 -1.59438 0
M  V30 2932 H 292.198 2.24952 -3.3642 0
M  V30 2933 H 290.768 2.10409 -2.31186 0
M  V30 2934 H 289.988 0.22215 -3.93574 0
M  V30 2935 H 291.276 0.752213 -5.03209 0
M  V30 2936 H 290.674 3.81605 -4.17605 0
M  V30 2937 H 289.231 4.10549 -5.06254 0
M  V30 2938 N 292.664 1.56529 -0.183458 0
M  V30 2939 C 293.892 2.01623 0.464285 0
M  V30 2940 C 294.307 1.06366 1.55986 0
M  V30 2941 O 293.664 0.0665398 1.82379 0
M  V30 2942 C 293.715 3.46475 1.03139 0
M  V30 2943 O 293.436 4.38095 -0.0204675 0
M  V30 2944 C 294.937 4.0703 1.75617 0
M  V30 2945 H 292.157 0.660596 0.117704 0
M  V30 2946 H 294.701 2.02451 -0.288751 0
M  V30 2947 H 292.856 3.46383 1.73486 0
M  V30 2948 H 293.27 5.22973 0.399952 0
M  V30 2949 H 294.744 5.10271 2.10542 0
M  V30 2950 H 295.221 3.49819 2.65563 0
M  V30 2951 H 295.827 4.1086 1.09882 0
M  V30 2952 N 294.142 -0.090211 1.57342 0
M  V30 2953 C 295.072 -1.10976 2.05443 0
M  V30 2954 C 296.053 -1.41482 0.944284 0
M  V30 2955 O 297.238 -1.51428 1.21586 0
M  V30 2956 C 294.368 -2.42831 2.48295 0
M  V30 2957 C 293.322 -2.26721 3.63018 0
M  V30 2958 C 292.648 -3.63796 3.91863 0
M  V30 2959 C 293.948 -1.7037 4.93732 0
M  V30 2960 H 295.642 -0.709564 2.9087 0
M  V30 2961 H 293.188 -0.339874 1.39932 0
M  V30 2962 H 295.141 -3.14431 2.80555 0
M  V30 2963 H 293.865 -2.84795 1.59873 0
M  V30 2964 H 292.524 -1.57565 3.31012 0
M  V30 2965 H 292.172 -4.03297 3.00601 0
M  V30 2966 H 291.872 -3.53861 4.69101 0
M  V30 2967 H 293.396 -4.36855 4.26603 0
M  V30 2968 H 294.81 -2.31816 5.24342 0
M  V30 2969 H 293.207 -1.71181 5.75167 0
M  V30 2970 H 294.277 -0.663542 4.80339 0
M  V30 2971 N 295.62 -1.53406 -0.361157 0
M  V30 2972 C 296.868 -1.69467 -1.10115 0
M  V30 2973 C 297.189 -0.451352 -1.89705 0
M  V30 2974 O 296.459 0.534636 -1.88463 0
M  V30 2975 H 295.039 -0.624749 -0.409508 0
M  V30 2976 H 297.701 -1.90609 -0.406699 0
M  V30 2977 H 296.797 -2.55774 -1.78847 0
M  V30 2978 N 297.098 0.621204 -1.44841 0
M  V30 2979 C 298.061 1.71459 -1.521 0
M  V30 2980 C 299.061 1.55696 -0.401933 0
M  V30 2981 O 300.251 1.61011 -0.664925 0
M  V30 2982 C 297.383 3.10624 -1.40447 0
M  V30 2983 H 298.576 1.66394 -2.49506 0
M  V30 2984 H 296.129 0.835745 -1.3208 0
M  V30 2985 H 296.864 3.21277 -0.441737 0
M  V30 2986 H 296.649 3.23473 -2.21602 0
M  V30 2987 H 298.139 3.90293 -1.4853 0
M  V30 2988 N 298.576 1.31904 0.862503 0
M  V30 2989 C 299.853 1.12644 1.59908 0
M  V30 2990 C 300.233 -0.316104 2.0872 0
M  V30 2991 O 299.581 -1.31145 1.87118 0
M  V30 2992 C 299.791 2.1472 2.7513 0
M  V30 2993 C 301.139 2.47637 3.44907 0
M  V30 2994 O 302.163 2.13205 2.85346 0
M  V30 2995 O 301.022 3.06632 4.52371 0
M  V30 2996 H 298.116 0.43416 0.703871 0
M  V30 2997 H 300.662 1.43408 0.907314 0
M  V30 2998 H 299.434 3.1172 2.3653 0
M  V30 2999 H 299.057 1.84905 3.51989 0
M  V30 3000 N 300.054 -1.07777 1.14986 0
M  V30 3001 C 300.984 -2.16865 0.865557 0
M  V30 3002 C 301.965 -1.69123 -0.182083 0
M  V30 3003 O 303.15 -1.94164 -0.0373815 0
M  V30 3004 C 300.28 -3.45539 0.349313 0
M  V30 3005 C 299.234 -4.06708 1.33313 0
M  V30 3006 C 298.56 -5.30411 0.675918 0
M  V30 3007 C 299.86 -4.47241 2.69764 0
M  V30 3008 H 301.554 -2.40905 1.77778 0
M  V30 3009 H 299.1 -1.15781 0.856203 0
M  V30 3010 H 301.053 -4.21174 0.137983 0
M  V30 3011 H 299.777 -3.21072 -0.598362 0
M  V30 3012 H 298.436 -3.33112 1.53075 0
M  V30 3013 H 298.084 -5.02232 -0.277767 0
M  V30 3014 H 297.784 -5.72293 1.33244 0
M  V30 3015 H 299.308 -6.08755 0.474262 0
M  V30 3016 H 300.722 -5.14025 2.53873 0
M  V30 3017 H 299.119 -5.00062 3.3175 0
M  V30 3018 H 300.189 -3.58818 3.26156 0
M  V30 3019 N 301.532 -0.945985 -1.26051 0
M  V30 3020 C 302.778 -0.597002 -1.93814 0
M  V30 3021 C 303.111 0.862484 -1.73997 0
M  V30 3022 O 302.386 1.61769 -1.07986 0
M  V30 3023 C 302.669 -0.945937 -3.47454 0
M  V30 3024 C 302.522 -2.46052 -3.76535 0
M  V30 3025 C 303.841 -0.464785 -4.37639 0
M  V30 3026 H 300.96 -0.218366 -0.703907 0
M  V30 3027 H 303.602 -1.18107 -1.48831 0
M  V30 3028 H 301.752 -0.448902 -3.85898 0
M  V30 3029 H 303.424 -3.03065 -3.47778 0
M  V30 3030 H 301.667 -2.90194 -3.22444 0
M  V30 3031 H 302.338 -2.65517 -4.83947 0
M  V30 3032 H 304.814 -0.891016 -4.06448 0
M  V30 3033 H 303.69 -0.737712 -5.4392 0
M  V30 3034 H 303.951 0.635274 -4.37512 0
M  V30 3035 N 303.011 1.40521 -0.713556 0
M  V30 3036 C 304.259 2.00527 -0.251692 0
M  V30 3037 C 304.58 1.56857 1.15848 0
M  V30 3038 O 303.85 0.807127 1.785 0
M  V30 3039 H 302.43 0.741551 -0.0900646 0
M  V30 3040 H 305.092 1.71887 -0.918733 0
M  V30 3041 H 304.188 3.10813 -0.283192 0
M  V30 3042 N 304.489 0.459591 1.5075 0
M  V30 3043 C 305.422 -0.386257 2.24907 0
M  V30 3044 C 306.4 -1.006 1.27744 0
M  V30 3045 O 307.584 -1.04416 1.56938 0
M  V30 3046 C 304.711 -1.54021 3.01654 0
M  V30 3047 C 303.757 -1.03898 4.13651 0
M  V30 3048 S 304.59 0.0370501 5.35487 0
M  V30 3049 C 305.746 -1.12105 6.15779 0
M  V30 3050 H 305.979 0.243272 2.96303 0
M  V30 3051 H 303.512 0.244339 1.52454 0
M  V30 3052 H 305.47 -2.20163 3.46466 0
M  V30 3053 H 304.131 -2.14121 2.29806 0
M  V30 3054 H 303.324 -1.90254 4.66711 0
M  V30 3055 H 302.926 -0.45545 3.71216 0
M  V30 3056 H 305.218 -2.03501 6.46215 0
M  V30 3057 H 306.161 -0.62995 7.05292 0
M  V30 3058 H 306.569 -1.36967 5.47631 0
M  V30 3059 N 305.967 -1.56429 0.191757 0
M  V30 3060 C 307.192 -2.02309 -0.456706 0
M  V30 3061 C 307.617 -1.07103 -1.5463 0
M  V30 3062 O 306.975 -0.0539677 -1.8122 0
M  V30 3063 C 307.023 -3.46654 -0.993159 0
M  V30 3064 O 306.127 -3.54559 -2.10622 0
M  V30 3065 H 305.468 -0.655303 -0.107114 0
M  V30 3066 H 307.998 -2.02364 0.301653 0
M  V30 3067 H 308.008 -3.86377 -1.31061 0
M  V30 3068 H 306.683 -4.1544 -0.195504 0
M  V30 3069 H 305.26 -3.26708 -1.79767 0
M  V30 3070 N 307.445 0.0818655 -1.57387 0
M  V30 3071 C 308.673 0.796108 -1.9097 0
M  V30 3072 C 309.088 1.71626 -0.786757 0
M  V30 3073 O 308.445 1.80908 0.240513 0
M  V30 3074 C 308.496 1.59829 -3.24248 0
M  V30 3075 O 308.217 0.715131 -4.32224 0
M  V30 3076 C 309.718 2.41442 -3.7178 0
M  V30 3077 H 306.938 0.22691 -0.631469 0
M  V30 3078 H 309.482 0.0551439 -2.04426 0
M  V30 3079 H 307.637 2.29163 -3.12351 0
M  V30 3080 H 308.051 1.27205 -5.08841 0
M  V30 3081 H 309.525 2.932 -4.67694 0
M  V30 3082 H 310.002 3.2051 -3.00283 0
M  V30 3083 H 310.608 1.77283 -3.86589 0
M  V30 3084 N 308.923 1.53595 0.353017 0
M  V30 3085 C 310.169 1.70638 1.09593 0
M  V30 3086 C 310.502 0.463286 1.88593 0
M  V30 3087 O 309.777 -0.539597 1.86865 0
M  V30 3088 C 310.06 2.96406 2.04489 0
M  V30 3089 C 309.913 4.30901 1.29014 0
M  V30 3090 C 311.232 3.17812 3.0444 0
M  V30 3091 H 308.351 0.620913 0.397034 0
M  V30 3092 H 310.993 1.86254 0.375446 0
M  V30 3093 H 309.143 2.83223 2.65927 0
M  V30 3094 H 310.815 4.55917 0.702638 0
M  V30 3095 H 309.058 4.29741 0.592071 0
M  V30 3096 H 309.729 5.1506 1.98537 0
M  V30 3097 H 312.205 3.30263 2.53112 0
M  V30 3098 H 311.081 4.07223 3.6805 0
M  V30 3099 H 311.342 2.33669 3.75301 0
M  V30 3100 N 310.401 -0.613514 1.45168 0
M  V30 3101 C 311.351 -1.71871 1.49815 0
M  V30 3102 C 312.335 -1.56774 0.362021 0
M  V30 3103 O 313.527 -1.66212 0.608493 0
M  V30 3104 C 310.656 -3.1061 1.46207 0
M  V30 3105 C 309.742 -3.31114 2.64999 0
M  V30 3106 N 310.133 -3.21904 3.90143 0
M  V30 3107 C 308.431 -3.61966 2.6057 0
M  V30 3108 C 309.132 -3.43577 4.69393 0
M  V30 3109 N 308.108 -3.67287 4.00751 0
M  V30 3110 H 311.91 -1.63235 2.444 0
M  V30 3111 H 309.424 -0.816577 1.40377 0
M  V30 3112 H 311.421 -3.8989 1.4762 0
M  V30 3113 H 310.081 -3.20399 0.52673 0
M  V30 3114 H 311.092 -3.00436 4.21852 0
M  V30 3115 H 307.769 -3.78629 1.75916 0
M  V30 3116 H 309.159 -3.41901 5.78406 0
M  V30 3117 N 311.879 -1.3236 -0.855495 0
M  V30 3118 C 312.789 -1.23221 -1.99634 0
M  V30 3119 C 313.805 -0.145983 -1.73387 0
M  V30 3120 O 314.981 -0.366502 -1.98037 0
M  V30 3121 C 312.046 -0.954782 -3.33294 0
M  V30 3122 C 311.107 -2.12937 -3.72769 0
M  V30 3123 C 310.34 -1.86508 -5.00051 0
M  V30 3124 O 310.563 -0.807231 -5.64659 0
M  V30 3125 O 309.497 -2.72591 -5.36636 0
M  V30 3126 H 313.323 -2.19126 -2.1028 0
M  V30 3127 H 310.908 -1.12241 -0.986018 0
M  V30 3128 H 312.79 -0.816519 -4.13414 0
M  V30 3129 H 311.465 -0.0258854 -3.2369 0
M  V30 3130 H 310.372 -2.3231 -2.93228 0
M  V30 3131 H 311.705 -3.04102 -3.87018 0
M  V30 3132 N 313.357 1.07166 -1.15556 0
M  V30 3133 C 314.585 1.83514 -0.955519 0
M  V30 3134 C 315 1.82163 0.49621 0
M  V30 3135 O 314.357 1.23441 1.34419 0
M  V30 3136 C 314.408 3.30515 -1.46432 0
M  V30 3137 O 314.129 3.31937 -2.85918 0
M  V30 3138 C 315.63 4.23625 -1.30603 0
M  V30 3139 H 312.85 0.578926 -0.339244 0
M  V30 3140 H 315.394 1.35265 -1.53374 0
M  V30 3141 H 313.549 3.76106 -0.928584 0
M  V30 3142 H 313.963 4.23794 -3.09029 0
M  V30 3143 H 315.437 5.24831 -1.71047 0
M  V30 3144 H 315.914 4.38485 -0.250441 0
M  V30 3145 H 316.52 3.83871 -1.83094 0
M  V30 3146 N 314.835 0.952656 1.25548 0
M  V30 3147 C 316.084 0.602053 1.92505 0
M  V30 3148 C 316.397 -0.864663 1.75451 0
M  V30 3149 O 317.603 -1.32514 2.36965 0
M  V30 3150 C 316.059 1.02607 3.44963 0
M  V30 3151 C 315.667 2.51519 3.70732 0
M  V30 3152 C 317.411 0.747905 4.1786 0
M  V30 3153 C 315.318 2.87732 5.16686 0
M  V30 3154 H 314.248 0.22146 0.720744 0
M  V30 3155 H 316.899 1.15684 1.42441 0
M  V30 3156 H 315.281 0.399712 3.93978 0
M  V30 3157 H 316.455 3.19157 3.32378 0
M  V30 3158 H 314.77 2.76786 3.11092 0
M  V30 3159 H 317.367 0.994647 5.25367 0
M  V30 3160 H 317.71 -0.315629 4.15102 0
M  V30 3161 H 318.243 1.33452 3.74747 0
M  V30 3162 H 314.982 3.93095 5.24554 0
M  V30 3163 H 314.502 2.24765 5.56094 0
M  V30 3164 H 316.181 2.76817 5.84792 0
M  V30 3165 N 316.313 -1.40141 0.720998 0
M  V30 3166 C 317.276 -2.29058 0.0805834 0
M  V30 3167 C 318.276 -1.45632 -0.681758 0
M  V30 3168 O 319.466 -1.6648 -0.512856 0
M  V30 3169 C 316.598 -3.28925 -0.895593 0
M  V30 3170 H 317.791 -2.87191 0.863793 0
M  V30 3171 H 315.344 -1.48553 0.485975 0
M  V30 3172 H 316.079 -2.75822 -1.70566 0
M  V30 3173 H 315.864 -3.90519 -0.351766 0
M  V30 3174 H 317.354 -3.95494 -1.34069 0
M  V30 3175 N 317.792 -0.46758 -1.50504 0
M  V30 3176 C 318.755 0.317059 -2.26996 0
M  V30 3177 C 319.755 0.923513 -1.31635 0
M  V30 3178 O 320.945 0.793239 -1.55091 0
M  V30 3179 C 318.077 1.45134 -3.08462 0
M  V30 3180 H 319.27 -0.353723 -2.97807 0
M  V30 3181 H 316.823 -0.221545 -1.54722 0
M  V30 3182 H 317.558 2.15728 -2.4214 0
M  V30 3183 H 317.343 1.02232 -3.78538 0
M  V30 3184 H 318.833 2.00493 -3.66323 0
M  V30 3185 N 319.27 1.56325 -0.20005 0
M  V30 3186 C 320.686 1.58839 0.155716 0
M  V30 3187 C 320.886 1.21636 1.60645 0
M  V30 3188 O 319.942 0.941437 2.34293 0
M  V30 3189 C 321.255 3.0032 -0.151124 0
M  V30 3190 C 322.803 3.12866 -0.0916284 0
M  V30 3191 C 323.278 4.56488 -0.371845 0
M  V30 3192 N 324.769 4.62089 -0.320641 0
M  V30 3193 C 325.504 5.71116 -0.511243 0
M  V30 3194 N 325 6.88592 -0.762461 0
M  V30 3195 N 326.793 5.60335 -0.445157 0
M  V30 3196 H 318.944 1.78788 -1.14668 0
M  V30 3197 H 321.207 0.829996 -0.458051 0
M  V30 3198 H 320.913 3.32117 -1.15721 0
M  V30 3199 H 320.787 3.73257 0.543986 0
M  V30 3200 H 323.174 2.80878 0.905065 0
M  V30 3201 H 323.255 2.42304 -0.81989 0
M  V30 3202 H 322.899 4.89189 -1.36588 0
M  V30 3203 H 322.829 5.25246 0.377362 0
M  V30 3204 H 325.32 3.77665 -0.13329 0
M  V30 3205 H 325.633 7.67581 -0.896576 0
M  V30 3206 H 323.978 6.90387 -0.799412 0
M  V30 3207 H 327.169 4.67436 -0.249278 0
M  V30 3208 H 327.342 6.45243 -0.597116 0
M  V30 3209 N 320.748 -0.0735177 1.57428 0
M  V30 3210 C 321.711 -1.07192 2.02589 0
M  V30 3211 C 322.711 -1.31695 0.922661 0
M  V30 3212 O 323.901 -1.27445 1.18758 0
M  V30 3213 C 321.033 -2.41599 2.40506 0
M  V30 3214 H 322.226 -0.682727 2.92025 0
M  V30 3215 H 319.779 -0.319193 1.53006 0
M  V30 3216 H 320.514 -2.85354 1.5409 0
M  V30 3217 H 320.299 -2.25156 3.21009 0
M  V30 3218 H 321.789 -3.13367 2.76027 0
M  V30 3219 N 322.226 -1.5378 -0.344866 0
M  V30 3220 C 323.189 -1.80981 -1.40637 0
M  V30 3221 C 324.189 -0.680816 -1.45676 0
M  V30 3222 O 325.379 -0.949095 -1.46075 0
M  V30 3223 C 322.511 -1.95063 -2.79577 0
M  V30 3224 H 323.704 -2.75803 -1.17783 0
M  V30 3225 H 321.257 -1.45173 -0.579181 0
M  V30 3226 H 321.992 -1.02379 -3.07716 0
M  V30 3227 H 321.777 -2.77198 -2.77315 0
M  V30 3228 H 323.267 -2.17629 -3.56409 0
M  V30 3229 N 323.704 0.605807 -1.45491 0
M  V30 3230 C 324.952 1.36207 -1.49305 0
M  V30 3231 C 325.273 1.94519 -0.136863 0
M  V30 3232 O 324.543 1.77261 0.833983 0
M  V30 3233 H 323.123 0.50565 -0.549843 0
M  V30 3234 H 325.785 0.711239 -1.81459 0
M  V30 3235 H 324.881 2.18058 -2.23287 0
M  V30 3236 N 325.182 1.32811 0.848464 0
M  V30 3237 C 326.145 1.22194 1.9391 0
M  V30 3238 C 327.145 0.143404 1.60159 0
M  V30 3239 O 328.335 0.394253 1.6968 0
M  V30 3240 C 325.467 0.88067 3.29328 0
M  V30 3241 H 326.66 2.19127 2.04752 0
M  V30 3242 H 324.213 1.16731 1.0394 0
M  V30 3243 H 324.948 -0.0865776 3.24184 0
M  V30 3244 H 324.733 1.66052 3.55203 0
M  V30 3245 H 326.223 0.830871 4.09251 0
M  V30 3246 N 326.66 -1.06551 1.16123 0
M  V30 3247 C 327.57 -2.17484 0.879662 0
M  V30 3248 C 328.586 -1.73377 -0.147104 0
M  V30 3249 O 329.762 -2.01379 0.0289128 0
M  V30 3250 C 326.827 -3.44591 0.381829 0
M  V30 3251 C 325.888 -4.0322 1.4735 0
M  V30 3252 C 325.121 -5.24261 0.999324 0
M  V30 3253 O 325.344 -5.70198 -0.151957 0
M  V30 3254 O 324.278 -5.74775 1.78653 0
M  V30 3255 H 328.104 -2.44075 1.80724 0
M  V30 3256 H 325.689 -1.16042 0.940992 0
M  V30 3257 H 327.571 -4.21254 0.111053 0
M  V30 3258 H 326.246 -3.19532 -0.51777 0
M  V30 3259 H 325.153 -3.2806 1.79798 0
M  V30 3260 H 326.486 -4.32568 2.34831 0
M  V30 3261 N 328.138 -0.959301 -1.25041 0
M  V30 3262 C 329.384 -0.617525 -1.9317 0
M  V30 3263 C 329.717 0.843981 -1.74902 0
M  V30 3264 O 328.992 1.60615 -1.09696 0
M  V30 3265 C 329.275 -0.982736 -3.46431 0
M  V30 3266 C 329.128 -2.50032 -3.73904 0
M  V30 3267 C 330.447 -0.511176 -4.37121 0
M  V30 3268 H 327.566 -0.22582 -0.701552 0
M  V30 3269 H 330.208 -1.19679 -1.4757 0
M  V30 3270 H 328.358 -0.489806 -3.854 0
M  V30 3271 H 330.03 -3.06737 -3.44544 0
M  V30 3272 H 328.273 -2.93598 -3.19348 0
M  V30 3273 H 328.944 -2.70635 -4.81103 0
M  V30 3274 H 331.42 -0.934075 -4.0548 0
M  V30 3275 H 330.296 -0.795361 -5.43107 0
M  V30 3276 H 330.557 0.588834 -4.38161 0
M  V30 3277 N 329.616 1.39756 -0.72842 0
M  V30 3278 C 330.546 2.33289 -0.0991354 0
M  V30 3279 C 331.527 1.53568 0.731489 0
M  V30 3280 O 332.712 1.81987 0.677807 0
M  V30 3281 C 329.842 3.3763 0.813834 0
M  V30 3282 C 328.796 4.2791 0.0878663 0
M  V30 3283 C 328.122 5.22894 1.11741 0
M  V30 3284 C 329.422 5.11314 -1.06563 0
M  V30 3285 H 331.116 2.86163 -0.880408 0
M  V30 3286 H 328.662 1.37591 -0.424819 0
M  V30 3287 H 330.615 4.0201 1.26355 0
M  V30 3288 H 329.339 2.83181 1.62715 0
M  V30 3289 H 327.998 3.65 -0.342159 0
M  V30 3290 H 327.646 4.64744 1.92412 0
M  V30 3291 H 327.346 5.84143 0.636477 0
M  V30 3292 H 328.87 5.90151 1.56697 0
M  V30 3293 H 330.284 5.69076 -0.694671 0
M  V30 3294 H 328.681 5.81671 -1.47577 0
M  V30 3295 H 329.751 4.46534 -1.89038 0
M  V30 3296 N 331.094 0.475555 1.50254 0
M  V30 3297 C 332.342 -0.077738 2.0195 0
M  V30 3298 C 332.663 -1.39813 1.35931 0
M  V30 3299 O 331.933 -1.89249 0.506123 0
M  V30 3300 H 330.513 -0.031719 0.746326 0
M  V30 3301 H 333.175 0.626995 1.84539 0
M  V30 3302 H 332.271 -0.225995 3.11281 0
M  V30 3303 N 332.573 -1.56217 0.208337 0
M  V30 3304 C 333.819 -1.98242 -0.427552 0
M  V30 3305 C 334.152 -1.09554 -1.60348 0
M  V30 3306 O 333.427 -0.15035 -1.93918 0
M  V30 3307 C 333.71 -3.4931 -0.874907 0
M  V30 3308 C 333.563 -4.48773 0.303751 0
M  V30 3309 C 334.882 -4.04424 -1.73577 0
M  V30 3310 H 332.001 -0.720744 -0.153936 0
M  V30 3311 H 334.643 -1.87586 0.30192 0
M  V30 3312 H 332.793 -3.58522 -1.49648 0
M  V30 3313 H 334.465 -4.51586 0.941682 0
M  V30 3314 H 332.708 -4.23194 0.953375 0
M  V30 3315 H 333.379 -5.51976 -0.0519883 0
M  V30 3316 H 335.855 -3.98075 -1.21143 0
M  V30 3317 H 334.731 -5.1047 -2.01771 0
M  V30 3318 H 334.992 -3.50494 -2.69456 0
M  V30 3319 N 334.051 0.0651679 -1.57465 0
M  V30 3320 C 335.276 0.779605 -1.9219 0
M  V30 3321 C 335.701 1.69988 -0.805333 0
M  V30 3322 O 335.059 1.79685 0.241435 0
M  V30 3323 C 335.107 1.54364 -3.2589 0
M  V30 3324 O 334.211 2.65474 -3.1559 0
M  V30 3325 H 333.552 0.212249 -0.629163 0
M  V30 3326 H 336.082 0.0314294 -2.04576 0
M  V30 3327 H 336.092 1.92146 -3.59922 0
M  V30 3328 H 334.767 0.868457 -4.06732 0
M  V30 3329 H 333.344 2.30501 -2.93128 0
M  V30 3330 N 335.529 1.53961 0.336706 0
M  V30 3331 C 336.459 1.85417 1.41925 0
M  V30 3332 C 337.44 0.709856 1.5458 0
M  V30 3333 O 338.625 0.962396 1.68676 0
M  V30 3334 C 335.755 2.06985 2.78881 0
M  V30 3335 C 334.709 3.22813 2.81026 0
M  V30 3336 C 334.035 3.29727 4.20932 0
M  V30 3337 C 335.335 4.60767 2.45949 0
M  V30 3338 H 337.029 2.76079 1.15848 0
M  V30 3339 H 334.575 1.32839 0.555859 0
M  V30 3340 H 336.528 2.27575 3.54665 0
M  V30 3341 H 335.252 1.13061 3.06406 0
M  V30 3342 H 333.911 3.0209 2.07695 0
M  V30 3343 H 333.559 2.33385 4.45579 0
M  V30 3344 H 333.259 4.07566 4.23277 0
M  V30 3345 H 334.783 3.52536 4.98549 0
M  V30 3346 H 336.197 4.81325 3.11446 0
M  V30 3347 H 334.594 5.4106 2.59566 0
M  V30 3348 H 335.664 4.6391 1.41122 0
M  V30 3349 N 337.007 -0.598083 1.45811 0
M  V30 3350 C 338.253 -1.35882 1.50545 0
M  V30 3351 C 338.586 -1.93616 0.150445 0
M  V30 3352 O 337.861 -1.75604 -0.83628 0
M  V30 3353 C 338.144 -2.49966 2.59208 0
M  V30 3354 C 337.997 -1.97367 4.04186 0
M  V30 3355 C 339.316 -3.52068 2.64076 0
M  V30 3356 H 336.435 -0.492717 0.548087 0
M  V30 3357 H 339.077 -0.673319 1.77669 0
M  V30 3358 H 337.227 -3.08443 2.3621 0
M  V30 3359 H 338.899 -1.43466 4.38423 0
M  V30 3360 H 337.142 -1.283 4.14393 0
M  V30 3361 H 337.813 -2.79649 4.75921 0
M  V30 3362 H 340.289 -3.03448 2.84708 0
M  V30 3363 H 339.165 -4.2937 3.41954 0
M  V30 3364 H 339.426 -4.08304 1.69531 0
M  V30 3365 N 338.485 -1.33259 -0.841409 0
M  V30 3366 C 339.713 -1.27605 -1.62864 0
M  V30 3367 C 340.128 0.153507 -1.88175 0
M  V30 3368 O 339.485 1.09485 -1.46011 0
M  V30 3369 C 339.536 -2.04596 -2.98031 0
M  V30 3370 O 339.257 -3.41975 -2.73834 0
M  V30 3371 C 340.758 -2.06122 -3.92465 0
M  V30 3372 H 337.978 -0.439718 -0.506842 0
M  V30 3373 H 340.522 -1.75591 -1.04824 0
M  V30 3374 H 338.677 -1.60299 -3.5268 0
M  V30 3375 H 339.091 -3.81549 -3.59889 0
M  V30 3376 H 340.565 -2.64451 -4.84531 0
M  V30 3377 H 341.042 -1.05083 -4.26444 0
M  V30 3378 H 341.648 -2.50427 -3.43753 0
M  V30 3379 N 339.963 1.05934 -1.16686 0
M  V30 3380 C 340.911 2.15603 -0.872817 0
M  V30 3381 C 341.905 1.68647 0.159576 0
M  V30 3382 O 343.111 1.79995 0.0132125 0
M  V30 3383 H 339.486 0.703885 -0.264671 0
M  V30 3384 H 341.457 2.37613 -1.80507 0
M  V30 3385 C 340.206 3.45457 -0.394344 0
M  V30 3386 H 339.529 3.81984 -1.18019 0
M  V30 3387 H 340.969 4.2339 -0.227408 0
M  V30 3388 C 339.428 3.25021 0.88673 0
M  V30 3389 O 339.958 3.50906 1.95519 0
M  V30 3390 N 338.164 2.78437 0.831925 0
M  V30 3391 H 337.711 2.57572 -0.0377619 0
M  V30 3392 H 337.669 2.65144 1.68956 0
M  V30 3393 N 341.441 0.965919 1.2453 0
M  V30 3394 C 342.371 0.513476 2.27784 0
M  V30 3395 C 343.352 -0.445974 1.6415 0
M  V30 3396 O 344.537 -0.342485 1.91156 0
M  V30 3397 C 341.667 -0.198839 3.4673 0
M  V30 3398 C 340.621 0.676456 4.2262 0
M  V30 3399 C 339.947 -0.167248 5.34438 0
M  V30 3400 C 341.247 1.96017 4.84123 0
M  V30 3401 H 342.941 1.3765 2.65881 0
M  V30 3402 H 340.487 0.663321 1.27813 0
M  V30 3403 H 342.44 -0.526567 4.18097 0
M  V30 3404 H 341.164 -1.0962 3.07654 0
M  V30 3405 H 339.823 0.98743 3.53052 0
M  V30 3406 H 339.471 -1.0647 4.91603 0
M  V30 3407 H 339.171 0.415181 5.86131 0
M  V30 3408 H 340.695 -0.489688 6.08633 0
M  V30 3409 H 342.109 1.69814 5.47573 0
M  V30 3410 H 340.506 2.48918 5.4604 0
M  V30 3411 H 341.576 2.65622 4.05676 0
M  V30 3412 N 342.919 -1.39368 0.735821 0
M  V30 3413 C 343.882 -2.2896 0.104874 0
M  V30 3414 C 344.882 -1.46347 -0.666274 0
M  V30 3415 O 346.072 -1.67014 -0.49517 0
M  V30 3416 C 343.204 -3.29857 -0.860656 0
M  V30 3417 H 344.397 -2.86259 0.894205 0
M  V30 3418 H 341.95 -1.48029 0.501704 0
M  V30 3419 H 342.685 -2.77615 -1.67631 0
M  V30 3420 H 342.47 -3.9087 -0.310327 0
M  V30 3421 H 343.96 -3.96893 -1.29867 0
M  V30 3422 N 344.397 -0.483516 -1.5 0
M  V30 3423 C 345.36 0.292965 -2.2732 0
M  V30 3424 C 346.36 0.909499 -1.32608 0
M  V30 3425 O 347.55 0.776745 -1.55924 0
M  V30 3426 C 344.682 1.41854 -3.09984 0
M  V30 3427 H 345.875 -0.385289 -2.97415 0
M  V30 3428 H 343.428 -0.237942 -1.54478 0
M  V30 3429 H 344.163 2.13148 -2.44414 0
M  V30 3430 H 343.948 0.982114 -3.79601 0
M  V30 3431 H 345.438 1.96597 -3.68429 0
M  V30 3432 N 345.875 1.56104 -0.216619 0
M  V30 3433 C 347.123 1.97781 0.415593 0
M  V30 3434 C 347.444 1.10536 1.60645 0
M  V30 3435 O 346.714 0.181303 1.95059 0
M  V30 3436 H 345.294 0.730415 0.156534 0
M  V30 3437 H 347.956 1.92445 -0.308366 0
M  V30 3438 H 347.052 3.03072 0.74525 0
M  V30 3439 N 347.353 -0.0568162 1.57498 0
M  V30 3440 C 348.602 -0.752001 1.87157 0
M  V30 3441 C 348.915 -1.77978 0.811375 0
M  V30 3442 O 350.121 -2.52559 0.996293 0
M  V30 3443 C 348.577 -1.38844 3.3204 0
M  V30 3444 C 348.185 -0.398456 4.46225 0
M  V30 3445 C 349.929 -2.06512 3.70882 0
M  V30 3446 C 347.836 -1.04166 5.82154 0
M  V30 3447 H 346.766 -0.28461 0.698222 0
M  V30 3448 H 349.417 -0.00561272 1.83499 0
M  V30 3449 H 347.799 -2.1836 3.30356 0
M  V30 3450 H 348.973 0.367977 4.59328 0
M  V30 3451 H 347.288 0.174592 4.16034 0
M  V30 3452 H 349.885 -2.55437 4.6974 0
M  V30 3453 H 350.228 -2.87117 3.01445 0
M  V30 3454 H 350.761 -1.33808 3.7462 0
M  V30 3455 H 347.5 -0.275614 6.5492 0
M  V30 3456 H 347.02 -1.7786 5.72823 0
M  V30 3457 H 348.699 -1.55715 6.27982 0
M  V30 3458 N 348.832 -1.54138 -0.328536 0
M  V30 3459 C 350.06 -1.76062 -1.08673 0
M  V30 3460 C 350.475 -0.506852 -1.81869 0
M  V30 3461 O 349.832 0.522223 -1.74869 0
M  V30 3462 C 349.883 -2.95054 -2.08866 0
M  V30 3463 O 349.604 -4.15583 -1.38644 0
M  V30 3464 C 351.105 -3.2915 -2.96943 0
M  V30 3465 H 348.325 -0.587889 -0.323461 0
M  V30 3466 H 350.869 -2.0101 -0.376175 0
M  V30 3467 H 349.024 -2.72394 -2.75464 0
M  V30 3468 H 349.438 -4.82481 -2.05699 0
M  V30 3469 H 350.912 -4.15723 -3.63151 0
M  V30 3470 H 351.389 -2.461 -3.63774 0
M  V30 3471 H 351.995 -3.53871 -2.35914 0
M  V30 3472 N 350.31 0.590341 -1.46126 0
M  V30 3473 C 351.558 1.34616 -1.50742 0
M  V30 3474 C 351.879 1.94363 -0.157486 0
M  V30 3475 O 351.149 1.78136 0.815136 0
M  V30 3476 H 349.729 0.499789 -0.555175 0
M  V30 3477 H 352.391 0.691953 -1.82203 0
M  V30 3478 H 351.487 2.15678 -2.25587 0
M  V30 3479 N 351.788 1.33704 0.83433 0
M  V30 3480 C 352.698 1.26382 1.97648 0
M  V30 3481 C 353.714 0.173548 1.73132 0
M  V30 3482 O 354.89 0.397962 1.97429 0
M  V30 3483 C 351.955 1.00769 3.31733 0
M  V30 3484 C 351.016 2.1884 3.69334 0
M  V30 3485 C 350.249 1.9444 4.9702 0
M  V30 3486 O 350.472 0.896961 5.63303 0
M  V30 3487 O 349.406 2.81093 5.32231 0
M  V30 3488 H 353.232 2.22444 2.06767 0
M  V30 3489 H 350.817 1.13795 0.968037 0
M  V30 3490 H 352.699 0.882186 4.12062 0
M  V30 3491 H 351.374 0.0773783 3.23608 0
M  V30 3492 H 350.281 2.36946 2.89495 0
M  V30 3493 H 351.614 3.10221 3.82131 0
M  V30 3494 N 353.266 -1.05314 1.17247 0
M  V30 3495 C 354.677 -1.59753 0.96623 0
M  V30 3496 C 355.028 -1.9005 -0.487378 0
M  V30 3497 O 354.153 -1.68126 -1.36245 0
M  V30 3498 C 354.748 -2.90249 1.74759 0
M  V30 3499 C 353.307 -3.41352 1.58606 0
M  V30 3500 C 352.454 -2.15103 1.75002 0
M  V30 3501 H 355.405 -0.881406 1.31973 0
M  V30 3502 H 355.426 -3.60097 1.22925 0
M  V30 3503 H 354.938 -2.68166 2.8055 0
M  V30 3504 H 353.039 -3.68474 0.552985 0
M  V30 3505 H 353.152 -4.16019 2.37624 0
M  V30 3506 H 351.516 -2.25804 1.17833 0
M  V30 3507 H 352.299 -1.95491 2.82202 0
M  V30 3508 N 354.744 -0.972509 -1.24016 0
M  V30 3509 C 355.674 -0.525548 -2.27509 0
M  V30 3510 C 356.655 0.437262 -1.64384 0
M  V30 3511 O 357.84 0.332343 -1.91335 0
M  V30 3512 C 354.97 0.180448 -3.46831 0
M  V30 3513 C 353.924 -0.698859 -4.22256 0
M  V30 3514 C 353.25 0.138903 -5.3452 0
M  V30 3515 C 354.55 -1.98582 -4.83076 0
M  V30 3516 H 356.244 -1.39058 -2.65148 0
M  V30 3517 H 353.79 -0.67009 -1.27459 0
M  V30 3518 H 355.743 0.504387 -4.18371 0
M  V30 3519 H 354.467 1.07987 -3.08231 0
M  V30 3520 H 353.126 -1.00614 -3.52523 0
M  V30 3521 H 352.774 1.03862 -4.9216 0
M  V30 3522 H 352.474 -0.446259 -5.85903 0
M  V30 3523 H 353.998 0.457404 -6.08884 0
M  V30 3524 H 355.412 -1.72715 -5.46665 0
M  V30 3525 H 353.809 -2.5181 -5.44713 0
M  V30 3526 H 354.879 -2.67769 -4.04262 0
M  V30 3527 N 356.222 1.38976 -0.743202 0
M  V30 3528 C 357.447 2.05161 -0.303936 0
M  V30 3529 C 357.872 1.55677 1.05576 0
M  V30 3530 O 357.23 0.704131 1.67068 0
M  V30 3531 C 357.278 3.59138 -0.324373 0
M  V30 3532 O 356.382 4.06668 0.685204 0
M  V30 3533 H 355.723 0.649815 -0.136518 0
M  V30 3534 H 358.253 1.77852 -1.01142 0
M  V30 3535 H 358.263 4.07639 -0.171618 0
M  V30 3536 H 356.938 3.94515 -1.31647 0
M  V30 3537 H 355.515 3.69561 0.497913 0
M  V30 3538 N 357.7 0.491464 1.49741 0
M  V30 3539 C 358.65 -0.311086 2.25868 0
M  V30 3540 C 359.634 -0.943857 1.30308 0
M  V30 3541 O 360.826 -0.853035 1.55088 0
M  V30 3542 C 357.955 -1.38059 3.14316 0
M  V30 3543 C 357.041 -0.754541 4.17334 0
M  V30 3544 N 357.432 0.137216 5.05614 0
M  V30 3545 C 355.73 -1.01621 4.34269 0
M  V30 3546 C 356.431 0.494614 5.79593 0
M  V30 3547 N 355.407 -0.135169 5.43432 0
M  V30 3548 H 359.209 0.37555 2.91491 0
M  V30 3549 H 356.723 0.306917 1.59473 0
M  V30 3550 H 358.72 -1.96891 3.67477 0
M  V30 3551 H 357.38 -2.06901 2.50244 0
M  V30 3552 H 358.391 0.50741 5.15408 0
M  V30 3553 H 355.068 -1.69808 3.81407 0
M  V30 3554 H 356.458 1.2236 6.60665 0
M  V30 3555 N 359.178 -1.55987 0.224894 0
M  V30 3556 C 360.141 -2.19178 -0.670348 0
M  V30 3557 C 361.141 -1.15461 -1.11917 0
M  V30 3558 O 362.331 -1.40675 -1.02743 0
M  V30 3559 C 359.463 -2.81777 -1.9187 0
M  V30 3560 H 360.656 -2.99662 -0.119364 0
M  V30 3561 H 358.209 -1.5628 -0.0247128 0
M  V30 3562 H 358.944 -2.05172 -2.51147 0
M  V30 3563 H 358.729 -3.57732 -1.60531 0
M  V30 3564 H 360.219 -3.30205 -2.55645 0
M  V30 3565 N 360.656 0.0484629 -1.57525 0
M  V30 3566 C 361.566 1.07241 -2.08654 0
M  V30 3567 C 362.582 1.409 -1.02095 0
M  V30 3568 O 363.758 1.50609 -1.33712 0
M  V30 3569 C 360.823 2.36008 -2.5397 0
M  V30 3570 C 359.884 2.09108 -3.7493 0
M  V30 3571 C 359.117 3.31736 -4.18075 0
M  V30 3572 O 359.34 4.41714 -3.60895 0
M  V30 3573 O 358.274 3.18576 -5.10679 0
M  V30 3574 H 362.1 0.667965 -2.96263 0
M  V30 3575 H 359.685 0.26417 -1.47046 0
M  V30 3576 H 361.567 3.11747 -2.83535 0
M  V30 3577 H 360.242 2.75786 -1.69481 0
M  V30 3578 H 359.149 1.31 -3.50414 0
M  V30 3579 H 360.482 1.74198 -4.60343 0
M  V30 3580 N 362.134 1.5431 0.320358 0
M  V30 3581 C 363.38 1.72924 1.05949 0
M  V30 3582 C 363.713 0.503185 1.87568 0
M  V30 3583 O 362.988 -0.499839 1.87968 0
M  V30 3584 C 363.271 3.00676 1.98156 0
M  V30 3585 C 363.124 4.3354 1.19845 0
M  V30 3586 C 364.443 3.24198 2.9763 0
M  V30 3587 H 361.562 0.629195 0.383774 0
M  V30 3588 H 364.204 1.87008 0.335854 0
M  V30 3589 H 362.354 2.888 2.59859 0
M  V30 3590 H 364.026 4.57305 0.605773 0
M  V30 3591 H 362.269 4.309 0.500784 0
M  V30 3592 H 362.94 5.19156 1.87567 0
M  V30 3593 H 365.416 3.35557 2.4605 0
M  V30 3594 H 364.292 4.14938 3.59329 0
M  V30 3595 H 364.553 2.41577 3.7026 0
M  V30 3596 N 363.613 -0.582584 1.46437 0
M  V30 3597 C 364.543 -1.70187 1.59871 0
M  V30 3598 C 365.524 -1.64066 0.449042 0
M  V30 3599 O 366.709 -1.82081 0.6753 0
M  V30 3600 C 363.839 -3.08827 1.58881 0
M  V30 3601 C 362.793 -3.29779 2.72819 0
M  V30 3602 C 362.119 -4.68947 2.5689 0
M  V30 3603 C 363.419 -3.17601 4.1464 0
M  V30 3604 H 365.113 -1.592 2.53566 0
M  V30 3605 H 362.659 -0.764472 1.22032 0
M  V30 3606 H 364.612 -3.86951 1.66873 0
M  V30 3607 H 363.336 -3.20713 0.617306 0
M  V30 3608 H 361.995 -2.54054 2.64296 0
M  V30 3609 H 361.643 -4.77599 1.57823 0
M  V30 3610 H 361.343 -4.83919 3.33312 0
M  V30 3611 H 362.867 -5.4924 2.66773 0
M  V30 3612 H 364.281 -3.8557 4.24274 0
M  V30 3613 H 362.678 -3.44094 4.9165 0
M  V30 3614 H 363.748 -2.14681 4.34788 0
M  V30 3615 N 365.091 -1.34144 -0.827227 0
M  V30 3616 C 366.054 -1.25264 -1.91942 0
M  V30 3617 C 367.054 -0.168866 -1.59911 0
M  V30 3618 O 368.244 -0.421198 -1.69031 0
M  V30 3619 C 365.376 -0.932952 -3.27885 0
M  V30 3620 H 366.569 -2.22357 -2.0124 0
M  V30 3621 H 364.122 -1.1837 -1.0207 0
M  V30 3622 H 364.857 0.0349917 -3.24281 0
M  V30 3623 H 364.642 -1.71682 -3.52516 0
M  V30 3624 H 366.132 -0.895874 -4.07877 0
M  V30 3625 N 366.569 1.04691 -1.17803 0
M  V30 3626 C 367.532 2.10724 -0.901545 0
M  V30 3627 C 368.532 1.6042 0.110437 0
M  V30 3628 O 369.722 1.7377 -0.122303 0
M  V30 3629 C 366.854 3.39084 -0.351409 0
M  V30 3630 H 368.047 2.36686 -1.84174 0
M  V30 3631 H 365.6 1.21015 -0.98919 0
M  V30 3632 H 366.335 3.18782 0.59569 0
M  V30 3633 H 366.12 3.76909 -1.08083 0
M  V30 3634 H 367.61 4.17227 -0.176451 0
M  V30 3635 N 368.047 0.979072 1.23499 0
M  V30 3636 C 369.295 0.645941 1.91499 0
M  V30 3637 C 369.616 -0.822948 1.76784 0
M  V30 3638 O 368.886 -1.58854 1.14639 0
M  V30 3639 H 367.466 0.235919 0.708767 0
M  V30 3640 H 370.128 1.2426 1.50152 0
M  V30 3641 H 369.224 0.896411 2.9895 0
M  V30 3642 N 369.525 -1.3858 0.750561 0
M  V30 3643 C 370.488 -2.28836 0.129152 0
M  V30 3644 C 371.488 -1.47045 -0.650714 0
M  V30 3645 O 372.678 -1.6753 -0.477428 0
M  V30 3646 C 369.81 -3.30751 -0.825622 0
M  V30 3647 H 371.003 -2.85294 0.924516 0
M  V30 3648 H 368.556 -1.47489 0.517376 0
M  V30 3649 H 369.291 -2.79378 -1.64677 0
M  V30 3650 H 369.076 -3.91177 -0.268852 0
M  V30 3651 H 370.566 -3.98249 -1.2565 0
M  V30 3652 N 371.003 -0.499398 -1.49478 0
M  V30 3653 C 371.966 0.268838 -2.27618 0
M  V30 3654 C 372.966 0.895383 -1.33565 0
M  V30 3655 O 374.156 0.760164 -1.56739 0
M  V30 3656 C 371.288 1.38559 -3.11471 0
M  V30 3657 H 372.481 -0.416812 -2.96989 0
M  V30 3658 H 370.034 -0.254313 -1.54217 0
M  V30 3659 H 370.769 2.10544 -2.46661 0
M  V30 3660 H 370.554 0.941797 -3.80621 0
M  V30 3661 H 372.044 1.92678 -3.70493 0
M  V30 3662 N 372.481 1.55866 -0.233164 0
M  V30 3663 C 373.706 2.03449 0.402906 0
M  V30 3664 C 374.131 1.11166 1.51736 0
M  V30 3665 O 373.489 0.101996 1.81013 0
M  V30 3666 C 373.537 3.49165 0.9009 0
M  V30 3667 O 372.641 3.60019 2.01147 0
M  V30 3668 H 371.982 0.657913 0.0897025 0
M  V30 3669 H 374.512 2.01493 -0.355201 0
M  V30 3670 H 374.522 3.89716 1.2077 0
M  V30 3671 H 373.197 4.15813 0.0852889 0
M  V30 3672 H 371.774 3.3136 1.71042 0
M  V30 3673 N 373.959 -0.0401083 1.57549 0
M  V30 3674 C 374.922 -1.02871 2.04817 0
M  V30 3675 C 375.922 -1.29708 0.950388 0
M  V30 3676 O 377.112 -1.24897 1.21435 0
M  V30 3677 C 374.244 -2.36443 2.45576 0
M  V30 3678 H 375.437 -0.620631 2.93408 0
M  V30 3679 H 372.99 -0.286667 1.53649 0
M  V30 3680 H 373.725 -2.82021 1.60108 0
M  V30 3681 H 373.51 -2.18296 3.25713 0
M  V30 3682 H 375 -3.07441 2.82612 0
M  V30 3683 N 375.437 -1.54477 -0.31217 0
M  V30 3684 C 376.665 -1.77205 -1.068 0
M  V30 3685 C 377.08 -0.526114 -1.81321 0
M  V30 3686 O 376.437 0.503647 -1.75413 0
M  V30 3687 C 376.488 -2.97253 -2.05725 0
M  V30 3688 O 376.209 -4.1703 -1.34228 0
M  V30 3689 C 377.71 -3.32281 -2.93435 0
M  V30 3690 H 374.93 -0.591287 -0.317208 0
M  V30 3691 H 377.474 -2.01398 -0.354834 0
M  V30 3692 H 375.629 -2.753 -2.72559 0
M  V30 3693 H 376.043 -4.84636 -2.00571 0
M  V30 3694 H 377.517 -4.19551 -3.58721 0
M  V30 3695 H 377.994 -2.49945 -3.61143 0
M  V30 3696 H 378.6 -3.56353 -2.32147 0
M  V30 3697 N 376.915 0.57481 -1.46744 0
M  V30 3698 C 378.331 0.898981 -1.31873 0
M  V30 3699 C 378.531 1.99313 -0.29605 0
M  V30 3700 O 377.587 2.50728 0.298621 0
M  V30 3701 C 378.9 1.30886 -2.7072 0
M  V30 3702 C 380.448 1.42127 -2.78871 0
M  V30 3703 C 380.923 1.86478 -4.18318 0
M  V30 3704 N 382.414 1.93658 -4.20774 0
M  V30 3705 C 383.149 2.29267 -5.2557 0
M  V30 3706 N 382.645 2.63612 -6.40688 0
M  V30 3707 N 384.438 2.29889 -5.1294 0
M  V30 3708 H 376.589 -0.147839 -2.11885 0
M  V30 3709 H 378.852 -0.00347013 -0.947994 0
M  V30 3710 H 378.558 0.578853 -3.46904 0
M  V30 3711 H 378.432 2.26874 -3.01343 0
M  V30 3712 H 380.819 2.14213 -2.0297 0
M  V30 3713 H 380.9 0.443705 -2.51922 0
M  V30 3714 H 380.544 1.14968 -4.94717 0
M  V30 3715 H 380.474 2.85207 -4.42679 0
M  V30 3716 H 382.965 1.69574 -3.37718 0
M  V30 3717 H 383.278 2.89759 -7.16421 0
M  V30 3718 H 381.623 2.61232 -6.44036 0
M  V30 3719 H 384.814 2.02485 -4.22039 0
M  V30 3720 H 384.987 2.57312 -5.94722 0
M  V30 3721 N 378.394 1.34581 0.820102 0
M  V30 3722 C 379.327 1.20735 1.93644 0
M  V30 3723 C 380.305 0.0983343 1.62302 0
M  V30 3724 O 381.489 0.263997 1.86642 0
M  V30 3725 C 378.616 0.856037 3.27704 0
M  V30 3726 C 377.662 1.97521 3.78005 0
M  V30 3727 S 378.495 3.58906 3.97425 0
M  V30 3728 C 379.651 3.25822 5.34407 0
M  V30 3729 H 379.884 2.15231 2.05093 0
M  V30 3730 H 377.417 1.1964 0.97599 0
M  V30 3731 H 379.375 0.660133 4.05157 0
M  V30 3732 H 378.036 -0.0706253 3.14021 0
M  V30 3733 H 377.229 1.68321 4.75062 0
M  V30 3734 H 376.831 2.12875 3.07507 0
M  V30 3735 H 379.123 2.77812 6.17922 0
M  V30 3736 H 380.066 4.22029 5.68592 0
M  V30 3737 H 380.474 2.61932 5.00052 0
M  V30 3738 N 379.872 -1.04064 1.18357 0
M  V30 3739 C 381.12 -1.76915 0.977013 0
M  V30 3740 C 381.441 -1.88624 -0.494577 0
M  V30 3741 O 380.711 -1.41125 -1.3587 0
M  V30 3742 H 379.291 -0.65535 0.358504 0
M  V30 3743 H 381.953 -1.25592 1.49039 0
M  V30 3744 H 381.049 -2.78178 1.41504 0
M  V30 3745 N 381.35 -0.985608 -1.22978 0
M  V30 3746 C 382.313 -0.535071 -2.22867 0
M  V30 3747 C 383.313 0.378123 -1.56291 0
M  V30 3748 O 384.503 0.171092 -1.73358 0
M  V30 3749 C 381.635 0.222702 -3.40172 0
M  V30 3750 H 382.828 -1.41835 -2.6424 0
M  V30 3751 H 380.381 -0.772042 -1.35901 0
M  V30 3752 H 381.116 1.12229 -3.04262 0
M  V30 3753 H 380.901 -0.43288 -3.89703 0
M  V30 3754 H 382.391 0.526335 -4.1427 0
M  V30 3755 N 382.828 1.3818 -0.7579 0
M  V30 3756 C 383.758 2.33027 -0.148597 0
M  V30 3757 C 384.739 1.55085 0.69875 0
M  V30 3758 O 385.924 1.83384 0.639053 0
M  V30 3759 C 383.054 3.3928 0.742034 0
M  V30 3760 C 382.008 4.28 -0.00291946 0
M  V30 3761 C 381.334 5.25146 1.00625 0
M  V30 3762 C 382.634 5.08938 -1.17385 0
M  V30 3763 H 384.328 2.84231 -0.940909 0
M  V30 3764 H 381.874 1.36659 -0.453908 0
M  V30 3765 H 383.827 4.046 1.17799 0
M  V30 3766 H 382.551 2.86569 1.56671 0
M  V30 3767 H 381.21 3.64192 -0.419504 0
M  V30 3768 H 380.858 4.68721 1.8251 0
M  V30 3769 H 380.558 5.85361 0.512428 0
M  V30 3770 H 382.082 5.93342 1.44143 0
M  V30 3771 H 383.496 5.67474 -0.815224 0
M  V30 3772 H 381.893 5.7841 -1.59882 0
M  V30 3773 H 382.963 4.42424 -1.98468 0
M  V30 3774 N 384.306 0.507319 1.49211 0
M  V30 3775 C 385.236 -0.256939 2.32082 0
M  V30 3776 C 386.217 -0.956609 1.40652 0
M  V30 3777 O 387.402 -0.946788 1.69557 0
M  V30 3778 C 384.532 -1.31802 3.21318 0
M  V30 3779 C 383.486 -0.737855 4.21592 0
M  V30 3780 C 382.812 -1.89992 4.99807 0
M  V30 3781 C 384.112 0.275325 5.21574 0
M  V30 3782 H 385.806 0.434798 2.96226 0
M  V30 3783 H 383.352 0.210546 1.42452 0
M  V30 3784 H 385.305 -1.86045 3.78107 0
M  V30 3785 H 384.029 -2.03903 2.5513 0
M  V30 3786 H 382.688 -0.217126 3.65956 0
M  V30 3787 H 382.336 -2.60877 4.30061 0
M  V30 3788 H 382.036 -1.51777 5.6766 0
M  V30 3789 H 383.56 -2.44657 5.59442 0
M  V30 3790 H 384.974 -0.179193 5.7302 0
M  V30 3791 H 383.371 0.573649 5.97352 0
M  V30 3792 H 384.441 1.18903 4.70096 0
M  V30 3793 N 385.784 -1.5574 0.241426 0
M  V30 3794 C 386.747 -2.19877 -0.647063 0
M  V30 3795 C 387.747 -1.16642 -1.10686 0
M  V30 3796 O 388.937 -1.41757 -1.01245 0
M  V30 3797 C 386.069 -2.83797 -1.88871 0
M  V30 3798 H 387.262 -2.99772 -0.087574 0
M  V30 3799 H 384.815 -1.56298 -0.00813574 0
M  V30 3800 H 385.55 -2.07824 -2.48957 0
M  V30 3801 H 385.335 -3.59414 -1.56728 0
M  V30 3802 H 386.825 -3.32898 -2.52129 0
M  V30 3803 N 387.262 0.0317525 -1.57568 0
M  V30 3804 C 388.539 0.758366 -1.803 0
M  V30 3805 C 388.919 1.93718 -0.838845 0
M  V30 3806 O 388.267 2.28187 0.119571 0
M  V30 3807 C 388.477 1.19392 -3.27943 0
M  V30 3808 C 389.825 1.61094 -3.92854 0
M  V30 3809 O 390.849 1.28857 -3.32076 0
M  V30 3810 O 389.708 2.20918 -4.99858 0
M  V30 3811 H 386.802 0.366514 -0.741348 0
M  V30 3812 H 389.348 0.00873765 -1.69698 0
M  V30 3813 H 388.12 0.352275 -3.89711 0
M  V30 3814 H 387.743 2.00365 -3.43424 0
M  V30 3815 N 388.74 1.54641 0.303973 0
M  V30 3816 C 389.986 1.74038 1.04109 0
M  V30 3817 C 390.319 0.523051 1.87024 0
M  V30 3818 O 389.594 -0.479874 1.88487 0
M  V30 3819 C 389.877 3.02761 1.94955 0
M  V30 3820 C 389.73 4.34787 1.1524 0
M  V30 3821 C 391.049 3.27336 2.94175 0
M  V30 3822 H 388.168 0.63323 0.377079 0
M  V30 3823 H 390.81 1.87354 0.316001 0
M  V30 3824 H 388.96 2.9154 2.56782 0
M  V30 3825 H 390.632 4.57922 0.557236 0
M  V30 3826 H 388.875 4.31407 0.455053 0
M  V30 3827 H 389.546 5.21116 1.8205 0
M  V30 3828 H 392.022 3.38148 2.42477 0
M  V30 3829 H 390.898 4.18726 3.54908 0
M  V30 3830 H 391.159 2.45491 3.67677 0
M  V30 3831 N 390.218 -0.567019 1.47046 0
M  V30 3832 C 391.467 -1.32091 1.5243 0
M  V30 3833 C 391.78 -1.94704 0.187021 0
M  V30 3834 O 392.986 -2.7124 0.118771 0
M  V30 3835 C 391.442 -2.39479 2.68659 0
M  V30 3836 C 391.05 -1.831 4.08874 0
M  V30 3837 C 392.794 -3.16111 2.83327 0
M  V30 3838 C 390.701 -2.8821 5.16419 0
M  V30 3839 H 389.631 -0.496629 0.56734 0
M  V30 3840 H 392.282 -0.603354 1.73297 0
M  V30 3841 H 390.664 -3.14105 2.41152 0
M  V30 3842 H 391.838 -1.14913 4.46242 0
M  V30 3843 H 390.153 -1.19085 3.99008 0
M  V30 3844 H 392.75 -3.94585 3.60842 0
M  V30 3845 H 393.093 -3.69686 1.91411 0
M  V30 3846 H 393.626 -2.48595 3.10556 0
M  V30 3847 H 390.365 -2.39504 6.10179 0
M  V30 3848 H 389.885 -3.54839 4.8358 0
M  V30 3849 H 391.564 -3.51881 5.42945 0
M  V30 3850 N 391.696 -1.35014 -0.812953 0
M  V30 3851 C 392.659 -1.27292 -1.90602 0
M  V30 3852 C 393.659 -0.185817 -1.59723 0
M  V30 3853 O 394.849 -0.439102 -1.68575 0
M  V30 3854 C 391.981 -0.967676 -3.26877 0
M  V30 3855 H 393.174 -2.24479 -1.9887 0
M  V30 3856 H 390.727 -1.19446 -1.00808 0
M  V30 3857 H 391.462 0.0005954 -3.243 0
M  V30 3858 H 391.247 -1.75412 -3.50675 0
M  V30 3859 H 392.737 -0.939085 -4.06904 0
M  V30 3860 N 393.175 1.03435 -1.18907 0
M  V30 3861 C 394.591 1.28973 -0.940111 0
M  V30 3862 C 394.791 1.97676 0.390691 0
M  V30 3863 O 393.847 2.26127 1.12352 0
M  V30 3864 C 395.16 2.14221 -2.11021 0
M  V30 3865 C 396.708 2.27547 -2.14922 0
M  V30 3866 C 397.183 3.16164 -3.31367 0
M  V30 3867 N 398.674 3.23752 -3.31269 0
M  V30 3868 C 399.409 3.92495 -4.18014 0
M  V30 3869 N 398.905 4.63515 -5.14904 0
M  V30 3870 N 400.698 3.88838 -4.05908 0
M  V30 3871 H 392.849 0.57252 -2.04538 0
M  V30 3872 H 395.112 0.315184 -0.894071 0
M  V30 3873 H 394.818 1.71054 -3.073 0
M  V30 3874 H 394.692 3.14919 -2.0762 0
M  V30 3875 H 397.079 2.69947 -1.19217 0
M  V30 3876 H 397.16 1.26418 -2.22378 0
M  V30 3877 H 396.804 2.74474 -4.27348 0
M  V30 3878 H 396.734 4.17339 -3.21148 0
M  V30 3879 H 399.225 2.73167 -2.61129 0
M  V30 3880 H 399.538 5.13583 -5.77453 0
M  V30 3881 H 397.883 4.62398 -5.18857 0
M  V30 3882 H 401.074 3.32491 -3.29495 0
M  V30 3883 H 401.247 4.4214 -4.73726 0
M  V30 3884 N 394.653 0.992116 1.22453 0
M  V30 3885 C 395.9 0.667534 1.91181 0
M  V30 3886 C 396.228 -0.800317 1.77271 0
M  V30 3887 O 395.483 -1.59421 1.13505 0
M  V30 3888 C 395.782 1.01832 3.42586 0
M  V30 3889 C 395.448 2.47831 3.76684 0
M  V30 3890 C 394.11 2.87729 3.85701 0
M  V30 3891 C 396.462 3.42466 3.92895 0
M  V30 3892 C 393.79 4.21252 4.08367 0
M  V30 3893 C 396.142 4.75648 4.17064 0
M  V30 3894 C 394.806 5.15288 4.24305 0
M  V30 3895 H 394.076 0.244268 0.699581 0
M  V30 3896 H 396.723 1.24816 1.45235 0
M  V30 3897 H 395.028 0.355769 3.90181 0
M  V30 3898 H 396.725 0.745228 3.94014 0
M  V30 3899 H 393.315 2.15905 3.70247 0
M  V30 3900 H 397.499 3.12814 3.85307 0
M  V30 3901 H 392.755 4.51554 4.122 0
M  V30 3902 H 396.929 5.48924 4.2855 0
M  V30 3903 H 394.556 6.18769 4.41621 0
M  V30 3904 O 396.17 -1.33952 0.902177 0
M  V30 3905 H 396.861 -1.86748 0.514279 0
M  V30 END ATOM
M  V30 BEGIN BOND
M  V30 END BOND
M  V30 END CTAB
M  END
$$$$
