drugbank_target|O75891 Cytosolic 10-formyltetrahydrofolate dehydrogenase (DB00116)
 OpenBabel12092119433D

  0  0  0     0  0            999 V3000
M  V30 BEGIN CTAB
M  V30 COUNTS 13902 14045 0 0 0
M  V30 BEGIN ATOM
M  V30 1 H -0.908 1.98254 -0.117106 0
M  V30 2 N 0 1.576 0 0
M  V30 3 C 0.933 2.03868 1.02534 0
M  V30 4 C 1.911 0.928543 1.3348 0
M  V30 5 O 3.095 1.19667 1.45644 0
M  V30 6 C 0.222 2.43627 2.35294 0
M  V30 7 C -0.732 3.65373 2.2001 0
M  V30 8 S 0.101 5.13292 1.52614 0
M  V30 9 C 1.257 5.56322 2.86805 0
M  V30 10 H 1.49 2.90518 0.631377 0
M  V30 11 H -0.977 1.52953 0.210867 0
M  V30 12 H 0.981 2.67203 3.11629 0
M  V30 13 H -0.358 1.57376 2.7183 0
M  V30 14 H -1.165 3.90944 3.18086 0
M  V30 15 H -1.563 3.418 1.51819 0
M  V30 16 H 0.729 5.58782 3.83104 0
M  V30 17 H 1.672 6.56266 2.65933 0
M  V30 18 H 2.08 4.83886 2.90714 0
M  V30 19 N 1.4781 -0.272755 1.55222 0
M  V30 20 C 2.4251 -1.33716 1.88119 0
M  V30 21 C 3.3951 -1.49066 0.73271 0
M  V30 22 O 4.5801 -1.63469 0.984002 0
M  V30 23 C 1.7201 -2.69238 2.15882 0
M  V30 24 C 0.8331 -2.62108 3.43399 0
M  V30 25 C -0.0319 -3.89811 3.60861 0
M  V30 26 C -0.9929 -3.77193 4.8207 0
M  V30 27 N -1.8559 -4.9673 4.96189 0
M  V30 28 H 2.9841 -1.04962 2.78903 0
M  V30 29 H 0.5211 -0.507088 1.38083 0
M  V30 30 H 2.4791 -3.48089 2.29978 0
M  V30 31 H 1.1091 -2.96194 1.28331 0
M  V30 32 H 0.1611 -1.74967 3.37773 0
M  V30 33 H 1.4731 -2.48685 4.32386 0
M  V30 34 H 0.6271 -4.77103 3.74777 0
M  V30 35 H -0.6339 -4.06102 2.7006 0
M  V30 36 H -1.6289 -2.88284 4.68159 0
M  V30 37 H -0.4039 -3.62421 5.74307 0
M  V30 38 H -2.4579 -5.13431 4.08319 0
M  V30 39 H -2.5409 -4.85839 5.79221 0
M  V30 40 H -1.2729 -5.85594 5.1449 0
M  V30 41 N 2.9562 -1.48159 -0.537278 0
M  V30 42 C 4.2052 -1.5506 -1.28993 0
M  V30 43 C 4.5182 -0.226211 -1.94288 0
M  V30 44 O 5.7242 -0.173395 -2.70946 0
M  V30 45 C 4.1802 -2.73429 -2.34018 0
M  V30 46 C 3.7882 -4.1248 -1.74825 0
M  V30 47 C 5.5322 -2.89638 -3.10339 0
M  V30 48 C 3.4392 -5.22121 -2.77747 0
M  V30 49 H 2.3692 -0.577231 -0.485098 0
M  V30 50 H 5.0202 -1.74478 -0.568317 0
M  V30 51 H 3.4022 -2.47431 -3.09182 0
M  V30 52 H 4.5762 -4.48466 -1.05899 0
M  V30 53 H 2.8912 -4.01327 -1.11022 0
M  V30 54 H 5.4882 -3.68718 -3.87235 0
M  V30 55 H 5.8312 -1.9882 -3.65754 0
M  V30 56 H 6.3642 -3.15502 -2.42288 0
M  V30 57 H 3.1032 -6.1488 -2.27161 0
M  V30 58 H 2.6232 -4.90631 -3.45024 0
M  V30 59 H 4.3022 -5.49924 -3.4087 0
M  V30 60 N 4.4343 0.785586 -1.36625 0
M  V30 61 C 5.3973 1.87999 -1.31107 0
M  V30 62 C 6.3973 1.59316 -0.217959 0
M  V30 63 O 7.5873 1.67656 -0.472977 0
M  V30 64 C 4.7193 3.24861 -1.03334 0
M  V30 65 H 5.9123 1.94307 -2.2844 0
M  V30 66 H 3.4653 0.983813 -1.21453 0
M  V30 67 H 4.2003 3.24235 -0.0647432 0
M  V30 68 H 3.9853 3.4707 -1.82441 0
M  V30 69 H 5.4753 4.04929 -1.02088 0
M  V30 70 N 5.9124 1.20967 1.01018 0
M  V30 71 C 7.1584 1.02526 1.74975 0
M  V30 72 C 7.4914 -0.4408 1.89131 0
M  V30 73 O 6.7664 -1.32718 1.42184 0
M  V30 74 C 7.0494 1.71699 3.1653 0
M  V30 75 C 6.9024 3.25791 3.10129 0
M  V30 76 C 8.2214 1.45531 4.15342 0
M  V30 77 H 5.3404 0.373863 0.635134 0
M  V30 78 H 7.9824 1.49071 1.17805 0
M  V30 79 H 6.1324 1.32128 3.65341 0
M  V30 80 H 7.8044 3.74697 2.69072 0
M  V30 81 H 6.0474 3.56363 2.47362 0
M  V30 82 H 6.7184 3.69353 4.10222 0
M  V30 83 H 9.1944 1.79872 3.75213 0
M  V30 84 H 8.0704 1.96453 5.1254 0
M  V30 85 H 8.3314 0.384237 4.40427 0
M  V30 86 N 7.3905 -1.2043 1.01659 0
M  V30 87 C 8.6395 -1.89118 0.701237 0
M  V30 88 C 8.9525 -1.79705 -0.772358 0
M  V30 89 O 10.1585 -2.43528 -1.20026 0
M  V30 90 C 8.6145 -3.39168 1.20388 0
M  V30 91 C 8.2225 -3.57166 2.70438 0
M  V30 92 C 9.9665 -4.1341 0.963953 0
M  V30 93 C 7.8735 -5.01042 3.14183 0
M  V30 94 H 6.8035 -0.708267 0.2586 0
M  V30 95 H 9.4545 -1.36239 1.22927 0
M  V30 96 H 7.8365 -3.91369 0.603824 0
M  V30 97 H 9.0105 -3.15351 3.35992 0
M  V30 98 H 7.3255 -2.96294 2.92572 0
M  V30 99 H 9.9225 -5.19491 1.26621 0
M  V30 100 H 10.2655 -4.16181 -0.099578 0
M  V30 101 H 10.7985 -3.67309 1.52738 0
M  V30 102 H 7.5375 -5.03426 4.19812 0
M  V30 103 H 7.0575 -5.43668 2.53348 0
M  V30 104 H 8.7365 -5.69623 3.0682 0
M  V30 105 N 8.8686 -0.792821 -1.36206 0
M  V30 106 C 10.1166 -0.366062 -1.98757 0
M  V30 107 C 10.4376 1.0668 -1.63231 0
M  V30 108 O 9.7076 1.73587 -0.907978 0
M  V30 109 H 8.2876 -0.132364 -0.735179 0
M  V30 110 H 10.9496 -1.01562 -1.66347 0
M  V30 111 H 10.0456 -0.460638 -3.08682 0
M  V30 112 N 10.3467 1.47872 -0.545128 0
M  V30 113 C 11.2787 2.27869 0.246621 0
M  V30 114 C 12.2917 1.36282 0.890561 0
M  V30 115 O 13.4807 1.61207 0.766449 0
M  V30 116 C 10.5807 3.10159 1.36582 0
M  V30 117 C 9.7537 4.29627 0.820954 0
M  V30 118 C 8.8127 4.93607 1.82314 0
M  V30 119 O 7.8387 5.52366 1.37406 0
M  V30 120 N 9.0407 4.87211 3.15603 0
M  V30 121 H 11.8057 2.96459 -0.439539 0
M  V30 122 H 9.3667 1.57367 -0.380421 0
M  V30 123 H 11.3587 3.49829 2.03474 0
M  V30 124 H 9.9287 2.43891 1.9554 0
M  V30 125 H 9.1487 3.94192 -0.0244032 0
M  V30 126 H 10.4367 5.06928 0.436063 0
M  V30 127 H 9.8347 4.40651 3.54744 0
M  V30 128 H 8.3917 5.30937 3.78087 0
M  V30 129 N 11.8248 0.280983 1.55075 0
M  V30 130 C 13.0498 -0.340154 2.04592 0
M  V30 131 C 13.4748 -1.48246 1.15779 0
M  V30 132 O 12.8328 -1.80614 0.15761 0
M  V30 133 C 12.8808 -0.793104 3.5177 0
M  V30 134 O 11.9848 -1.89981 3.66034 0
M  V30 135 H 11.3258 -0.0694289 0.66036 0
M  V30 136 H 13.8558 0.416993 2.00306 0
M  V30 137 H 13.8658 -1.08729 3.93245 0
M  V30 138 H 12.5408 0.0426163 4.15878 0
M  V30 139 H 11.1178 -1.60771 3.36463 0
M  V30 140 N 13.3029 -1.57598 0.00835791 0
M  V30 141 C 14.2329 -2.1198 -0.979113 0
M  V30 142 C 15.2139 -1.03091 -1.35301 0
M  V30 143 O 16.3989 -1.30818 -1.43528 0
M  V30 144 C 13.5289 -2.62995 -2.26828 0
M  V30 145 C 12.4829 -3.76485 -2.03576 0
M  V30 146 C 11.8089 -4.13846 -3.38579 0
M  V30 147 C 13.1089 -5.0342 -1.39161 0
M  V30 148 H 14.8029 -2.94738 -0.526281 0
M  V30 149 H 12.3489 -1.41783 -0.251704 0
M  V30 150 H 14.3019 -2.99669 -2.96271 0
M  V30 151 H 13.0259 -1.7737 -2.7424 0
M  V30 152 H 11.6849 -3.40217 -1.36557 0
M  V30 153 H 11.3329 -3.25232 -3.83709 0
M  V30 154 H 11.0329 -4.90312 -3.23834 0
M  V30 155 H 12.5569 -4.53086 -4.09323 0
M  V30 156 H 13.9709 -5.37812 -1.98573 0
M  V30 157 H 12.3679 -5.84746 -1.34878 0
M  V30 158 H 13.4379 -4.83548 -0.361868 0
M  V30 159 N 14.781 0.264519 -1.55364 0
M  V30 160 C 16.028 0.994986 -1.7637 0
M  V30 161 C 16.356 1.85976 -0.5695 0
M  V30 162 O 15.611 1.90509 0.44776 0
M  V30 163 C 15.91 1.9004 -3.02687 0
M  V30 164 C 15.576 1.19243 -4.34847 0
M  V30 165 C 14.238 0.996709 -4.70764 0
M  V30 166 C 16.59 0.689296 -5.16622 0
M  V30 167 C 13.918 0.285261 -5.86006 0
M  V30 168 C 16.27 -0.00860079 -6.32599 0
M  V30 169 C 14.934 -0.215963 -6.67151 0
M  V30 170 H 14.204 0.364091 -0.645383 0
M  V30 171 H 16.851 0.266543 -1.89636 0
M  V30 172 H 15.156 2.69533 -2.84357 0
M  V30 173 H 16.853 2.46695 -3.16137 0
M  V30 174 H 13.443 1.3549 -4.06621 0
M  V30 175 H 17.627 0.828108 -4.89342 0
M  V30 176 H 12.883 0.113961 -6.11294 0
M  V30 177 H 17.057 -0.406186 -6.95214 0
M  V30 178 H 14.684 -0.769217 -7.56298 0
M  V30 179 N 16.2591 1.48442 0.529413 0
M  V30 180 C 17.5071 1.56179 1.28267 0
M  V30 181 C 17.8281 0.237721 1.93546 0
M  V30 182 O 17.0981 -0.740779 1.81354 0
M  V30 183 H 15.6781 0.575367 0.476405 0
M  V30 184 H 18.3401 1.84909 0.61602 0
M  V30 185 H 17.4361 2.34312 2.06165 0
M  V30 186 N 17.7372 -0.778329 1.37039 0
M  V30 187 C 18.6692 -1.90034 1.2814 0
M  V30 188 C 19.6822 -1.61585 0.198558 0
M  V30 189 O 20.8712 -1.72625 0.454175 0
M  V30 190 C 17.9712 -3.25108 0.956968 0
M  V30 191 C 17.1442 -3.81253 2.14394 0
M  V30 192 C 16.2032 -4.94789 1.79082 0
M  V30 193 O 15.2292 -5.10721 2.51301 0
M  V30 194 N 16.4312 -5.75878 0.731043 0
M  V30 195 H 19.1962 -1.98186 2.24816 0
M  V30 196 H 16.7572 -0.957129 1.30578 0
M  V30 197 H 18.7492 -3.9857 0.701701 0
M  V30 198 H 17.3192 -3.125 0.0789812 0
M  V30 199 H 16.5392 -2.99647 2.56135 0
M  V30 200 H 17.8272 -4.15495 2.93668 0
M  V30 201 H 17.2252 -5.65547 0.131618 0
M  V30 202 H 15.7822 -6.49596 0.535622 0
M  V30 203 N 19.2153 -1.21501 -1.00376 0
M  V30 204 C 20.1253 -0.991447 -2.12621 0
M  V30 205 C 21.1413 0.0568446 -1.73907 0
M  V30 206 O 22.3173 -0.13348 -2.00957 0
M  V30 207 C 19.3823 -0.560312 -3.42142 0
M  V30 208 C 18.4433 -1.68096 -3.95022 0
M  V30 209 C 17.6763 -1.2703 -5.18362 0
M  V30 210 O 17.8993 -0.144438 -5.70217 0
M  V30 211 O 16.8333 -2.08269 -5.64719 0
M  V30 212 H 20.6593 -1.93158 -2.34358 0
M  V30 213 H 18.2443 -0.999999 -1.10997 0
M  V30 214 H 20.1263 -0.329724 -4.20108 0
M  V30 215 H 18.8013 0.351089 -3.2179 0
M  V30 216 H 17.7083 -1.96597 -3.18278 0
M  V30 217 H 19.0413 -2.56983 -4.19786 0
M  V30 218 N 20.6934 1.19889 -1.02296 0
M  V30 219 C 21.9394 1.89701 -0.717033 0
M  V30 220 C 22.2724 1.7905 0.751989 0
M  V30 221 O 21.5474 1.17891 1.547 0
M  V30 222 C 21.8304 3.40858 -1.16136 0
M  V30 223 C 21.6834 3.60411 -2.69117 0
M  V30 224 C 23.0024 4.33876 -0.737549 0
M  V30 225 H 20.1214 0.688874 -0.261957 0
M  V30 226 H 22.7634 1.41154 -1.27183 0
M  V30 227 H 20.9134 3.82335 -0.689342 0
M  V30 228 H 22.5854 3.28145 -3.2422 0
M  V30 229 H 20.8284 3.03665 -3.0979 0
M  V30 230 H 21.4994 4.66396 -2.95261 0
M  V30 231 H 23.9754 4.00081 -1.14344 0
M  V30 232 H 22.8514 5.38242 -1.0764 0
M  V30 233 H 23.1124 4.40628 0.360436 0
M  V30 234 N 22.1715 0.800033 1.35784 0
M  V30 235 C 23.4015 0.389041 2.02904 0
M  V30 236 C 23.8095 -1.0027 1.60445 0
M  V30 237 O 23.1525 -1.65633 0.794453 0
M  V30 238 C 23.2145 0.385495 3.57427 0
M  V30 239 C 22.8785 1.72662 4.23127 0
M  V30 240 C 23.8755 2.68385 4.4527 0
M  V30 241 C 21.5605 2.00883 4.60381 0
M  V30 242 C 23.5545 3.90517 5.03761 0
M  V30 243 C 21.2415 3.2328 5.18588 0
M  V30 244 C 22.2395 4.17915 5.40218 0
M  V30 245 O 21.9275 5.38153 5.97199 0
M  V30 246 H 21.6595 0.157032 0.657508 0
M  V30 247 H 24.2135 1.08311 1.74522 0
M  V30 248 H 22.4435 -0.365128 3.84972 0
M  V30 249 H 24.1325 -0.00228296 4.059 0
M  V30 250 H 24.8985 2.47872 4.16874 0
M  V30 251 H 20.7775 1.28037 4.42863 0
M  V30 252 H 24.3215 4.64395 5.2056 0
M  V30 253 H 20.2185 3.43667 5.4641 0
M  V30 254 H 20.9865 5.3936 6.15656 0
M  V30 255 N 23.6496 -1.47581 0.552962 0
M  V30 256 C 24.8896 -2.04379 0.0296245 0
M  V30 257 C 25.2536 -1.4185 -1.29393 0
M  V30 258 O 26.4546 -1.89669 -1.90471 0
M  V30 259 C 24.7256 -3.57339 -0.0661371 0
M  V30 260 S 26.2846 -4.35511 -0.536213 0
M  V30 261 H 23.1026 -0.710625 0.0230991 0
M  V30 262 H 25.7046 -1.81005 0.738734 0
M  V30 263 H 24.4086 -4.00374 0.901596 0
M  V30 264 H 23.9396 -3.85202 -0.798931 0
M  V30 265 H 25.9546 -4.6253 -1.79668 0
M  V30 266 N 25.1277 -0.289203 -1.54924 0
M  V30 267 C 26.0777 0.606939 -2.19773 0
M  V30 268 C 27.0617 1.10783 -1.16687 0
M  V30 269 O 28.2537 1.05057 -1.4245 0
M  V30 270 C 25.3827 1.78398 -2.93307 0
M  V30 271 C 24.4687 1.29961 -4.03697 0
M  V30 272 N 24.8597 0.532377 -5.0299 0
M  V30 273 C 23.1577 1.58136 -4.17024 0
M  V30 274 C 23.8587 0.275912 -5.81045 0
M  V30 275 N 22.8347 0.852365 -5.36876 0
M  V30 276 H 26.6367 0.0130779 -2.93897 0
M  V30 277 H 24.1507 -0.09341 -1.62131 0
M  V30 278 H 26.1477 2.43741 -3.38225 0
M  V30 279 H 24.8077 2.38166 -2.20697 0
M  V30 280 H 25.8187 0.17838 -5.17593 0
M  V30 281 H 22.4957 2.18738 -3.55612 0
M  V30 282 H 23.8857 -0.339502 -6.71042 0
M  V30 283 N 26.6058 1.57591 -0.0167156 0
M  V30 284 C 27.5358 2.12496 0.967858 0
M  V30 285 C 28.5168 1.03807 1.34752 0
M  V30 286 O 29.7018 1.31577 1.42833 0
M  V30 287 C 26.8318 2.64194 2.25431 0
M  V30 288 C 25.7858 3.77559 2.01576 0
M  V30 289 C 25.1118 4.15636 3.36379 0
M  V30 290 C 26.4118 5.04151 1.36489 0
M  V30 291 H 28.1058 2.95013 0.510643 0
M  V30 292 H 25.6518 1.41915 0.244181 0
M  V30 293 H 27.6048 3.01236 2.94678 0
M  V30 294 H 26.3288 1.78821 2.73296 0
M  V30 295 H 24.9878 3.40937 1.34751 0
M  V30 296 H 24.6358 3.27263 3.81979 0
M  V30 297 H 24.3358 4.92022 3.21229 0
M  V30 298 H 25.8598 4.5525 4.06915 0
M  V30 299 H 27.2738 5.38857 1.95718 0
M  V30 300 H 25.6708 5.85453 1.31776 0
M  V30 301 H 26.7408 4.83733 0.336219 0
M  V30 302 N 28.0839 -0.256276 1.55502 0
M  V30 303 C 29.4999 -0.604325 1.47716 0
M  V30 304 C 29.6999 -1.88763 0.705039 0
M  V30 305 O 28.7559 -2.51445 0.230613 0
M  V30 306 C 30.0689 -0.715756 2.92057 0
M  V30 307 C 31.6169 -0.808706 3.02372 0
M  V30 308 C 32.0919 -0.951777 4.48001 0
M  V30 309 N 33.5829 -1.01688 4.519 0
M  V30 310 C 34.3179 -1.14668 5.61817 0
M  V30 311 N 33.8139 -1.24261 6.81565 0
M  V30 312 N 35.6069 -1.1791 5.49594 0
M  V30 313 H 27.7579 0.586291 2.04148 0
M  V30 314 H 30.0209 0.201015 0.926443 0
M  V30 315 H 29.7269 0.157027 3.51349 0
M  V30 316 H 29.6009 -1.59071 3.42018 0
M  V30 317 H 31.9879 -1.67195 2.43166 0
M  V30 318 H 32.0689 0.0912063 2.55637 0
M  V30 319 H 31.7129 -0.0931291 5.07815 0
M  V30 320 H 31.6429 -1.86659 4.92408 0
M  V30 321 H 34.1339 -0.954468 3.65648 0
M  V30 322 H 34.4469 -1.34046 7.61086 0
M  V30 323 H 32.7919 -1.21236 6.84344 0
M  V30 324 H 35.9829 -1.10057 4.54978 0
M  V30 325 H 36.1559 -1.27681 6.35296 0
M  V30 326 N 29.562 -1.4872 -0.521534 0
M  V30 327 C 30.509 -1.63871 -1.62527 0
M  V30 328 C 31.479 -0.480559 -1.58996 0
M  V30 329 O 32.664 -0.705085 -1.77294 0
M  V30 330 C 29.804 -1.69227 -3.00759 0
M  V30 331 C 28.917 -2.96207 -3.14461 0
M  V30 332 C 28.052 -2.92671 -4.43303 0
M  V30 333 C 27.091 -4.14318 -4.50563 0
M  V30 334 N 26.228 -4.0881 -5.70805 0
M  V30 335 H 31.068 -2.58123 -1.48918 0
M  V30 336 H 28.605 -1.28 -0.724878 0
M  V30 337 H 30.563 -1.70314 -3.80853 0
M  V30 338 H 29.193 -0.784586 -3.1312 0
M  V30 339 H 28.245 -3.04826 -2.27564 0
M  V30 340 H 29.557 -3.86192 -3.15686 0
M  V30 341 H 28.711 -2.92206 -5.31696 0
M  V30 342 H 27.45 -2.00429 -4.44612 0
M  V30 343 H 26.455 -4.15049 -3.60575 0
M  V30 344 H 27.68 -5.07729 -4.50986 0
M  V30 345 H 25.626 -3.19394 -5.72995 0
M  V30 346 H 25.543 -4.92509 -5.7356 0
M  V30 347 H 26.811 -4.12418 -6.61462 0
M  V30 348 N 31.0401 0.771051 -1.3745 0
M  V30 349 C 31.9501 1.91538 -1.35464 0
M  V30 350 C 32.9661 1.72134 -0.254123 0
M  V30 351 O 34.1421 1.95358 -0.489626 0
M  V30 352 C 31.2071 3.26671 -1.16134 0
M  V30 353 C 30.2681 3.58723 -2.35831 0
M  V30 354 C 29.5011 4.87409 -2.17413 0
M  V30 355 O 29.7241 5.58506 -1.15876 0
M  V30 356 O 28.6581 5.18539 -3.05615 0
M  V30 357 H 32.4841 1.96165 -2.31847 0
M  V30 358 H 30.0691 0.9139 -1.18187 0
M  V30 359 H 31.9511 4.07499 -1.07345 0
M  V30 360 H 30.6261 3.22894 -0.228251 0
M  V30 361 H 29.5331 2.78127 -2.50192 0
M  V30 362 H 30.8661 3.67243 -3.27709 0
M  V30 363 N 32.5182 1.22032 0.997298 0
M  V30 364 C 33.7662 1.04016 1.73278 0
M  V30 365 C 34.0872 -0.426255 1.90284 0
M  V30 366 O 33.3572 -1.30694 1.45931 0
M  V30 367 H 31.9372 0.381897 0.642 0
M  V30 368 H 34.5992 1.5347 1.20137 0
M  V30 369 H 33.6952 1.51441 2.72896 0
M  V30 370 N 33.9963 -1.19345 1.0293 0
M  V30 371 C 34.9463 -2.20472 0.58104 0
M  V30 372 C 35.9303 -1.56578 -0.370442 0
M  V30 373 O 37.1223 -1.75963 -0.191344 0
M  V30 374 C 34.2513 -3.43236 -0.066306 0
M  V30 375 C 33.3373 -4.14274 0.907642 0
M  V30 376 N 33.7283 -4.61492 2.07023 0
M  V30 377 C 32.0263 -4.39966 0.731177 0
M  V30 378 C 32.7273 -5.1605 2.68454 0
M  V30 379 N 31.7033 -5.06875 1.96414 0
M  V30 380 H 35.5053 -2.54659 1.46717 0
M  V30 381 H 33.0193 -1.35423 0.896345 0
M  V30 382 H 35.0163 -4.14927 -0.405068 0
M  V30 383 H 33.6763 -3.10549 -0.948118 0
M  V30 384 H 34.6873 -4.56304 2.44963 0
M  V30 385 H 31.3643 -4.17377 -0.101507 0
M  V30 386 H 32.7543 -5.6287 3.66915 0
M  V30 387 N 35.4744 -0.807222 -1.35358 0
M  V30 388 C 36.3844 -0.219594 -2.3357 0
M  V30 389 C 37.4004 0.637734 -1.61892 0
M  V30 390 O 38.5764 0.549336 -1.93763 0
M  V30 391 C 35.6414 0.62158 -3.41083 0
M  V30 392 C 34.7024 -0.256315 -4.28534 0
M  V30 393 C 33.9354 0.544807 -5.30912 0
M  V30 394 O 34.1584 1.77944 -5.41934 0
M  V30 395 O 33.0924 -0.0646478 -6.01865 0
M  V30 396 H 36.9184 -1.03208 -2.85625 0
M  V30 397 H 34.5034 -0.569025 -1.38139 0
M  V30 398 H 36.3854 1.10067 -4.06772 0
M  V30 399 H 35.0604 1.41165 -2.91297 0
M  V30 400 H 33.9674 -0.782559 -3.65823 0
M  V30 401 H 35.3004 -1.01034 -4.81719 0
M  V30 402 N 36.9525 1.47285 -0.560781 0
M  V30 403 C 38.1985 2.02764 -0.0381184 0
M  V30 404 C 38.5315 1.43384 1.30976 0
M  V30 405 O 37.8065 0.590733 1.85312 0
M  V30 406 C 38.0895 3.60064 0.0511427 0
M  V30 407 C 37.9425 4.2987 -1.32408 0
M  V30 408 C 39.2615 4.33439 0.762795 0
M  V30 409 H 36.3805 0.736841 -0.0153264 0
M  V30 410 H 39.0225 1.75675 -0.723759 0
M  V30 411 H 37.1725 3.83274 0.635065 0
M  V30 412 H 38.8445 4.17989 -1.95148 0
M  V30 413 H 37.0875 3.90085 -1.8978 0
M  V30 414 H 37.7585 5.38478 -1.21431 0
M  V30 415 H 40.2345 4.15243 0.266965 0
M  V30 416 H 39.1105 5.43124 0.794221 0
M  V30 417 H 39.3715 4.02915 1.81966 0
M  V30 418 N 38.4306 0.297415 1.54768 0
M  V30 419 C 39.6766 -0.313376 2.00364 0
M  V30 420 C 40.0096 -1.53815 1.18553 0
M  V30 421 O 39.2846 -1.92739 0.261103 0
M  V30 422 C 39.5676 -0.673525 3.53745 0
M  V30 423 C 39.4206 0.560133 4.46299 0
M  V30 424 C 40.7396 -1.50143 4.13697 0
M  V30 425 H 37.8586 -0.112428 0.728374 0
M  V30 426 H 40.5006 0.4088 1.8555 0
M  V30 427 H 38.6506 -1.28881 3.665 0
M  V30 428 H 40.3226 1.19863 4.45455 0
M  V30 429 H 38.5656 1.19405 4.17043 0
M  V30 430 H 39.2366 0.26405 5.51368 0
M  V30 431 H 41.7126 -0.981588 4.04356 0
M  V30 432 H 40.5886 -1.72221 5.21182 0
M  V30 433 H 40.8496 -2.48952 3.65343 0
M  V30 434 N 39.9087 -1.5758 0.0250728 0
M  V30 435 C 41.1567 -1.91255 -0.653151 0
M  V30 436 C 41.4777 -0.901691 -1.729 0
M  V30 437 O 40.7477 0.0573785 -1.95816 0
M  V30 438 H 39.3277 -0.705942 -0.244243 0
M  V30 439 H 41.9897 -1.94767 0.0719209 0
M  V30 440 H 41.0857 -2.91752 -1.10847 0
M  V30 441 N 41.3868 0.248026 -1.55636 0
M  V30 442 C 42.6328 0.97767 -1.77678 0
M  V30 443 C 42.9658 1.85016 -0.590135 0
M  V30 444 O 42.2408 1.90095 0.411611 0
M  V30 445 C 42.5238 1.83914 -3.09593 0
M  V30 446 C 42.3768 0.99491 -4.38659 0
M  V30 447 C 43.6958 2.82183 -3.37729 0
M  V30 448 H 40.8148 0.354005 -0.646413 0
M  V30 449 H 43.4568 0.248253 -1.88371 0
M  V30 450 H 41.6068 2.46104 -3.00608 0
M  V30 451 H 43.2788 0.391789 -4.59633 0
M  V30 452 H 41.5218 0.299231 -4.32767 0
M  V30 453 H 42.1928 1.63145 -5.2734 0
M  V30 454 H 44.6688 2.30129 -3.4667 0
M  V30 455 H 43.5448 3.39582 -4.31249 0
M  V30 456 H 43.8058 3.58588 -2.58586 0
M  V30 457 N 42.8649 1.48995 0.513639 0
M  V30 458 C 44.1119 1.57843 1.26854 0
M  V30 459 C 44.4399 0.259501 1.92761 0
M  V30 460 O 43.6949 -0.75159 1.80692 0
M  V30 461 C 43.9939 2.67756 2.36731 0
M  V30 462 C 43.6599 4.09669 1.88368 0
M  V30 463 C 42.3219 4.48291 1.74896 0
M  V30 464 C 44.6739 4.98537 1.52021 0
M  V30 465 C 42.0019 5.73568 1.23438 0
M  V30 466 C 44.3539 6.24319 1.0202 0
M  V30 467 C 43.0179 6.61783 0.871778 0
M  V30 468 H 42.2879 0.577587 0.464192 0
M  V30 469 H 44.9349 1.82778 0.571366 0
M  V30 470 H 43.2399 2.36743 3.12185 0
M  V30 471 H 44.9369 2.71813 2.9482 0
M  V30 472 H 41.5269 3.79176 1.99808 0
M  V30 473 H 45.7109 4.69363 1.61281 0
M  V30 474 H 40.9669 6.01304 1.10648 0
M  V30 475 H 45.1409 6.92566 0.729722 0
M  V30 476 H 42.7679 7.5874 0.470852 0
M  V30 477 N 44.343 -0.763751 1.37857 0
M  V30 478 C 45.571 -1.55293 1.36718 0
M  V30 479 C 45.986 -1.88745 -0.0455434 0
M  V30 480 O 45.343 -1.52039 -1.00947 0
M  V30 481 C 45.394 -2.85831 2.2132 0
M  V30 482 O 45.115 -2.5381 3.57089 0
M  V30 483 C 46.616 -3.80023 2.28249 0
M  V30 484 H 43.836 -0.480841 0.468009 0
M  V30 485 H 46.38 -0.946009 1.81303 0
M  V30 486 H 44.535 -3.42926 1.80223 0
M  V30 487 H 44.949 -3.37459 4.01524 0
M  V30 488 H 46.423 -4.68599 2.91752 0
M  V30 489 H 46.9 -4.1973 1.2932 0
M  V30 490 H 47.506 -3.28855 2.69693 0
M  V30 491 N 45.8211 -1.22559 -0.990812 0
M  V30 492 C 47.0671 -1.05297 -1.73322 0
M  V30 493 C 47.4001 0.410655 -1.89808 0
M  V30 494 O 46.6751 1.30439 -1.44277 0
M  V30 495 C 46.9581 -1.76713 -3.13759 0
M  V30 496 C 46.8111 -3.30684 -3.04907 0
M  V30 497 C 48.1301 -1.52121 -4.12974 0
M  V30 498 H 45.2491 -0.38392 -0.629106 0
M  V30 499 H 47.8911 -1.50926 -1.15418 0
M  V30 500 H 46.0411 -1.37924 -3.63193 0
M  V30 501 H 47.7131 -3.7893 -2.63077 0
M  V30 502 H 45.9561 -3.60253 -2.41661 0
M  V30 503 H 46.6271 -3.75833 -4.04294 0
M  V30 504 H 49.1031 -1.85819 -3.72304 0
M  V30 505 H 47.9791 -2.04582 -5.0935 0
M  V30 506 H 48.2401 -0.454257 -4.3976 0
M  V30 507 N 47.2992 1.18797 -1.03562 0
M  V30 508 C 48.7102 1.70322 -0.764676 0
M  V30 509 C 49.0612 1.82708 0.714996 0
M  V30 510 O 48.1862 1.50299 1.55689 0
M  V30 511 C 48.7812 3.09356 -1.38145 0
M  V30 512 C 47.3402 3.58114 -1.15895 0
M  V30 513 C 46.4872 2.34798 -1.4753 0
M  V30 514 H 49.4382 1.03543 -1.20268 0
M  V30 515 H 49.4592 3.72378 -0.781977 0
M  V30 516 H 48.9712 3.00309 -2.45837 0
M  V30 517 H 47.0722 3.72464 -0.100544 0
M  V30 518 H 47.1852 4.4184 -1.8524 0
M  V30 519 H 45.5492 2.38464 -0.894829 0
M  V30 520 H 46.3322 2.28375 -2.56319 0
M  V30 521 N 48.7773 0.814389 1.34928 0
M  V30 522 C 50.0543 0.321363 1.92942 0
M  V30 523 C 50.4343 -1.19014 1.74353 0
M  V30 524 O 49.7823 -1.99328 1.11716 0
M  V30 525 C 49.9923 0.741323 3.41036 0
M  V30 526 C 51.3403 0.735266 4.18185 0
M  V30 527 O 52.3643 0.68336 3.49584 0
M  V30 528 O 51.2233 0.800703 5.40602 0
M  V30 529 H 48.3173 0.0858893 0.822528 0
M  V30 530 H 50.8633 0.898609 1.43955 0
M  V30 531 H 49.6353 1.78276 3.4833 0
M  V30 532 H 49.2583 0.139307 3.97356 0
M  V30 533 N 50.2554 -1.46986 0.568584 0
M  V30 534 C 51.2024 -2.30153 -0.172707 0
M  V30 535 C 52.1724 -1.39759 -0.897586 0
M  V30 536 O 53.3574 -1.68716 -0.891044 0
M  V30 537 C 50.4974 -3.23952 -1.1895 0
M  V30 538 C 49.6104 -4.29441 -0.469517 0
M  V30 539 C 48.7454 -5.1038 -1.47259 0
M  V30 540 C 47.7844 -6.07632 -0.738225 0
M  V30 541 N 46.9214 -6.8149 -1.68868 0
M  V30 542 H 51.7614 -2.93019 0.542596 0
M  V30 543 H 49.2984 -1.44422 0.279401 0
M  V30 544 H 51.2564 -3.76767 -1.79173 0
M  V30 545 H 49.8864 -2.62926 -1.87269 0
M  V30 546 H 48.9384 -3.79594 0.247467 0
M  V30 547 H 50.2504 -4.98689 0.105241 0
M  V30 548 H 49.4044 -5.67402 -2.14803 0
M  V30 549 H 48.1434 -4.4106 -2.08128 0
M  V30 550 H 47.1484 -5.49778 -0.0489293 0
M  V30 551 H 48.3734 -6.78966 -0.135129 0
M  V30 552 H 46.3194 -6.14891 -2.28573 0
M  V30 553 H 46.2364 -7.46948 -1.16636 0
M  V30 554 H 47.5044 -7.43078 -2.3549 0
M  V30 555 N 51.7335 -0.305618 -1.54608 0
M  V30 556 C 53.0105 0.355652 -1.92339 0
M  V30 557 C 53.3905 1.71324 -1.23335 0
M  V30 558 O 52.7385 2.25473 -0.370702 0
M  V30 559 C 52.9485 0.46572 -3.45879 0
M  V30 560 C 54.2965 0.734426 -4.182 0
M  V30 561 O 55.3205 0.54935 -3.51938 0
M  V30 562 O 54.1795 1.09024 -5.35515 0
M  V30 563 H 51.2735 0.199666 -0.802535 0
M  V30 564 H 53.8195 -0.354017 -1.65966 0
M  V30 565 H 52.5915 -0.488461 -3.88239 0
M  V30 566 H 52.2145 1.22367 -3.78301 0
M  V30 567 N 53.2116 1.57565 -0.0334293 0
M  V30 568 C 54.4596 1.91598 0.642999 0
M  V30 569 C 54.7806 0.910847 1.7242 0
M  V30 570 O 54.0506 -0.0469931 1.95844 0
M  V30 571 H 52.6306 0.707228 0.240496 0
M  V30 572 H 55.2926 1.94726 -0.0822488 0
M  V30 573 H 54.3886 2.92336 1.09298 0
M  V30 574 N 54.6897 -0.239769 1.55765 0
M  V30 575 C 55.6367 -1.29696 1.90913 0
M  V30 576 C 56.6067 -1.47478 0.764164 0
M  V30 577 O 57.7917 -1.61345 1.01845 0
M  V30 578 C 54.9317 -2.64598 2.21544 0
M  V30 579 C 54.0447 -2.54765 3.48882 0
M  V30 580 C 53.1797 -3.82069 3.69049 0
M  V30 581 C 52.2187 -3.66883 4.89963 0
M  V30 582 N 51.3557 -4.86094 5.06614 0
M  V30 583 H 56.1957 -0.990224 2.81067 0
M  V30 584 H 53.7327 -0.477684 1.39128 0
M  V30 585 H 55.6907 -3.43132 2.3731 0
M  V30 586 H 54.3207 -2.93405 1.34585 0
M  V30 587 H 53.3727 -1.67763 3.41409 0
M  V30 588 H 54.6847 -2.39457 4.37563 0
M  V30 589 H 53.8387 -4.69046 3.84812 0
M  V30 590 H 52.5777 -4.00282 2.78614 0
M  V30 591 H 51.5827 -2.78289 4.74168 0
M  V30 592 H 52.8077 -3.50157 5.81865 0
M  V30 593 H 50.7537 -5.04655 4.19117 0
M  V30 594 H 50.6707 -4.73443 5.89396 0
M  V30 595 H 51.9387 -5.74549 5.26795 0
M  V30 596 N 56.1678 -1.49265 -0.50573 0
M  V30 597 C 57.1308 -1.65075 -1.59006 0
M  V30 598 C 58.1308 -0.522768 -1.52065 0
M  V30 599 O 59.3208 -0.789117 -1.55302 0
M  V30 600 C 56.4528 -1.64369 -2.98656 0
M  V30 601 H 57.6458 -2.61784 -1.46319 0
M  V30 602 H 55.1988 -1.38226 -0.729616 0
M  V30 603 H 55.9338 -0.692272 -3.16825 0
M  V30 604 H 55.7188 -2.46282 -3.05103 0
M  V30 605 H 57.2088 -1.78674 -3.77446 0
M  V30 606 N 57.6459 0.756429 -1.3826 0
M  V30 607 C 58.9229 1.50584 -1.24835 0
M  V30 608 C 59.3029 2.10556 0.151485 0
M  V30 609 O 58.6509 1.96825 1.1607 0
M  V30 610 C 58.8609 2.57448 -2.3563 0
M  V30 611 C 60.2089 3.24429 -2.73917 0
M  V30 612 O 61.2329 2.67751 -2.34921 0
M  V30 613 O 60.0919 4.26937 -3.41156 0
M  V30 614 H 57.1859 0.667664 -0.48801 0
M  V30 615 H 59.7319 0.792083 -1.5008 0
M  V30 616 H 58.5039 2.11362 -3.29305 0
M  V30 617 H 58.1269 3.36408 -2.11933 0
M  V30 618 N 59.124 1.23083 0.984299 0
M  V30 619 C 60.535 1.05609 1.5396 0
M  V30 620 C 60.886 -0.377793 1.92528 0
M  V30 621 O 60.011 -1.26398 1.75649 0
M  V30 622 C 60.606 1.91087 2.7977 0
M  V30 623 C 59.165 1.77885 3.31713 0
M  V30 624 C 58.312 1.87028 2.04733 0
M  V30 625 H 61.263 1.36802 0.804419 0
M  V30 626 H 61.284 1.43336 3.5247 0
M  V30 627 H 60.796 2.9544 2.51668 0
M  V30 628 H 58.897 0.762995 3.64704 0
M  V30 629 H 59.01 2.61047 4.01735 0
M  V30 630 H 57.374 1.30565 2.18689 0
M  V30 631 H 58.157 2.92929 1.79017 0
M  V30 632 N 60.6021 -1.18246 1.0419 0
M  V30 633 C 61.5321 -2.24127 0.654914 0
M  V30 634 C 62.5131 -1.66617 -0.342451 0
M  V30 635 O 63.6981 -1.92924 -0.222277 0
M  V30 636 C 60.8281 -3.47295 0.0183757 0
M  V30 637 C 59.7821 -4.17563 0.939414 0
M  V30 638 C 59.1081 -5.34438 0.167286 0
M  V30 639 C 60.4081 -4.70917 2.25908 0
M  V30 640 H 62.1021 -2.56753 1.54007 0
M  V30 641 H 59.6481 -1.23414 0.74195 0
M  V30 642 H 61.6011 -4.20572 -0.264082 0
M  V30 643 H 60.3251 -3.13907 -0.901664 0
M  V30 644 H 58.9841 -3.46186 1.20628 0
M  V30 645 H 58.6321 -4.97298 -0.7552 0
M  V30 646 H 58.3321 -5.82388 0.780901 0
M  V30 647 H 59.8561 -6.10504 -0.108125 0
M  V30 648 H 61.2701 -5.35882 2.03724 0
M  V30 649 H 59.6671 -5.29406 2.82577 0
M  V30 650 H 60.7371 -3.88272 2.9047 0
M  V30 651 N 62.0802 -0.821533 -1.34494 0
M  V30 652 C 63.3282 -0.408139 -1.97936 0
M  V30 653 C 63.6492 1.03193 -1.65457 0
M  V30 654 O 62.9192 1.71622 -0.944595 0
M  V30 655 H 61.4992 -0.147928 -0.732206 0
M  V30 656 H 64.1612 -1.05067 -1.64155 0
M  V30 657 H 63.2572 -0.52601 -3.07635 0
M  V30 658 N 63.5583 1.46682 -0.576371 0
M  V30 659 C 64.4883 2.33028 0.148397 0
M  V30 660 C 65.4693 1.44961 0.889956 0
M  V30 661 O 66.6543 1.73789 0.866662 0
M  V30 662 C 63.7843 3.27117 1.1667 0
M  V30 663 C 62.7383 4.24575 0.540386 0
M  V30 664 C 62.0643 5.08126 1.6647 0
M  V30 665 C 63.3643 5.19722 -0.518331 0
M  V30 666 H 65.0583 2.93875 -0.572509 0
M  V30 667 H 62.6043 1.41315 -0.276768 0
M  V30 668 H 64.5573 3.86374 1.68204 0
M  V30 669 H 63.2813 2.64364 1.9178 0
M  V30 670 H 61.9403 3.66571 0.0461769 0
M  V30 671 H 61.5883 4.41762 2.40531 0
M  V30 672 H 61.2883 5.74122 1.25131 0
M  V30 673 H 62.8123 5.70246 2.18293 0
M  V30 674 H 64.2263 5.73232 -0.0883058 0
M  V30 675 H 62.6233 5.94026 -0.851679 0
M  V30 676 H 63.6933 4.64037 -1.40703 0
M  V30 677 N 65.0364 0.313813 1.54444 0
M  V30 678 C 65.9464 -0.565714 2.27677 0
M  V30 679 C 66.9624 -1.13754 1.31666 0
M  V30 680 O 68.1384 -1.15959 1.64668 0
M  V30 681 C 65.2034 -1.71528 3.01296 0
M  V30 682 C 64.2644 -1.17624 4.12872 0
M  V30 683 C 63.4974 -2.27102 4.8297 0
M  V30 684 O 63.7204 -3.47256 4.52514 0
M  V30 685 O 62.6544 -1.9307 5.70094 0
M  V30 686 H 66.4804 0.0287296 3.03686 0
M  V30 687 H 64.0654 0.0798312 1.49187 0
M  V30 688 H 65.9474 -2.38476 3.4743 0
M  V30 689 H 64.6224 -2.29608 2.2817 0
M  V30 690 H 63.5294 -0.472124 3.71109 0
M  V30 691 H 64.8624 -0.640695 4.88012 0
M  V30 692 N 66.5145 -1.57545 0.0417849 0
M  V30 693 C 67.4775 -2.09885 -0.92093 0
M  V30 694 C 68.4775 -1.01648 -1.24596 0
M  V30 695 O 69.6675 -1.27759 -1.1842 0
M  V30 696 C 66.7995 -2.57527 -2.23367 0
M  V30 697 H 67.9925 -2.96236 -0.467382 0
M  V30 698 H 65.5455 -1.5493 -0.206467 0
M  V30 699 H 66.2805 -1.74542 -2.73323 0
M  V30 700 H 66.0655 -3.36613 -2.01083 0
M  V30 701 H 67.5555 -2.98201 -2.92346 0
M  V30 702 N 67.9926 0.231505 -1.5589 0
M  V30 703 C 68.9026 1.308 -1.94752 0
M  V30 704 C 69.9186 1.51826 -0.849989 0
M  V30 705 O 71.0946 1.6515 -1.15271 0
M  V30 706 C 68.1596 2.63968 -2.24771 0
M  V30 707 C 67.2206 2.51331 -3.48039 0
M  V30 708 C 66.4536 3.78148 -3.76616 0
M  V30 709 O 66.6766 4.80722 -3.07022 0
M  V30 710 O 65.6106 3.75857 -4.70123 0
M  V30 711 H 69.4366 1.0083 -2.86474 0
M  V30 712 H 67.0216 0.433547 -1.42971 0
M  V30 713 H 68.9036 3.42633 -2.45318 0
M  V30 714 H 67.5786 2.9364 -1.36225 0
M  V30 715 H 66.4856 1.709 -3.32782 0
M  V30 716 H 67.8186 2.26601 -4.36936 0
M  V30 717 N 69.4707 1.49531 0.497807 0
M  V30 718 C 70.4177 1.66436 1.59899 0
M  V30 719 C 71.3877 0.505793 1.58212 0
M  V30 720 O 72.5727 0.733202 1.7615 0
M  V30 721 C 69.7127 1.7399 2.98029 0
M  V30 722 C 68.8257 3.01172 3.09708 0
M  V30 723 C 67.9607 2.99686 4.38591 0
M  V30 724 C 66.9997 4.21434 4.43914 0
M  V30 725 N 66.1367 4.1784 5.64229 0
M  V30 726 H 70.9767 2.60459 1.44793 0
M  V30 727 H 68.5137 1.29137 0.704423 0
M  V30 728 H 70.4717 1.76352 3.78095 0
M  V30 729 H 69.1017 0.834301 3.11832 0
M  V30 730 H 68.1537 3.08408 2.22685 0
M  V30 731 H 69.4657 3.91165 3.09502 0
M  V30 732 H 68.6197 3.00628 5.2698 0
M  V30 733 H 67.3587 2.07477 4.41367 0
M  V30 734 H 66.3637 4.20733 3.53926 0
M  V30 735 H 67.5887 5.14839 4.42851 0
M  V30 736 H 65.5347 3.28469 5.67841 0
M  V30 737 H 65.4517 5.01571 5.65652 0
M  V30 738 H 66.7197 4.22889 6.54817 0
M  V30 739 N 70.9488 -0.749086 1.3866 0
M  V30 740 C 72.2258 -1.4992 1.25632 0
M  V30 741 C 72.6058 -2.10633 -0.140317 0
M  V30 742 O 71.9538 -1.97437 -1.15025 0
M  V30 743 C 72.1638 -2.56195 2.36992 0
M  V30 744 C 73.5118 -3.22972 2.75634 0
M  V30 745 O 74.5358 -2.66502 2.36337 0
M  V30 746 O 73.3948 -4.25122 3.43415 0
M  V30 747 H 70.4888 -0.665067 0.491544 0
M  V30 748 H 73.0348 -0.784113 1.50498 0
M  V30 749 H 71.8068 -2.09612 3.30422 0
M  V30 750 H 71.4298 -3.35279 2.13714 0
M  V30 751 N 72.4269 -1.23603 -0.977757 0
M  V30 752 C 73.6749 -1.06759 -1.71601 0
M  V30 753 C 73.9959 0.395929 -1.90938 0
M  V30 754 O 73.2659 1.28356 -1.47992 0
M  V30 755 H 71.8459 -0.392062 -0.635843 0
M  V30 756 H 74.5079 -1.55362 -1.1768 0
M  V30 757 H 73.6039 -1.55763 -2.70452 0
M  V30 758 N 73.905 1.17692 -1.04816 0
M  V30 759 C 75.151 1.88137 -0.75711 0
M  V30 760 C 75.484 1.80604 0.713841 0
M  V30 761 O 74.759 1.21146 1.52164 0
M  V30 762 C 75.042 3.38318 -1.2334 0
M  V30 763 C 74.895 3.54622 -2.76701 0
M  V30 764 C 76.214 4.32214 -0.829415 0
M  V30 765 H 73.333 0.683163 -0.27651 0
M  V30 766 H 75.975 1.38424 -1.30149 0
M  V30 767 H 74.125 3.80787 -0.770286 0
M  V30 768 H 75.797 3.21194 -3.31107 0
M  V30 769 H 74.04 2.97026 -3.16161 0
M  V30 770 H 74.711 4.60028 -3.05088 0
M  V30 771 H 77.187 3.97565 -1.22805 0
M  V30 772 H 76.063 5.35838 -1.19033 0
M  V30 773 H 76.324 4.41294 0.266891 0
M  V30 774 N 75.3831 0.828654 1.34056 0
M  V30 775 C 76.7941 0.477534 1.8049 0
M  V30 776 C 77.1451 -1.00258 1.6865 0
M  V30 777 O 76.2701 -1.78057 1.22982 0
M  V30 778 C 76.8651 0.860018 3.27703 0
M  V30 779 C 75.4241 0.561185 3.72193 0
M  V30 780 C 74.5711 1.07385 2.55663 0
M  V30 781 H 77.5221 1.0183 1.21722 0
M  V30 782 H 77.5431 0.166038 3.80138 0
M  V30 783 H 77.0551 1.93731 3.36288 0
M  V30 784 H 75.1561 -0.506465 3.69142 0
M  V30 785 H 75.2691 1.10926 4.66082 0
M  V30 786 H 73.6331 0.495149 2.49841 0
M  V30 787 H 74.4161 2.15771 2.67016 0
M  V30 788 N 76.8612 -1.46375 0.584142 0
M  V30 789 C 78.1072 -2.02678 0.0703716 0
M  V30 790 C 78.4402 -1.4545 -1.28678 0
M  V30 791 O 77.7152 -0.62014 -1.84349 0
M  V30 792 C 77.9982 -3.60099 0.00614674 0
M  V30 793 C 77.8512 -4.27709 1.3923 0
M  V30 794 C 79.1702 -4.34598 -0.693742 0
M  V30 795 H 76.2892 -0.736504 0.027047 0
M  V30 796 H 78.9312 -1.74501 0.751615 0
M  V30 797 H 77.0812 -3.84236 -0.574009 0
M  V30 798 H 78.7532 -4.14832 2.01773 0
M  V30 799 H 76.9962 -3.87016 1.95962 0
M  V30 800 H 77.6672 -5.36478 1.29982 0
M  V30 801 H 80.1432 -4.15615 -0.200869 0
M  V30 802 H 79.0192 -5.44318 -0.707714 0
M  V30 803 H 79.2802 -4.05759 -1.75533 0
M  V30 804 N 78.3393 -0.321999 -1.54275 0
M  V30 805 C 79.5863 0.281044 -2.0054 0
M  V30 806 C 79.9143 1.52265 -1.21019 0
M  V30 807 O 79.1693 1.93687 -0.279982 0
M  V30 808 C 79.4683 0.661769 -3.5122 0
M  V30 809 C 79.1343 -0.480482 -4.48333 0
M  V30 810 C 77.7963 -0.794005 -4.74604 0
M  V30 811 C 80.1483 -1.24783 -5.06042 0
M  V30 812 C 77.4763 -1.87763 -5.55844 0
M  V30 813 C 79.8283 -2.32153 -5.88462 0
M  V30 814 C 78.4923 -2.64089 -6.13036 0
M  V30 815 H 77.7623 0.102841 -0.733829 0
M  V30 816 H 80.4093 -0.445453 -1.86247 0
M  V30 817 H 78.7143 1.46867 -3.63232 0
M  V30 818 H 80.4113 1.13989 -3.84457 0
M  V30 819 H 77.0013 -0.226039 -4.28004 0
M  V30 820 H 81.1853 -1.01887 -4.85729 0
M  V30 821 H 76.4413 -2.12954 -5.73115 0
M  V30 822 H 80.6153 -2.92057 -6.32199 0
M  V30 823 H 78.2423 -3.48185 -6.75775 0
M  V30 824 N 79.8174 1.5752 -0.0501392 0
M  V30 825 C 80.7644 2.1147 0.924603 0
M  V30 826 C 81.7344 1.02182 1.30951 0
M  V30 827 O 82.9194 1.29723 1.39916 0
M  V30 828 C 80.0594 2.66337 2.19451 0
M  V30 829 C 79.1724 3.89708 1.86418 0
M  V30 830 C 78.3074 4.32893 3.07859 0
M  V30 831 C 77.3464 5.48967 2.70742 0
M  V30 832 N 76.4834 5.87211 3.84874 0
M  V30 833 H 81.3234 2.94465 0.457639 0
M  V30 834 H 78.8604 1.45531 0.214266 0
M  V30 835 H 80.8184 2.96247 2.93758 0
M  V30 836 H 79.4484 1.86141 2.63726 0
M  V30 837 H 78.5004 3.66396 1.02264 0
M  V30 838 H 79.8124 4.74074 1.55096 0
M  V30 839 H 78.9664 4.6435 3.90466 0
M  V30 840 H 77.7054 3.47336 3.42358 0
M  V30 841 H 76.7104 5.17183 1.86551 0
M  V30 842 H 77.9354 6.3624 2.37436 0
M  V30 843 H 75.8814 5.04607 4.19175 0
M  V30 844 H 75.7984 6.66266 3.57247 0
M  V30 845 H 77.0664 6.23282 4.68123 0
M  V30 846 N 81.2955 -0.223234 1.56011 0
M  V30 847 C 82.5255 -0.963413 1.82762 0
M  V30 848 C 82.9335 -1.78516 0.626804 0
M  V30 849 O 82.2765 -1.78974 -0.414014 0
M  V30 850 C 82.3385 -1.93126 3.0322 0
M  V30 851 C 82.0025 -1.2942 4.38291 0
M  V30 852 C 82.9995 -0.684916 5.15369 0
M  V30 853 C 80.6845 -1.30647 4.85012 0
M  V30 854 C 82.6785 -0.0963971 6.37327 0
M  V30 855 C 80.3655 -0.71411 6.06913 0
M  V30 856 C 81.3635 -0.110123 6.82911 0
M  V30 857 O 81.0515 0.47303 8.02507 0
M  V30 858 H 80.7835 -0.288011 0.611576 0
M  V30 859 H 83.3375 -0.244103 2.03944 0
M  V30 860 H 81.5675 -2.68952 2.77852 0
M  V30 861 H 83.2565 -2.53685 3.16857 0
M  V30 862 H 84.0225 -0.667774 4.80381 0
M  V30 863 H 79.9015 -1.76598 4.25833 0
M  V30 864 H 83.4455 0.375657 6.96588 0
M  V30 865 H 79.3425 -0.728659 6.41374 0
M  V30 866 H 80.1105 0.367186 8.17676 0
M  V30 867 N 82.7736 -1.49793 -0.48987 0
M  V30 868 C 83.9986 -1.63836 -1.27172 0
M  V30 869 C 84.4236 -0.31402 -1.8546 0
M  V30 870 O 83.7816 0.719803 -1.66399 0
M  V30 871 C 83.8296 -2.71797 -2.36978 0
M  V30 872 O 82.9336 -2.31744 -3.41128 0
M  V30 873 H 82.2746 -0.547997 -0.37496 0
M  V30 874 H 84.8046 -1.96053 -0.585191 0
M  V30 875 H 84.8146 -2.94305 -2.82575 0
M  V30 876 H 83.4896 -3.67923 -1.93921 0
M  V30 877 H 82.0666 -2.1961 -3.01373 0
M  V30 878 N 84.2517 0.741722 -1.39055 0
M  V30 879 C 85.6677 1.04638 -1.20512 0
M  V30 880 C 85.8677 2.01405 -0.0620218 0
M  V30 881 O 84.9237 2.45547 0.588457 0
M  V30 882 C 86.2367 1.6151 -2.53643 0
M  V30 883 C 87.7847 1.73623 -2.6043 0
M  V30 884 C 88.2597 2.33906 -3.93767 0
M  V30 885 N 89.7507 2.41323 -3.9537 0
M  V30 886 C 90.4857 2.88888 -4.95309 0
M  V30 887 N 89.9817 3.36401 -6.05645 0
M  V30 888 N 91.7747 2.88037 -4.82692 0
M  V30 889 H 83.9257 0.0998155 -2.12165 0
M  V30 890 H 86.1887 0.106907 -0.941953 0
M  V30 891 H 85.8947 0.978739 -3.37807 0
M  V30 892 H 85.7687 2.60411 -2.72885 0
M  V30 893 H 88.1557 2.36384 -1.76655 0
M  V30 894 H 88.2367 0.733945 -2.45045 0
M  V30 895 H 87.8807 1.71776 -4.7797 0
M  V30 896 H 87.8107 3.34799 -4.06469 0
M  V30 897 H 90.3017 2.07734 -3.15682 0
M  V30 898 H 90.6147 3.71186 -6.77821 0
M  V30 899 H 88.9597 3.34427 -6.09248 0
M  V30 900 H 92.1507 2.50237 -3.95599 0
M  V30 901 H 92.3237 3.24792 -5.60726 0
M  V30 902 N 85.7298 1.2412 0.971189 0
M  V30 903 C 86.9758 1.09048 1.71698 0
M  V30 904 C 87.3308 -0.367442 1.88859 0
M  V30 905 O 86.6238 -1.26792 1.43646 0
M  V30 906 C 86.8178 1.75983 3.11071 0
M  V30 907 C 86.6468 3.28133 3.07504 0
M  V30 908 C 85.4168 3.97331 3.1218 0
M  V30 909 C 87.6148 4.24773 2.89952 0
M  V30 910 N 85.5968 5.3639 2.98596 0
M  V30 911 C 86.9678 5.50806 2.84627 0
M  V30 912 C 89.0228 4.15392 2.74506 0
M  V30 913 C 87.7258 6.68533 2.65437 0
M  V30 914 C 89.7518 5.32793 2.56682 0
M  V30 915 C 89.1138 6.57756 2.52063 0
M  V30 916 H 85.2128 0.453632 0.636979 0
M  V30 917 H 87.7968 1.56983 1.15171 0
M  V30 918 H 85.9678 1.30566 3.65796 0
M  V30 919 H 87.6998 1.53803 3.74335 0
M  V30 920 H 84.4548 3.48473 3.20724 0
M  V30 921 H 84.8788 6.09321 2.95054 0
M  V30 922 H 89.5208 3.19543 2.76861 0
M  V30 923 H 87.2388 7.64509 2.61825 0
M  V30 924 H 90.8248 5.27383 2.4568 0
M  V30 925 H 89.7048 7.4707 2.38446 0
M  V30 926 N 87.2079 -1.17134 1.05439 0
M  V30 927 C 88.6239 -1.39454 0.776201 0
M  V30 928 C 88.8239 -1.91454 -0.628307 0
M  V30 929 O 87.8799 -2.10777 -1.39031 0
M  V30 930 C 89.1929 -2.38305 1.83388 0
M  V30 931 C 90.7409 -2.52006 1.85639 0
M  V30 932 C 91.2159 -3.54133 2.90437 0
M  V30 933 N 92.7069 -3.61653 2.89415 0
M  V30 934 C 93.4419 -4.4044 3.67152 0
M  V30 935 N 92.9379 -5.22721 4.54681 0
M  V30 936 N 94.7309 -4.35337 3.55581 0
M  V30 937 H 86.8819 -0.817134 1.96053 0
M  V30 938 H 89.1449 -0.421626 0.849079 0
M  V30 939 H 88.8509 -2.07173 2.84204 0
M  V30 940 H 88.7249 -3.37841 1.67761 0
M  V30 941 H 91.1119 -2.82447 0.85486 0
M  V30 942 H 91.1929 -1.52537 2.05344 0
M  V30 943 H 90.8369 -3.24431 3.90777 0
M  V30 944 H 90.7669 -4.53313 2.67983 0
M  V30 945 H 93.2579 -3.02909 2.25952 0
M  V30 946 H 93.5709 -5.80027 5.10674 0
M  V30 947 H 91.9159 -5.22093 4.58741 0
M  V30 948 H 95.1069 -3.70112 2.86592 0
M  V30 949 H 95.2799 -4.96494 4.1641 0
M  V30 950 N 88.686 -0.835752 -1.33615 0
M  V30 951 C 89.649 -0.272 -2.2758 0
M  V30 952 C 90.649 0.557487 -1.50827 0
M  V30 953 O 91.839 0.37173 -1.70188 0
M  V30 954 C 88.971 0.617173 -3.35267 0
M  V30 955 H 90.164 -1.10111 -2.78954 0
M  V30 956 H 87.717 -0.608594 -1.43965 0
M  V30 957 H 88.452 1.46884 -2.89129 0
M  V30 958 H 88.237 0.0237066 -3.92093 0
M  V30 959 H 89.727 1.005 -4.05326 0
M  V30 960 N 90.1641 1.46063 -0.591896 0
M  V30 961 C 91.1111 2.30399 0.136069 0
M  V30 962 C 92.0811 1.41169 0.875238 0
M  V30 963 O 93.2661 1.70112 0.86409 0
M  V30 964 C 90.4061 3.25804 1.13781 0
M  V30 965 C 89.5191 4.30134 0.401137 0
M  V30 966 C 88.6541 5.12659 1.39121 0
M  V30 967 C 87.6931 6.0873 0.641462 0
M  V30 968 N 86.8301 6.8409 1.58004 0
M  V30 969 H 91.6701 2.92118 -0.589144 0
M  V30 970 H 89.2071 1.43959 -0.302342 0
M  V30 971 H 91.1651 3.79569 1.73156 0
M  V30 972 H 89.7951 2.65872 1.83062 0
M  V30 973 H 88.8471 3.79152 -0.307826 0
M  V30 974 H 90.1591 4.98458 -0.184565 0
M  V30 975 H 89.3131 5.70747 2.05749 0
M  V30 976 H 88.0521 4.44316 2.01084 0
M  V30 977 H 87.0571 5.49786 -0.0385419 0
M  V30 978 H 88.2821 6.79095 0.0270945 0
M  V30 979 H 86.2281 6.18449 2.18761 0
M  V30 980 H 86.1451 7.48709 1.04738 0
M  V30 981 H 87.4131 7.4673 2.23639 0
M  V30 982 N 91.6422 0.330177 1.54103 0
M  V30 983 C 92.8902 -0.269871 2.0029 0
M  V30 984 C 93.2112 -1.52133 1.21986 0
M  V30 985 O 92.4812 -1.93212 0.323438 0
M  V30 986 H 91.0612 -0.10271 0.739905 0
M  V30 987 H 93.7232 0.448249 1.89675 0
M  V30 988 H 92.8192 -0.52166 3.07709 0
M  V30 989 N 93.1203 -1.57491 0.0584922 0
M  V30 990 C 94.0523 -2.08916 -0.942694 0
M  V30 991 C 95.0653 -1.0185 -1.27006 0
M  V30 992 O 96.2543 -1.29398 -1.22957 0
M  V30 993 C 93.3543 -2.52341 -2.26224 0
M  V30 994 C 92.5273 -3.82827 -2.1157 0
M  V30 995 C 91.5863 -4.12487 -3.26712 0
M  V30 996 O 90.6123 -4.82295 -3.02292 0
M  V30 997 N 91.8143 -3.64978 -4.5141 0
M  V30 998 H 94.5793 -2.95437 -0.503722 0
M  V30 999 H 92.1403 -1.61397 -0.12757 0
M  V30 1000 H 94.1323 -2.69254 -3.02133 0
M  V30 1001 H 92.7023 -1.7103 -2.61663 0
M  V30 1002 H 91.9223 -3.75425 -1.20208 0
M  V30 1003 H 93.2103 -4.68263 -1.99015 0
M  V30 1004 H 92.6083 -3.08558 -4.7414 0
M  V30 1005 H 91.1653 -3.87115 -5.2439 0
M  V30 1006 N 94.5984 0.214957 -1.56127 0
M  V30 1007 C 95.5614 1.24997 -1.92116 0
M  V30 1008 C 96.5614 1.39467 -0.800344 0
M  V30 1009 O 97.7514 1.37619 -1.06802 0
M  V30 1010 C 94.8834 2.62271 -2.17777 0
M  V30 1011 H 96.0764 0.942875 -2.84693 0
M  V30 1012 H 93.6294 0.455654 -1.49511 0
M  V30 1013 H 94.3644 2.98068 -1.27773 0
M  V30 1014 H 94.1494 2.53143 -2.99434 0
M  V30 1015 H 95.6394 3.36946 -2.46693 0
M  V30 1016 N 96.0765 1.50051 0.48192 0
M  V30 1017 C 97.0065 1.71046 1.58951 0
M  V30 1018 C 97.9875 0.559288 1.60642 0
M  V30 1019 O 99.1725 0.797243 1.77081 0
M  V30 1020 C 96.3025 1.79462 2.97339 0
M  V30 1021 C 95.2565 2.94558 3.10515 0
M  V30 1022 C 94.5825 2.88105 4.50444 0
M  V30 1023 C 95.8825 4.35227 2.88747 0
M  V30 1024 H 97.5765 2.6378 1.41635 0
M  V30 1025 H 95.1225 1.26936 0.679942 0
M  V30 1026 H 97.0755 1.92734 3.74742 0
M  V30 1027 H 95.7995 0.833412 3.15788 0
M  V30 1028 H 94.4585 2.80918 2.35543 0
M  V30 1029 H 94.1065 1.89853 4.65795 0
M  V30 1030 H 93.8065 3.65366 4.60197 0
M  V30 1031 H 95.3305 3.03412 5.29881 0
M  V30 1032 H 96.7445 4.49449 3.55905 0
M  V30 1033 H 95.1415 5.13856 3.09955 0
M  V30 1034 H 96.2115 4.48347 1.84696 0
M  V30 1035 N 97.5546 -0.734337 1.39446 0
M  V30 1036 C 98.9656 -1.31264 1.32766 0
M  V30 1037 C 99.3166 -1.96198 -0.00767497 0
M  V30 1038 O 98.4416 -1.96346 -0.909796 0
M  V30 1039 C 99.0366 -2.38682 2.4045 0
M  V30 1040 C 97.5956 -2.92184 2.37288 0
M  V30 1041 C 96.7426 -1.6576 2.22304 0
M  V30 1042 H 99.6936 -0.531799 1.49525 0
M  V30 1043 H 99.7146 -3.19087 2.07276 0
M  V30 1044 H 99.2266 -1.91392 3.37625 0
M  V30 1045 H 97.3276 -3.43752 1.43754 0
M  V30 1046 H 97.4406 -3.45253 3.3217 0
M  V30 1047 H 95.8046 -1.9012 1.69489 0
M  V30 1048 H 96.5876 -1.20521 3.21449 0
M  V30 1049 N 99.0327 -1.24633 -0.964593 0
M  V30 1050 C 100.31 -0.995809 -1.68354 0
M  V30 1051 C 100.69 0.480964 -2.05548 0
M  V30 1052 O 100.038 1.45599 -1.76105 0
M  V30 1053 C 100.248 -1.92177 -2.91323 0
M  V30 1054 C 101.596 -2.19446 -3.63495 0
M  V30 1055 O 102.62 -1.89855 -3.01386 0
M  V30 1056 O 101.479 -2.69714 -4.75307 0
M  V30 1057 H 98.5727 -0.376854 -0.736146 0
M  V30 1058 H 101.119 -1.35745 -1.0184 0
M  V30 1059 H 99.8907 -2.91938 -2.60553 0
M  V30 1060 H 99.5137 -1.56349 -3.65569 0
M  V30 1061 N 100.511 1.16574 -1.06058 0
M  V30 1062 C 101.757 1.87324 -0.777022 0
M  V30 1063 C 102.09 1.81351 0.694645 0
M  V30 1064 O 101.365 1.22753 1.50871 0
M  V30 1065 C 101.648 3.36991 -1.26922 0
M  V30 1066 C 101.501 3.51667 -2.80447 0
M  V30 1067 C 102.82 4.3131 -0.87521 0
M  V30 1068 H 99.9388 0.680191 -0.28374 0
M  V30 1069 H 102.581 1.37036 -1.3161 0
M  V30 1070 H 100.731 3.79949 -0.81063 0
M  V30 1071 H 102.403 3.17664 -3.34495 0
M  V30 1072 H 100.646 2.93656 -3.19294 0
M  V30 1073 H 101.317 4.56766 -3.0995 0
M  V30 1074 H 103.793 3.9624 -1.27014 0
M  V30 1075 H 102.669 5.34545 -1.2471 0
M  V30 1076 H 102.93 4.41552 0.220071 0
M  V30 1077 N 101.989 0.842826 1.3317 0
M  V30 1078 C 103.235 0.441099 1.97945 0
M  V30 1079 C 103.568 -0.998024 1.66593 0
M  V30 1080 O 102.843 -1.69839 0.947898 0
M  V30 1081 C 103.126 0.666841 3.53872 0
M  V30 1082 C 102.979 2.15352 3.94897 0
M  V30 1083 C 104.298 0.115544 4.39948 0
M  V30 1084 H 101.417 0.161739 0.719034 0
M  V30 1085 H 104.059 1.05907 1.57746 0
M  V30 1086 H 102.209 0.140828 3.88245 0
M  V30 1087 H 103.881 2.7447 3.70761 0
M  V30 1088 H 102.124 2.63653 3.44484 0
M  V30 1089 H 102.795 2.26221 5.03516 0
M  V30 1090 H 105.271 0.565213 4.12243 0
M  V30 1091 H 104.147 0.303152 5.48062 0
M  V30 1092 H 104.408 -0.980935 4.3108 0
M  V30 1093 N 103.467 -1.45747 0.599634 0
M  V30 1094 C 104.43 -2.28917 -0.113835 0
M  V30 1095 C 105.43 -1.3933 -0.802729 0
M  V30 1096 O 106.62 -1.61534 -0.652103 0
M  V30 1097 C 103.752 -3.20152 -1.17114 0
M  V30 1098 H 104.945 -2.93478 0.617289 0
M  V30 1099 H 102.498 -1.52137 0.358327 0
M  V30 1100 H 103.233 -2.60374 -1.93329 0
M  V30 1101 H 103.018 -3.86133 -0.681468 0
M  V30 1102 H 104.508 -3.82708 -1.67105 0
M  V30 1103 N 104.945 -0.338344 -1.53925 0
M  V30 1104 C 105.892 0.520845 -2.24846 0
M  V30 1105 C 106.862 1.09976 -1.24477 0
M  V30 1106 O 108.047 1.13735 -1.53196 0
M  V30 1107 C 105.187 1.6685 -3.02084 0
M  V30 1108 C 104.3 1.11739 -4.17299 0
M  V30 1109 C 103.435 2.23193 -4.82036 0
M  V30 1110 C 102.474 1.65407 -5.89328 0
M  V30 1111 N 101.611 2.70582 -6.47866 0
M  V30 1112 H 106.451 -0.0904881 -2.97863 0
M  V30 1113 H 103.988 -0.0564282 -1.46992 0
M  V30 1114 H 105.946 2.34407 -3.45122 0
M  V30 1115 H 104.576 2.2509 -2.31375 0
M  V30 1116 H 103.628 0.332919 -3.7894 0
M  V30 1117 H 104.94 0.654677 -4.94485 0
M  V30 1118 H 104.094 2.98626 -5.28117 0
M  V30 1119 H 102.833 2.72807 -4.04262 0
M  V30 1120 H 101.838 0.884779 -5.42634 0
M  V30 1121 H 103.063 1.16652 -6.69006 0
M  V30 1122 H 101.009 3.1946 -5.72959 0
M  V30 1123 H 100.926 2.28917 -7.20509 0
M  V30 1124 H 102.194 3.45799 -6.98601 0
M  V30 1125 N 106.423 1.57458 -0.0668435 0
M  V30 1126 C 107.653 1.97337 0.611677 0
M  V30 1127 C 108.061 0.943744 1.63982 0
M  V30 1128 O 107.404 -0.0785584 1.83532 0
M  V30 1129 C 107.466 3.33511 1.34205 0
M  V30 1130 C 107.13 4.54598 0.467941 0
M  V30 1131 C 108.127 5.19186 -0.272439 0
M  V30 1132 C 105.812 5.0075 0.39427 0
M  V30 1133 C 107.806 6.28274 -1.07476 0
M  V30 1134 C 105.493 6.09711 -0.411729 0
M  V30 1135 C 106.491 6.73335 -1.14492 0
M  V30 1136 O 106.179 7.80199 -1.93763 0
M  V30 1137 H 105.911 0.654042 0.170893 0
M  V30 1138 H 108.465 2.04961 -0.134289 0
M  V30 1139 H 106.695 3.22487 2.13398 0
M  V30 1140 H 108.384 3.58029 1.91233 0
M  V30 1141 H 109.15 4.84477 -0.225086 0
M  V30 1142 H 105.029 4.51009 0.954569 0
M  V30 1143 H 108.573 6.77866 -1.64755 0
M  V30 1144 H 104.47 6.43854 -0.460664 0
M  V30 1145 H 105.238 7.97053 -1.86142 0
M  V30 1146 N 107.901 -0.206675 1.56239 0
M  V30 1147 C 108.833 -1.27997 1.9013 0
M  V30 1148 C 109.846 -1.42299 0.790883 0
M  V30 1149 O 111.035 -1.42931 1.06925 0
M  V30 1150 C 108.135 -2.65368 2.10792 0
M  V30 1151 C 107.308 -2.72824 3.41886 0
M  V30 1152 C 106.367 -3.9131 3.51799 0
M  V30 1153 O 105.393 -3.78953 4.24716 0
M  V30 1154 N 106.595 -5.06265 2.84035 0
M  V30 1155 H 109.36 -0.992444 2.82791 0
M  V30 1156 H 106.921 -0.396652 1.56966 0
M  V30 1157 H 108.913 -3.43039 2.14724 0
M  V30 1158 H 107.483 -2.86657 1.24685 0
M  V30 1159 H 106.703 -1.81515 3.49923 0
M  V30 1160 H 107.991 -2.74786 4.28217 0
M  V30 1161 H 107.389 -5.19203 2.246 0
M  V30 1162 H 105.946 -5.81925 2.93609 0
M  V30 1163 N 109.379 -1.50304 -0.473955 0
M  V30 1164 C 110.342 -1.6841 -1.55469 0
M  V30 1165 C 111.342 -0.554905 -1.50922 0
M  V30 1166 O 112.532 -0.821882 -1.53593 0
M  V30 1167 C 109.664 -1.70667 -2.95102 0
M  V30 1168 H 110.857 -2.64828 -1.40733 0
M  V30 1169 H 108.41 -1.39742 -0.700132 0
M  V30 1170 H 109.145 -0.75932 -3.15285 0
M  V30 1171 H 108.93 -2.52698 -2.9981 0
M  V30 1172 H 110.42 -1.8664 -3.73571 0
M  V30 1173 N 110.857 0.726932 -1.39834 0
M  V30 1174 C 111.787 1.85405 -1.41941 0
M  V30 1175 C 112.768 1.67751 -0.281728 0
M  V30 1176 O 113.953 1.8795 -0.488717 0
M  V30 1177 C 111.083 3.23243 -1.2701 0
M  V30 1178 C 110.037 3.55549 -2.38262 0
M  V30 1179 C 109.363 4.9241 -2.08415 0
M  V30 1180 C 110.663 3.577 -3.80589 0
M  V30 1181 H 112.357 1.83899 -2.36266 0
M  V30 1182 H 109.903 0.883349 -1.13723 0
M  V30 1183 H 111.856 4.01775 -1.27103 0
M  V30 1184 H 110.58 3.25296 -0.291564 0
M  V30 1185 H 109.239 2.79351 -2.37399 0
M  V30 1186 H 108.887 4.91052 -1.0898 0
M  V30 1187 H 108.587 5.14992 -2.82943 0
M  V30 1188 H 110.111 5.73289 -2.10171 0
M  V30 1189 H 111.525 4.26293 -3.83337 0
M  V30 1190 H 109.922 3.91804 -4.54543 0
M  V30 1191 H 110.992 2.57328 -4.10987 0
M  V30 1192 N 112.336 1.25143 0.95797 0
M  V30 1193 C 113.584 1.09476 1.69881 0
M  V30 1194 C 113.905 -0.365502 1.91544 0
M  V30 1195 O 113.175 -1.25985 1.50015 0
M  V30 1196 H 111.755 0.402128 0.629525 0
M  V30 1197 H 114.417 1.57214 1.15194 0
M  V30 1198 H 113.513 1.60046 2.6794 0
M  V30 1199 N 113.814 -1.1601 1.06675 0
M  V30 1200 C 114.777 -2.18724 0.685001 0
M  V30 1201 C 115.777 -1.58496 -0.271246 0
M  V30 1202 O 116.967 -1.74119 -0.0531156 0
M  V30 1203 C 114.099 -3.40899 0.00853648 0
M  V30 1204 H 115.292 -2.54011 1.59431 0
M  V30 1205 H 112.845 -1.30352 0.862441 0
M  V30 1206 H 113.58 -3.11173 -0.913337 0
M  V30 1207 H 113.365 -3.8587 0.696204 0
M  V30 1208 H 114.855 -4.16886 -0.24414 0
M  V30 1209 N 115.292 -0.849877 -1.32721 0
M  V30 1210 C 116.202 -0.293791 -2.32753 0
M  V30 1211 C 117.218 0.585906 -1.63839 0
M  V30 1212 O 118.394 0.487413 -1.95413 0
M  V30 1213 C 115.459 0.512752 -3.42887 0
M  V30 1214 C 114.52 -0.39252 -4.27502 0
M  V30 1215 C 113.753 0.375625 -5.32377 0
M  V30 1216 O 113.976 1.60613 -5.4732 0
M  V30 1217 O 112.91 -0.256094 -6.01355 0
M  V30 1218 H 116.736 -1.12242 -2.82197 0
M  V30 1219 H 114.321 -0.612685 -1.36259 0
M  V30 1220 H 116.203 0.970704 -4.10067 0
M  V30 1221 H 114.878 1.31826 -2.95641 0
M  V30 1222 H 113.785 -0.898547 -3.63149 0
M  V30 1223 H 115.118 -1.16309 -4.7826 0
M  V30 1224 N 116.77 1.45427 -0.607355 0
M  V30 1225 C 117.7 2.3329 0.0989352 0
M  V30 1226 C 118.681 1.46816 0.859007 0
M  V30 1227 O 119.866 1.75588 0.829604 0
M  V30 1228 C 116.996 3.29518 1.09705 0
M  V30 1229 C 115.95 4.25626 0.450206 0
M  V30 1230 C 115.276 5.11542 1.55655 0
M  V30 1231 C 116.576 5.18505 -0.628455 0
M  V30 1232 H 118.27 2.92595 -0.634716 0
M  V30 1233 H 115.816 1.40696 -0.306681 0
M  V30 1234 H 117.769 3.89855 1.59971 0
M  V30 1235 H 116.493 2.68372 1.86129 0
M  V30 1236 H 115.152 3.66586 -0.0315886 0
M  V30 1237 H 114.8 4.46765 2.31107 0
M  V30 1238 H 114.5 5.76647 1.12925 0
M  V30 1239 H 116.024 5.74748 2.06148 0
M  V30 1240 H 117.438 5.72916 -0.209877 0
M  V30 1241 H 115.835 5.92085 -0.977489 0
M  V30 1242 H 116.905 4.60948 -1.50514 0
M  V30 1243 N 118.248 0.346503 1.53744 0
M  V30 1244 C 119.196 -0.52422 2.26616 0
M  V30 1245 C 120.19 -1.09948 1.28871 0
M  V30 1246 O 121.396 -1.04488 1.46568 0
M  V30 1247 H 117.771 -0.187743 0.728187 0
M  V30 1248 H 119.742 0.11239 2.98188 0
M  V30 1249 C 118.491 -1.66186 3.05414 0
M  V30 1250 H 117.814 -1.22848 3.80458 0
M  V30 1251 H 119.254 -2.24622 3.59612 0
M  V30 1252 C 117.713 -2.59302 2.1509 0
M  V30 1253 O 118.243 -3.61628 1.74895 0
M  V30 1254 N 116.449 -2.28055 1.8011 0
M  V30 1255 H 115.996 -1.44883 2.12994 0
M  V30 1256 H 115.954 -2.90615 1.19958 0
M  V30 1257 N 119.726 -1.57421 0.075193 0
M  V30 1258 C 120.972 -1.93905 -0.594025 0
M  V30 1259 C 121.305 -0.955701 -1.69056 0
M  V30 1260 O 120.58 0.0145373 -1.94495 0
M  V30 1261 C 120.863 -3.40638 -1.1678 0
M  V30 1262 C 120.716 -4.49733 -0.0776792 0
M  V30 1263 C 122.035 -3.88259 -2.07228 0
M  V30 1264 H 119.154 -0.705105 -0.214466 0
M  V30 1265 H 121.796 -1.8947 0.141854 0
M  V30 1266 H 119.946 -3.44549 -1.79494 0
M  V30 1267 H 121.618 -4.57942 0.555573 0
M  V30 1268 H 119.861 -4.29751 0.591286 0
M  V30 1269 H 120.532 -5.49549 -0.519603 0
M  V30 1270 H 123.008 -3.86376 -1.54445 0
M  V30 1271 H 121.884 -4.91533 -2.44308 0
M  V30 1272 H 122.145 -3.26396 -2.98191 0
M  V30 1273 N 121.204 0.198386 -1.56346 0
M  V30 1274 C 122.134 1.24865 -1.9731 0
M  V30 1275 C 123.115 1.47651 -0.844576 0
M  V30 1276 O 124.3 1.59444 -1.10866 0
M  V30 1277 C 121.43 2.59358 -2.30977 0
M  V30 1278 C 120.384 2.5119 -3.46537 0
M  V30 1279 C 119.71 3.89926 -3.65871 0
M  V30 1280 C 121.01 2.03977 -4.80823 0
M  V30 1281 H 122.704 0.908252 -2.85291 0
M  V30 1282 H 120.25 0.435462 -1.37258 0
M  V30 1283 H 122.203 3.33011 -2.58228 0
M  V30 1284 H 120.927 2.95132 -1.39874 0
M  V30 1285 H 119.586 1.79993 -3.19371 0
M  V30 1286 H 119.234 4.23046 -2.72105 0
M  V30 1287 H 118.934 3.85336 -4.4361 0
M  V30 1288 H 120.458 4.65205 -3.95495 0
M  V30 1289 H 121.872 2.67386 -5.07127 0
M  V30 1290 H 120.269 2.10397 -5.62008 0
M  V30 1291 H 121.339 0.992861 -4.74626 0
M  V30 1292 N 122.682 1.50554 0.465978 0
M  V30 1293 C 124.093 1.54599 1.04671 0
M  V30 1294 C 124.444 0.352488 1.93008 0
M  V30 1295 O 123.569 -0.534044 2.09707 0
M  V30 1296 C 124.164 2.80166 1.90505 0
M  V30 1297 C 122.723 2.86876 2.43678 0
M  V30 1298 C 121.87 2.48947 1.22151 0
M  V30 1299 H 124.821 1.56744 0.248384 0
M  V30 1300 H 124.842 2.62311 2.75633 0
M  V30 1301 H 124.354 3.67013 1.26186 0
M  V30 1302 H 122.455 2.04393 3.11536 0
M  V30 1303 H 122.568 3.89885 2.78436 0
M  V30 1304 H 120.932 2.01498 1.5579 0
M  V30 1305 H 121.715 3.38107 0.594866 0
M  V30 1306 N 124.16 -0.719506 1.40217 0
M  V30 1307 C 125.407 -1.47933 1.38283 0
M  V30 1308 C 125.735 -1.94493 -0.0161536 0
M  V30 1309 O 124.99 -1.68224 -0.999956 0
M  V30 1310 C 125.289 -2.72271 2.31524 0
M  V30 1311 C 124.955 -2.44496 3.78857 0
M  V30 1312 C 123.617 -2.36631 4.18998 0
M  V30 1313 C 125.969 -2.21104 4.71977 0
M  V30 1314 C 123.297 -2.03437 5.503 0
M  V30 1315 C 125.649 -1.89423 6.03574 0
M  V30 1316 C 124.313 -1.80038 6.42762 0
M  V30 1317 H 123.583 -0.541325 0.506012 0
M  V30 1318 H 126.23 -0.824502 1.72842 0
M  V30 1319 H 124.535 -3.42572 1.90137 0
M  V30 1320 H 126.232 -3.30348 2.27313 0
M  V30 1321 H 122.822 -2.51503 3.47051 0
M  V30 1322 H 127.006 -2.26139 4.41786 0
M  V30 1323 H 122.262 -1.94705 5.79569 0
M  V30 1324 H 126.436 -1.70336 6.75247 0
M  V30 1325 H 124.063 -1.54083 7.44421 0
M  V30 1326 N 125.638 -1.25649 -0.95132 0
M  V30 1327 C 126.878 -1.11802 -1.71113 0
M  V30 1328 C 127.242 0.334758 -1.89059 0
M  V30 1329 O 128.443 0.595121 -2.62129 0
M  V30 1330 C 126.714 -1.85512 -3.05483 0
M  V30 1331 S 128.273 -1.87597 -3.96677 0
M  V30 1332 H 125.091 -0.399552 -0.588115 0
M  V30 1333 H 127.693 -1.59222 -1.1344 0
M  V30 1334 H 126.397 -2.90299 -2.90094 0
M  V30 1335 H 125.928 -1.38493 -3.68216 0
M  V30 1336 H 127.943 -0.955389 -4.86916 0
M  V30 1337 N 127.117 1.15442 -1.07289 0
M  V30 1338 C 128.342 1.90638 -0.816828 0
M  V30 1339 C 128.767 1.77445 0.624083 0
M  V30 1340 O 128.125 1.10671 1.43602 0
M  V30 1341 C 128.173 3.39008 -1.22906 0
M  V30 1342 O 127.277 4.10701 -0.373975 0
M  V30 1343 H 126.618 0.593555 -0.297638 0
M  V30 1344 H 129.148 1.46198 -1.43134 0
M  V30 1345 H 129.158 3.89801 -1.20497 0
M  V30 1346 H 127.833 3.47929 -2.27856 0
M  V30 1347 H 126.41 3.70046 -0.460499 0
M  V30 1348 N 128.595 0.856903 1.32268 0
M  V30 1349 C 129.527 0.260412 2.27716 0
M  V30 1350 C 130.54 -0.569137 1.52528 0
M  V30 1351 O 131.729 -0.39326 1.74114 0
M  V30 1352 C 128.829 -0.650477 3.32599 0
M  V30 1353 C 128.002 0.14372 4.37164 0
M  V30 1354 C 127.061 -0.69328 5.21613 0
M  V30 1355 O 126.087 -0.12599 5.69061 0
M  V30 1356 N 127.289 -2.00761 5.44679 0
M  V30 1357 H 130.054 1.08059 2.79541 0
M  V30 1358 H 127.615 0.717103 1.45152 0
M  V30 1359 H 129.607 -1.21581 3.86005 0
M  V30 1360 H 128.177 -1.37133 2.80915 0
M  V30 1361 H 127.397 0.890486 3.8401 0
M  V30 1362 H 128.685 0.68915 5.04111 0
M  V30 1363 H 128.083 -2.49181 5.07863 0
M  V30 1364 H 126.64 -2.52103 6.01072 0
M  V30 1365 N 130.073 -1.45103 0.615059 0
M  V30 1366 C 131.32 -2.02183 0.113179 0
M  V30 1367 C 131.648 -1.48249 -1.25906 0
M  V30 1368 O 130.903 -0.650265 -1.84581 0
M  V30 1369 C 131.202 -3.57386 0.0318797 0
M  V30 1370 C 130.868 -4.30505 1.34077 0
M  V30 1371 C 129.53 -4.50197 1.69929 0
M  V30 1372 C 131.882 -4.72238 2.20546 0
M  V30 1373 C 129.21 -5.08881 2.91988 0
M  V30 1374 C 131.562 -5.32272 3.41861 0
M  V30 1375 C 130.226 -5.50187 3.77956 0
M  V30 1376 H 129.496 -0.739842 0.0414151 0
M  V30 1377 H 132.143 -1.74073 0.798168 0
M  V30 1378 H 130.448 -3.84817 -0.736409 0
M  V30 1379 H 132.145 -3.99264 -0.372712 0
M  V30 1380 H 128.735 -4.15496 1.05173 0
M  V30 1381 H 132.919 -4.56751 1.94146 0
M  V30 1382 H 128.175 -5.20939 3.2005 0
M  V30 1383 H 132.349 -5.63563 4.09109 0
M  V30 1384 H 129.976 -5.95427 4.72622 0
M  V30 1385 N 131.551 -0.354651 -1.53558 0
M  V30 1386 C 132.8 0.239504 -2.00273 0
M  V30 1387 C 133.113 1.50759 -1.24623 0
M  V30 1388 O 134.319 2.17968 -1.61871 0
M  V30 1389 C 132.775 0.477341 -3.5672 0
M  V30 1390 C 132.383 -0.775488 -4.41237 0
M  V30 1391 C 134.127 1.02975 -4.11821 0
M  V30 1392 C 132.034 -0.507838 -5.89216 0
M  V30 1393 H 130.964 0.0932743 -0.748208 0
M  V30 1394 H 133.615 -0.471701 -1.77334 0
M  V30 1395 H 131.997 1.24953 -3.7577 0
M  V30 1396 H 133.171 -1.54963 -4.33962 0
M  V30 1397 H 131.486 -1.25033 -3.97185 0
M  V30 1398 H 134.083 1.24513 -5.2 0
M  V30 1399 H 134.426 1.98862 -3.65731 0
M  V30 1400 H 134.959 0.317994 -3.96527 0
M  V30 1401 H 131.698 -1.43674 -6.39561 0
M  V30 1402 H 131.218 0.228011 -5.99366 0
M  V30 1403 H 132.897 -0.129238 -6.46871 0
M  V30 1404 N 133.029 1.57378 -0.0835403 0
M  V30 1405 C 134.44 1.81261 0.447358 0
M  V30 1406 C 134.791 0.998331 1.68902 0
M  V30 1407 O 133.916 0.224282 2.15235 0
M  V30 1408 C 134.511 3.28767 0.818386 0
M  V30 1409 C 133.07 3.53455 1.29409 0
M  V30 1410 C 132.217 2.75831 0.285024 0
M  V30 1411 H 135.168 1.5566 -0.309115 0
M  V30 1412 H 135.189 3.41459 1.67887 0
M  V30 1413 H 134.701 3.88006 -0.0855019 0
M  V30 1414 H 132.802 2.99534 2.21608 0
M  V30 1415 H 132.915 4.62128 1.2639 0
M  V30 1416 H 131.279 2.42947 0.764767 0
M  V30 1417 H 132.062 3.37813 -0.611341 0
M  V30 1418 N 134.507 -0.190092 1.56449 0
M  V30 1419 C 135.44 -1.26375 1.90012 0
M  V30 1420 C 136.418 -1.43705 0.760765 0
M  V30 1421 O 137.602 -1.59014 1.01226 0
M  V30 1422 C 134.729 -2.62962 2.13468 0
M  V30 1423 C 133.775 -2.62474 3.36169 0
M  V30 1424 S 134.608 -2.13412 4.91137 0
M  V30 1425 C 135.764 -3.51812 5.17667 0
M  V30 1426 H 135.997 -0.977181 2.80782 0
M  V30 1427 H 133.53 -0.393814 1.49293 0
M  V30 1428 H 135.488 -3.41583 2.27664 0
M  V30 1429 H 134.149 -2.88828 1.23439 0
M  V30 1430 H 133.342 -3.62918 3.49723 0
M  V30 1431 H 132.944 -1.91937 3.20992 0
M  V30 1432 H 135.236 -4.47706 5.08494 0
M  V30 1433 H 136.179 -3.43148 6.19399 0
M  V30 1434 H 136.587 -3.46956 4.45288 0
M  V30 1435 N 135.985 -1.50799 -0.457987 0
M  V30 1436 C 136.895 -1.73426 -1.57989 0
M  V30 1437 C 137.911 -0.617745 -1.62665 0
M  V30 1438 O 139.087 -0.897614 -1.80291 0
M  V30 1439 C 136.152 -1.83557 -2.94122 0
M  V30 1440 C 135.213 -3.07345 -2.99729 0
M  V30 1441 C 134.446 -3.16983 -4.29368 0
M  V30 1442 O 134.669 -2.33077 -5.20607 0
M  V30 1443 O 133.603 -4.09812 -4.40837 0
M  V30 1444 H 137.429 -2.68555 -1.41817 0
M  V30 1445 H 135.014 -1.35052 -0.638859 0
M  V30 1446 H 136.896 -1.92326 -3.74952 0
M  V30 1447 H 135.571 -0.916137 -3.10465 0
M  V30 1448 H 134.478 -3.04068 -2.1793 0
M  V30 1449 H 135.811 -3.9891 -2.88326 0
M  V30 1450 N 137.463 0.71206 -1.40597 0
M  V30 1451 C 138.712 1.46754 -1.38369 0
M  V30 1452 C 139.025 1.95598 0.0097839 0
M  V30 1453 O 140.231 2.71059 0.154677 0
M  V30 1454 C 138.687 2.65289 -2.43207 0
M  V30 1455 C 138.295 2.23301 -3.88382 0
M  V30 1456 C 140.039 3.43008 -2.50091 0
M  V30 1457 C 137.946 3.38696 -4.84808 0
M  V30 1458 H 136.876 0.55118 -0.514506 0
M  V30 1459 H 139.527 0.774616 -1.66349 0
M  V30 1460 H 137.909 3.36769 -2.08332 0
M  V30 1461 H 139.083 1.59218 -4.32419 0
M  V30 1462 H 137.398 1.58618 -3.85006 0
M  V30 1463 H 139.995 4.28881 -3.1932 0
M  V30 1464 H 140.338 3.87065 -1.53253 0
M  V30 1465 H 140.871 2.78574 -2.83974 0
M  V30 1466 H 137.61 2.99668 -5.82992 0
M  V30 1467 H 137.13 4.01683 -4.45433 0
M  V30 1468 H 138.809 4.04712 -5.04794 0
M  V30 1469 N 138.941 1.26152 0.944643 0
M  V30 1470 C 140.19 1.10883 1.68487 0
M  V30 1471 C 140.503 -0.348153 1.92477 0
M  V30 1472 O 141.709 -0.621459 2.64292 0
M  V30 1473 C 140.165 1.93624 3.03377 0
M  V30 1474 C 139.773 3.43875 2.87148 0
M  V30 1475 C 141.517 1.86954 3.81115 0
M  V30 1476 C 139.424 4.18875 4.1749 0
M  V30 1477 H 138.354 0.41135 0.631907 0
M  V30 1478 H 141.005 1.50433 1.05082 0
M  V30 1479 H 139.387 1.46904 3.67743 0
M  V30 1480 H 140.561 3.98338 2.31653 0
M  V30 1481 H 138.876 3.51744 2.22856 0
M  V30 1482 H 141.473 2.40275 4.77673 0
M  V30 1483 H 141.816 0.839518 4.07747 0
M  V30 1484 H 142.349 2.31477 3.23517 0
M  V30 1485 H 139.088 5.22332 3.96043 0
M  V30 1486 H 138.608 3.69193 4.72712 0
M  V30 1487 H 140.287 4.27134 4.85968 0
M  V30 1488 N 140.419 -1.14872 1.07899 0
M  V30 1489 C 141.644 -1.90202 0.826926 0
M  V30 1490 C 142.069 -1.77774 -0.614664 0
M  V30 1491 O 141.427 -1.11431 -1.43013 0
M  V30 1492 C 141.475 -3.38352 1.24702 0
M  V30 1493 O 140.579 -4.10497 0.39575 0
M  V30 1494 H 139.92 -0.591968 0.300782 0
M  V30 1495 H 142.45 -1.45437 1.43907 0
M  V30 1496 H 142.46 -3.89156 1.22563 0
M  V30 1497 H 141.135 -3.46715 2.29698 0
M  V30 1498 H 139.712 -3.69796 0.480117 0
M  V30 1499 N 141.898 -0.863906 -1.31812 0
M  V30 1500 C 142.861 -0.320212 -2.26952 0
M  V30 1501 C 143.861 0.525369 -1.51975 0
M  V30 1502 O 145.051 0.335547 -1.70938 0
M  V30 1503 C 142.183 0.545919 -3.365 0
M  V30 1504 H 143.376 -1.16004 -2.76556 0
M  V30 1505 H 140.929 -0.638995 -1.42641 0
M  V30 1506 H 141.664 1.40718 -2.92179 0
M  V30 1507 H 141.449 -0.0594674 -3.92055 0
M  V30 1508 H 142.939 0.918796 -4.07367 0
M  V30 1509 N 143.376 1.44774 -0.622745 0
M  V30 1510 C 144.787 1.85546 -0.207226 0
M  V30 1511 C 145.138 1.52093 1.23944 0
M  V30 1512 O 144.263 0.95492 1.94191 0
M  V30 1513 C 144.858 3.36781 -0.369313 0
M  V30 1514 C 143.417 3.76399 -0.00836847 0
M  V30 1515 C 142.564 2.68664 -0.686651 0
M  V30 1516 H 145.515 1.3536 -0.828454 0
M  V30 1517 H 145.536 3.78453 0.394162 0
M  V30 1518 H 145.048 3.61098 -1.42231 0
M  V30 1519 H 143.149 3.57698 1.04322 0
M  V30 1520 H 143.262 4.7732 -0.412584 0
M  V30 1521 H 141.626 2.54404 -0.122777 0
M  V30 1522 H 142.409 2.95815 -1.74208 0
M  V30 1523 N 144.854 0.36279 1.53368 0
M  V30 1524 C 146.27 0.0116182 1.59596 0
M  V30 1525 C 146.47 -1.47012 1.37803 0
M  V30 1526 O 145.526 -2.23136 1.18181 0
M  V30 1527 C 146.839 0.465052 2.97082 0
M  V30 1528 C 148.387 0.419033 3.10182 0
M  V30 1529 C 148.862 0.848235 4.50077 0
M  V30 1530 N 150.353 0.803183 4.56183 0
M  V30 1531 C 151.088 1.107 5.62613 0
M  V30 1532 N 150.584 1.47996 6.76808 0
M  V30 1533 N 152.377 1.02998 5.52583 0
M  V30 1534 H 144.528 1.32775 1.65785 0
M  V30 1535 H 146.791 0.542518 0.777417 0
M  V30 1536 H 146.497 1.49892 3.18159 0
M  V30 1537 H 146.371 -0.149786 3.76902 0
M  V30 1538 H 148.758 -0.605696 2.88817 0
M  V30 1539 H 148.839 1.06933 2.32377 0
M  V30 1540 H 148.483 1.87107 4.7218 0
M  V30 1541 H 148.413 0.175218 5.26308 0
M  V30 1542 H 150.904 0.52838 3.74188 0
M  V30 1543 H 151.217 1.69613 7.53957 0
M  V30 1544 H 149.562 1.51859 6.78206 0
M  V30 1545 H 152.753 0.737817 4.62249 0
M  V30 1546 H 152.926 1.2701 6.35431 0
M  V30 1547 N 146.332 -1.57332 0.0918853 0
M  V30 1548 C 147.282 -2.10385 -0.87876 0
M  V30 1549 C 148.266 -1.01814 -1.24591 0
M  V30 1550 O 149.458 -1.28093 -1.22152 0
M  V30 1551 C 146.587 -2.68517 -2.13901 0
M  V30 1552 C 145.673 -3.84126 -1.79744 0
M  V30 1553 N 146.064 -4.92288 -1.1613 0
M  V30 1554 C 144.362 -3.93801 -2.09373 0
M  V30 1555 C 145.063 -5.7295 -1.00513 0
M  V30 1556 N 144.039 -5.21876 -1.5214 0
M  V30 1557 H 147.841 -2.91395 -0.38293 0
M  V30 1558 H 145.355 -1.62017 -0.111423 0
M  V30 1559 H 147.352 -3.04852 -2.84378 0
M  V30 1560 H 146.012 -1.88961 -2.64053 0
M  V30 1561 H 147.023 -5.1123 -0.828504 0
M  V30 1562 H 143.7 -3.25249 -2.61762 0
M  V30 1563 H 145.09 -6.69978 -0.507902 0
M  V30 1564 N 147.81 0.181792 -1.56548 0
M  V30 1565 C 149.058 0.89832 -1.81038 0
M  V30 1566 C 149.379 1.83232 -0.667164 0
M  V30 1567 O 148.649 1.93372 0.313673 0
M  V30 1568 H 147.229 0.33471 -0.667816 0
M  V30 1569 H 149.891 0.184116 -1.94028 0
M  V30 1570 H 148.987 1.4815 -2.74696 0
M  V30 1571 N 149.288 1.51039 0.449983 0
M  V30 1572 C 150.513 1.6715 1.22783 0
M  V30 1573 C 150.938 0.363081 1.84563 0
M  V30 1574 O 150.296 -0.675433 1.68249 0
M  V30 1575 C 150.344 2.77985 2.29689 0
M  V30 1576 O 149.448 2.40707 3.34864 0
M  V30 1577 H 148.789 0.557746 0.360299 0
M  V30 1578 H 151.319 1.97535 0.533005 0
M  V30 1579 H 151.329 3.01693 2.74673 0
M  V30 1580 H 150.004 3.72935 1.84098 0
M  V30 1581 H 148.581 2.27523 2.95445 0
M  V30 1582 N 150.766 -0.704594 1.40972 0
M  V30 1583 C 152.015 -1.46018 1.39146 0
M  V30 1584 C 152.328 -1.956 0.000589254 0
M  V30 1585 O 153.534 -2.71137 -0.1403 0
M  V30 1586 C 151.99 -2.63996 2.4461 0
M  V30 1587 C 151.598 -2.21238 3.89561 0
M  V30 1588 C 153.342 -3.41677 2.51907 0
M  V30 1589 C 151.249 -3.3612 4.86598 0
M  V30 1590 H 150.179 -0.548444 0.517422 0
M  V30 1591 H 152.83 -0.765784 1.66757 0
M  V30 1592 H 151.212 -3.3566 2.10115 0
M  V30 1593 H 152.386 -1.56923 4.33257 0
M  V30 1594 H 150.701 -1.56574 3.85841 0
M  V30 1595 H 153.298 -4.27182 3.2159 0
M  V30 1596 H 153.641 -3.86247 1.55303 0
M  V30 1597 H 154.174 -2.77064 2.85448 0
M  V30 1598 H 150.913 -2.96572 5.84573 0
M  V30 1599 H 150.433 -3.99315 4.47557 0
M  V30 1600 H 152.112 -4.02029 5.06934 0
M  V30 1601 N 152.244 -1.26651 -0.937939 0
M  V30 1602 C 153.493 -1.11775 -1.67897 0
M  V30 1603 C 153.806 0.33794 -1.92659 0
M  V30 1604 O 155.012 0.607434 -2.64618 0
M  V30 1605 C 153.468 -1.9523 -3.02346 0
M  V30 1606 C 153.076 -3.45393 -2.8532 0
M  V30 1607 C 154.82 -1.88972 -3.80118 0
M  V30 1608 C 152.727 -4.21083 -4.15263 0
M  V30 1609 H 151.657 -0.414696 -0.629717 0
M  V30 1610 H 154.308 -1.50988 -1.04283 0
M  V30 1611 H 152.69 -1.48853 -3.66959 0
M  V30 1612 H 153.864 -3.99561 -2.29537 0
M  V30 1613 H 152.179 -3.52921 -2.20988 0
M  V30 1614 H 154.776 -2.42805 -4.76392 0
M  V30 1615 H 155.119 -0.86113 -4.07296 0
M  V30 1616 H 155.652 -2.33189 -3.22285 0
M  V30 1617 H 152.391 -5.24425 -3.93267 0
M  V30 1618 H 151.911 -3.71695 -4.70747 0
M  V30 1619 H 153.59 -4.29706 -4.83696 0
M  V30 1620 N 153.722 1.14298 -1.08507 0
M  V30 1621 C 154.952 1.88945 -0.835663 0
M  V30 1622 C 155.36 1.78894 0.615928 0
M  V30 1623 O 154.703 1.1468 1.43506 0
M  V30 1624 C 154.765 3.39585 -1.17994 0
M  V30 1625 C 154.429 3.7342 -2.63451 0
M  V30 1626 C 155.426 3.73454 -3.61702 0
M  V30 1627 C 153.111 4.03368 -2.99332 0
M  V30 1628 C 155.105 4.02961 -4.93864 0
M  V30 1629 C 152.792 4.32538 -4.31687 0
M  V30 1630 C 153.79 4.32318 -5.28763 0
M  V30 1631 O 153.478 4.6078 -6.58739 0
M  V30 1632 H 153.21 0.605307 -0.300965 0
M  V30 1633 H 155.764 1.45673 -1.44806 0
M  V30 1634 H 153.994 3.83315 -0.51055 0
M  V30 1635 H 155.683 3.9554 -0.911182 0
M  V30 1636 H 156.449 3.50403 -3.35325 0
M  V30 1637 H 152.328 4.02692 -2.24411 0
M  V30 1638 H 155.872 4.02704 -5.69627 0
M  V30 1639 H 151.769 4.55059 -4.57812 0
M  V30 1640 H 152.537 4.78492 -6.64069 0
M  V30 1641 N 155.201 0.870884 1.31352 0
M  V30 1642 C 156.151 0.298889 2.26032 0
M  V30 1643 C 157.135 -0.564595 1.50669 0
M  V30 1644 O 158.327 -0.411323 1.72154 0
M  V30 1645 C 155.456 -0.497842 3.39671 0
M  V30 1646 C 154.542 0.378937 4.22404 0
M  V30 1647 N 154.933 1.47284 4.83881 0
M  V30 1648 C 153.231 0.171535 4.4567 0
M  V30 1649 C 153.932 2.01359 5.45738 0
M  V30 1650 N 152.908 1.31047 5.27568 0
M  V30 1651 H 156.71 1.13494 2.71102 0
M  V30 1652 H 154.224 0.718745 1.45629 0
M  V30 1653 H 156.221 -0.924155 4.06528 0
M  V30 1654 H 154.881 -1.33149 2.96144 0
M  V30 1655 H 155.892 1.85575 4.8351 0
M  V30 1656 H 152.569 -0.626091 4.12779 0
M  V30 1657 H 153.959 2.93143 6.0458 0
M  V30 1658 N 156.679 -1.44442 0.630414 0
M  V30 1659 C 158.09 -1.85434 0.217063 0
M  V30 1660 C 158.441 -1.52748 -1.23136 0
M  V30 1661 O 157.566 -0.965205 -1.93682 0
M  V30 1662 C 158.161 -3.36581 0.387168 0
M  V30 1663 C 156.72 -3.76389 0.0283297 0
M  V30 1664 C 155.867 -2.68296 0.700889 0
M  V30 1665 H 158.818 -1.34919 0.83562 0
M  V30 1666 H 158.839 -3.78657 -0.374086 0
M  V30 1667 H 158.351 -3.60339 1.44144 0
M  V30 1668 H 156.452 -3.58246 -1.02423 0
M  V30 1669 H 156.565 -4.77095 0.437892 0
M  V30 1670 H 154.929 -2.54335 0.136267 0
M  V30 1671 H 155.712 -2.94887 1.75774 0
M  V30 1672 N 158.157 -0.370918 -1.53173 0
M  V30 1673 C 159.382 0.220293 -2.06227 0
M  V30 1674 C 159.807 1.41243 -1.24225 0
M  V30 1675 O 159.165 1.79387 -0.262645 0
M  V30 1676 C 159.213 0.586663 -3.55796 0
M  V30 1677 O 158.317 1.68317 -3.76488 0
M  V30 1678 H 157.658 0.0308099 -0.663285 0
M  V30 1679 H 160.188 -0.533068 -1.97534 0
M  V30 1680 H 160.198 0.85617 -3.98916 0
M  V30 1681 H 158.873 -0.285013 -4.14922 0
M  V30 1682 H 157.45 1.40881 -3.45264 0
M  V30 1683 N 159.635 1.57281 -0.100228 0
M  V30 1684 C 160.565 2.17328 0.853857 0
M  V30 1685 C 161.546 1.10804 1.2906 0
M  V30 1686 O 162.731 1.38963 1.35657 0
M  V30 1687 C 159.861 2.75772 2.11109 0
M  V30 1688 C 158.815 3.87713 1.81279 0
M  V30 1689 C 158.141 4.32882 3.13874 0
M  V30 1690 C 159.441 5.10677 1.09574 0
M  V30 1691 H 161.135 2.97305 0.353545 0
M  V30 1692 H 158.681 1.43009 0.168612 0
M  V30 1693 H 160.634 3.16433 2.78296 0
M  V30 1694 H 159.358 1.93057 2.63432 0
M  V30 1695 H 158.017 3.476 1.16489 0
M  V30 1696 H 157.665 3.47051 3.64095 0
M  V30 1697 H 157.365 5.08358 2.94696 0
M  V30 1698 H 158.889 4.7618 3.82211 0
M  V30 1699 H 160.303 5.48474 1.66879 0
M  V30 1700 H 158.7 5.91615 1.00557 0
M  V30 1701 H 159.77 4.84835 0.0793299 0
M  V30 1702 N 161.113 -0.173488 1.56642 0
M  V30 1703 C 162.043 -1.2171 1.99271 0
M  V30 1704 C 163.024 -1.46289 0.867959 0
M  V30 1705 O 164.209 -1.5766 1.13388 0
M  V30 1706 C 161.339 -2.55651 2.35074 0
M  V30 1707 C 160.293 -2.45645 3.50489 0
M  V30 1708 C 159.619 -3.84056 3.72028 0
M  V30 1709 C 160.919 -1.96302 4.84007 0
M  V30 1710 H 162.613 -0.86275 2.867 0
M  V30 1711 H 160.159 -0.413571 1.37933 0
M  V30 1712 H 162.112 -3.2886 2.63494 0
M  V30 1713 H 160.836 -2.92869 1.44552 0
M  V30 1714 H 159.495 -1.7489 3.22194 0
M  V30 1715 H 159.143 -4.18664 2.788 0
M  V30 1716 H 158.843 -3.7823 4.49684 0
M  V30 1717 H 160.367 -4.58854 4.02846 0
M  V30 1718 H 161.781 -2.59284 5.11317 0
M  V30 1719 H 160.178 -2.01429 5.65284 0
M  V30 1720 H 161.248 -0.917226 4.76146 0
M  V30 1721 N 162.591 -1.51276 -0.441967 0
M  V30 1722 C 164.002 -1.56244 -1.02199 0
M  V30 1723 C 164.353 -0.383149 -1.92422 0
M  V30 1724 O 163.478 0.500613 -2.1053 0
M  V30 1725 C 164.073 -2.83162 -1.86024 0
M  V30 1726 C 162.632 -2.90716 -2.39084 0
M  V30 1727 C 161.779 -2.50858 -1.18175 0
M  V30 1728 H 164.73 -1.5712 -0.223416 0
M  V30 1729 H 164.751 -2.66663 -2.71425 0
M  V30 1730 H 164.263 -3.68974 -1.20331 0
M  V30 1731 H 162.364 -2.09323 -3.08244 0
M  V30 1732 H 162.477 -3.94266 -2.72198 0
M  V30 1733 H 160.841 -2.03951 -1.52565 0
M  V30 1734 H 161.624 -3.3901 -0.541001 0
M  V30 1735 N 164.069 0.697108 -1.41344 0
M  V30 1736 C 165.485 1.00751 -1.2378 0
M  V30 1737 C 165.685 2.01105 -0.126066 0
M  V30 1738 O 164.741 2.47295 0.51004 0
M  V30 1739 C 166.054 1.53359 -2.58653 0
M  V30 1740 C 167.602 1.6525 -2.65822 0
M  V30 1741 C 168.077 2.2126 -4.01009 0
M  V30 1742 N 169.568 2.28622 -4.02847 0
M  V30 1743 C 170.303 2.72984 -5.04249 0
M  V30 1744 N 169.799 3.16962 -6.16041 0
M  V30 1745 N 171.592 2.72534 -4.91611 0
M  V30 1746 H 163.743 0.0322662 -2.12375 0
M  V30 1747 H 166.006 0.0768853 -0.944877 0
M  V30 1748 H 165.712 0.870773 -3.4075 0
M  V30 1749 H 165.586 2.51597 -2.81032 0
M  V30 1750 H 167.973 2.30644 -1.84086 0
M  V30 1751 H 168.054 0.655614 -2.47256 0
M  V30 1752 H 167.698 1.56482 -4.83193 0
M  V30 1753 H 167.628 3.21698 -4.16915 0
M  V30 1754 H 170.119 1.97585 -3.22131 0
M  V30 1755 H 170.432 3.49434 -6.89287 0
M  V30 1756 H 168.777 3.14875 -6.1958 0
M  V30 1757 H 171.968 2.37525 -4.0336 0
M  V30 1758 H 172.141 3.06789 -5.70775 0
M  V30 1759 N 165.547 1.27147 0.931209 0
M  V30 1760 C 166.497 1.06227 2.01742 0
M  V30 1761 C 167.481 -0.00859065 1.60898 0
M  V30 1762 O 168.673 0.209537 1.75755 0
M  V30 1763 C 165.802 0.707787 3.35924 0
M  V30 1764 C 164.888 1.81661 3.83223 0
M  V30 1765 N 165.279 3.05564 4.03069 0
M  V30 1766 C 163.577 1.70249 4.12227 0
M  V30 1767 C 164.278 3.77697 4.42403 0
M  V30 1768 N 163.254 3.0544 4.49675 0
M  V30 1769 H 167.056 2.00261 2.15111 0
M  V30 1770 H 164.57 1.1781 1.11779 0
M  V30 1771 H 166.567 0.539043 4.134 0
M  V30 1772 H 165.227 -0.224964 3.2392 0
M  V30 1773 H 166.238 3.41363 3.89476 0
M  V30 1774 H 162.915 0.840329 4.08956 0
M  V30 1775 H 164.305 4.84168 4.65866 0
M  V30 1776 N 167.025 -1.13721 1.09112 0
M  V30 1777 C 168.441 -1.36914 0.820174 0
M  V30 1778 C 168.641 -1.93356 -0.567079 0
M  V30 1779 O 167.697 -2.15093 -1.32255 0
M  V30 1780 C 169.01 -2.3235 1.90877 0
M  V30 1781 C 170.558 -2.45973 1.93562 0
M  V30 1782 C 171.033 -3.44714 3.01556 0
M  V30 1783 N 172.524 -3.52263 3.00775 0
M  V30 1784 C 173.259 -4.28536 3.80978 0
M  V30 1785 N 172.755 -5.07991 4.71081 0
M  V30 1786 N 174.548 -4.23804 3.69251 0
M  V30 1787 H 166.699 -0.754348 1.98553 0
M  V30 1788 H 168.962 -0.3944 0.862063 0
M  V30 1789 H 168.668 -1.98027 2.90651 0
M  V30 1790 H 168.542 -3.32332 1.78424 0
M  V30 1791 H 170.929 -2.79584 0.944286 0
M  V30 1792 H 171.01 -1.45926 2.10093 0
M  V30 1793 H 170.654 -3.11835 4.00901 0
M  V30 1794 H 170.584 -4.44558 2.82269 0
M  V30 1795 H 173.075 -2.95567 2.35475 0
M  V30 1796 H 173.388 -5.63487 5.28869 0
M  V30 1797 H 171.733 -5.07235 4.75119 0
M  V30 1798 H 174.924 -3.60806 2.98222 0
M  V30 1799 H 175.097 -4.82995 4.31995 0
M  V30 1800 N 168.503 -0.877838 -1.30888 0
M  V30 1801 C 169.751 -0.491723 -1.96027 0
M  V30 1802 C 170.072 0.960827 -1.69685 0
M  V30 1803 O 169.342 1.67462 -1.01654 0
M  V30 1804 H 167.922 -0.17885 -0.725273 0
M  V30 1805 H 170.584 -1.11935 -1.59551 0
M  V30 1806 H 169.68 -0.656016 -3.05128 0
M  V30 1807 N 169.982 1.44106 -0.638065 0
M  V30 1808 C 170.945 2.29138 0.0531013 0
M  V30 1809 C 171.945 1.41409 0.765506 0
M  V30 1810 O 173.135 1.63206 0.609046 0
M  V30 1811 C 170.267 3.23144 1.08584 0
M  V30 1812 H 171.46 2.91739 -0.694883 0
M  V30 1813 H 169.013 1.51134 -0.398538 0
M  V30 1814 H 169.748 2.65408 1.86357 0
M  V30 1815 H 169.533 3.87804 0.578852 0
M  V30 1816 H 171.023 3.87004 1.56899 0
M  V30 1817 N 171.46 0.379036 1.52974 0
M  V30 1818 C 172.685 -0.209353 2.06341 0
M  V30 1819 C 173.11 -1.40583 1.24972 0
M  V30 1820 O 172.468 -1.79246 0.272155 0
M  V30 1821 C 172.516 -0.567786 3.56102 0
M  V30 1822 O 171.62 -1.66318 3.77375 0
M  V30 1823 H 170.961 -0.0272919 0.663439 0
M  V30 1824 H 173.491 0.543536 1.97248 0
M  V30 1825 H 173.501 -0.835003 3.99364 0
M  V30 1826 H 172.176 0.307013 4.14765 0
M  V30 1827 H 170.753 -1.39048 3.46006 0
M  V30 1828 N 172.938 -1.57226 0.108567 0
M  V30 1829 C 173.901 -2.13602 -0.831082 0
M  V30 1830 C 174.901 -1.06841 -1.20173 0
M  V30 1831 O 176.091 -1.32666 -1.12895 0
M  V30 1832 C 173.223 -2.66769 -2.12243 0
M  V30 1833 H 174.416 -2.97951 -0.341317 0
M  V30 1834 H 171.969 -1.55667 -0.14057 0
M  V30 1835 H 172.704 -1.85977 -2.65675 0
M  V30 1836 H 172.489 -3.44839 -1.86625 0
M  V30 1837 H 173.979 -3.10332 -2.79435 0
M  V30 1838 N 174.416 0.165178 -1.56732 0
M  V30 1839 C 175.665 0.879143 -1.81532 0
M  V30 1840 C 175.978 1.83144 -0.686842 0
M  V30 1841 O 177.184 2.58823 -0.819944 0
M  V30 1842 C 175.64 1.61388 -3.21686 0
M  V30 1843 C 175.248 0.704904 -4.4242 0
M  V30 1844 C 176.992 2.3157 -3.55774 0
M  V30 1845 C 174.899 1.44022 -5.73595 0
M  V30 1846 H 173.829 0.332033 -0.676957 0
M  V30 1847 H 176.48 0.132008 -1.83025 0
M  V30 1848 H 174.862 2.40599 -3.14529 0
M  V30 1849 H 176.036 -0.0506815 -4.60772 0
M  V30 1850 H 174.351 0.112419 -4.16248 0
M  V30 1851 H 176.948 2.8719 -4.51028 0
M  V30 1852 H 177.291 3.07201 -2.8095 0
M  V30 1853 H 177.824 1.59297 -3.64513 0
M  V30 1854 H 174.563 0.72612 -6.51466 0
M  V30 1855 H 174.083 2.16898 -5.5921 0
M  V30 1856 H 175.762 1.98606 -6.15764 0
M  V30 1857 N 175.894 1.51508 0.433938 0
M  V30 1858 C 176.842 1.73646 1.54757 0
M  V30 1859 C 177.836 0.602854 1.5831 0
M  V30 1860 O 179.042 0.784318 1.62014 0
M  V30 1861 H 175.417 0.548718 0.51421 0
M  V30 1862 H 177.388 2.66991 1.33261 0
M  V30 1863 C 176.137 1.88172 2.92381 0
M  V30 1864 H 175.46 2.74808 2.90381 0
M  V30 1865 H 176.9 2.07672 3.6966 0
M  V30 1866 C 175.359 0.64239 3.30719 0
M  V30 1867 O 175.889 -0.201362 4.01195 0
M  V30 1868 N 174.095 0.485489 2.86516 0
M  V30 1869 H 173.642 1.17318 2.29334 0
M  V30 1870 H 173.6 -0.342482 3.12529 0
M  V30 1871 N 177.372 -0.689602 1.41712 0
M  V30 1872 C 178.618 -1.45041 1.42599 0
M  V30 1873 C 178.973 -1.92366 0.0363764 0
M  V30 1874 O 178.266 -1.67022 -0.938844 0
M  V30 1875 C 178.46 -2.67298 2.37247 0
M  V30 1876 C 178.289 -2.31935 3.85274 0
M  V30 1877 C 177.059 -2.2201 4.53916 0
M  V30 1878 C 179.257 -1.94526 4.76093 0
M  V30 1879 N 177.239 -1.79594 5.87043 0
M  V30 1880 C 178.61 -1.62915 5.98213 0
M  V30 1881 C 180.665 -1.81388 4.63684 0
M  V30 1882 C 179.368 -1.19486 7.09306 0
M  V30 1883 C 181.394 -1.39364 5.74745 0
M  V30 1884 C 180.756 -1.08668 6.95967 0
M  V30 1885 H 176.855 -0.527806 0.577014 0
M  V30 1886 H 179.439 -0.797266 1.77628 0
M  V30 1887 H 177.61 -3.30325 2.04304 0
M  V30 1888 H 179.342 -3.33806 2.28814 0
M  V30 1889 H 176.097 -2.406 4.07932 0
M  V30 1890 H 176.521 -1.60851 6.57614 0
M  V30 1891 H 181.163 -2.03772 3.70455 0
M  V30 1892 H 178.881 -0.958477 8.02396 0
M  V30 1893 H 182.467 -1.2974 5.6715 0
M  V30 1894 H 181.347 -0.766417 7.80446 0
M  V30 1895 N 178.85 -1.27639 -0.924453 0
M  V30 1896 C 180.078 -1.16989 -1.70649 0
M  V30 1897 C 180.493 0.272869 -1.86818 0
M  V30 1898 O 179.85 1.18549 -1.38753 0
M  V30 1899 C 179.901 -1.85229 -3.10439 0
M  V30 1900 O 179.622 -3.23868 -2.95028 0
M  V30 1901 C 181.123 -1.80746 -4.04779 0
M  V30 1902 H 178.343 -0.406595 -0.53378 0
M  V30 1903 H 180.887 -1.68569 -1.15778 0
M  V30 1904 H 179.042 -1.37545 -3.6216 0
M  V30 1905 H 179.456 -3.57889 -3.83426 0
M  V30 1906 H 180.93 -2.33101 -5.00368 0
M  V30 1907 H 181.407 -0.777499 -4.32263 0
M  V30 1908 H 182.013 -2.28059 -3.58984 0
M  V30 1909 N 180.328 1.1314 -1.09713 0
M  V30 1910 C 181.258 2.20748 -0.761102 0
M  V30 1911 C 182.239 1.68061 0.262566 0
M  V30 1912 O 183.424 1.93765 0.129977 0
M  V30 1913 C 180.554 3.46812 -0.184054 0
M  V30 1914 C 179.508 4.12606 -1.13757 0
M  V30 1915 C 178.834 5.33031 -0.422083 0
M  V30 1916 C 180.134 4.59603 -2.48118 0
M  V30 1917 H 181.828 2.49113 -1.66082 0
M  V30 1918 H 179.374 1.19734 -0.799987 0
M  V30 1919 H 181.327 4.21353 0.0631215 0
M  V30 1920 H 180.051 3.17851 0.750868 0
M  V30 1921 H 178.71 3.40036 -1.37007 0
M  V30 1922 H 178.358 5.00335 0.517072 0
M  V30 1923 H 178.058 5.77999 -1.05788 0
M  V30 1924 H 179.582 6.10325 -0.183277 0
M  V30 1925 H 180.996 5.25552 -2.29059 0
M  V30 1926 H 179.393 5.15321 -3.07514 0
M  V30 1927 H 180.463 3.73971 -3.08665 0
M  V30 1928 N 181.806 0.884767 1.30421 0
M  V30 1929 C 183.055 0.499164 1.95426 0
M  V30 1930 C 183.368 -0.95645 1.70621 0
M  V30 1931 O 184.574 -1.44889 2.29607 0
M  V30 1932 C 183.03 0.84177 3.49917 0
M  V30 1933 C 182.638 2.31514 3.83543 0
M  V30 1934 C 184.382 0.525355 4.21237 0
M  V30 1935 C 182.289 2.59939 5.31212 0
M  V30 1936 H 181.219 0.182944 0.73147 0
M  V30 1937 H 183.87 1.07971 1.48373 0
M  V30 1938 H 182.252 0.190311 3.95542 0
M  V30 1939 H 183.426 3.0109 3.48829 0
M  V30 1940 H 181.741 2.59907 3.25326 0
M  V30 1941 H 184.338 0.714762 5.29901 0
M  V30 1942 H 184.681 -0.535222 4.12845 0
M  V30 1943 H 185.214 1.134 3.81294 0
M  V30 1944 H 181.953 3.64736 5.44654 0
M  V30 1945 H 181.473 1.94972 5.67227 0
M  V30 1946 H 183.152 2.45429 5.98643 0
M  V30 1947 N 183.284 -1.43765 0.645699 0
M  V30 1948 C 184.234 -2.27884 -0.0726442 0
M  V30 1949 C 185.218 -1.39483 -0.802086 0
M  V30 1950 O 186.41 -1.63174 -0.685791 0
M  V30 1951 C 183.539 -3.27055 -1.04356 0
M  V30 1952 C 182.625 -4.22944 -0.312985 0
M  V30 1953 N 183.016 -5.01391 0.666386 0
M  V30 1954 C 181.314 -4.42528 -0.55546 0
M  V30 1955 C 182.015 -5.71217 1.09935 0
M  V30 1956 N 180.991 -5.41856 0.435137 0
M  V30 1957 H 184.793 -2.85949 0.678988 0
M  V30 1958 H 182.307 -1.55378 0.472368 0
M  V30 1959 H 184.304 -3.86089 -1.57292 0
M  V30 1960 H 182.964 -2.70551 -1.79534 0
M  V30 1961 H 183.975 -5.07252 1.04481 0
M  V30 1962 H 180.652 -3.97104 -1.28899 0
M  V30 1963 H 182.042 -6.44202 1.90929 0
M  V30 1964 N 184.763 -0.387143 -1.52771 0
M  V30 1965 C 186.011 0.195349 -2.01154 0
M  V30 1966 C 186.332 1.475 -1.27549 0
M  V30 1967 O 185.602 1.91878 -0.394924 0
M  V30 1968 H 184.182 0.075178 -0.743207 0
M  V30 1969 H 186.844 -0.518337 -1.87881 0
M  V30 1970 H 185.94 0.407096 -3.09434 0
M  V30 1971 N 186.241 1.57166 -0.116904 0
M  V30 1972 C 187.518 1.86645 0.585049 0
M  V30 1973 C 187.898 1.0177 1.84949 0
M  V30 1974 O 187.246 0.0960379 2.28298 0
M  V30 1975 C 187.456 3.37736 0.879507 0
M  V30 1976 C 188.804 4.06289 1.23348 0
M  V30 1977 O 189.828 3.42743 0.969836 0
M  V30 1978 O 188.687 5.18455 1.7282 0
M  V30 1979 H 185.781 0.772593 0.295007 0
M  V30 1980 H 188.327 1.69025 -0.151249 0
M  V30 1981 H 187.099 3.91296 -0.0166136 0
M  V30 1982 H 186.722 3.6078 1.67103 0
M  V30 1983 N 187.719 -0.156864 1.56817 0
M  V30 1984 C 188.666 -1.19394 1.97519 0
M  V30 1985 C 189.636 -1.4322 0.841265 0
M  V30 1986 O 190.821 -1.55719 1.10255 0
M  V30 1987 C 187.961 -2.52483 2.35258 0
M  V30 1988 C 187.074 -2.35914 3.61896 0
M  V30 1989 C 186.209 -3.61969 3.88782 0
M  V30 1990 C 185.248 -3.40395 5.08722 0
M  V30 1991 N 184.385 -4.58556 5.31668 0
M  V30 1992 H 189.225 -0.839845 2.85921 0
M  V30 1993 H 186.762 -0.403264 1.41464 0
M  V30 1994 H 188.72 -3.30071 2.55165 0
M  V30 1995 H 187.35 -2.85859 1.49949 0
M  V30 1996 H 186.402 -1.49429 3.49821 0
M  V30 1997 H 187.714 -2.15926 4.49641 0
M  V30 1998 H 186.868 -4.47989 4.09135 0
M  V30 1999 H 185.607 -3.84951 2.9944 0
M  V30 2000 H 184.612 -2.52763 4.88253 0
M  V30 2001 H 185.837 -3.18822 5.99608 0
M  V30 2002 H 183.783 -4.81729 4.45279 0
M  V30 2003 H 183.7 -4.41535 6.13664 0
M  V30 2004 H 184.968 -5.45817 5.5651 0
M  V30 2005 N 189.197 -1.51736 -0.425897 0
M  V30 2006 C 190.144 -1.73875 -1.51776 0
M  V30 2007 C 191.114 -0.580702 -1.55618 0
M  V30 2008 O 192.299 -0.81641 -1.72451 0
M  V30 2009 C 189.439 -1.88012 -2.89388 0
M  V30 2010 C 188.552 -3.15606 -2.94986 0
M  V30 2011 C 187.687 -3.20271 -4.23793 0
M  V30 2012 C 186.726 -4.42134 -4.23302 0
M  V30 2013 N 185.863 -4.44284 -5.43651 0
M  V30 2014 H 190.703 -2.67071 -1.32201 0
M  V30 2015 H 188.24 -1.32351 -0.642008 0
M  V30 2016 H 190.198 -1.9419 -3.69251 0
M  V30 2017 H 188.828 -0.98213 -3.07496 0
M  V30 2018 H 187.88 -3.18681 -2.07717 0
M  V30 2019 H 189.192 -4.05486 -2.90486 0
M  V30 2020 H 188.346 -3.25428 -5.12036 0
M  V30 2021 H 187.085 -2.28299 -4.30965 0
M  V30 2022 H 186.09 -4.3714 -3.3345 0
M  V30 2023 H 187.315 -5.35382 -4.17783 0
M  V30 2024 H 185.261 -3.55188 -5.51523 0
M  V30 2025 H 185.178 -5.27988 -5.41078 0
M  V30 2026 H 186.446 -4.53649 -6.33895 0
M  V30 2027 N 190.675 0.682077 -1.42076 0
M  V30 2028 C 191.923 1.4393 -1.41876 0
M  V30 2029 C 192.244 1.94971 -0.0335599 0
M  V30 2030 O 191.514 1.72591 0.926773 0
M  V30 2031 H 190.094 0.534085 -0.522267 0
M  V30 2032 H 192.756 0.806427 -1.77434 0
M  V30 2033 H 191.852 2.29588 -2.11414 0
M  V30 2034 N 192.153 1.28127 0.917671 0
M  V30 2035 C 193.401 1.14825 1.66312 0
M  V30 2036 C 193.722 -0.304379 1.9261 0
M  V30 2037 O 192.992 -1.21149 1.53947 0
M  V30 2038 H 191.572 0.421953 0.616413 0
M  V30 2039 H 194.234 1.608 1.10134 0
M  V30 2040 H 193.33 1.68489 2.62712 0
M  V30 2041 N 193.631 -1.12557 1.10312 0
M  V30 2042 C 194.878 -1.84038 0.844759 0
M  V30 2043 C 195.206 -1.84026 -0.629668 0
M  V30 2044 O 194.461 -1.28026 -1.48013 0
M  V30 2045 C 194.76 -3.31462 1.33669 0
M  V30 2046 C 194.426 -3.51647 2.82232 0
M  V30 2047 C 193.088 -3.56864 3.22802 0
M  V30 2048 C 195.44 -3.58867 3.77974 0
M  V30 2049 C 192.768 -3.66844 4.57867 0
M  V30 2050 C 195.12 -3.70375 5.1284 0
M  V30 2051 C 193.784 -3.73848 5.52986 0
M  V30 2052 H 193.054 -0.673444 0.309119 0
M  V30 2053 H 195.701 -1.32824 1.37949 0
M  V30 2054 H 194.006 -3.85091 0.721949 0
M  V30 2055 H 195.703 -3.85236 1.11329 0
M  V30 2056 H 192.293 -3.48249 2.49842 0
M  V30 2057 H 196.477 -3.54107 3.47738 0
M  V30 2058 H 191.733 -3.67804 4.88396 0
M  V30 2059 H 195.907 -3.74904 5.86873 0
M  V30 2060 H 193.534 -3.81333 6.57639 0
M  V30 2061 N 195.109 -0.891671 -1.2995 0
M  V30 2062 C 196.334 -0.527932 -2.00568 0
M  V30 2063 C 196.759 0.877969 -1.66353 0
M  V30 2064 O 196.117 1.58301 -0.883762 0
M  V30 2065 C 196.165 -0.717745 -3.53385 0
M  V30 2066 O 195.269 0.233376 -4.11739 0
M  V30 2067 H 194.61 -0.20722 -0.630837 0
M  V30 2068 H 197.14 -1.20105 -1.65638 0
M  V30 2069 H 197.15 -0.619307 -4.03272 0
M  V30 2070 H 195.825 -1.74276 -3.77625 0
M  V30 2071 H 194.402 0.0880706 -3.72796 0
M  V30 2072 N 196.587 1.43421 -0.653314 0
M  V30 2073 C 197.836 2.01032 -0.164076 0
M  V30 2074 C 198.149 1.52147 1.22926 0
M  V30 2075 O 199.355 2.02031 1.81371 0
M  V30 2076 C 197.811 3.59082 -0.24252 0
M  V30 2077 C 197.419 4.1696 -1.63855 0
M  V30 2078 C 199.163 4.24079 0.18911 0
M  V30 2079 C 197.07 5.67304 -1.67092 0
M  V30 2080 H 196 0.751798 -0.0575769 0
M  V30 2081 H 198.651 1.6439 -0.815362 0
M  V30 2082 H 197.033 3.93125 0.476276 0
M  V30 2083 H 198.207 3.94416 -2.38271 0
M  V30 2084 H 196.522 3.64335 -2.01616 0
M  V30 2085 H 199.119 5.34381 0.184775 0
M  V30 2086 H 199.462 3.98005 1.22056 0
M  V30 2087 H 199.995 3.94918 -0.477938 0
M  V30 2088 H 196.734 5.98145 -2.68146 0
M  V30 2089 H 196.254 5.91904 -0.970014 0
M  V30 2090 H 197.933 6.31344 -1.4147 0
M  V30 2091 N 198.065 0.39524 1.52563 0
M  V30 2092 C 199.312 -0.185044 2.01653 0
M  V30 2093 C 199.64 -1.46317 1.28146 0
M  V30 2094 O 198.895 -1.9213 0.372074 0
M  V30 2095 C 199.194 -0.493444 3.53977 0
M  V30 2096 C 198.86 0.69384 4.4553 0
M  V30 2097 C 197.522 1.01954 4.70275 0
M  V30 2098 C 199.874 1.48785 4.99512 0
M  V30 2099 C 197.202 2.14069 5.46252 0
M  V30 2100 C 199.554 2.59965 5.76716 0
M  V30 2101 C 198.218 2.93037 5.99738 0
M  V30 2102 H 197.488 -0.0677123 0.7379 0
M  V30 2103 H 200.135 0.533807 1.8391 0
M  V30 2104 H 198.44 -1.29369 3.69825 0
M  V30 2105 H 200.137 -0.955163 3.89458 0
M  V30 2106 H 196.727 0.429987 4.26438 0
M  V30 2107 H 200.911 1.24946 4.80315 0
M  V30 2108 H 196.167 2.40056 5.62302 0
M  V30 2109 H 200.341 3.21887 6.17545 0
M  V30 2110 H 197.968 3.8003 6.58393 0
M  V30 2111 N 199.544 -1.57102 0.125237 0
M  V30 2112 C 200.79 -1.96488 -0.525753 0
M  V30 2113 C 201.145 -1.00786 -1.6389 0
M  V30 2114 O 200.438 -0.038979 -1.9156 0
M  V30 2115 C 200.632 -3.40096 -1.09862 0
M  V30 2116 C 200.461 -4.4968 -0.0425004 0
M  V30 2117 C 199.231 -5.03781 0.391463 0
M  V30 2118 C 201.429 -5.08936 0.740829 0
M  V30 2119 N 199.411 -5.96948 1.4327 0
M  V30 2120 C 200.782 -5.98105 1.6331 0
M  V30 2121 C 202.837 -4.91576 0.791029 0
M  V30 2122 C 201.54 -6.71774 2.57122 0
M  V30 2123 C 203.566 -5.6593 1.71688 0
M  V30 2124 C 202.928 -6.5479 2.59672 0
M  V30 2125 H 199.027 -0.765072 -0.161831 0
M  V30 2126 H 201.611 -1.93511 0.214801 0
M  V30 2127 H 199.782 -3.43707 -1.80887 0
M  V30 2128 H 201.514 -3.66591 -1.71444 0
M  V30 2129 H 198.269 -4.736 -0.00213584 0
M  V30 2130 H 198.693 -6.48236 1.95243 0
M  V30 2131 H 203.335 -4.22615 0.124915 0
M  V30 2132 H 201.053 -7.39977 3.24744 0
M  V30 2133 H 204.639 -5.54501 1.76125 0
M  V30 2134 H 203.519 -7.11316 3.30149 0
M  V30 2135 N 201.022 0.148545 -1.56898 0
M  V30 2136 C 201.985 1.16736 -1.97244 0
M  V30 2137 C 202.985 1.35947 -0.858777 0
M  V30 2138 O 204.175 1.32966 -1.12542 0
M  V30 2139 C 201.307 2.52798 -2.28705 0
M  V30 2140 H 202.5 0.821279 -2.88435 0
M  V30 2141 H 200.053 0.391831 -1.51309 0
M  V30 2142 H 200.788 2.92381 -1.403 0
M  V30 2143 H 200.573 2.40216 -3.09901 0
M  V30 2144 H 202.063 3.26179 -2.60762 0
M  V30 2145 N 202.5 1.5196 0.417844 0
M  V30 2146 C 203.777 1.56146 1.17803 0
M  V30 2147 C 204.157 0.337275 2.08388 0
M  V30 2148 O 203.505 -0.676447 2.18258 0
M  V30 2149 C 203.715 2.88566 1.96293 0
M  V30 2150 C 205.063 3.41244 2.52662 0
M  V30 2151 O 206.087 2.90247 2.06483 0
M  V30 2152 O 204.946 4.30273 3.36938 0
M  V30 2153 H 202.04 0.628598 0.537395 0
M  V30 2154 H 204.586 1.64283 0.425331 0
M  V30 2155 H 203.358 3.69116 1.2988 0
M  V30 2156 H 202.981 2.83681 2.78587 0
M  V30 2157 N 203.978 -0.674533 1.42435 0
M  V30 2158 C 205.255 -1.4305 1.33402 0
M  V30 2159 C 205.635 -2.11081 -0.0284674 0
M  V30 2160 O 204.983 -2.03257 -1.04397 0
M  V30 2161 C 205.193 -2.43272 2.50239 0
M  V30 2162 C 206.541 -3.07907 2.92367 0
M  V30 2163 O 207.565 -2.53599 2.50132 0
M  V30 2164 O 206.424 -4.0632 3.65467 0
M  V30 2165 H 203.518 -0.638076 0.526106 0
M  V30 2166 H 206.064 -0.703235 1.54443 0
M  V30 2167 H 204.836 -1.91803 3.41068 0
M  V30 2168 H 204.459 -3.23479 2.31186 0
M  V30 2169 N 205.456 -1.28612 -0.910864 0
M  V30 2170 C 206.704 -1.15705 -1.65701 0
M  V30 2171 C 207.025 0.29416 -1.92769 0
M  V30 2172 O 206.295 1.20331 -1.54588 0
M  V30 2173 H 204.875 -0.425216 -0.614167 0
M  V30 2174 H 207.537 -1.61381 -1.0928 0
M  V30 2175 H 206.633 -1.6988 -2.61815 0
M  V30 2176 N 206.934 1.1197 -1.10907 0
M  V30 2177 C 207.864 2.19928 -0.784473 0
M  V30 2178 C 208.845 1.6833 0.244726 0
M  V30 2179 O 210.03 1.93892 0.109418 0
M  V30 2180 C 207.16 3.46597 -0.220827 0
M  V30 2181 C 206.114 4.11376 -1.18127 0
M  V30 2182 C 205.44 5.32554 -0.478594 0
M  V30 2183 C 206.74 4.56945 -2.52979 0
M  V30 2184 H 208.434 2.47337 -1.68715 0
M  V30 2185 H 205.98 1.18879 -0.812642 0
M  V30 2186 H 207.933 4.21396 0.0184278 0
M  V30 2187 H 206.657 3.1863 0.717113 0
M  V30 2188 H 205.316 3.38564 -1.40606 0
M  V30 2189 H 204.964 5.00856 0.463976 0
M  V30 2190 H 204.664 5.76844 -1.11912 0
M  V30 2191 H 206.188 6.10096 -0.248 0
M  V30 2192 H 207.602 5.23093 -2.3462 0
M  V30 2193 H 205.999 5.1203 -3.12962 0
M  V30 2194 H 207.069 3.70676 -3.12614 0
M  V30 2195 N 208.412 0.89855 1.29475 0
M  V30 2196 C 209.689 0.443416 1.90508 0
M  V30 2197 C 210.069 -1.07685 1.81569 0
M  V30 2198 O 209.417 -1.9182 1.24166 0
M  V30 2199 C 209.627 0.956708 3.35631 0
M  V30 2200 C 210.975 0.999728 4.12663 0
M  V30 2201 O 211.999 0.904299 3.4453 0
M  V30 2202 O 210.858 1.14289 5.34416 0
M  V30 2203 H 207.952 0.138025 0.815401 0
M  V30 2204 H 210.498 0.98834 1.37949 0
M  V30 2205 H 209.27 2.00067 3.36287 0
M  V30 2206 H 208.893 0.391728 3.95666 0
M  V30 2207 N 209.89 -1.43072 0.660911 0
M  V30 2208 C 211.118 -2.06067 0.185422 0
M  V30 2209 C 211.533 -1.49582 -1.15198 0
M  V30 2210 O 210.89 -0.630134 -1.71276 0
M  V30 2211 C 210.941 -3.61371 0.0966523 0
M  V30 2212 O 210.662 -4.15758 1.38119 0
M  V30 2213 C 212.163 -4.41455 -0.403996 0
M  V30 2214 H 209.383 -0.664459 0.0934604 0
M  V30 2215 H 211.927 -1.83447 0.90373 0
M  V30 2216 H 210.082 -3.8315 -0.572259 0
M  V30 2217 H 210.496 -5.09499 1.24542 0
M  V30 2218 H 211.97 -5.50437 -0.415045 0
M  V30 2219 H 212.447 -4.15036 -1.43674 0
M  V30 2220 H 213.053 -4.24663 0.232691 0
M  V30 2221 N 211.368 -0.403325 -1.52352 0
M  V30 2222 C 212.616 0.174003 -2.0135 0
M  V30 2223 C 212.937 1.46139 -1.29106 0
M  V30 2224 O 212.207 1.91448 -0.415253 0
M  V30 2225 H 210.787 0.0672911 -0.743963 0
M  V30 2226 H 213.449 -0.538235 -1.87321 0
M  V30 2227 H 212.545 0.374254 -3.09848 0
M  V30 2228 N 212.846 1.57033 -0.133567 0
M  V30 2229 C 214.123 1.87256 0.56522 0
M  V30 2230 C 214.503 1.03726 1.83859 0
M  V30 2231 O 213.851 0.120247 2.28183 0
M  V30 2232 C 214.061 3.3865 0.843636 0
M  V30 2233 C 215.409 4.07574 1.19032 0
M  V30 2234 O 216.433 3.43752 0.933429 0
M  V30 2235 O 215.292 5.20259 1.67312 0
M  V30 2236 H 212.386 0.775678 0.286796 0
M  V30 2237 H 214.932 1.68855 -0.169168 0
M  V30 2238 H 213.704 3.91257 -0.0581149 0
M  V30 2239 H 213.327 3.62532 1.63268 0
M  V30 2240 N 214.325 -0.140222 1.56975 0
M  V30 2241 C 215.255 -1.17456 2.01808 0
M  V30 2242 C 216.236 -1.44415 0.898794 0
M  V30 2243 O 217.421 -1.5522 1.16707 0
M  V30 2244 C 214.551 -2.50607 2.40444 0
M  V30 2245 C 213.505 -2.38155 3.55621 0
M  V30 2246 C 212.831 -3.76078 3.80091 0
M  V30 2247 C 214.131 -1.85991 4.88062 0
M  V30 2248 H 215.825 -0.801743 2.88466 0
M  V30 2249 H 213.371 -0.38422 1.38779 0
M  V30 2250 H 215.324 -3.23197 2.7041 0
M  V30 2251 H 214.048 -2.89737 1.50732 0
M  V30 2252 H 212.707 -1.68016 3.25832 0
M  V30 2253 H 212.355 -4.12656 2.87618 0
M  V30 2254 H 212.055 -3.68606 4.57606 0
M  V30 2255 H 213.579 -4.50206 4.12488 0
M  V30 2256 H 214.993 -2.4838 5.16701 0
M  V30 2257 H 213.39 -1.89393 5.6943 0
M  V30 2258 H 214.46 -0.816023 4.77984 0
M  V30 2259 N 215.803 -1.52179 -0.40978 0
M  V30 2260 C 216.733 -1.78435 -1.5061 0
M  V30 2261 C 217.714 -0.635295 -1.57791 0
M  V30 2262 O 218.899 -0.880823 -1.73076 0
M  V30 2263 C 216.029 -1.93444 -2.88439 0
M  V30 2264 C 214.983 -3.09038 -2.96108 0
M  V30 2265 C 214.309 -3.09268 -4.36185 0
M  V30 2266 C 215.609 -4.48508 -2.67652 0
M  V30 2267 H 217.303 -2.70237 -1.28889 0
M  V30 2268 H 214.849 -1.30036 -0.618605 0
M  V30 2269 H 216.802 -2.10394 -3.65119 0
M  V30 2270 H 215.526 -0.983129 -3.11452 0
M  V30 2271 H 214.185 -2.91837 -2.21872 0
M  V30 2272 H 213.833 -2.11861 -4.56206 0
M  V30 2273 H 213.533 -3.86907 -4.42241 0
M  V30 2274 H 215.057 -3.28348 -5.14801 0
M  V30 2275 H 216.471 -4.65918 -3.34056 0
M  V30 2276 H 214.868 -5.28059 -2.85085 0
M  V30 2277 H 215.938 -4.56649 -1.63095 0
M  V30 2278 N 217.281 0.66697 -1.42791 0
M  V30 2279 C 218.211 1.79218 -1.49677 0
M  V30 2280 C 219.192 1.66405 -0.352623 0
M  V30 2281 O 220.377 1.85708 -0.567993 0
M  V30 2282 C 217.507 3.17565 -1.40605 0
M  V30 2283 C 216.461 3.45124 -2.53127 0
M  V30 2284 C 215.787 4.83127 -2.29112 0
M  V30 2285 C 217.087 3.41236 -3.95418 0
M  V30 2286 H 218.781 1.73713 -2.43853 0
M  V30 2287 H 216.327 0.83432 -1.17367 0
M  V30 2288 H 218.28 3.96022 -1.44029 0
M  V30 2289 H 217.004 3.23767 -0.429271 0
M  V30 2290 H 215.663 2.69031 -2.49034 0
M  V30 2291 H 215.311 4.85988 -1.29709 0
M  V30 2292 H 215.011 5.02528 -3.04531 0
M  V30 2293 H 216.535 5.63859 -2.34297 0
M  V30 2294 H 217.949 4.09651 -4.01073 0
M  V30 2295 H 216.346 3.72173 -4.70752 0
M  V30 2296 H 217.416 2.39665 -4.21532 0
M  V30 2297 N 218.759 1.29093 0.90403 0
M  V30 2298 C 219.691 1.09658 2.01266 0
M  V30 2299 C 220.704 0.0453729 1.62737 0
M  V30 2300 O 221.893 0.289446 1.76138 0
M  V30 2301 C 218.993 0.646278 3.32681 0
M  V30 2302 C 218.166 1.77505 3.99763 0
M  V30 2303 C 217.225 1.31649 5.09465 0
M  V30 2304 O 216.251 2.02045 5.32134 0
M  V30 2305 N 217.453 0.184997 5.80205 0
M  V30 2306 H 220.218 2.05135 2.18494 0
M  V30 2307 H 217.779 1.20975 1.07594 0
M  V30 2308 H 219.771 0.322906 4.0341 0
M  V30 2309 H 218.341 -0.215916 3.11853 0
M  V30 2310 H 217.561 2.26752 3.22455 0
M  V30 2311 H 218.849 2.53198 4.41325 0
M  V30 2312 H 218.247 -0.402021 5.6427 0
M  V30 2313 H 216.804 -0.0790358 6.51752 0
M  V30 2314 N 220.237 -1.11381 1.11499 0
M  V30 2315 C 221.184 -2.17439 0.773887 0
M  V30 2316 C 222.154 -1.64132 -0.254899 0
M  V30 2317 O 223.339 -1.90345 -0.13168 0
M  V30 2318 C 220.479 -3.44373 0.223917 0
M  V30 2319 C 219.592 -4.1168 1.30934 0
M  V30 2320 C 218.727 -5.263 0.71984 0
M  V30 2321 C 217.766 -5.85493 1.78507 0
M  V30 2322 N 216.903 -6.91507 1.21502 0
M  V30 2323 H 221.743 -2.45962 1.68246 0
M  V30 2324 H 219.28 -1.20744 0.840191 0
M  V30 2325 H 221.238 -4.17047 -0.112921 0
M  V30 2326 H 219.868 -3.16232 -0.647851 0
M  V30 2327 H 218.92 -3.37073 1.76312 0
M  V30 2328 H 220.232 -4.51729 2.11524 0
M  V30 2329 H 219.386 -6.05785 0.333094 0
M  V30 2330 H 218.125 -4.87559 -0.117377 0
M  V30 2331 H 217.13 -5.04686 2.18111 0
M  V30 2332 H 218.355 -6.26301 2.62533 0
M  V30 2333 H 216.301 -6.54783 0.399455 0
M  V30 2334 H 216.218 -7.30214 1.95763 0
M  V30 2335 H 217.486 -7.74795 0.855181 0
M  V30 2336 N 221.715 -0.905404 -1.28997 0
M  V30 2337 C 222.625 -0.392246 -2.31298 0
M  V30 2338 C 223.641 0.515889 -1.66176 0
M  V30 2339 O 224.817 0.404093 -1.97304 0
M  V30 2340 C 221.882 0.36686 -3.44754 0
M  V30 2341 C 220.943 -0.573485 -4.25452 0
M  V30 2342 C 220.176 0.149488 -5.33491 0
M  V30 2343 O 220.399 1.37255 -5.5364 0
M  V30 2344 O 219.333 -0.510919 -5.99728 0
M  V30 2345 H 223.159 -1.2411 -2.77183 0
M  V30 2346 H 220.744 -0.669926 -1.33538 0
M  V30 2347 H 222.626 0.795907 -4.13816 0
M  V30 2348 H 221.301 1.19169 -3.00966 0
M  V30 2349 H 220.208 -1.05176 -3.59011 0
M  V30 2350 H 221.541 -1.36489 -4.72897 0
M  V30 2351 N 223.193 1.4272 -0.668489 0
M  V30 2352 C 224.433 2.03497 -0.19194 0
M  V30 2353 C 224.797 1.51684 1.17712 0
M  V30 2354 O 225.998 2.04205 1.74796 0
M  V30 2355 C 224.269 3.56734 -0.218032 0
M  V30 2356 S 225.828 4.38395 0.188438 0
M  V30 2357 H 222.646 0.706542 -0.0794959 0
M  V30 2358 H 225.248 1.74563 -0.880235 0
M  V30 2359 H 223.952 3.91943 -1.2169 0
M  V30 2360 H 223.483 3.90333 0.490303 0
M  V30 2361 H 225.498 4.75345 1.42345 0
M  V30 2362 N 224.671 0.411399 1.52136 0
M  V30 2363 C 225.581 -0.419774 2.30814 0
M  V30 2364 C 226.597 -1.0515 1.38634 0
M  V30 2365 O 227.773 -1.05252 1.71709 0
M  V30 2366 C 224.838 -1.52019 3.11594 0
M  V30 2367 C 223.899 -0.91129 4.19516 0
M  V30 2368 C 223.132 -1.95927 4.96436 0
M  V30 2369 O 223.355 -3.17775 4.73683 0
M  V30 2370 O 222.289 -1.56423 5.81219 0
M  V30 2371 H 226.115 0.221805 3.02889 0
M  V30 2372 H 223.7 0.174547 1.48377 0
M  V30 2373 H 225.582 -2.15898 3.61892 0
M  V30 2374 H 224.257 -2.14633 2.42311 0
M  V30 2375 H 223.164 -0.235157 3.7336 0
M  V30 2376 H 224.497 -0.32904 4.91099 0
M  V30 2377 N 226.149 -1.5696 0.141893 0
M  V30 2378 C 227.395 -1.9625 -0.511248 0
M  V30 2379 C 227.728 -1.02654 -1.64851 0
M  V30 2380 O 227.003 -0.0679676 -1.94381 0
M  V30 2381 C 227.286 -3.45285 -1.02227 0
M  V30 2382 C 227.139 -4.49658 0.113138 0
M  V30 2383 C 228.458 -3.96698 -1.90574 0
M  V30 2384 H 225.577 -0.713567 -0.184367 0
M  V30 2385 H 228.219 -1.88698 0.222087 0
M  V30 2386 H 226.369 -3.51852 -1.64719 0
M  V30 2387 H 228.041 -4.55174 0.749302 0
M  V30 2388 H 226.284 -4.26857 0.773026 0
M  V30 2389 H 226.955 -5.51258 -0.286053 0
M  V30 2390 H 229.431 -3.92578 -1.37918 0
M  V30 2391 H 228.307 -5.01453 -2.2324 0
M  V30 2392 H 228.568 -3.3875 -2.84079 0
M  V30 2393 N 227.627 0.131896 -1.57047 0
M  V30 2394 C 228.557 1.16384 -2.02428 0
M  V30 2395 C 229.538 1.43936 -0.90644 0
M  V30 2396 O 230.723 1.54599 -1.17528 0
M  V30 2397 C 227.853 2.49328 -2.4177 0
M  V30 2398 C 226.807 2.36266 -3.56879 0
M  V30 2399 C 226.133 3.74057 -3.8208 0
M  V30 2400 C 227.433 1.834 -4.89042 0
M  V30 2401 H 229.127 0.786433 -2.88887 0
M  V30 2402 H 226.673 0.376855 -1.38981 0
M  V30 2403 H 228.626 3.21759 -2.7212 0
M  V30 2404 H 227.35 2.88934 -1.52266 0
M  V30 2405 H 226.009 1.66286 -3.26718 0
M  V30 2406 H 225.657 4.11125 -2.89803 0
M  V30 2407 H 225.357 3.66174 -4.59554 0
M  V30 2408 H 226.881 4.48012 -4.1487 0
M  V30 2409 H 228.295 2.45636 -5.18011 0
M  V30 2410 H 226.692 1.8637 -5.70426 0
M  V30 2411 H 227.762 0.790662 -4.7841 0
M  V30 2412 N 229.106 1.52395 0.401703 0
M  V30 2413 C 230.517 1.58899 0.980202 0
M  V30 2414 C 230.868 0.434032 1.91339 0
M  V30 2415 O 229.993 -0.444619 2.11783 0
M  V30 2416 C 230.588 2.87994 1.78451 0
M  V30 2417 C 229.147 2.96953 2.31292 0
M  V30 2418 C 228.294 2.53903 1.11483 0
M  V30 2419 H 231.245 1.57657 0.18168 0
M  V30 2420 H 231.266 2.73765 2.64259 0
M  V30 2421 H 230.778 3.72035 1.10506 0
M  V30 2422 H 228.879 2.17422 3.02586 0
M  V30 2423 H 228.992 4.01344 2.61649 0
M  V30 2424 H 227.356 2.07925 1.47104 0
M  V30 2425 H 228.139 3.40326 0.450928 0
M  V30 2426 N 230.584 -0.659388 1.43143 0
M  V30 2427 C 231.861 -1.41627 1.34912 0
M  V30 2428 C 232.241 -2.11099 -0.00607785 0
M  V30 2429 O 231.589 -2.04353 -1.02236 0
M  V30 2430 C 231.799 -2.40604 2.52805 0
M  V30 2431 C 233.147 -3.04789 2.95616 0
M  V30 2432 O 234.171 -2.50932 2.52807 0
M  V30 2433 O 233.03 -4.02421 3.69756 0
M  V30 2434 H 230.124 -0.63246 0.532844 0
M  V30 2435 H 232.67 -0.686814 1.5518 0
M  V30 2436 H 231.442 -1.88174 3.43083 0
M  V30 2437 H 231.065 -3.21009 2.34604 0
M  V30 2438 N 232.062 -1.29571 -0.897171 0
M  V30 2439 C 233.339 -1.08365 -1.62839 0
M  V30 2440 C 233.719 0.371331 -2.07808 0
M  V30 2441 O 233.067 1.3606 -1.83576 0
M  V30 2442 C 233.277 -2.0735 -2.80726 0
M  V30 2443 C 234.625 -2.38406 -3.51351 0
M  V30 2444 O 235.649 -2.05564 -2.90898 0
M  V30 2445 O 234.508 -2.9453 -4.60341 0
M  V30 2446 H 231.602 -0.415345 -0.715134 0
M  V30 2447 H 234.148 -1.40952 -0.945018 0
M  V30 2448 H 232.92 -3.05339 -2.44711 0
M  V30 2449 H 232.543 -1.75507 -3.56767 0
M  V30 2450 N 233.54 1.10788 -1.12088 0
M  V30 2451 C 234.768 1.86461 -0.896651 0
M  V30 2452 C 235.183 1.80492 0.553912 0
M  V30 2453 O 234.54 1.19102 1.38278 0
M  V30 2454 C 234.591 3.35006 -1.35843 0
M  V30 2455 O 234.312 3.40866 -2.75213 0
M  V30 2456 C 235.813 4.27565 -1.1706 0
M  V30 2457 H 233.033 0.589425 -0.320654 0
M  V30 2458 H 235.577 1.40076 -1.48993 0
M  V30 2459 H 233.732 3.7887 -0.808458 0
M  V30 2460 H 234.146 4.33411 -2.9539 0
M  V30 2461 H 235.62 5.30007 -1.54263 0
M  V30 2462 H 236.097 4.3906 -0.110814 0
M  V30 2463 H 236.703 3.89501 -1.70789 0
M  V30 2464 N 235.018 0.912232 1.28515 0
M  V30 2465 C 236.264 0.545405 1.95328 0
M  V30 2466 C 236.597 -0.908313 1.71649 0
M  V30 2467 O 235.872 -1.64575 1.03659 0
M  V30 2468 C 236.155 0.853483 3.4984 0
M  V30 2469 C 236.008 2.35982 3.82926 0
M  V30 2470 C 237.327 0.348589 4.38717 0
M  V30 2471 H 234.446 0.199626 0.709449 0
M  V30 2472 H 237.088 1.1412 1.5191 0
M  V30 2473 H 235.238 0.34643 3.86952 0
M  V30 2474 H 236.91 2.93738 3.55691 0
M  V30 2475 H 235.153 2.81543 3.30024 0
M  V30 2476 H 235.824 2.52593 4.90816 0
M  V30 2477 H 238.3 0.78294 4.08668 0
M  V30 2478 H 237.176 0.593242 5.45685 0
M  V30 2479 H 237.437 -0.751049 4.35674 0
M  V30 2480 N 236.496 -1.42363 0.676048 0
M  V30 2481 C 237.721 -2.06377 0.205705 0
M  V30 2482 C 238.146 -1.50463 -1.12883 0
M  V30 2483 O 237.504 -0.623619 -1.70237 0
M  V30 2484 C 237.552 -3.60277 0.152655 0
M  V30 2485 O 236.656 -4.02935 -0.87845 0
M  V30 2486 H 235.997 -0.655588 0.105359 0
M  V30 2487 H 238.527 -1.82475 0.925412 0
M  V30 2488 H 238.537 -4.07993 -0.0230675 0
M  V30 2489 H 237.212 -4.00346 1.12675 0
M  V30 2490 H 235.789 -3.66764 -0.673668 0
M  V30 2491 N 237.974 -0.419461 -1.51915 0
M  V30 2492 C 239.202 0.152136 -2.0634 0
M  V30 2493 C 239.617 1.37988 -1.28859 0
M  V30 2494 O 238.974 1.79243 -0.343232 0
M  V30 2495 C 239.025 0.492266 -3.58133 0
M  V30 2496 O 238.746 -0.686736 -4.32684 0
M  V30 2497 C 240.247 1.11648 -4.2901 0
M  V30 2498 H 237.467 0.0158325 -0.670813 0
M  V30 2499 H 240.011 -0.593394 -1.95702 0
M  V30 2500 H 238.166 1.18769 -3.68745 0
M  V30 2501 H 238.58 -0.400341 -5.2297 0
M  V30 2502 H 240.054 1.3046 -5.36362 0
M  V30 2503 H 240.531 2.09251 -3.86148 0
M  V30 2504 H 241.137 0.460958 -4.22795 0
M  V30 2505 N 239.452 1.56882 -0.150215 0
M  V30 2506 C 240.382 2.19935 0.784284 0
M  V30 2507 C 241.363 1.14854 1.25469 0
M  V30 2508 O 242.548 1.43209 1.31168 0
M  V30 2509 C 239.678 2.82349 2.02229 0
M  V30 2510 C 238.632 3.93285 1.68853 0
M  V30 2511 C 237.958 4.42649 2.99944 0
M  V30 2512 C 239.258 5.13904 0.932714 0
M  V30 2513 H 240.952 2.9828 0.258781 0
M  V30 2514 H 238.498 1.43473 0.123029 0
M  V30 2515 H 240.451 3.25126 2.68088 0
M  V30 2516 H 239.175 2.0134 2.57157 0
M  V30 2517 H 237.834 3.5113 1.05371 0
M  V30 2518 H 237.482 3.58458 3.52869 0
M  V30 2519 H 237.182 5.17476 2.78374 0
M  V30 2520 H 238.706 4.88099 3.66868 0
M  V30 2521 H 240.12 5.53506 1.49345 0
M  V30 2522 H 238.517 5.94515 0.81684 0
M  V30 2523 H 239.587 4.84842 -0.0749568 0
M  V30 2524 N 240.93 -0.123565 1.57115 0
M  V30 2525 C 242.16 -0.845233 1.88519 0
M  V30 2526 C 242.568 -1.74168 0.739064 0
M  V30 2527 O 241.911 -1.81244 -0.299355 0
M  V30 2528 C 241.973 -1.73452 3.14888 0
M  V30 2529 C 241.637 -1.01285 4.45635 0
M  V30 2530 C 242.634 -0.355774 5.18681 0
M  V30 2531 C 240.319 -0.99538 4.92339 0
M  V30 2532 C 242.313 0.309114 6.3665 0
M  V30 2533 C 240 -0.32669 6.10226 0
M  V30 2534 C 240.998 0.324406 6.82229 0
M  V30 2535 O 240.686 0.982437 7.97874 0
M  V30 2536 H 240.418 -0.248534 0.628655 0
M  V30 2537 H 242.972 -0.113907 2.05084 0
M  V30 2538 H 241.202 -2.50737 2.94394 0
M  V30 2539 H 242.891 -2.33021 3.32349 0
M  V30 2540 H 243.657 -0.360918 4.83655 0
M  V30 2541 H 239.536 -1.49159 4.36202 0
M  V30 2542 H 243.08 0.8179 6.92789 0
M  V30 2543 H 238.977 -0.319294 6.4471 0
M  V30 2544 H 239.745 0.886454 8.13686 0
M  V30 2545 N 242.408 -1.52605 -0.393616 0
M  V30 2546 C 243.356 -1.77688 -1.50099 0
M  V30 2547 C 244.35 -0.644615 -1.56656 0
M  V30 2548 O 245.556 -0.826997 -1.59877 0
M  V30 2549 H 241.931 -0.562159 -0.499481 0
M  V30 2550 H 243.902 -2.7043 -1.26135 0
M  V30 2551 C 242.651 -1.95858 -2.87289 0
M  V30 2552 H 241.974 -2.8241 -2.82992 0
M  V30 2553 H 243.414 -2.174 -3.64024 0
M  V30 2554 C 241.873 -0.729848 -3.28899 0
M  V30 2555 O 242.403 0.0949217 -4.01588 0
M  V30 2556 N 240.609 -0.561283 -2.85128 0
M  V30 2557 H 240.156 -1.23357 -2.26143 0
M  V30 2558 H 240.114 0.2595 -3.13327 0
M  V30 2559 N 243.887 0.651787 -1.4349 0
M  V30 2560 C 245.303 0.96762 -1.26922 0
M  V30 2561 C 245.503 2.00602 -0.189982 0
M  V30 2562 O 244.559 2.48793 0.431107 0
M  V30 2563 C 245.872 1.45052 -2.63401 0
M  V30 2564 C 247.42 1.5671 -2.70945 0
M  V30 2565 C 247.895 2.0839 -4.07845 0
M  V30 2566 N 249.386 2.1569 -4.09917 0
M  V30 2567 C 250.121 2.56804 -5.12679 0
M  V30 2568 N 249.617 2.97203 -6.25813 0
M  V30 2569 N 251.41 2.56756 -5.00033 0
M  V30 2570 H 243.561 -0.0353158 -2.12371 0
M  V30 2571 H 245.824 0.0467858 -0.946845 0
M  V30 2572 H 245.53 0.761926 -3.43348 0
M  V30 2573 H 245.404 2.42529 -2.88894 0
M  V30 2574 H 247.791 2.2467 -1.9133 0
M  V30 2575 H 247.872 0.57662 -2.49216 0
M  V30 2576 H 247.516 1.41031 -4.87927 0
M  V30 2577 H 247.446 3.08271 -4.26938 0
M  V30 2578 H 249.937 1.87237 -3.28254 0
M  V30 2579 H 250.25 3.27328 -7.00055 0
M  V30 2580 H 248.595 2.95004 -6.29283 0
M  V30 2581 H 251.786 2.24572 -4.10713 0
M  V30 2582 H 251.959 2.88475 -5.80247 0
M  V30 2583 N 245.365 1.30045 0.890287 0
M  V30 2584 C 246.612 1.18561 1.64163 0
M  V30 2585 C 246.94 -0.260852 1.92743 0
M  V30 2586 O 246.195 -1.20376 1.54299 0
M  V30 2587 C 246.494 1.95409 2.99249 0
M  V30 2588 C 246.16 3.45066 2.90242 0
M  V30 2589 C 244.822 3.85878 2.87492 0
M  V30 2590 C 247.174 4.4039 2.78758 0
M  V30 2591 C 244.502 5.20314 2.7109 0
M  V30 2592 C 246.854 5.74928 2.63894 0
M  V30 2593 C 245.518 6.14986 2.59516 0
M  V30 2594 H 244.788 0.433846 0.600715 0
M  V30 2595 H 247.435 1.61088 1.03552 0
M  V30 2596 H 245.74 1.45501 3.63781 0
M  V30 2597 H 247.437 1.8392 3.56334 0
M  V30 2598 H 244.027 3.12631 2.93189 0
M  V30 2599 H 248.211 4.09806 2.79952 0
M  V30 2600 H 243.467 5.50449 2.66112 0
M  V30 2601 H 247.641 6.48434 2.53981 0
M  V30 2602 H 245.268 7.19104 2.46565 0
M  V30 2603 N 246.843 -1.10192 1.12674 0
M  V30 2604 C 247.773 -2.18652 0.819362 0
M  V30 2605 C 248.754 -1.68698 -0.217915 0
M  V30 2606 O 249.939 -1.94041 -0.0785581 0
M  V30 2607 C 247.069 -3.46202 0.27594 0
M  V30 2608 C 246.023 -4.09444 1.24656 0
M  V30 2609 C 245.349 -5.31725 0.563258 0
M  V30 2610 C 246.649 -4.52863 2.60217 0
M  V30 2611 H 248.343 -2.44622 1.72628 0
M  V30 2612 H 245.889 -1.17571 0.831451 0
M  V30 2613 H 247.842 -4.21372 0.0486149 0
M  V30 2614 H 246.566 -3.1973 -0.666331 0
M  V30 2615 H 245.225 -3.36284 1.45974 0
M  V30 2616 H 244.873 -5.0153 -0.384235 0
M  V30 2617 H 244.573 -5.74991 1.21075 0
M  V30 2618 H 246.097 -6.09624 0.34503 0
M  V30 2619 H 247.511 -5.19294 2.42913 0
M  V30 2620 H 245.908 -5.06986 3.21068 0
M  V30 2621 H 246.978 -3.65656 3.18471 0
M  V30 2622 N 248.321 -0.919034 -1.28029 0
M  V30 2623 C 249.568 -0.554934 -1.94748 0
M  V30 2624 C 249.896 0.90231 -1.72304 0
M  V30 2625 O 249.151 1.65767 -1.04018 0
M  V30 2626 C 249.45 -0.816855 -3.4794 0
M  V30 2627 C 249.116 -2.25448 -3.90492 0
M  V30 2628 C 247.778 -2.64752 -4.01821 0
M  V30 2629 C 250.13 -3.18977 -4.12193 0
M  V30 2630 C 247.458 -3.96727 -4.32232 0
M  V30 2631 C 249.81 -4.50523 -4.44086 0
M  V30 2632 C 248.474 -4.89673 -4.53626 0
M  V30 2633 H 247.744 -0.203065 -0.712633 0
M  V30 2634 H 250.391 -1.16136 -1.52265 0
M  V30 2635 H 248.696 -0.127677 -3.91592 0
M  V30 2636 H 250.393 -0.514238 -3.97689 0
M  V30 2637 H 246.983 -1.93952 -3.82205 0
M  V30 2638 H 251.167 -2.89817 -4.02889 0
M  V30 2639 H 246.423 -4.26754 -4.37825 0
M  V30 2640 H 250.597 -5.23005 -4.59825 0
M  V30 2641 H 248.224 -5.91969 -4.76946 0
M  V30 2642 N 249.799 1.42003 -0.683588 0
M  V30 2643 C 251.21 1.84501 -0.285736 0
M  V30 2644 C 251.561 1.57213 1.17382 0
M  V30 2645 O 250.686 1.03642 1.89966 0
M  V30 2646 C 251.281 3.34912 -0.511821 0
M  V30 2647 C 249.84 3.76025 -0.168005 0
M  V30 2648 C 248.987 2.6551 -0.799983 0
M  V30 2649 H 251.938 1.31724 -0.885119 0
M  V30 2650 H 251.959 3.79784 0.233292 0
M  V30 2651 H 251.471 3.54741 -1.57418 0
M  V30 2652 H 249.572 3.61801 0.890567 0
M  V30 2653 H 249.685 4.75141 -0.614661 0
M  V30 2654 H 248.049 2.53654 -0.230568 0
M  V30 2655 H 248.832 2.8816 -1.86597 0
M  V30 2656 N 251.277 0.427512 1.51691 0
M  V30 2657 C 252.187 -0.39527 2.31246 0
M  V30 2658 C 253.203 -1.03674 1.39742 0
M  V30 2659 O 254.379 -1.03425 1.72816 0
M  V30 2660 C 251.444 -1.48706 3.13189 0
M  V30 2661 C 250.505 -0.866743 4.20459 0
M  V30 2662 C 249.738 -1.90651 4.98486 0
M  V30 2663 O 249.961 -3.12733 4.77026 0
M  V30 2664 O 248.895 -1.5025 5.82845 0
M  V30 2665 H 252.721 0.253918 3.02637 0
M  V30 2666 H 250.306 0.190274 1.48183 0
M  V30 2667 H 252.188 -2.12047 3.64162 0
M  V30 2668 H 250.863 -2.12051 2.44573 0
M  V30 2669 H 249.77 -0.195544 3.73589 0
M  V30 2670 H 251.103 -0.276934 4.9142 0
M  V30 2671 N 252.755 -1.56801 0.158532 0
M  V30 2672 C 254.003 -1.96102 -0.488712 0
M  V30 2673 C 254.324 -1.04498 -1.64636 0
M  V30 2674 O 253.594 -0.108783 -1.95598 0
M  V30 2675 H 252.174 -0.724102 -0.183535 0
M  V30 2676 H 254.836 -1.93457 0.236728 0
M  V30 2677 H 253.932 -3.00097 -0.857219 0
M  V30 2678 N 254.233 0.115231 -1.57178 0
M  V30 2679 C 255.482 0.820945 -1.84237 0
M  V30 2680 C 255.795 1.80866 -0.744761 0
M  V30 2681 O 257.001 2.56083 -0.901871 0
M  V30 2682 C 255.457 1.51072 -3.26658 0
M  V30 2683 C 255.065 0.563795 -4.44438 0
M  V30 2684 C 256.809 2.20134 -3.62962 0
M  V30 2685 C 254.716 1.25701 -5.77887 0
M  V30 2686 H 253.646 0.310328 -0.687177 0
M  V30 2687 H 256.297 0.0737134 -1.83352 0
M  V30 2688 H 254.679 2.30471 -3.22024 0
M  V30 2689 H 255.853 -0.197247 -4.60378 0
M  V30 2690 H 254.168 -0.0200638 -4.16395 0
M  V30 2691 H 256.765 2.72696 -4.59936 0
M  V30 2692 H 257.108 2.98107 -2.90582 0
M  V30 2693 H 257.641 1.47619 -3.69396 0
M  V30 2694 H 254.38 0.518493 -6.53446 0
M  V30 2695 H 253.9 1.98997 -5.65827 0
M  V30 2696 H 255.579 1.78915 -6.2177 0
M  V30 2697 N 255.711 1.52812 0.385517 0
M  V30 2698 C 256.658 1.77838 1.47113 0
M  V30 2699 C 257.628 0.621757 1.54024 0
M  V30 2700 O 258.813 0.861846 1.70226 0
M  V30 2701 C 255.953 1.95618 2.84302 0
M  V30 2702 C 255.066 3.23316 2.86515 0
M  V30 2703 C 254.201 3.31394 4.15152 0
M  V30 2704 C 253.24 4.53201 4.1143 0
M  V30 2705 N 252.377 4.58542 5.3168 0
M  V30 2706 H 257.217 2.70482 1.25073 0
M  V30 2707 H 254.754 1.34006 0.606692 0
M  V30 2708 H 256.712 2.03912 3.63972 0
M  V30 2709 H 255.342 1.06331 3.04784 0
M  V30 2710 H 254.394 3.24076 1.99195 0
M  V30 2711 H 255.706 4.13045 2.79634 0
M  V30 2712 H 254.86 3.3889 5.03228 0
M  V30 2713 H 253.599 2.39645 4.24761 0
M  V30 2714 H 252.604 4.45827 3.21742 0
M  V30 2715 H 253.829 5.46271 4.03442 0
M  V30 2716 H 251.775 3.69686 5.41912 0
M  V30 2717 H 251.692 5.42148 5.26889 0
M  V30 2718 H 252.96 4.70296 6.21644 0
M  V30 2719 N 257.189 -0.644168 1.43834 0
M  V30 2720 C 258.437 -1.40117 1.45642 0
M  V30 2721 C 258.758 -1.94814 0.0852413 0
M  V30 2722 O 258.028 -1.74988 -0.880688 0
M  V30 2723 H 256.608 -0.52005 0.536243 0
M  V30 2724 H 259.27 -0.7591 1.7951 0
M  V30 2725 H 258.366 -2.23902 2.17427 0
M  V30 2726 N 258.668 -1.30515 -0.883378 0
M  V30 2727 C 259.601 -1.11359 -1.99184 0
M  V30 2728 C 260.579 -0.0207858 -1.62587 0
M  V30 2729 O 261.763 -0.174646 -1.87689 0
M  V30 2730 C 258.89 -0.69871 -3.31415 0
M  V30 2731 C 257.936 -1.79261 -3.86998 0
M  V30 2732 S 258.769 -3.39536 -4.14096 0
M  V30 2733 C 259.925 -2.99954 -5.49344 0
M  V30 2734 H 260.158 -2.052 -2.15128 0
M  V30 2735 H 257.691 -1.14847 -1.03196 0
M  V30 2736 H 259.649 -0.466075 -4.07846 0
M  V30 2737 H 258.31 0.220368 -3.13326 0
M  V30 2738 H 257.503 -1.45464 -4.82552 0
M  V30 2739 H 257.105 -1.97961 -3.17313 0
M  V30 2740 H 259.397 -2.48013 -6.30473 0
M  V30 2741 H 260.34 -3.9442 -5.8808 0
M  V30 2742 H 260.748 -2.37775 -5.1198 0
M  V30 2743 N 260.146 1.09593 -1.13257 0
M  V30 2744 C 261.392 1.82003 -0.89458 0
M  V30 2745 C 261.725 1.85402 0.577906 0
M  V30 2746 O 261 1.32099 1.42759 0
M  V30 2747 C 261.283 3.28237 -1.48096 0
M  V30 2748 C 261.136 3.3312 -3.02244 0
M  V30 2749 C 262.455 4.24871 -1.14774 0
M  V30 2750 H 259.574 0.66077 -0.326424 0
M  V30 2751 H 262.216 1.28389 -1.40058 0
M  V30 2752 H 260.366 3.74024 -1.05062 0
M  V30 2753 H 262.038 2.95748 -3.54021 0
M  V30 2754 H 260.281 2.72756 -3.37323 0
M  V30 2755 H 260.952 4.3613 -3.38371 0
M  V30 2756 H 263.428 3.87361 -1.51957 0
M  V30 2757 H 262.304 5.25532 -1.58452 0
M  V30 2758 H 262.565 4.42058 -0.0611849 0
M  V30 2759 N 261.624 0.925811 1.2754 0
M  V30 2760 C 262.556 0.380753 2.26015 0
M  V30 2761 C 263.569 -0.487485 1.5533 0
M  V30 2762 O 264.758 -0.300413 1.75954 0
M  V30 2763 C 261.858 -0.473259 3.35579 0
M  V30 2764 C 261.031 0.375249 4.35787 0
M  V30 2765 C 260.09 -0.415809 5.24555 0
M  V30 2766 O 259.116 0.175834 5.68928 0
M  V30 2767 N 260.318 -1.71607 5.54555 0
M  V30 2768 H 263.083 1.22725 2.73421 0
M  V30 2769 H 260.644 0.793037 1.41147 0
M  V30 2770 H 262.636 -1.00949 3.91907 0
M  V30 2771 H 261.206 -1.2205 2.87789 0
M  V30 2772 H 260.426 1.09279 3.7875 0
M  V30 2773 H 261.714 0.955399 4.99749 0
M  V30 2774 H 261.112 -2.2191 5.20358 0
M  V30 2775 H 259.669 -2.19887 6.1359 0
M  V30 2776 N 263.102 -1.41638 0.69111 0
M  V30 2777 C 264.065 -2.29178 0.0319786 0
M  V30 2778 C 265.065 -1.44153 -0.712496 0
M  V30 2779 O 266.255 -1.65354 -0.548053 0
M  V30 2780 C 263.387 -3.26952 -0.965161 0
M  V30 2781 H 264.58 -2.88959 0.802681 0
M  V30 2782 H 262.133 -1.4955 0.454356 0
M  V30 2783 H 262.868 -2.72142 -1.76378 0
M  V30 2784 H 262.653 -3.89685 -0.434522 0
M  V30 2785 H 264.143 -3.92561 -1.42428 0
M  V30 2786 N 264.58 -0.43555 -1.51462 0
M  V30 2787 C 265.826 0.131709 -2.02372 0
M  V30 2788 C 266.159 1.42516 -1.3192 0
M  V30 2789 O 265.434 1.89606 -0.433573 0
M  V30 2790 C 265.717 0.352301 -3.58373 0
M  V30 2791 C 265.57 -0.959676 -4.39443 0
M  V30 2792 C 266.889 1.12286 -4.25535 0
M  V30 2793 H 264.008 0.0463936 -0.735538 0
M  V30 2794 H 266.65 -0.574197 -1.81116 0
M  V30 2795 H 264.8 0.9536 -3.76615 0
M  V30 2796 H 266.472 -1.59482 -4.32855 0
M  V30 2797 H 264.715 -1.56468 -4.04599 0
M  V30 2798 H 265.386 -0.759394 -5.46752 0
M  V30 2799 H 267.862 0.613545 -4.11552 0
M  V30 2800 H 266.738 1.24598 -5.34571 0
M  V30 2801 H 266.999 2.15048 -3.86273 0
M  V30 2802 N 266.058 1.56714 -0.166846 0
M  V30 2803 C 267.474 1.58473 0.189372 0
M  V30 2804 C 267.674 1.18201 1.63189 0
M  V30 2805 O 266.73 0.891528 2.36237 0
M  V30 2806 C 268.043 3.00573 -0.0873872 0
M  V30 2807 C 269.591 3.1299 -0.0252443 0
M  V30 2808 C 270.066 4.57174 -0.274934 0
M  V30 2809 N 271.557 4.62665 -0.222553 0
M  V30 2810 C 272.292 5.72072 -0.389985 0
M  V30 2811 N 271.788 6.90054 -0.616229 0
M  V30 2812 N 273.581 5.61153 -0.326202 0
M  V30 2813 H 265.732 1.8118 -1.10849 0
M  V30 2814 H 267.995 0.839525 -0.440342 0
M  V30 2815 H 267.701 3.34497 -1.0865 0
M  V30 2816 H 267.575 3.72019 0.623037 0
M  V30 2817 H 269.962 2.78895 0.96444 0
M  V30 2818 H 270.043 2.43989 -0.768309 0
M  V30 2819 H 269.687 4.91976 -1.26181 0
M  V30 2820 H 269.617 5.24328 0.48869 0
M  V30 2821 H 272.108 3.77863 -0.0531512 0
M  V30 2822 H 272.421 7.69311 -0.733559 0
M  V30 2823 H 270.766 6.91927 -0.652791 0
M  V30 2824 H 273.957 4.67859 -0.150072 0
M  V30 2825 H 274.13 6.46364 -0.460116 0
M  V30 2826 N 267.536 -0.106894 1.57237 0
M  V30 2827 C 268.466 -1.13148 2.04254 0
M  V30 2828 C 269.447 -1.42476 0.929224 0
M  V30 2829 O 270.632 -1.52709 1.19973 0
M  V30 2830 C 267.762 -2.4545 2.45706 0
M  V30 2831 C 266.716 -2.30558 3.60592 0
M  V30 2832 C 266.042 -3.67931 3.87983 0
M  V30 2833 C 267.342 -1.75597 4.91897 0
M  V30 2834 H 269.036 -0.740374 2.90101 0
M  V30 2835 H 266.582 -0.354696 1.39563 0
M  V30 2836 H 268.535 -3.17389 2.77205 0
M  V30 2837 H 267.259 -2.86475 1.56843 0
M  V30 2838 H 265.918 -1.61067 3.29322 0
M  V30 2839 H 265.566 -4.06462 2.96306 0
M  V30 2840 H 265.266 -3.58817 4.65322 0
M  V30 2841 H 266.79 -4.41356 4.21945 0
M  V30 2842 H 268.204 -2.37364 5.21854 0
M  V30 2843 H 266.601 -1.77272 5.73319 0
M  V30 2844 H 267.671 -0.714451 4.79608 0
M  V30 2845 N 269.014 -1.53014 -0.377408 0
M  V30 2846 C 270.263 -1.67845 -1.11853 0
M  V30 2847 C 270.576 -0.430625 -1.90801 0
M  V30 2848 O 271.782 -0.459261 -2.67587 0
M  V30 2849 C 270.238 -2.96668 -2.03756 0
M  V30 2850 C 269.846 -4.28671 -1.30175 0
M  V30 2851 C 271.59 -3.20865 -2.77932 0
M  V30 2852 C 269.497 -5.48591 -2.20911 0
M  V30 2853 H 268.427 -0.625343 -0.421263 0
M  V30 2854 H 271.078 -1.79514 -0.380409 0
M  V30 2855 H 269.46 -2.78773 -2.8125 0
M  V30 2856 H 270.634 -4.57157 -0.578259 0
M  V30 2857 H 268.949 -4.10825 -0.679108 0
M  V30 2858 H 271.546 -4.07642 -3.46024 0
M  V30 2859 H 271.889 -2.36424 -3.4265 0
M  V30 2860 H 272.422 -3.39379 -2.07525 0
M  V30 2861 H 269.161 -6.35474 -1.6079 0
M  V30 2862 H 268.681 -5.244 -2.91144 0
M  V30 2863 H 270.36 -5.8292 -2.80736 0
M  V30 2864 N 270.492 0.636531 -1.44174 0
M  V30 2865 C 271.455 1.73063 -1.50273 0
M  V30 2866 C 272.455 1.56113 -0.385397 0
M  V30 2867 O 273.645 1.61707 -0.64781 0
M  V30 2868 C 270.777 3.12096 -1.37145 0
M  V30 2869 H 271.97 1.69031 -2.47727 0
M  V30 2870 H 269.523 0.849706 -1.31186 0
M  V30 2871 H 270.258 3.21728 -0.407636 0
M  V30 2872 H 270.043 3.25805 -2.18159 0
M  V30 2873 H 271.533 3.91846 -1.44382 0
M  V30 2874 N 271.97 1.30982 0.876444 0
M  V30 2875 C 272.88 1.2003 2.01569 0
M  V30 2876 C 273.896 0.11838 1.73597 0
M  V30 2877 O 275.072 0.33495 1.98595 0
M  V30 2878 C 272.137 0.901637 3.34771 0
M  V30 2879 C 271.198 2.06979 3.76109 0
M  V30 2880 C 270.431 1.78529 5.02954 0
M  V30 2881 O 270.654 0.717296 5.65872 0
M  V30 2882 O 269.588 2.64019 5.40905 0
M  V30 2883 H 273.414 2.15753 2.13739 0
M  V30 2884 H 270.999 1.10658 1.00375 0
M  V30 2885 H 272.881 0.750645 4.1466 0
M  V30 2886 H 271.556 -0.0256141 3.2369 0
M  V30 2887 H 270.463 2.27616 2.96887 0
M  V30 2888 H 271.796 2.97907 3.91807 0
M  V30 2889 N 273.449 -1.08991 1.13837 0
M  V30 2890 C 274.697 -1.80899 0.901098 0
M  V30 2891 C 275.018 -1.86356 -0.574134 0
M  V30 2892 O 274.288 -1.35235 -1.41733 0
M  V30 2893 H 272.868 -0.669966 0.330386 0
M  V30 2894 H 275.53 -1.318 1.43578 0
M  V30 2895 H 274.626 -2.83929 1.29578 0
M  V30 2896 N 274.927 -0.932562 -1.27047 0
M  V30 2897 C 275.874 -0.434072 -2.26681 0
M  V30 2898 C 276.844 0.501639 -1.58344 0
M  V30 2899 O 278.029 0.419734 -1.86126 0
M  V30 2900 C 275.169 0.30261 -3.43771 0
M  V30 2901 C 274.282 -0.667774 -4.26808 0
M  V30 2902 C 273.417 0.0892393 -5.31125 0
M  V30 2903 C 272.456 -0.873532 -6.05835 0
M  V30 2904 N 271.593 -0.148832 -7.01942 0
M  V30 2905 H 276.433 -1.28868 -2.68695 0
M  V30 2906 H 273.97 -0.646713 -1.32121 0
M  V30 2907 H 275.928 0.746092 -4.10474 0
M  V30 2908 H 274.558 1.12142 -3.02695 0
M  V30 2909 H 273.61 -1.22978 -3.59973 0
M  V30 2910 H 274.922 -1.40337 -4.78651 0
M  V30 2911 H 274.076 0.592409 -6.03801 0
M  V30 2912 H 272.815 0.85777 -4.80097 0
M  V30 2913 H 271.82 -1.38791 -5.31994 0
M  V30 2914 H 273.045 -1.64193 -6.58952 0
M  V30 2915 H 270.991 0.601365 -6.53238 0
M  V30 2916 H 270.908 -0.82391 -7.51497 0
M  V30 2917 H 272.176 0.333527 -7.78786 0
M  V30 2918 N 276.405 1.4127 -0.698611 0
M  V30 2919 C 277.368 2.29158 -0.044132 0
M  V30 2920 C 278.368 1.44529 0.704841 0
M  V30 2921 O 279.558 1.65643 0.539276 0
M  V30 2922 C 276.69 3.27459 0.947809 0
M  V30 2923 H 277.883 2.88529 -0.817994 0
M  V30 2924 H 275.436 1.49307 -0.46228 0
M  V30 2925 H 276.171 2.73073 1.74933 0
M  V30 2926 H 275.956 3.8991 0.41385 0
M  V30 2927 H 277.446 3.93311 1.40344 0
M  V30 2928 N 277.883 0.443576 1.51229 0
M  V30 2929 C 279.294 -0.0180867 1.86691 0
M  V30 2930 C 279.645 -1.41384 1.36033 0
M  V30 2931 O 278.77 -2.04291 0.713722 0
M  V30 2932 C 279.365 -0.039597 3.38777 0
M  V30 2933 C 277.924 -0.445692 3.73752 0
M  V30 2934 C 277.071 0.357584 2.74985 0
M  V30 2935 H 280.022 0.659138 1.44364 0
M  V30 2936 H 280.043 -0.847761 3.70936 0
M  V30 2937 H 279.555 0.976382 3.75617 0
M  V30 2938 H 277.656 -1.46704 3.42503 0
M  V30 2939 H 277.769 -0.166155 4.78812 0
M  V30 2940 H 276.133 -0.184973 2.54027 0
M  V30 2941 H 276.916 1.37256 3.14668 0
M  V30 2942 N 279.361 -1.56624 0.175154 0
M  V30 2943 C 280.777 -1.58571 -0.180966 0
M  V30 2944 C 280.977 -1.19065 -1.6256 0
M  V30 2945 O 280.033 -0.904044 -2.35761 0
M  V30 2946 C 281.346 -3.00522 0.103326 0
M  V30 2947 C 282.894 -3.12972 0.0418426 0
M  V30 2948 C 283.369 -4.57022 0.299175 0
M  V30 2949 N 284.86 -4.62541 0.247086 0
M  V30 2950 C 285.595 -5.71857 0.420318 0
M  V30 2951 N 285.091 -6.89717 0.652816 0
M  V30 2952 N 286.884 -5.60972 0.355957 0
M  V30 2953 H 279.035 -1.80589 1.11809 0
M  V30 2954 H 281.298 -0.837178 0.444788 0
M  V30 2955 H 281.004 -3.33916 1.10422 0
M  V30 2956 H 280.878 -3.72344 -0.603299 0
M  V30 2957 H 283.265 -2.79403 -0.949636 0
M  V30 2958 H 283.346 -2.43578 0.781238 0
M  V30 2959 H 282.99 -4.913 1.28788 0
M  V30 2960 H 282.92 -5.24579 -0.460876 0
M  V30 2961 H 285.411 -3.77829 0.0731895 0
M  V30 2962 H 285.724 -7.68911 0.774347 0
M  V30 2963 H 284.069 -6.91572 0.689476 0
M  V30 2964 H 287.26 -4.67773 0.174882 0
M  V30 2965 H 287.433 -6.46111 0.494388 0
M  V30 2966 N 280.839 0.0985539 -1.57292 0
M  V30 2967 C 281.769 1.12064 -2.04851 0
M  V30 2968 C 282.75 1.41981 -0.936767 0
M  V30 2969 O 283.935 1.52071 -1.20781 0
M  V30 2970 C 281.065 2.44144 -2.47004 0
M  V30 2971 C 280.019 2.28643 -3.6181 0
M  V30 2972 C 279.345 3.65869 -3.89929 0
M  V30 2973 C 280.645 1.72986 -4.92822 0
M  V30 2974 H 282.339 0.724979 -2.9049 0
M  V30 2975 H 279.885 0.34729 -1.39749 0
M  V30 2976 H 281.838 3.15914 -2.78884 0
M  V30 2977 H 280.562 2.85639 -1.5836 0
M  V30 2978 H 279.221 1.59318 -3.30172 0
M  V30 2979 H 278.869 4.04885 -2.98458 0
M  V30 2980 H 278.569 3.56344 -4.67218 0
M  V30 2981 H 280.093 4.39112 -4.2428 0
M  V30 2982 H 281.507 2.34593 -5.23105 0
M  V30 2983 H 279.904 1.74229 -5.74251 0
M  V30 2984 H 280.974 0.689007 -4.7998 0
M  V30 2985 N 282.317 1.53212 0.369288 0
M  V30 2986 C 283.728 1.60943 0.946276 0
M  V30 2987 C 284.079 0.47452 1.90375 0
M  V30 2988 O 283.204 -0.399597 2.12679 0
M  V30 2989 C 283.799 2.91715 1.72302 0
M  V30 2990 C 282.358 3.01792 2.24941 0
M  V30 2991 C 281.505 2.56211 1.06072 0
M  V30 2992 H 284.456 1.58007 0.148198 0
M  V30 2993 H 284.477 2.79309 2.58393 0
M  V30 2994 H 283.989 3.74295 1.0259 0
M  V30 2995 H 282.09 2.23791 2.97906 0
M  V30 2996 H 282.203 4.06803 2.53077 0
M  V30 2997 H 280.567 2.10998 1.4266 0
M  V30 2998 H 281.35 3.41206 0.378639 0
M  V30 2999 N 283.795 -0.628877 1.44509 0
M  V30 3000 C 284.727 -1.754 1.47538 0
M  V30 3001 C 285.74 -1.58575 0.368506 0
M  V30 3002 O 286.929 -1.66847 0.634376 0
M  V30 3003 C 284.029 -3.1315 1.29577 0
M  V30 3004 C 283.202 -3.56413 2.53551 0
M  V30 3005 C 282.261 -4.7305 2.30457 0
M  V30 3006 O 281.287 -4.81247 3.03957 0
M  V30 3007 N 282.489 -5.64903 1.3366 0
M  V30 3008 H 285.254 -1.73272 2.44534 0
M  V30 3009 H 282.815 -0.813512 1.39977 0
M  V30 3010 H 284.807 -3.88902 1.11971 0
M  V30 3011 H 283.377 -3.09908 0.409371 0
M  V30 3012 H 282.597 -2.70847 2.86419 0
M  V30 3013 H 283.885 -3.82071 3.36005 0
M  V30 3014 H 283.283 -5.60975 0.729604 0
M  V30 3015 H 281.84 -6.40275 1.22032 0
M  V30 3016 N 285.273 -1.31445 -0.869486 0
M  V30 3017 C 286.684 -1.19042 -1.43826 0
M  V30 3018 C 287.035 0.202919 -1.95148 0
M  V30 3019 O 286.16 1.10071 -1.86315 0
M  V30 3020 C 286.755 -2.15499 -2.6143 0
M  V30 3021 C 285.314 -2.07028 -3.14351 0
M  V30 3022 C 284.461 -2.04701 -1.87063 0
M  V30 3023 H 287.412 -1.43489 -0.677984 0
M  V30 3024 H 287.433 -1.74488 -3.38134 0
M  V30 3025 H 286.945 -3.16899 -2.24046 0
M  V30 3026 H 285.046 -1.08825 -3.56354 0
M  V30 3027 H 285.159 -2.96157 -3.766 0
M  V30 3028 H 283.523 -1.49724 -2.06046 0
M  V30 3029 H 284.306 -3.07857 -1.51917 0
M  V30 3030 N 286.751 1.08385 -1.14413 0
M  V30 3031 C 287.661 2.18856 -0.844951 0
M  V30 3032 C 288.677 1.73121 0.174668 0
M  V30 3033 O 289.853 2.014 0.00312857 0
M  V30 3034 C 286.918 3.45155 -0.32696 0
M  V30 3035 C 285.979 4.05513 -1.40916 0
M  V30 3036 C 285.212 5.25784 -0.915793 0
M  V30 3037 O 285.435 5.69884 0.242651 0
M  V30 3038 O 284.369 5.77545 -1.69487 0
M  V30 3039 H 288.195 2.46919 -1.76818 0
M  V30 3040 H 285.78 1.17524 -0.922411 0
M  V30 3041 H 287.662 4.21377 -0.0440211 0
M  V30 3042 H 286.337 3.18668 0.568539 0
M  V30 3043 H 285.244 3.30879 -1.74556 0
M  V30 3044 H 286.577 4.3625 -2.27919 0
M  V30 3045 N 288.23 0.939286 1.26551 0
M  V30 3046 C 289.14 0.453432 2.30176 0
M  V30 3047 C 290.156 -0.471649 1.67486 0
M  V30 3048 O 291.332 -0.35164 1.98306 0
M  V30 3049 C 288.397 -0.275326 3.45605 0
M  V30 3050 C 287.458 0.686084 4.23782 0
M  V30 3051 C 286.691 -0.00798994 5.33699 0
M  V30 3052 O 286.914 -1.22528 5.57085 0
M  V30 3053 O 285.848 0.669746 5.98162 0
M  V30 3054 H 289.674 1.31416 2.73795 0
M  V30 3055 H 287.259 0.705095 1.31715 0
M  V30 3056 H 289.141 -0.685911 4.1578 0
M  V30 3057 H 287.816 -1.11147 3.0402 0
M  V30 3058 H 286.723 1.14658 3.56096 0
M  V30 3059 H 288.056 1.48979 4.69112 0
M  V30 3060 N 289.708 -1.40897 0.706093 0
M  V30 3061 C 290.956 -2.00657 0.241054 0
M  V30 3062 C 291.277 -1.56241 -1.16678 0
M  V30 3063 O 290.547 -0.79765 -1.78926 0
M  V30 3064 H 289.127 -0.742018 0.0861308 0
M  V30 3065 H 291.789 -1.72372 0.909604 0
M  V30 3066 H 290.885 -3.10958 0.266705 0
M  V30 3067 N 291.186 -0.45159 -1.50991 0
M  V30 3068 C 292.149 0.341117 -2.26647 0
M  V30 3069 C 293.149 0.937422 -1.30649 0
M  V30 3070 O 294.339 0.809644 -1.54241 0
M  V30 3071 C 291.471 1.48398 -3.06905 0
M  V30 3072 H 292.664 -0.322117 -2.98165 0
M  V30 3073 H 290.217 -0.205122 -1.54948 0
M  V30 3074 H 290.952 2.18284 -2.39838 0
M  V30 3075 H 290.737 1.06241 -3.77432 0
M  V30 3076 H 292.227 2.04367 -3.64176 0
M  V30 3077 N 292.664 1.56529 -0.183458 0
M  V30 3078 C 293.892 2.01623 0.464285 0
M  V30 3079 C 294.307 1.06366 1.55986 0
M  V30 3080 O 293.664 0.0665398 1.82379 0
M  V30 3081 C 293.715 3.46475 1.03139 0
M  V30 3082 O 293.436 4.38095 -0.0204675 0
M  V30 3083 C 294.937 4.0703 1.75617 0
M  V30 3084 H 292.157 0.660596 0.117704 0
M  V30 3085 H 294.701 2.02451 -0.288751 0
M  V30 3086 H 292.856 3.46383 1.73486 0
M  V30 3087 H 293.27 5.22973 0.399952 0
M  V30 3088 H 294.744 5.10271 2.10542 0
M  V30 3089 H 295.221 3.49819 2.65563 0
M  V30 3090 H 295.827 4.1086 1.09882 0
M  V30 3091 N 294.142 -0.090211 1.57342 0
M  V30 3092 C 295.372 -0.805055 1.90269 0
M  V30 3093 C 295.78 -1.72561 0.775842 0
M  V30 3094 O 295.123 -1.81839 -0.260843 0
M  V30 3095 C 295.185 -1.66734 3.18497 0
M  V30 3096 C 294.849 -0.918092 4.47683 0
M  V30 3097 C 295.846 -0.245674 5.19319 0
M  V30 3098 C 293.531 -0.890724 4.94339 0
M  V30 3099 C 295.525 0.444088 6.35851 0
M  V30 3100 C 293.212 -0.197179 6.10782 0
M  V30 3101 C 294.21 0.469044 6.81388 0
M  V30 3102 O 293.898 1.15146 7.95611 0
M  V30 3103 H 293.63 -0.235143 0.633785 0
M  V30 3104 H 296.184 -0.0703805 2.05279 0
M  V30 3105 H 294.414 -2.44437 2.99646 0
M  V30 3106 H 296.103 -2.25919 3.37217 0
M  V30 3107 H 296.869 -0.258246 4.84312 0
M  V30 3108 H 292.748 -1.39873 4.39268 0
M  V30 3109 H 296.292 0.964667 6.90898 0
M  V30 3110 H 292.189 -0.18247 6.45242 0
M  V30 3111 H 292.957 1.05885 8.11622 0
M  V30 3112 N 295.62 -1.53406 -0.361157 0
M  V30 3113 C 296.53 -1.83122 -1.4664 0
M  V30 3114 C 297.546 -0.719943 -1.58407 0
M  V30 3115 O 298.722 -1.01046 -1.74218 0
M  V30 3116 C 295.787 -2.01891 -2.81853 0
M  V30 3117 C 294.848 -3.25784 -2.79577 0
M  V30 3118 C 294.081 -3.43648 -4.0834 0
M  V30 3119 O 294.304 -2.65714 -5.0473 0
M  V30 3120 O 293.238 -4.37018 -4.13883 0
M  V30 3121 H 297.064 -2.7703 -1.24451 0
M  V30 3122 H 294.649 -1.38841 -0.551678 0
M  V30 3123 H 296.531 -2.15782 -3.61962 0
M  V30 3124 H 295.206 -1.11173 -3.0401 0
M  V30 3125 H 294.113 -3.17312 -1.98151 0
M  V30 3126 H 295.446 -4.16439 -2.62373 0
M  V30 3127 N 297.098 0.621204 -1.44841 0
M  V30 3128 C 298.346 1.37783 -1.47852 0
M  V30 3129 C 298.667 1.94653 -0.116224 0
M  V30 3130 O 297.937 1.76367 0.852737 0
M  V30 3131 H 296.517 0.511453 -0.544449 0
M  V30 3132 H 299.179 0.730446 -1.80694 0
M  V30 3133 H 298.275 2.20414 -2.20961 0
M  V30 3134 N 298.576 1.31904 0.862503 0
M  V30 3135 C 299.825 1.21373 1.61094 0
M  V30 3136 C 300.138 -0.22504 1.94301 0
M  V30 3137 O 301.344 -0.452121 2.67709 0
M  V30 3138 C 299.8 2.12525 2.9045 0
M  V30 3139 C 299.408 3.61441 2.64697 0
M  V30 3140 C 301.152 2.10813 3.68454 0
M  V30 3141 C 299.059 4.44578 3.90006 0
M  V30 3142 H 297.989 0.450705 0.604468 0
M  V30 3143 H 300.64 1.56811 0.953027 0
M  V30 3144 H 299.022 1.69994 3.57656 0
M  V30 3145 H 300.196 4.12264 2.05851 0
M  V30 3146 H 298.511 3.65205 2.00036 0
M  V30 3147 H 301.108 2.70167 4.61426 0
M  V30 3148 H 301.451 1.09713 4.01583 0
M  V30 3149 H 301.984 2.51583 3.08141 0
M  V30 3150 H 298.723 5.46461 3.62023 0
M  V30 3151 H 298.243 3.98508 4.48276 0
M  V30 3152 H 299.922 4.57176 4.5782 0
M  V30 3153 N 300.054 -1.07777 1.14986 0
M  V30 3154 C 300.986 -2.14769 0.800436 0
M  V30 3155 C 301.999 -1.61739 -0.185595 0
M  V30 3156 O 303.188 -1.78462 0.0370358 0
M  V30 3157 C 300.288 -3.38481 0.168533 0
M  V30 3158 C 299.461 -4.20876 1.1909 0
M  V30 3159 C 298.52 -5.22976 0.581575 0
M  V30 3160 O 297.546 -5.55388 1.24633 0
M  V30 3161 N 298.748 -5.76976 -0.638706 0
M  V30 3162 H 301.513 -2.45348 1.72118 0
M  V30 3163 H 299.074 -1.23645 1.04515 0
M  V30 3164 H 301.066 -4.03916 -0.251764 0
M  V30 3165 H 299.636 -3.05651 -0.655467 0
M  V30 3166 H 298.856 -3.51322 1.78791 0
M  V30 3167 H 300.144 -4.7274 1.88133 0
M  V30 3168 H 299.542 -5.52886 -1.19723 0
M  V30 3169 H 298.099 -6.44061 -1.00142 0
M  V30 3170 N 301.532 -0.945985 -1.26051 0
M  V30 3171 C 302.479 -0.45809 -2.26208 0
M  V30 3172 C 303.449 0.484816 -1.58867 0
M  V30 3173 O 304.634 0.399969 -1.86561 0
M  V30 3174 C 301.774 0.266131 -3.44072 0
M  V30 3175 C 300.887 -0.713005 -4.26075 0
M  V30 3176 C 300.022 0.0329013 -5.3119 0
M  V30 3177 C 299.061 -0.93774 -6.04874 0
M  V30 3178 N 298.198 -0.223274 -7.01745 0
M  V30 3179 H 303.038 -1.3171 -2.67313 0
M  V30 3180 H 300.575 -0.66069 -1.31428 0
M  V30 3181 H 302.533 0.702514 -4.11243 0
M  V30 3182 H 301.163 1.08925 -3.03867 0
M  V30 3183 H 300.215 -1.26789 -3.58648 0
M  V30 3184 H 301.527 -1.45406 -4.77136 0
M  V30 3185 H 300.681 0.528335 -6.04395 0
M  V30 3186 H 299.42 0.806801 -4.8098 0
M  V30 3187 H 298.425 -1.44425 -5.30492 0
M  V30 3188 H 299.65 -1.71172 -6.57173 0
M  V30 3189 H 297.596 0.532046 -6.53839 0
M  V30 3190 H 297.513 -0.90357 -7.50581 0
M  V30 3191 H 298.781 0.250907 -7.79096 0
M  V30 3192 N 303.011 1.40521 -0.713556 0
M  V30 3193 C 303.958 2.30723 -0.059684 0
M  V30 3194 C 304.928 1.48079 0.752448 0
M  V30 3195 O 306.113 1.76823 0.71681 0
M  V30 3196 C 303.253 3.34274 0.857594 0
M  V30 3197 C 302.366 4.31986 0.0351536 0
M  V30 3198 C 301.501 5.22605 0.951724 0
M  V30 3199 C 300.54 6.11976 0.123253 0
M  V30 3200 N 299.677 6.9502 0.99459 0
M  V30 3201 H 304.517 2.86074 -0.834596 0
M  V30 3202 H 302.054 1.40879 -0.42326 0
M  V30 3203 H 304.012 3.92879 1.40364 0
M  V30 3204 H 302.642 2.8043 1.59871 0
M  V30 3205 H 301.694 3.7518 -0.628052 0
M  V30 3206 H 303.006 4.95101 -0.606347 0
M  V30 3207 H 302.16 5.86131 1.56638 0
M  V30 3208 H 300.899 4.59759 1.62705 0
M  V30 3209 H 299.904 5.47482 -0.50435 0
M  V30 3210 H 301.129 6.76881 -0.548539 0
M  V30 3211 H 299.075 6.34764 1.6556 0
M  V30 3212 H 298.992 7.54892 0.40908 0
M  V30 3213 H 300.26 7.62997 1.59549 0
M  V30 3214 N 304.489 0.459591 1.5075 0
M  V30 3215 C 305.399 -0.34613 2.32033 0
M  V30 3216 C 306.415 -1.00686 1.41909 0
M  V30 3217 O 307.591 -0.997361 1.7497 0
M  V30 3218 C 304.656 -1.42029 3.16273 0
M  V30 3219 C 303.717 -0.777362 4.22203 0
M  V30 3220 C 302.95 -1.80034 5.02418 0
M  V30 3221 O 303.173 -3.02544 4.83553 0
M  V30 3222 O 302.107 -1.37853 5.85901 0
M  V30 3223 H 305.933 0.318054 3.0203 0
M  V30 3224 H 303.518 0.221663 1.47746 0
M  V30 3225 H 305.4 -2.04275 3.68578 0
M  V30 3226 H 304.075 -2.06815 2.49016 0
M  V30 3227 H 302.982 -0.116256 3.73919 0
M  V30 3228 H 304.315 -0.172634 4.91897 0
M  V30 3229 N 305.967 -1.56429 0.191757 0
M  V30 3230 C 307.195 -2.01867 -0.453586 0
M  V30 3231 C 307.61 -1.07191 -1.5542 0
M  V30 3232 O 306.967 -0.0762108 -1.82341 0
M  V30 3233 C 307.018 -3.47017 -1.013 0
M  V30 3234 O 306.739 -4.38078 0.0437005 0
M  V30 3235 C 308.24 -4.07956 -1.73456 0
M  V30 3236 H 305.46 -0.661211 -0.114199 0
M  V30 3237 H 308.004 -2.02295 0.299483 0
M  V30 3238 H 306.159 -3.47298 -1.71647 0
M  V30 3239 H 306.573 -5.23178 -0.372212 0
M  V30 3240 H 308.047 -5.1138 -2.07833 0
M  V30 3241 H 308.524 -3.51222 -2.63704 0
M  V30 3242 H 309.13 -4.11437 -1.07702 0
M  V30 3243 N 307.445 0.0818655 -1.57387 0
M  V30 3244 C 308.408 1.08265 -2.02018 0
M  V30 3245 C 309.408 1.32183 -0.915664 0
M  V30 3246 O 310.598 1.28073 -1.18081 0
M  V30 3247 C 307.73 2.42871 -2.39221 0
M  V30 3248 H 308.923 0.698204 -2.91659 0
M  V30 3249 H 306.476 0.327303 -1.52835 0
M  V30 3250 H 307.211 2.86167 -1.52575 0
M  V30 3251 H 306.996 2.26855 -3.19811 0
M  V30 3252 H 308.486 3.14826 -2.74362 0
M  V30 3253 N 308.923 1.53595 0.353017 0
M  V30 3254 C 309.87 1.80919 1.43308 0
M  V30 3255 C 310.84 0.654288 1.5267 0
M  V30 3256 O 312.025 0.897759 1.6836 0
M  V30 3257 C 309.165 2.01605 2.80089 0
M  V30 3258 C 308.278 3.29321 2.79593 0
M  V30 3259 C 307.413 3.40125 4.0803 0
M  V30 3260 C 306.452 4.61826 4.01725 0
M  V30 3261 N 305.589 4.69716 5.21834 0
M  V30 3262 H 310.429 2.73074 1.19308 0
M  V30 3263 H 307.966 1.35263 0.578131 0
M  V30 3264 H 309.924 2.11586 3.59565 0
M  V30 3265 H 308.554 1.12772 3.0246 0
M  V30 3266 H 307.606 3.28229 1.92276 0
M  V30 3267 H 308.918 4.18884 2.70809 0
M  V30 3268 H 308.072 3.49488 4.95927 0
M  V30 3269 H 306.811 2.48601 4.19582 0
M  V30 3270 H 305.816 4.52552 3.12213 0
M  V30 3271 H 307.041 5.54705 3.91764 0
M  V30 3272 H 304.987 3.81097 5.33948 0
M  V30 3273 H 304.904 5.53202 5.1527 0
M  V30 3274 H 306.172 4.83376 6.11529 0
M  V30 3275 N 310.401 -0.613514 1.45168 0
M  V30 3276 C 311.65 -1.36874 1.4815 0
M  V30 3277 C 311.963 -1.952 0.124982 0
M  V30 3278 O 313.169 -2.71481 0.0324176 0
M  V30 3279 C 311.625 -2.47905 2.60904 0
M  V30 3280 C 311.233 -1.96016 4.02842 0
M  V30 3281 C 312.977 -3.24965 2.73126 0
M  V30 3282 C 310.884 -3.04494 5.06988 0
M  V30 3283 H 309.814 -0.514428 0.551253 0
M  V30 3284 H 312.465 -0.658182 1.7129 0
M  V30 3285 H 310.847 -3.21618 2.31037 0
M  V30 3286 H 312.021 -1.29051 4.4236 0
M  V30 3287 H 310.336 -1.31719 3.95018 0
M  V30 3288 H 312.933 -4.05865 3.48106 0
M  V30 3289 H 313.276 -3.75588 1.79553 0
M  V30 3290 H 313.809 -2.5835 3.0249 0
M  V30 3291 H 310.548 -2.58795 6.0225 0
M  V30 3292 H 310.068 -3.70044 4.72046 0
M  V30 3293 H 311.747 -3.68976 5.31475 0
M  V30 3294 N 311.879 -1.3236 -0.855495 0
M  V30 3295 C 312.827 -1.2118 -1.9854 0
M  V30 3296 C 313.821 -0.116788 -1.68997 0
M  V30 3297 O 315.027 -0.279657 -1.77814 0
M  V30 3298 H 311.402 -0.375608 -0.651477 0
M  V30 3299 H 313.373 -2.16743 -2.05098 0
M  V30 3300 C 312.122 -0.950849 -3.34446 0
M  V30 3301 H 311.445 -1.78563 -3.57708 0
M  V30 3302 H 312.885 -0.912863 -4.14057 0
M  V30 3303 C 311.344 0.346404 -3.35114 0
M  V30 3304 O 311.874 1.35855 -3.7803 0
M  V30 3305 N 310.08 0.36808 -2.88259 0
M  V30 3306 H 309.627 -0.456102 -2.5353 0
M  V30 3307 H 309.585 1.23591 -2.89089 0
M  V30 3308 N 313.357 1.07166 -1.15556 0
M  V30 3309 C 314.603 1.80222 -0.942961 0
M  V30 3310 C 314.958 1.85121 0.524209 0
M  V30 3311 O 314.251 1.32531 1.38369 0
M  V30 3312 C 314.445 3.24707 -1.49332 0
M  V30 3313 C 314.274 3.33887 -3.01247 0
M  V30 3314 C 313.044 3.44337 -3.69811 0
M  V30 3315 C 315.242 3.24484 -3.99017 0
M  V30 3316 N 313.224 3.42439 -5.09518 0
M  V30 3317 C 314.595 3.29726 -5.25053 0
M  V30 3318 C 316.65 3.08307 -3.90962 0
M  V30 3319 C 315.353 3.20455 -6.43973 0
M  V30 3320 C 317.379 3.00371 -5.09442 0
M  V30 3321 C 316.741 3.06227 -6.34354 0
M  V30 3322 H 312.84 0.672709 -0.398731 0
M  V30 3323 H 315.424 1.27905 -1.46794 0
M  V30 3324 H 313.595 3.7544 -0.994946 0
M  V30 3325 H 315.327 3.85894 -1.21935 0
M  V30 3326 H 312.082 3.48762 -3.20409 0
M  V30 3327 H 312.506 3.45013 -5.8249 0
M  V30 3328 H 317.148 3.02633 -2.95251 0
M  V30 3329 H 314.866 3.24888 -7.39914 0
M  V30 3330 H 318.452 2.88955 -5.04971 0
M  V30 3331 H 317.332 3.00132 -7.24493 0
M  V30 3332 N 314.835 0.952656 1.25548 0
M  V30 3333 C 316.112 0.523818 1.88456 0
M  V30 3334 C 316.492 -0.998871 1.85973 0
M  V30 3335 O 315.84 -1.86381 1.3219 0
M  V30 3336 C 316.05 1.0982 3.31271 0
M  V30 3337 C 317.398 1.17385 4.08051 0
M  V30 3338 O 318.422 1.04961 3.40384 0
M  V30 3339 O 317.281 1.36852 5.29088 0
M  V30 3340 H 314.375 0.172485 0.808813 0
M  V30 3341 H 316.921 1.04596 1.33633 0
M  V30 3342 H 315.693 2.1415 3.27499 0
M  V30 3343 H 315.316 0.559191 3.93648 0
M  V30 3344 N 316.313 -1.40141 0.720998 0
M  V30 3345 C 317.245 -2.29177 0.0324669 0
M  V30 3346 C 318.258 -1.46105 -0.718126 0
M  V30 3347 O 319.447 -1.69335 -0.564608 0
M  V30 3348 C 316.547 -3.24473 -0.978292 0
M  V30 3349 C 315.72 -4.36423 -0.292115 0
M  V30 3350 C 314.779 -5.12122 -1.20901 0
M  V30 3351 O 313.805 -5.64981 -0.691766 0
M  V30 3352 N 315.007 -5.21992 -2.53978 0
M  V30 3353 H 317.772 -2.88909 0.796984 0
M  V30 3354 H 315.333 -1.51569 0.569068 0
M  V30 3355 H 317.325 -3.71987 -1.59398 0
M  V30 3356 H 315.895 -2.65871 -1.64413 0
M  V30 3357 H 315.115 -3.90967 0.503847 0
M  V30 3358 H 316.403 -5.08467 0.183971 0
M  V30 3359 H 315.801 -4.8054 -2.98493 0
M  V30 3360 H 314.358 -5.72995 -3.10677 0
M  V30 3361 N 317.792 -0.46758 -1.50504 0
M  V30 3362 C 319.203 -0.0116166 -1.86696 0
M  V30 3363 C 319.554 1.39202 -1.38265 0
M  V30 3364 O 318.679 2.0313 -0.746132 0
M  V30 3365 C 319.274 -0.0143044 -3.38797 0
M  V30 3366 C 317.833 0.386175 -3.74414 0
M  V30 3367 C 316.98 -0.401287 -2.74381 0
M  V30 3368 H 319.931 -0.682022 -1.43297 0
M  V30 3369 H 319.952 0.788641 -3.72237 0
M  V30 3370 H 319.464 -1.03602 -3.74016 0
M  V30 3371 H 317.565 1.41237 -3.44794 0
M  V30 3372 H 317.678 0.0899596 -4.79016 0
M  V30 3373 H 316.042 0.144536 -2.5429 0
M  V30 3374 H 316.825 -1.42244 -3.12444 0
M  V30 3375 N 319.27 1.56325 -0.20005 0
M  V30 3376 C 320.233 2.18084 0.705132 0
M  V30 3377 C 321.233 1.13666 1.1374 0
M  V30 3378 O 322.423 1.39023 1.04968 0
M  V30 3379 C 319.555 2.78689 1.96329 0
M  V30 3380 H 320.748 2.99435 0.167023 0
M  V30 3381 H 318.301 1.56221 0.0495725 0
M  V30 3382 H 319.036 2.0115 2.5438 0
M  V30 3383 H 318.821 3.55133 1.66202 0
M  V30 3384 H 320.311 3.26096 2.60866 0
M  V30 3385 N 320.748 -0.0735177 1.57428 0
M  V30 3386 C 321.658 -1.10547 2.06922 0
M  V30 3387 C 322.674 -1.42506 0.998402 0
M  V30 3388 O 323.85 -1.52717 1.31299 0
M  V30 3389 C 320.915 -2.40019 2.50184 0
M  V30 3390 C 319.976 -2.15046 3.71556 0
M  V30 3391 C 319.209 -3.38345 4.12745 0
M  V30 3392 O 319.432 -4.47399 3.53822 0
M  V30 3393 O 318.366 -3.2666 5.05546 0
M  V30 3394 H 322.192 -0.715013 2.95163 0
M  V30 3395 H 319.777 -0.287531 1.46607 0
M  V30 3396 H 321.659 -3.16218 2.78539 0
M  V30 3397 H 320.334 -2.78447 1.65072 0
M  V30 3398 H 319.241 -1.36558 3.48285 0
M  V30 3399 H 320.574 -1.81499 4.57514 0
M  V30 3400 N 322.226 -1.5378 -0.344866 0
M  V30 3401 C 323.189 -1.80981 -1.40637 0
M  V30 3402 C 324.189 -0.680816 -1.45676 0
M  V30 3403 O 325.379 -0.949095 -1.46075 0
M  V30 3404 C 322.511 -1.95063 -2.79577 0
M  V30 3405 H 323.704 -2.75803 -1.17783 0
M  V30 3406 H 321.257 -1.45173 -0.579181 0
M  V30 3407 H 321.992 -1.02379 -3.07716 0
M  V30 3408 H 321.777 -2.77198 -2.77315 0
M  V30 3409 H 323.267 -2.17629 -3.56409 0
M  V30 3410 N 323.704 0.605807 -1.45491 0
M  V30 3411 C 324.953 1.36086 -1.48874 0
M  V30 3412 C 325.266 1.95131 -0.135333 0
M  V30 3413 O 326.472 2.7146 -0.0468144 0
M  V30 3414 C 324.928 2.46518 -2.62215 0
M  V30 3415 C 324.536 1.93877 -4.03876 0
M  V30 3416 C 326.28 3.23512 -2.74846 0
M  V30 3417 C 324.187 3.01801 -5.08596 0
M  V30 3418 H 323.117 0.511497 -0.553974 0
M  V30 3419 H 325.768 0.649089 -1.71636 0
M  V30 3420 H 324.15 3.20388 -2.32739 0
M  V30 3421 H 325.324 1.26704 -4.43038 0
M  V30 3422 H 323.639 1.29622 -3.95711 0
M  V30 3423 H 326.236 4.04013 -3.50253 0
M  V30 3424 H 326.579 3.74631 -1.81542 0
M  V30 3425 H 327.112 2.56742 -3.03856 0
M  V30 3426 H 323.851 2.55597 -6.03614 0
M  V30 3427 H 323.371 3.67535 -4.74002 0
M  V30 3428 H 325.05 3.66152 -5.33424 0
M  V30 3429 N 325.182 1.32811 0.848464 0
M  V30 3430 C 326.132 1.18842 1.94578 0
M  V30 3431 C 327.116 0.0937517 1.60627 0
M  V30 3432 O 328.308 0.320887 1.74067 0
M  V30 3433 C 325.437 0.91999 3.30743 0
M  V30 3434 C 324.523 2.05665 3.70894 0
M  V30 3435 N 324.914 3.30579 3.8282 0
M  V30 3436 C 323.212 1.9612 4.00566 0
M  V30 3437 C 323.913 4.05067 4.17487 0
M  V30 3438 N 322.889 3.33419 4.2934 0
M  V30 3439 H 326.691 2.13536 2.0194 0
M  V30 3440 H 324.205 1.2468 1.0406 0
M  V30 3441 H 326.202 0.800859 4.09136 0
M  V30 3442 H 324.862 -0.0185076 3.24695 0
M  V30 3443 H 325.873 3.65441 3.66978 0
M  V30 3444 H 322.55 1.09871 4.02784 0
M  V30 3445 H 323.94 5.12815 4.34131 0
M  V30 3446 N 326.66 -1.06551 1.16123 0
M  V30 3447 C 327.608 -2.16063 0.861371 0
M  V30 3448 C 328.602 -1.6856 -0.168517 0
M  V30 3449 O 329.808 -1.79986 -0.0227579 0
M  V30 3450 H 326.183 -0.705278 0.260934 0
M  V30 3451 H 328.154 -2.38567 1.79244 0
M  V30 3452 C 326.903 -3.45661 0.376018 0
M  V30 3453 H 326.226 -3.82604 1.15992 0
M  V30 3454 H 327.666 -4.23504 0.204951 0
M  V30 3455 C 326.125 -3.24546 -0.903954 0
M  V30 3456 O 326.655 -3.49865 -1.97377 0
M  V30 3457 N 324.861 -2.77992 -0.846679 0
M  V30 3458 H 324.408 -2.57589 0.0241017 0
M  V30 3459 H 324.366 -2.64244 -1.70359 0
M  V30 3460 N 328.138 -0.959301 -1.25041 0
M  V30 3461 C 329.384 -0.627096 -1.93492 0
M  V30 3462 C 329.739 0.827484 -1.73696 0
M  V30 3463 O 329.032 1.58651 -1.07427 0
M  V30 3464 C 329.226 -0.927136 -3.45165 0
M  V30 3465 C 329.055 -2.40933 -3.79712 0
M  V30 3466 C 327.825 -3.0677 -4.01522 0
M  V30 3467 C 330.023 -3.38894 -3.86853 0
M  V30 3468 N 328.005 -4.44815 -4.231 0
M  V30 3469 C 329.376 -4.62263 -4.13174 0
M  V30 3470 C 331.431 -3.33668 -3.69554 0
M  V30 3471 C 330.134 -5.81052 -4.23995 0
M  V30 3472 C 332.16 -4.518 -3.81616 0
M  V30 3473 C 331.522 -5.73957 -4.08354 0
M  V30 3474 H 327.621 -0.280166 -0.73009 0
M  V30 3475 H 330.205 -1.23244 -1.50729 0
M  V30 3476 H 328.376 -0.350685 -3.86814 0
M  V30 3477 H 330.108 -0.554361 -4.00885 0
M  V30 3478 H 326.863 -2.57327 -3.97593 0
M  V30 3479 H 327.287 -5.16319 -4.37885 0
M  V30 3480 H 331.929 -2.40268 -3.47895 0
M  V30 3481 H 329.647 -6.74888 -4.44468 0
M  V30 3482 H 333.233 -4.49309 -3.69612 0
M  V30 3483 H 332.113 -6.6384 -4.17475 0
M  V30 3484 N 329.616 1.39756 -0.72842 0
M  V30 3485 C 330.865 1.99879 -0.270407 0
M  V30 3486 C 331.178 1.58449 1.14688 0
M  V30 3487 O 332.384 2.11362 1.70407 0
M  V30 3488 C 330.84 3.57292 -0.43252 0
M  V30 3489 C 330.448 4.07688 -1.85727 0
M  V30 3490 C 332.192 4.24485 -0.0359507 0
M  V30 3491 C 330.099 5.5765 -1.96928 0
M  V30 3492 H 329.029 0.747689 -0.0973472 0
M  V30 3493 H 331.68 1.59837 -0.901355 0
M  V30 3494 H 330.062 3.95097 0.267219 0
M  V30 3495 H 331.236 3.81231 -2.58843 0
M  V30 3496 H 329.551 3.53135 -2.20646 0
M  V30 3497 H 332.148 5.34609 -0.0987484 0
M  V30 3498 H 332.491 4.03915 1.00787 0
M  V30 3499 H 333.024 3.9183 -0.686604 0
M  V30 3500 H 329.763 5.8309 -2.99476 0
M  V30 3501 H 329.283 5.8593 -1.28241 0
M  V30 3502 H 330.962 6.22957 -1.74737 0
M  V30 3503 N 331.094 0.475555 1.50254 0
M  V30 3504 C 332.51 0.12997 1.5907 0
M  V30 3505 C 332.71 -1.36385 1.48328 0
M  V30 3506 O 331.766 -2.13754 1.34407 0
M  V30 3507 C 333.079 0.684139 2.92814 0
M  V30 3508 C 334.627 0.647965 3.0622 0
M  V30 3509 C 335.102 1.17975 4.42545 0
M  V30 3510 N 336.593 1.13936 4.48969 0
M  V30 3511 C 337.328 1.52129 5.52851 0
M  V30 3512 N 336.824 1.97793 6.63965 0
M  V30 3513 N 338.617 1.43704 5.4342 0
M  V30 3514 H 330.768 1.44706 1.55479 0
M  V30 3515 H 333.031 0.598691 0.735033 0
M  V30 3516 H 332.737 1.73079 3.06164 0
M  V30 3517 H 332.611 0.130204 3.76975 0
M  V30 3518 H 334.998 -0.38979 2.92514 0
M  V30 3519 H 335.079 1.23876 2.23805 0
M  V30 3520 H 334.723 2.21616 4.57 0
M  V30 3521 H 334.653 0.565138 5.23559 0
M  V30 3522 H 337.144 0.804488 3.69238 0
M  V30 3523 H 337.457 2.25072 7.39299 0
M  V30 3524 H 335.802 2.01749 6.65073 0
M  V30 3525 H 338.993 1.07867 4.55502 0
M  V30 3526 H 339.166 1.73794 6.24259 0
M  V30 3527 N 332.573 -1.56217 0.208337 0
M  V30 3528 C 333.821 -1.97558 -0.426076 0
M  V30 3529 C 334.142 -1.09683 -1.61229 0
M  V30 3530 O 333.412 -0.170956 -1.95153 0
M  V30 3531 H 331.992 -0.729575 -0.160405 0
M  V30 3532 H 334.654 -1.92606 0.298155 0
M  V30 3533 H 333.75 -3.02672 -0.761312 0
M  V30 3534 N 334.051 0.0651679 -1.57465 0
M  V30 3535 C 334.999 1.09542 -2.05191 0
M  V30 3536 C 335.993 1.39675 -0.958509 0
M  V30 3537 O 337.199 1.39003 -1.14359 0
M  V30 3538 H 333.574 0.370623 -0.654326 0
M  V30 3539 H 335.545 0.666802 -2.90854 0
M  V30 3540 C 334.294 2.39881 -2.51699 0
M  V30 3541 H 333.617 2.17547 -3.3543 0
M  V30 3542 H 335.057 3.104 -2.88839 0
M  V30 3543 C 333.516 3.0631 -1.40271 0
M  V30 3544 O 334.046 3.94664 -0.748523 0
M  V30 3545 N 332.252 2.67041 -1.14618 0
M  V30 3546 H 331.799 1.95281 -1.67997 0
M  V30 3547 H 331.757 3.1181 -0.402688 0
M  V30 3548 N 335.529 1.53961 0.336706 0
M  V30 3549 C 336.806 1.62171 1.09361 0
M  V30 3550 C 337.186 0.447263 2.06307 0
M  V30 3551 O 336.534 -0.559802 2.21537 0
M  V30 3552 C 336.744 2.98565 1.80721 0
M  V30 3553 C 338.092 3.54157 2.34218 0
M  V30 3554 O 339.116 3.00784 1.90807 0
M  V30 3555 O 337.975 4.47528 3.13657 0
M  V30 3556 H 335.069 0.6562 0.503319 0
M  V30 3557 H 337.615 1.66307 0.33765 0
M  V30 3558 H 336.387 3.75482 1.10132 0
M  V30 3559 H 336.01 2.9805 2.63158 0
M  V30 3560 N 337.007 -0.598083 1.45811 0
M  V30 3561 C 337.954 -1.7082 1.55207 0
M  V30 3562 C 338.924 -1.61278 0.39732 0
M  V30 3563 O 340.109 -1.80717 0.612038 0
M  V30 3564 C 337.249 -3.09144 1.53376 0
M  V30 3565 C 336.362 -3.29423 2.79472 0
M  V30 3566 C 335.497 -4.57907 2.69248 0
M  V30 3567 C 334.536 -4.71476 3.90354 0
M  V30 3568 N 333.673 -5.9127 3.78608 0
M  V30 3569 H 338.513 -1.62125 2.50039 0
M  V30 3570 H 336.05 -0.790389 1.24062 0
M  V30 3571 H 338.008 -3.89186 1.50301 0
M  V30 3572 H 336.638 -3.16773 0.620876 0
M  V30 3573 H 335.69 -2.43091 2.92594 0
M  V30 3574 H 337.002 -3.3532 3.69272 0
M  V30 3575 H 336.156 -5.46157 2.64192 0
M  V30 3576 H 334.895 -4.54423 1.77063 0
M  V30 3577 H 333.9 -3.81648 3.95759 0
M  V30 3578 H 335.125 -4.76751 4.83617 0
M  V30 3579 H 333.071 -5.88813 2.89199 0
M  V30 3580 H 332.988 -5.98369 4.6205 0
M  V30 3581 H 334.256 -6.81992 3.77501 0
M  V30 3582 N 338.485 -1.33259 -0.841409 0
M  V30 3583 C 339.731 -1.24757 -1.59886 0
M  V30 3584 C 340.064 0.186913 -1.93298 0
M  V30 3585 O 339.339 1.12757 -1.5848 0
M  V30 3586 C 339.622 -2.12036 -2.91055 0
M  V30 3587 C 339.475 -3.63929 -2.6434 0
M  V30 3588 C 340.794 -1.9916 -3.92458 0
M  V30 3589 H 337.913 -0.454542 -0.580138 0
M  V30 3590 H 340.555 -1.63335 -0.970647 0
M  V30 3591 H 338.705 -1.79265 -3.44669 0
M  V30 3592 H 340.377 -4.06978 -2.17178 0
M  V30 3593 H 338.62 -3.85935 -1.98082 0
M  V30 3594 H 339.291 -4.20341 -3.57796 0
M  V30 3595 H 341.767 -2.27895 -3.48143 0
M  V30 3596 H 340.643 -2.62484 -4.82072 0
M  V30 3597 H 340.904 -0.963082 -4.31482 0
M  V30 3598 N 339.963 1.05934 -1.16686 0
M  V30 3599 C 341.374 1.60263 -0.957745 0
M  V30 3600 C 341.725 1.89789 0.49745 0
M  V30 3601 O 340.85 1.67401 1.37135 0
M  V30 3602 C 341.445 2.91172 -1.73218 0
M  V30 3603 C 340.004 3.42188 -1.56794 0
M  V30 3604 C 339.151 2.16028 -1.73859 0
M  V30 3605 H 342.102 0.888392 -1.31504 0
M  V30 3606 H 342.123 3.60744 -1.21014 0
M  V30 3607 H 341.635 2.6965 -2.79124 0
M  V30 3608 H 339.736 3.68762 -0.533437 0
M  V30 3609 H 339.849 4.17273 -2.35414 0
M  V30 3610 H 338.213 2.26426 -1.16633 0
M  V30 3611 H 338.996 1.96985 -2.81161 0
M  V30 3612 N 341.441 0.965919 1.2453 0
M  V30 3613 C 342.689 0.625593 1.92174 0
M  V30 3614 C 343.01 -0.841652 1.75901 0
M  V30 3615 O 342.28 -1.60061 1.12948 0
M  V30 3616 H 340.86 0.228388 0.71123 0
M  V30 3617 H 343.522 1.2266 1.51461 0
M  V30 3618 H 342.618 0.864653 2.99884 0
M  V30 3619 N 342.919 -1.39368 0.735821 0
M  V30 3620 C 343.882 -2.2896 0.104874 0
M  V30 3621 C 344.882 -1.46347 -0.666274 0
M  V30 3622 O 346.072 -1.67014 -0.49517 0
M  V30 3623 C 343.204 -3.29857 -0.860656 0
M  V30 3624 H 344.397 -2.86259 0.894205 0
M  V30 3625 H 341.95 -1.48029 0.501704 0
M  V30 3626 H 342.685 -2.77615 -1.67631 0
M  V30 3627 H 342.47 -3.9087 -0.310327 0
M  V30 3628 H 343.96 -3.96893 -1.29867 0
M  V30 3629 N 344.397 -0.483516 -1.5 0
M  V30 3630 C 345.643 0.0593261 -2.03313 0
M  V30 3631 C 345.998 1.36288 -1.35806 0
M  V30 3632 O 345.291 1.85519 -0.478897 0
M  V30 3633 C 345.485 0.286226 -3.56252 0
M  V30 3634 C 345.314 -0.993788 -4.38582 0
M  V30 3635 C 344.084 -1.54064 -4.81241 0
M  V30 3636 C 346.282 -1.89249 -4.78215 0
M  V30 3637 N 344.264 -2.76838 -5.47936 0
M  V30 3638 C 345.635 -2.96606 -5.44449 0
M  V30 3639 C 347.69 -1.90138 -4.60165 0
M  V30 3640 C 346.393 -4.04857 -5.94544 0
M  V30 3641 C 348.419 -2.97353 -5.1121 0
M  V30 3642 C 347.781 -4.03429 -5.77429 0
M  V30 3643 H 343.88 -0.0186322 -0.781778 0
M  V30 3644 H 346.464 -0.654489 -1.8337 0
M  V30 3645 H 344.635 0.969086 -3.76116 0
M  V30 3646 H 346.367 0.824515 -3.96212 0
M  V30 3647 H 343.122 -1.08813 -4.6093 0
M  V30 3648 H 343.546 -3.39221 -5.85882 0
M  V30 3649 H 348.188 -1.09441 -4.0839 0
M  V30 3650 H 345.906 -4.86363 -6.4535 0
M  V30 3651 H 349.492 -2.99039 -4.99066 0
M  V30 3652 H 348.372 -4.85025 -6.16214 0
M  V30 3653 N 345.875 1.56104 -0.216619 0
M  V30 3654 C 347.103 2.02563 0.421413 0
M  V30 3655 C 347.518 1.0965 1.53695 0
M  V30 3656 O 346.875 0.10521 1.82196 0
M  V30 3657 C 346.926 3.48584 0.957665 0
M  V30 3658 O 346.647 4.37953 -0.113389 0
M  V30 3659 C 348.148 4.10664 1.66943 0
M  V30 3660 H 345.368 0.662944 0.103665 0
M  V30 3661 H 347.912 2.01793 -0.331629 0
M  V30 3662 H 346.067 3.49985 1.661 0
M  V30 3663 H 346.481 5.23704 0.288932 0
M  V30 3664 H 347.955 5.14622 1.99671 0
M  V30 3665 H 348.432 3.55373 2.58083 0
M  V30 3666 H 349.038 4.13098 1.01142 0
M  V30 3667 N 347.353 -0.0568162 1.57498 0
M  V30 3668 C 348.263 -1.08346 2.08083 0
M  V30 3669 C 349.279 -1.41439 1.01346 0
M  V30 3670 O 350.455 -1.51316 1.32912 0
M  V30 3671 C 347.52 -2.37352 2.52715 0
M  V30 3672 C 346.581 -2.11093 3.73816 0
M  V30 3673 C 345.814 -3.33949 4.1631 0
M  V30 3674 O 346.037 -4.43622 3.58547 0
M  V30 3675 O 344.971 -3.21279 5.08983 0
M  V30 3676 H 348.797 -0.683667 2.95905 0
M  V30 3677 H 346.382 -0.271965 1.46904 0
M  V30 3678 H 348.264 -3.13246 2.81877 0
M  V30 3679 H 346.939 -2.76681 1.68016 0
M  V30 3680 H 345.846 -1.32856 3.49714 0
M  V30 3681 H 347.179 -1.76637 4.59413 0
M  V30 3682 N 348.832 -1.54138 -0.328536 0
M  V30 3683 C 349.795 -1.82462 -1.38709 0
M  V30 3684 C 350.795 -0.696229 -1.44946 0
M  V30 3685 O 351.985 -0.964535 -1.4506 0
M  V30 3686 C 349.117 -1.98018 -2.77492 0
M  V30 3687 H 350.31 -2.77037 -1.14851 0
M  V30 3688 H 347.863 -1.45779 -0.563751 0
M  V30 3689 H 348.598 -1.05637 -3.06613 0
M  V30 3690 H 348.383 -2.80124 -2.74359 0
M  V30 3691 H 349.873 -2.21396 -3.54081 0
M  V30 3692 N 350.31 0.590341 -1.46126 0
M  V30 3693 C 351.55 1.35995 -1.52593 0
M  V30 3694 C 351.914 1.91243 -0.170368 0
M  V30 3695 O 353.115 2.68576 -0.109775 0
M  V30 3696 C 351.386 2.46465 -2.58823 0
M  V30 3697 S 352.945 3.33953 -2.84641 0
M  V30 3698 H 349.763 0.463425 -0.53922 0
M  V30 3699 H 352.365 0.67944 -1.83314 0
M  V30 3700 H 351.069 2.04256 -3.5596 0
M  V30 3701 H 350.6 3.19297 -2.2981 0
M  V30 3702 H 352.615 4.45094 -2.19331 0
M  V30 3703 N 351.788 1.33704 0.83433 0
M  V30 3704 C 352.698 1.26382 1.97648 0
M  V30 3705 C 353.714 0.173548 1.73132 0
M  V30 3706 O 354.89 0.397962 1.97429 0
M  V30 3707 C 351.955 1.00769 3.31733 0
M  V30 3708 C 351.016 2.1884 3.69334 0
M  V30 3709 C 350.249 1.9444 4.9702 0
M  V30 3710 O 350.472 0.896961 5.63303 0
M  V30 3711 O 349.406 2.81093 5.32231 0
M  V30 3712 H 353.232 2.22444 2.06767 0
M  V30 3713 H 350.817 1.13795 0.968037 0
M  V30 3714 H 352.699 0.882186 4.12062 0
M  V30 3715 H 351.374 0.0773783 3.23608 0
M  V30 3716 H 350.281 2.36946 2.89495 0
M  V30 3717 H 351.614 3.10221 3.82131 0
M  V30 3718 N 353.266 -1.05314 1.17247 0
M  V30 3719 C 354.198 -2.13023 0.845812 0
M  V30 3720 C 355.211 -1.62096 -0.151246 0
M  V30 3721 O 356.4 -1.78343 0.0748818 0
M  V30 3722 C 353.5 -3.38047 0.240292 0
M  V30 3723 C 352.673 -4.18255 1.27991 0
M  V30 3724 C 351.732 -5.21625 0.692375 0
M  V30 3725 O 350.758 -5.52619 1.36385 0
M  V30 3726 N 351.96 -5.78201 -0.516178 0
M  V30 3727 H 354.725 -2.41642 1.77283 0
M  V30 3728 H 352.286 -1.21401 1.07115 0
M  V30 3729 H 354.278 -4.04359 -0.16603 0
M  V30 3730 H 352.848 -3.06972 -0.590487 0
M  V30 3731 H 352.068 -3.47451 1.86203 0
M  V30 3732 H 353.356 -4.68643 1.98119 0
M  V30 3733 H 352.754 -5.55301 -1.07969 0
M  V30 3734 H 351.311 -6.4604 -0.86458 0
M  V30 3735 N 354.744 -0.972509 -1.24016 0
M  V30 3736 C 355.691 -0.505969 -2.25186 0
M  V30 3737 C 356.661 0.451009 -1.5986 0
M  V30 3738 O 357.846 0.360307 -1.87367 0
M  V30 3739 C 354.986 0.193089 -3.44559 0
M  V30 3740 C 354.099 -0.803222 -4.24467 0
M  V30 3741 C 353.234 -0.0797793 -5.3114 0
M  V30 3742 C 352.273 -1.06583 -6.02749 0
M  V30 3743 N 351.41 -0.372074 -7.01113 0
M  V30 3744 H 356.25 -1.37351 -2.64459 0
M  V30 3745 H 353.787 -0.688419 -1.29997 0
M  V30 3746 H 355.745 0.615125 -4.1264 0
M  V30 3747 H 354.375 1.02455 -3.06109 0
M  V30 3748 H 353.427 -1.34368 -3.55878 0
M  V30 3749 H 354.739 -1.55494 -4.73944 0
M  V30 3750 H 353.893 0.400015 -6.0538 0
M  V30 3751 H 352.632 0.704597 -4.82583 0
M  V30 3752 H 351.637 -1.55645 -5.27309 0
M  V30 3753 H 352.862 -1.85074 -6.53395 0
M  V30 3754 H 350.808 0.393238 -6.5482 0
M  V30 3755 H 350.725 -1.06258 -7.48495 0
M  V30 3756 H 351.993 0.0855932 -7.79453 0
M  V30 3757 N 356.222 1.38976 -0.743202 0
M  V30 3758 C 357.152 2.33171 -0.123873 0
M  V30 3759 C 358.133 1.54336 0.71516 0
M  V30 3760 O 359.318 1.82696 0.658467 0
M  V30 3761 C 356.448 3.38474 0.777978 0
M  V30 3762 C 355.402 4.27979 0.0424758 0
M  V30 3763 C 354.728 5.2405 1.06189 0
M  V30 3764 C 356.028 5.10155 -1.1198 0
M  V30 3765 H 357.722 2.85213 -0.910709 0
M  V30 3766 H 355.268 1.37133 -0.439388 0
M  V30 3767 H 357.221 4.03328 1.22084 0
M  V30 3768 H 355.945 2.84891 1.59702 0
M  V30 3769 H 354.604 3.64616 -0.380853 0
M  V30 3770 H 354.252 4.66758 1.87472 0
M  V30 3771 H 353.952 5.84785 0.574485 0
M  V30 3772 H 355.476 5.9178 1.50428 0
M  V30 3773 H 356.89 5.68307 -0.75499 0
M  V30 3774 H 355.287 5.80073 -1.53738 0
M  V30 3775 H 356.357 4.44504 -1.93764 0
M  V30 3776 N 357.7 0.491464 1.49741 0
M  V30 3777 C 358.928 -0.0535151 2.06831 0
M  V30 3778 C 359.343 -1.31683 1.35296 0
M  V30 3779 O 358.7 -1.77402 0.42836 0
M  V30 3780 C 358.751 -0.320835 3.60073 0
M  V30 3781 O 358.472 0.892394 4.28915 0
M  V30 3782 C 359.973 -0.910519 4.33848 0
M  V30 3783 H 357.193 0.0161909 0.670805 0
M  V30 3784 H 359.737 0.68609 1.92647 0
M  V30 3785 H 357.892 -1.0104 3.73991 0
M  V30 3786 H 358.306 0.649401 5.20464 0
M  V30 3787 H 359.78 -1.04721 5.41976 0
M  V30 3788 H 360.257 -1.90589 3.95692 0
M  V30 3789 H 360.863 -0.258712 4.24512 0
M  V30 3790 N 359.178 -1.55987 0.224894 0
M  V30 3791 C 360.425 -1.9839 -0.4059 0
M  V30 3792 C 360.753 -1.11261 -1.59535 0
M  V30 3793 O 360.008 -0.158314 -1.95059 0
M  V30 3794 C 360.307 -3.46394 -0.880106 0
M  V30 3795 C 359.973 -4.5046 0.19918 0
M  V30 3796 C 358.635 -4.7864 0.495661 0
M  V30 3797 C 360.987 -5.12855 0.928939 0
M  V30 3798 C 358.315 -5.66497 1.52636 0
M  V30 3799 C 360.667 -6.01828 1.949 0
M  V30 3800 C 359.331 -6.28351 2.25236 0
M  V30 3801 H 358.601 -0.725961 -0.148529 0
M  V30 3802 H 361.248 -1.88668 0.328113 0
M  V30 3803 H 359.553 -3.53337 -1.69294 0
M  V30 3804 H 361.25 -3.76577 -1.37808 0
M  V30 3805 H 357.84 -4.28579 -0.0420526 0
M  V30 3806 H 362.024 -4.9115 0.713129 0
M  V30 3807 H 357.28 -5.8531 1.76698 0
M  V30 3808 H 361.454 -6.49225 2.51951 0
M  V30 3809 H 359.081 -6.96226 3.05244 0
M  V30 3810 N 360.656 0.0484629 -1.57525 0
M  V30 3811 C 361.903 0.743125 -1.88372 0
M  V30 3812 C 362.231 1.76383 -0.819715 0
M  V30 3813 O 361.486 1.94855 0.181659 0
M  V30 3814 C 361.785 1.46632 -3.25935 0
M  V30 3815 C 361.451 0.583427 -4.4711 0
M  V30 3816 C 360.113 0.340191 -4.79996 0
M  V30 3817 C 362.465 -0.0273345 -5.21193 0
M  V30 3818 C 359.793 -0.522903 -5.84365 0
M  V30 3819 C 362.145 -0.878017 -6.26477 0
M  V30 3820 C 360.809 -1.1309 -6.5785 0
M  V30 3821 H 360.079 0.271929 -0.689301 0
M  V30 3822 H 362.726 0.00336166 -1.915 0
M  V30 3823 H 361.031 2.2789 -3.18706 0
M  V30 3824 H 362.728 2.00902 -3.47044 0
M  V30 3825 H 359.318 0.783151 -4.21384 0
M  V30 3826 H 363.502 0.147654 -4.9608 0
M  V30 3827 H 358.758 -0.727335 -6.07058 0
M  V30 3828 H 362.932 -1.35789 -6.83033 0
M  V30 3829 H 360.559 -1.80144 -7.38547 0
M  V30 3830 N 362.134 1.5431 0.320358 0
M  V30 3831 C 363.082 1.84647 1.4145 0
M  V30 3832 C 364.076 0.718624 1.53402 0
M  V30 3833 O 365.282 0.902335 1.5575 0
M  V30 3834 H 361.657 0.585349 0.472091 0
M  V30 3835 H 363.628 2.7614 1.13089 0
M  V30 3836 C 362.377 2.09341 2.77617 0
M  V30 3837 H 361.7 2.9559 2.69196 0
M  V30 3838 H 363.14 2.3452 3.53237 0
M  V30 3839 C 361.599 0.885939 3.25043 0
M  V30 3840 O 362.129 0.0967891 4.01583 0
M  V30 3841 N 360.335 0.696682 2.82125 0
M  V30 3842 H 359.882 1.34006 2.2 0
M  V30 3843 H 359.84 -0.109712 3.14209 0
M  V30 3844 N 363.613 -0.582584 1.46437 0
M  V30 3845 C 364.838 -1.37168 1.55563 0
M  V30 3846 C 365.263 -1.87061 0.19743 0
M  V30 3847 O 364.621 -1.61572 -0.822451 0
M  V30 3848 C 364.669 -2.53511 2.56446 0
M  V30 3849 O 363.773 -3.54953 2.09958 0
M  V30 3850 H 363.114 -0.408494 0.523477 0
M  V30 3851 H 365.644 -0.706646 1.9201 0
M  V30 3852 H 365.654 -3.00426 2.76058 0
M  V30 3853 H 364.329 -2.16549 3.55076 0
M  V30 3854 H 362.906 -3.14516 2.00334 0
M  V30 3855 N 365.091 -1.34144 -0.827227 0
M  V30 3856 C 366.319 -1.29325 -1.61501 0
M  V30 3857 C 366.734 0.13354 -1.88327 0
M  V30 3858 O 366.091 1.0793 -1.47164 0
M  V30 3859 C 366.142 -2.07746 -2.95844 0
M  V30 3860 O 365.863 -3.4486 -2.70191 0
M  V30 3861 C 367.364 -2.10273 -3.90256 0
M  V30 3862 H 364.584 -0.445069 -0.50215 0
M  V30 3863 H 367.128 -1.76693 -1.02955 0
M  V30 3864 H 365.283 -1.6403 -3.5096 0
M  V30 3865 H 365.697 -3.85345 -3.55822 0
M  V30 3866 H 367.171 -2.69575 -4.81698 0
M  V30 3867 H 367.648 -1.096 -4.25305 0
M  V30 3868 H 368.254 -2.54059 -3.41078 0
M  V30 3869 N 366.569 1.04691 -1.17803 0
M  V30 3870 C 367.499 2.14494 -0.92275 0
M  V30 3871 C 368.48 1.69546 0.137179 0
M  V30 3872 O 369.665 1.94195 -0.0141108 0
M  V30 3873 C 366.795 3.44491 -0.440803 0
M  V30 3874 C 365.749 4.03031 -1.4405 0
M  V30 3875 C 365.075 5.28432 -0.81631 0
M  V30 3876 C 366.375 4.39932 -2.81527 0
M  V30 3877 H 368.069 2.36107 -1.84103 0
M  V30 3878 H 365.615 1.1347 -0.886599 0
M  V30 3879 H 367.568 4.2066 -0.249602 0
M  V30 3880 H 366.292 3.22546 0.513025 0
M  V30 3881 H 364.951 3.28937 -1.61853 0
M  V30 3882 H 364.599 5.02792 0.144511 0
M  V30 3883 H 364.299 5.68559 -1.48371 0
M  V30 3884 H 365.823 6.07284 -0.635496 0
M  V30 3885 H 367.237 5.07113 -2.67412 0
M  V30 3886 H 365.634 4.9109 -3.44892 0
M  V30 3887 H 366.704 3.50045 -3.35554 0
M  V30 3888 N 368.047 0.979072 1.23499 0
M  V30 3889 C 368.995 0.510604 2.26926 0
M  V30 3890 C 369.989 -0.431691 1.63807 0
M  V30 3891 O 371.195 -0.30573 1.77385 0
M  V30 3892 H 367.57 0.146688 0.737554 0
M  V30 3893 H 369.541 1.39466 2.63803 0
M  V30 3894 C 368.29 -0.172658 3.47271 0
M  V30 3895 H 367.613 0.543331 3.96091 0
M  V30 3896 H 369.053 -0.464101 4.21452 0
M  V30 3897 C 367.512 -1.40345 3.06276 0
M  V30 3898 O 368.042 -2.49978 3.14442 0
M  V30 3899 N 366.248 -1.27362 2.61203 0
M  V30 3900 H 365.795 -0.381584 2.54758 0
M  V30 3901 H 365.753 -2.09822 2.34141 0
M  V30 3902 N 369.525 -1.3858 0.750561 0
M  V30 3903 C 370.753 -2.04471 0.316098 0
M  V30 3904 C 371.168 -1.56606 -1.05452 0
M  V30 3905 O 370.525 -0.737784 -1.66922 0
M  V30 3906 C 370.576 -3.60025 0.326275 0
M  V30 3907 O 370.297 -4.06133 1.6428 0
M  V30 3908 C 371.798 -4.43131 -0.122429 0
M  V30 3909 H 369.018 -0.65717 0.135528 0
M  V30 3910 H 371.562 -1.77329 1.01857 0
M  V30 3911 H 369.717 -3.86014 -0.327431 0
M  V30 3912 H 370.131 -5.00547 1.56693 0
M  V30 3913 H 371.605 -5.51963 -0.0641473 0
M  V30 3914 H 372.082 -4.23333 -1.16988 0
M  V30 3915 H 372.688 -4.22323 0.50229 0
M  V30 3916 N 371.003 -0.499398 -1.49478 0
M  V30 3917 C 372.228 0.044722 -2.07352 0
M  V30 3918 C 372.653 1.30207 -1.35749 0
M  V30 3919 O 372.011 1.76516 -0.413732 0
M  V30 3920 C 372.059 0.283013 -3.59488 0
M  V30 3921 O 371.163 1.35804 -3.89398 0
M  V30 3922 H 370.504 -0.0255147 -0.66351 0
M  V30 3923 H 373.034 -0.698561 -1.92305 0
M  V30 3924 H 373.044 0.515007 -4.04737 0
M  V30 3925 H 371.719 -0.635636 -4.11014 0
M  V30 3926 H 370.296 1.11113 -3.55961 0
M  V30 3927 N 372.481 1.55866 -0.233164 0
M  V30 3928 C 373.729 1.9821 0.394593 0
M  V30 3929 C 374.05 1.12234 1.59463 0
M  V30 3930 O 373.32 0.201981 1.94856 0
M  V30 3931 H 371.9 0.732034 0.148778 0
M  V30 3932 H 374.562 1.92107 -0.32876 0
M  V30 3933 H 373.658 3.03845 0.713063 0
M  V30 3934 N 373.959 -0.0401083 1.57549 0
M  V30 3935 C 374.889 -1.04384 2.08869 0
M  V30 3936 C 375.87 -1.38407 0.988817 0
M  V30 3937 O 377.055 -1.47483 1.26342 0
M  V30 3938 C 374.185 -2.34808 2.55895 0
M  V30 3939 C 373.139 -2.15057 3.70047 0
M  V30 3940 C 372.465 -3.51145 4.03239 0
M  V30 3941 C 373.765 -1.54576 4.98902 0
M  V30 3942 H 375.459 -0.616666 2.92981 0
M  V30 3943 H 373.005 -0.295184 1.40942 0
M  V30 3944 H 374.958 -3.05346 2.90417 0
M  V30 3945 H 373.682 -2.79565 1.68853 0
M  V30 3946 H 372.341 -1.46954 3.35857 0
M  V30 3947 H 371.989 -3.93529 3.13279 0
M  V30 3948 H 371.689 -3.38758 4.80122 0
M  V30 3949 H 373.213 -4.23062 4.40285 0
M  V30 3950 H 374.627 -2.15017 5.31451 0
M  V30 3951 H 373.024 -1.52796 5.80322 0
M  V30 3952 H 374.094 -0.51039 4.82206 0
M  V30 3953 N 375.437 -1.54477 -0.31217 0
M  V30 3954 C 376.683 -1.73483 -1.0503 0
M  V30 3955 C 377.016 -0.513125 -1.87298 0
M  V30 3956 O 376.291 0.489864 -1.8823 0
M  V30 3957 C 376.574 -3.01723 -1.96558 0
M  V30 3958 C 376.427 -4.3417 -1.17545 0
M  V30 3959 C 377.746 -3.25772 -2.95907 0
M  V30 3960 H 374.865 -0.631222 -0.380432 0
M  V30 3961 H 377.507 -1.87184 -0.325932 0
M  V30 3962 H 375.657 -2.90174 -2.58324 0
M  V30 3963 H 377.329 -4.5762 -0.581513 0
M  V30 3964 H 375.572 -4.31159 -0.477925 0
M  V30 3965 H 376.243 -5.20143 -1.84811 0
M  V30 3966 H 378.719 -3.36857 -2.44267 0
M  V30 3967 H 377.595 -4.16838 -3.57123 0
M  V30 3968 H 377.856 -2.43537 -3.68974 0
M  V30 3969 N 376.915 0.57481 -1.46744 0
M  V30 3970 C 378.326 1.15695 -1.46532 0
M  V30 3971 C 378.677 1.95068 -0.210425 0
M  V30 3972 O 377.802 2.05241 0.685944 0
M  V30 3973 C 378.397 2.1048 -2.65487 0
M  V30 3974 C 376.956 2.64002 -2.68291 0
M  V30 3975 C 376.103 1.40026 -2.39349 0
M  V30 3976 H 379.054 0.362325 -1.54509 0
M  V30 3977 H 379.075 2.94074 -2.41455 0
M  V30 3978 H 378.587 1.52683 -3.56805 0
M  V30 3979 H 376.688 3.25646 -1.81067 0
M  V30 3980 H 376.801 3.06197 -3.68483 0
M  V30 3981 H 375.165 1.70106 -1.89568 0
M  V30 3982 H 375.948 0.840485 -3.32852 0
M  V30 3983 N 378.394 1.34581 0.820102 0
M  V30 3984 C 379.304 1.28471 1.96297 0
M  V30 3985 C 380.32 0.191902 1.72939 0
M  V30 3986 O 381.496 0.418879 1.96996 0
M  V30 3987 C 378.561 1.04281 3.30645 0
M  V30 3988 C 377.622 2.22745 3.66992 0
M  V30 3989 C 376.855 1.997 4.9493 0
M  V30 3990 O 377.078 0.956656 5.6232 0
M  V30 3991 O 376.012 2.86723 5.2922 0
M  V30 3992 H 379.838 2.24624 2.04396 0
M  V30 3993 H 377.423 1.14816 0.955913 0
M  V30 3994 H 379.305 0.925841 4.11104 0
M  V30 3995 H 377.98 0.111697 3.23507 0
M  V30 3996 H 376.887 2.40003 2.86966 0
M  V30 3997 H 378.22 3.14257 3.78819 0
M  V30 3998 N 379.872 -1.04064 1.18357 0
M  V30 3999 C 381.12 -1.76915 0.977013 0
M  V30 4000 C 381.441 -1.88624 -0.494577 0
M  V30 4001 O 380.711 -1.41125 -1.3587 0
M  V30 4002 H 379.291 -0.65535 0.358504 0
M  V30 4003 H 381.953 -1.25592 1.49039 0
M  V30 4004 H 381.049 -2.78178 1.41504 0
M  V30 4005 N 381.35 -0.985608 -1.22978 0
M  V30 4006 C 382.627 -0.573599 -1.87001 0
M  V30 4007 C 383.007 0.949213 -1.88555 0
M  V30 4008 O 382.355 1.82811 -1.37086 0
M  V30 4009 C 382.565 -1.18564 -3.28243 0
M  V30 4010 C 383.913 -1.28163 -4.04796 0
M  V30 4011 O 384.937 -1.13949 -3.37482 0
M  V30 4012 O 383.796 -1.50832 -5.25273 0
M  V30 4013 H 380.89 -0.193868 -0.803955 0
M  V30 4014 H 383.436 -1.08102 -1.30813 0
M  V30 4015 H 382.208 -2.22758 -3.21706 0
M  V30 4016 H 381.831 -0.663363 -3.92027 0
M  V30 4017 N 382.828 1.3818 -0.7579 0
M  V30 4018 C 383.791 2.28764 -0.141286 0
M  V30 4019 C 384.791 1.47388 0.642907 0
M  V30 4020 O 385.981 1.67781 0.468536 0
M  V30 4021 C 383.113 3.31184 0.808069 0
M  V30 4022 H 384.306 2.848 -0.939633 0
M  V30 4023 H 381.859 1.47212 -0.525191 0
M  V30 4024 H 382.594 2.80247 1.63193 0
M  V30 4025 H 382.379 3.91314 0.248104 0
M  V30 4026 H 383.869 3.98909 1.23536 0
M  V30 4027 N 384.306 0.507319 1.49211 0
M  V30 4028 C 385.236 -0.256939 2.32082 0
M  V30 4029 C 386.217 -0.956609 1.40652 0
M  V30 4030 O 387.402 -0.946788 1.69557 0
M  V30 4031 C 384.532 -1.31802 3.21318 0
M  V30 4032 C 383.486 -0.737855 4.21592 0
M  V30 4033 C 382.812 -1.89992 4.99807 0
M  V30 4034 C 384.112 0.275325 5.21574 0
M  V30 4035 H 385.806 0.434798 2.96226 0
M  V30 4036 H 383.352 0.210546 1.42452 0
M  V30 4037 H 385.305 -1.86045 3.78107 0
M  V30 4038 H 384.029 -2.03903 2.5513 0
M  V30 4039 H 382.688 -0.217126 3.65956 0
M  V30 4040 H 382.336 -2.60877 4.30061 0
M  V30 4041 H 382.036 -1.51777 5.6766 0
M  V30 4042 H 383.56 -2.44657 5.59442 0
M  V30 4043 H 384.974 -0.179193 5.7302 0
M  V30 4044 H 383.371 0.573649 5.97352 0
M  V30 4045 H 384.441 1.18903 4.70096 0
M  V30 4046 N 385.784 -1.5574 0.241426 0
M  V30 4047 C 387.195 -1.84842 -0.262755 0
M  V30 4048 C 387.546 -1.16317 -1.58003 0
M  V30 4049 O 386.671 -0.439653 -2.11887 0
M  V30 4050 C 387.266 -3.35332 -0.483523 0
M  V30 4051 C 385.825 -3.6468 -0.931977 0
M  V30 4052 C 384.972 -2.77299 -0.0061151 0
M  V30 4053 H 387.923 -1.51761 0.464129 0
M  V30 4054 H 387.944 -3.56615 -1.32688 0
M  V30 4055 H 387.456 -3.85178 0.47537 0
M  V30 4056 H 385.557 -3.20307 -1.90353 0
M  V30 4057 H 385.67 -4.72498 -0.792628 0
M  V30 4058 H 384.034 -2.49408 -0.516503 0
M  V30 4059 H 384.817 -3.2995 0.948052 0
M  V30 4060 N 387.262 0.0317525 -1.57568 0
M  V30 4061 C 388.511 0.722131 -1.8833 0
M  V30 4062 C 388.824 1.76664 -0.839587 0
M  V30 4063 O 390.03 2.50942 -1.03635 0
M  V30 4064 C 388.486 1.33544 -3.34207 0
M  V30 4065 C 388.094 0.327415 -4.46802 0
M  V30 4066 C 389.838 2.00585 -3.7412 0
M  V30 4067 C 387.745 0.948915 -5.83738 0
M  V30 4068 H 386.675 0.273466 -0.702661 0
M  V30 4069 H 389.326 -0.0235811 -1.83485 0
M  V30 4070 H 387.708 2.13077 -3.33788 0
M  V30 4071 H 388.882 -0.441006 -4.58685 0
M  V30 4072 H 387.197 -0.240758 -4.15703 0
M  V30 4073 H 389.794 2.47932 -4.73744 0
M  V30 4074 H 390.137 2.82285 -3.05975 0
M  V30 4075 H 390.67 1.27831 -3.76702 0
M  V30 4076 H 387.409 0.171387 -6.55276 0
M  V30 4077 H 386.929 1.68724 -5.7558 0
M  V30 4078 H 388.608 1.45705 -6.3038 0
M  V30 4079 N 388.74 1.54641 0.303973 0
M  V30 4080 C 390.151 1.64811 0.877163 0
M  V30 4081 C 390.502 0.554838 1.88191 0
M  V30 4082 O 389.627 -0.309033 2.14182 0
M  V30 4083 C 390.222 2.9876 1.59775 0
M  V30 4084 C 388.781 3.11061 2.11938 0
M  V30 4085 C 387.928 2.60479 0.951097 0
M  V30 4086 H 390.879 1.58493 0.0810486 0
M  V30 4087 H 390.9 2.90017 2.46314 0
M  V30 4088 H 390.412 3.7831 0.866226 0
M  V30 4089 H 388.513 2.36225 2.88146 0
M  V30 4090 H 388.626 4.17171 2.35595 0
M  V30 4091 H 386.99 2.16859 1.33583 0
M  V30 4092 H 387.773 3.42504 0.233581 0
M  V30 4093 N 390.218 -0.567019 1.47046 0
M  V30 4094 C 391.466 -1.322 1.52864 0
M  V30 4095 C 391.787 -1.94088 0.188388 0
M  V30 4096 O 391.057 -1.7941 -0.786693 0
M  V30 4097 H 389.637 -0.490894 0.563056 0
M  V30 4098 H 392.299 -0.662879 1.83281 0
M  V30 4099 H 391.395 -2.12062 2.2899 0
M  V30 4100 N 391.696 -1.35014 -0.812953 0
M  V30 4101 C 392.659 -1.27292 -1.90602 0
M  V30 4102 C 393.659 -0.185817 -1.59723 0
M  V30 4103 O 394.849 -0.439102 -1.68575 0
M  V30 4104 C 391.981 -0.967676 -3.26877 0
M  V30 4105 H 393.174 -2.24479 -1.9887 0
M  V30 4106 H 390.727 -1.19446 -1.00808 0
M  V30 4107 H 391.462 0.0005954 -3.243 0
M  V30 4108 H 391.247 -1.75412 -3.50675 0
M  V30 4109 H 392.737 -0.939085 -4.06904 0
M  V30 4110 N 393.175 1.03435 -1.18907 0
M  V30 4111 C 394.125 2.09924 -0.889706 0
M  V30 4112 C 395.109 1.60261 0.143216 0
M  V30 4113 O 396.301 1.76892 -0.0617122 0
M  V30 4114 C 393.43 3.40669 -0.424168 0
M  V30 4115 C 392.516 3.97082 -1.48952 0
M  V30 4116 N 392.907 4.27227 -2.70759 0
M  V30 4117 C 391.205 4.25029 -1.35152 0
M  V30 4118 C 391.906 4.7246 -3.39347 0
M  V30 4119 N 390.882 4.7366 -2.66735 0
M  V30 4120 H 394.684 2.31116 -1.81555 0
M  V30 4121 H 392.198 1.21246 -1.08042 0
M  V30 4122 H 394.195 4.16461 -0.191176 0
M  V30 4123 H 392.855 3.20901 0.495263 0
M  V30 4124 H 393.866 4.16678 -3.0757 0
M  V30 4125 H 390.543 4.14554 -0.495126 0
M  V30 4126 H 391.933 5.04751 -4.43481 0
M  V30 4127 N 394.653 0.992116 1.22453 0
M  V30 4128 C 396.069 0.702713 1.43297 0
M  V30 4129 C 396.269 -0.726909 1.87932 0
M  V30 4130 O 395.325 -1.49792 2.0327 0
M  V30 4131 C 396.638 1.70762 2.47509 0
M  V30 4132 C 398.186 1.72298 2.61309 0
M  V30 4133 C 398.661 2.71649 3.68742 0
M  V30 4134 N 400.152 2.70239 3.76199 0
M  V30 4135 C 400.887 3.43778 4.58917 0
M  V30 4136 N 400.383 4.26914 5.45633 0
M  V30 4137 N 402.176 3.32487 4.5322 0
M  V30 4138 H 394.327 1.91543 0.917871 0
M  V30 4139 H 396.59 0.826031 0.465162 0
M  V30 4140 H 396.296 2.73059 2.21657 0
M  V30 4141 H 396.17 1.49985 3.46099 0
M  V30 4142 H 398.557 0.706989 2.86506 0
M  V30 4143 H 398.638 1.97143 1.62997 0
M  V30 4144 H 398.282 3.73397 3.44292 0
M  V30 4145 H 398.212 2.44074 4.66622 0
M  V30 4146 H 400.703 2.09912 3.14237 0
M  V30 4147 H 401.016 4.79855 6.05771 0
M  V30 4148 H 399.361 4.31002 5.45218 0
M  V30 4149 H 402.552 2.6698 3.84499 0
M  V30 4150 H 402.725 3.90058 5.17454 0
M  V30 4151 N 396.131 -1.37776 0.765217 0
M  V30 4152 C 397.542 -1.82521 0.392819 0
M  V30 4153 C 397.893 -1.63789 -1.08017 0
M  V30 4154 O 397.018 -1.14542 -1.83601 0
M  V30 4155 C 397.613 -3.31358 0.706214 0
M  V30 4156 C 396.172 -3.74406 0.386952 0
M  V30 4157 C 395.319 -2.60394 0.953422 0
M  V30 4158 H 398.27 -1.2634 0.960412 0
M  V30 4159 H 398.291 -3.80498 -0.0114706 0
M  V30 4160 H 397.803 -3.44959 1.77833 0
M  V30 4161 H 395.904 -3.66377 -0.678112 0
M  V30 4162 H 396.017 -4.70749 0.890636 0
M  V30 4163 H 394.381 -2.51878 0.378064 0
M  V30 4164 H 395.164 -2.76791 2.03081 0
M  V30 4165 N 397.609 -0.515225 -1.4894 0
M  V30 4166 C 398.857 0.0241671 -2.02086 0
M  V30 4167 C 399.178 1.3616 -1.3959 0
M  V30 4168 O 398.448 1.87841 -0.556121 0
M  V30 4169 H 397.028 0.0119203 -0.746905 0
M  V30 4170 H 399.69 -0.675702 -1.82812 0
M  V30 4171 H 398.786 0.143385 -3.1177 0
M  V30 4172 N 399.087 1.5561 -0.249682 0
M  V30 4173 C 400.333 1.99306 0.374841 0
M  V30 4174 C 400.666 1.13767 1.57387 0
M  V30 4175 O 399.941 0.201711 1.93451 0
M  V30 4176 C 400.224 3.51507 0.781986 0
M  V30 4177 C 400.077 4.4781 -0.422629 0
M  V30 4178 C 401.396 4.08884 1.62793 0
M  V30 4179 H 398.515 0.724572 0.134773 0
M  V30 4180 H 401.157 1.86719 -0.351549 0
M  V30 4181 H 399.307 3.62363 1.4009 0
M  V30 4182 H 400.979 4.48931 -1.06108 0
M  V30 4183 H 399.222 4.20518 -1.06524 0
M  V30 4184 H 399.893 5.51919 -0.0943766 0
M  V30 4185 H 402.369 4.01147 1.10547 0
M  V30 4186 H 401.245 5.1564 1.88166 0
M  V30 4187 H 401.506 3.57515 2.60068 0
M  V30 4188 N 400.565 -0.0233959 1.57583 0
M  V30 4189 C 401.811 -0.714119 1.89811 0
M  V30 4190 C 402.144 -1.74702 0.848113 0
M  V30 4191 O 401.419 -1.94023 -0.136135 0
M  V30 4192 C 401.702 -1.37853 3.32669 0
M  V30 4193 C 401.555 -0.358764 4.48367 0
M  V30 4194 C 402.874 -2.31101 3.7454 0
M  V30 4195 H 399.993 -0.25814 0.690314 0
M  V30 4196 H 402.635 0.0230927 1.89986 0
M  V30 4197 H 400.785 -2.00689 3.3265 0
M  V30 4198 H 402.457 0.268115 4.6052 0
M  V30 4199 H 400.7 0.321387 4.32608 0
M  V30 4200 H 401.371 -0.862242 5.45224 0
M  V30 4201 H 403.847 -1.78304 3.75961 0
M  V30 4202 H 402.723 -2.74567 4.75294 0
M  V30 4203 H 402.984 -3.18018 3.0711 0
M  V30 4204 N 402.043 -1.548 -0.295768 0
M  V30 4205 C 403.271 -1.78327 -1.04914 0
M  V30 4206 C 403.686 -0.545316 -1.80753 0
M  V30 4207 O 403.043 0.485013 -1.75937 0
M  V30 4208 C 403.094 -2.99418 -2.02561 0
M  V30 4209 O 402.815 -4.18431 -1.29798 0
M  V30 4210 C 404.316 -3.35375 -2.89895 0
M  V30 4211 H 401.536 -0.594618 -0.310918 0
M  V30 4212 H 404.08 -2.01763 -0.333454 0
M  V30 4213 H 402.235 -2.78175 -2.69624 0
M  V30 4214 H 402.649 -4.86736 -1.95419 0
M  V30 4215 H 404.123 -4.23332 -3.54251 0
M  V30 4216 H 404.6 -2.53761 -3.58472 0
M  V30 4217 H 405.206 -3.58796 -2.28355 0
M  V30 4218 N 403.521 0.559213 -1.47345 0
M  V30 4219 C 404.468 1.66645 -1.59682 0
M  V30 4220 C 405.438 1.60168 -0.43994 0
M  V30 4221 O 406.623 1.79031 -0.659736 0
M  V30 4222 C 403.763 3.04969 -1.61518 0
M  V30 4223 C 402.876 3.21897 -2.88108 0
M  V30 4224 C 402.011 4.50608 -2.81294 0
M  V30 4225 C 401.05 4.60961 -4.02717 0
M  V30 4226 N 400.187 5.81024 -3.94151 0
M  V30 4227 H 405.027 1.55439 -2.54249 0
M  V30 4228 H 402.564 0.757219 -1.26113 0
M  V30 4229 H 404.522 3.85064 -1.60566 0
M  V30 4230 H 403.152 3.15015 -0.704645 0
M  V30 4231 H 402.204 2.35248 -2.98936 0
M  V30 4232 H 403.516 3.25412 -3.78032 0
M  V30 4233 H 402.67 5.3896 -2.7858 0
M  V30 4234 H 401.409 4.49568 -1.89049 0
M  V30 4235 H 400.414 3.71021 -4.05738 0
M  V30 4236 H 401.639 4.63761 -4.96087 0
M  V30 4237 H 399.585 5.80938 -3.04708 0
M  V30 4238 H 399.502 5.85909 -4.77752 0
M  V30 4239 H 400.77 6.71744 -3.9545 0
M  V30 4240 N 404.999 1.35443 0.805782 0
M  V30 4241 C 405.962 1.28301 1.89925 0
M  V30 4242 C 406.962 0.194285 1.59622 0
M  V30 4243 O 408.152 0.448036 1.6834 0
M  V30 4244 C 405.284 0.984997 3.2636 0
M  V30 4245 H 406.477 2.2553 1.97677 0
M  V30 4246 H 404.03 1.19979 1.00173 0
M  V30 4247 H 404.765 0.016603 3.24296 0
M  V30 4248 H 404.55 1.77269 3.4974 0
M  V30 4249 H 406.04 0.960651 4.064 0
M  V30 4250 N 406.477 -1.02803 1.19454 0
M  V30 4251 C 407.725 -1.75869 0.995722 0
M  V30 4252 C 408.046 -1.89138 -0.474543 0
M  V30 4253 O 407.316 -1.42558 -1.34366 0
M  V30 4254 H 405.896 -0.651511 0.365435 0
M  V30 4255 H 408.558 -1.24004 1.50363 0
M  V30 4256 H 407.654 -2.76661 1.44447 0
M  V30 4257 N 407.956 -0.998596 -1.21925 0
M  V30 4258 C 408.886 -0.573688 -2.26343 0
M  V30 4259 C 409.867 0.402296 -1.65274 0
M  V30 4260 O 411.052 0.291683 -1.91997 0
M  V30 4261 C 408.182 0.106839 -3.47136 0
M  V30 4262 C 407.136 -0.788269 -4.20678 0
M  V30 4263 C 406.462 0.0254927 -5.34694 0
M  V30 4264 C 407.762 -2.08784 -4.78755 0
M  V30 4265 H 409.456 -1.44651 -2.62138 0
M  V30 4266 H 407.002 -0.696975 -1.26009 0
M  V30 4267 H 408.955 0.415531 -4.19346 0
M  V30 4268 H 407.679 1.01424 -3.10452 0
M  V30 4269 H 406.338 -1.08069 -3.50309 0
M  V30 4270 H 405.986 0.933989 -4.94253 0
M  V30 4271 H 405.686 -0.570437 -5.84825 0
M  V30 4272 H 407.21 0.328147 -6.09718 0
M  V30 4273 H 408.624 -1.84272 -5.42878 0
M  V30 4274 H 407.021 -2.63307 -5.39249 0
M  V30 4275 H 408.091 -2.76284 -3.98491 0
M  V30 4276 N 409.434 1.37368 -0.772513 0
M  V30 4277 C 410.683 1.98918 -0.333861 0
M  V30 4278 C 410.996 1.62017 1.09589 0
M  V30 4279 O 412.202 2.16676 1.63596 0
M  V30 4280 C 410.658 3.55735 -0.545971 0
M  V30 4281 C 410.266 4.01573 -1.98603 0
M  V30 4282 C 412.01 4.24156 -0.170979 0
M  V30 4283 C 409.917 5.51102 -2.1457 0
M  V30 4284 H 408.847 0.744214 -0.121085 0
M  V30 4285 H 411.498 1.56888 -0.95175 0
M  V30 4286 H 409.88 3.95748 0.141387 0
M  V30 4287 H 411.054 3.72803 -2.7084 0
M  V30 4288 H 409.369 3.45937 -2.31769 0
M  V30 4289 H 411.966 5.34024 -0.26878 0
M  V30 4290 H 412.309 4.06917 0.878855 0
M  V30 4291 H 412.842 3.89447 -0.810914 0
M  V30 4292 H 409.581 5.73268 -3.17875 0
M  V30 4293 H 409.101 5.81554 -1.46817 0
M  V30 4294 H 410.78 6.17083 -1.94468 0
M  V30 4295 N 410.912 0.523116 1.48665 0
M  V30 4296 C 411.842 -0.23231 2.32342 0
M  V30 4297 C 412.823 -0.941637 1.41659 0
M  V30 4298 O 414.008 -0.928751 1.70552 0
M  V30 4299 C 411.138 -1.28387 3.22698 0
M  V30 4300 C 410.092 -0.693098 4.22351 0
M  V30 4301 C 409.418 -1.8468 5.01794 0
M  V30 4302 C 410.718 0.33063 5.21252 0
M  V30 4303 H 412.412 0.466192 2.95748 0
M  V30 4304 H 409.958 0.225643 1.42221 0
M  V30 4305 H 411.911 -1.82024 3.80059 0
M  V30 4306 H 410.635 -2.01186 2.57278 0
M  V30 4307 H 409.294 -0.178299 3.66166 0
M  V30 4308 H 408.942 -2.56301 4.32804 0
M  V30 4309 H 408.642 -1.45747 5.69238 0
M  V30 4310 H 410.166 -2.38709 5.62006 0
M  V30 4311 H 411.58 -0.118407 5.73178 0
M  V30 4312 H 409.977 0.636974 5.9671 0
M  V30 4313 H 411.047 1.23883 4.68808 0
M  V30 4314 N 412.39 -1.55475 0.257931 0
M  V30 4315 C 413.637 -1.99207 -0.363728 0
M  V30 4316 C 413.965 -1.1462 -1.57139 0
M  V30 4317 O 413.22 -0.199653 -1.94679 0
M  V30 4318 C 413.519 -3.48183 -0.806433 0
M  V30 4319 C 413.185 -4.49936 0.294684 0
M  V30 4320 C 411.847 -4.77481 0.597076 0
M  V30 4321 C 414.199 -5.10769 1.03751 0
M  V30 4322 C 411.527 -5.63132 1.64618 0
M  V30 4323 C 413.879 -5.97558 2.07622 0
M  V30 4324 C 412.543 -6.23432 2.38514 0
M  V30 4325 H 411.813 -0.728949 -0.133097 0
M  V30 4326 H 414.46 -1.8793 0.368059 0
M  V30 4327 H 412.765 -3.56848 -1.61761 0
M  V30 4328 H 414.462 -3.79415 -1.29789 0
M  V30 4329 H 411.052 -4.28572 0.0488649 0
M  V30 4330 H 415.236 -4.89527 0.817149 0
M  V30 4331 H 410.492 -5.8143 1.89074 0
M  V30 4332 H 414.666 -6.43735 2.65666 0
M  V30 4333 H 412.293 -6.89594 3.19943 0
M  V30 4334 N 413.868 0.0150385 -1.57593 0
M  V30 4335 C 415.116 0.701613 -1.8953 0
M  V30 4336 C 415.437 1.75139 -0.857396 0
M  V30 4337 O 414.707 1.95607 0.107194 0
M  V30 4338 H 413.287 0.26213 -0.699498 0
M  V30 4339 H 415.949 -0.0223304 -1.94887 0
M  V30 4340 H 415.045 1.18236 -2.88837 0
M  V30 4341 N 415.346 1.54954 0.287554 0
M  V30 4342 C 416.294 1.87606 1.37502 0
M  V30 4343 C 417.288 0.751001 1.51843 0
M  V30 4344 O 418.494 0.935169 1.53801 0
M  V30 4345 H 414.869 0.595231 0.459569 0
M  V30 4346 H 416.84 2.78477 1.07206 0
M  V30 4347 C 415.589 2.15183 2.73115 0
M  V30 4348 H 414.912 3.01234 2.62866 0
M  V30 4349 H 416.352 2.4196 3.48183 0
M  V30 4350 C 414.811 0.954686 3.2309 0
M  V30 4351 O 415.341 0.181949 4.01288 0
M  V30 4352 N 413.547 0.756368 2.80584 0
M  V30 4353 H 413.094 1.38643 2.17108 0
M  V30 4354 H 413.052 -0.0430391 3.14371 0
M  V30 4355 N 416.824 -0.551391 1.4764 0
M  V30 4356 C 418.101 -1.31229 1.45046 0
M  V30 4357 C 418.481 -2.10563 0.150527 0
M  V30 4358 O 417.829 -2.11374 -0.867956 0
M  V30 4359 C 418.039 -2.21189 2.69956 0
M  V30 4360 C 419.387 -2.82021 3.1741 0
M  V30 4361 O 420.411 -2.31488 2.70724 0
M  V30 4362 O 419.27 -3.73885 3.98588 0
M  V30 4363 H 416.364 -0.591193 0.578291 0
M  V30 4364 H 418.91 -0.569813 1.59847 0
M  V30 4365 H 417.682 -1.62207 3.56096 0
M  V30 4366 H 417.305 -3.02722 2.57769 0
M  V30 4367 N 418.302 -1.35869 -0.798587 0
M  V30 4368 C 419.579 -1.20145 -1.54352 0
M  V30 4369 C 419.959 0.216161 -2.0999 0
M  V30 4370 O 419.307 1.22068 -1.93162 0
M  V30 4371 C 419.517 -2.27602 -2.64572 0
M  V30 4372 C 420.865 -2.63811 -3.32699 0
M  V30 4373 O 421.889 -2.26576 -2.74849 0
M  V30 4374 O 420.748 -3.27866 -4.37226 0
M  V30 4375 H 417.842 -0.467248 -0.682355 0
M  V30 4376 H 420.388 -1.47574 -0.837859 0
M  V30 4377 H 419.16 -3.2265 -2.21388 0
M  V30 4378 H 418.783 -2.01488 -3.42766 0
M  V30 4379 N 419.78 1.02168 -1.19998 0
M  V30 4380 C 420.727 2.10601 -0.944228 0
M  V30 4381 C 421.697 1.65639 0.123664 0
M  V30 4382 O 422.882 1.9079 -0.0199941 0
M  V30 4383 C 420.022 3.41504 -0.496865 0
M  V30 4384 C 419.135 3.99973 -1.63234 0
M  V30 4385 C 418.27 5.18915 -1.13579 0
M  V30 4386 C 417.309 5.69456 -2.24468 0
M  V30 4387 N 416.446 6.79665 -1.76068 0
M  V30 4388 H 421.286 2.31814 -1.8726 0
M  V30 4389 H 418.823 1.13686 -0.933483 0
M  V30 4390 H 420.781 4.16626 -0.218843 0
M  V30 4391 H 419.411 3.2038 0.394508 0
M  V30 4392 H 418.463 3.21997 -2.0254 0
M  V30 4393 H 419.775 4.33492 -2.46752 0
M  V30 4394 H 418.929 6.01222 -0.813429 0
M  V30 4395 H 417.668 4.8695 -0.270434 0
M  V30 4396 H 416.673 4.85757 -2.57526 0
M  V30 4397 H 417.898 6.03459 -3.11472 0
M  V30 4398 H 415.844 6.49538 -0.918516 0
M  V30 4399 H 415.761 7.12349 -2.5317 0
M  V30 4400 H 417.029 7.65549 -1.46817 0
M  V30 4401 N 421.258 1.00505 1.21394 0
M  V30 4402 C 422.191 0.51032 2.22421 0
M  V30 4403 C 423.169 -0.436 1.56645 0
M  V30 4404 O 424.353 -0.358709 1.85055 0
M  V30 4405 C 421.48 -0.258733 3.3771 0
M  V30 4406 C 420.526 0.635395 4.2174 0
M  V30 4407 S 421.359 2.09783 4.92698 0
M  V30 4408 C 422.515 1.33862 6.11418 0
M  V30 4409 H 422.748 1.36637 2.64041 0
M  V30 4410 H 420.281 0.812991 1.31262 0
M  V30 4411 H 422.239 -0.696372 4.0455 0
M  V30 4412 H 420.9 -1.0902 2.94573 0
M  V30 4413 H 420.093 0.0430189 5.03982 0
M  V30 4414 H 419.695 1.01031 3.60095 0
M  V30 4415 H 421.987 0.612541 6.74725 0
M  V30 4416 H 422.93 2.13675 6.75092 0
M  V30 4417 H 423.338 0.846568 5.58116 0
M  V30 4418 N 422.737 -1.36956 0.779787 0
M  V30 4419 C 423.667 -2.32761 0.185651 0
M  V30 4420 C 424.648 -1.56177 -0.673989 0
M  V30 4421 O 425.833 -1.84378 -0.609797 0
M  V30 4422 C 422.963 -3.40418 -0.687964 0
M  V30 4423 C 421.917 -4.27941 0.0710102 0
M  V30 4424 C 421.243 -5.26681 -0.922573 0
M  V30 4425 C 422.543 -5.07006 1.25467 0
M  V30 4426 H 424.237 -2.82698 0.986008 0
M  V30 4427 H 421.783 -1.3592 0.475592 0
M  V30 4428 H 423.736 -4.06423 -1.11348 0
M  V30 4429 H 422.46 -2.89025 -1.52093 0
M  V30 4430 H 421.119 -3.63478 0.47739 0
M  V30 4431 H 420.767 -4.71565 -1.7503 0
M  V30 4432 H 420.467 -5.86103 -0.419237 0
M  V30 4433 H 421.991 -5.9556 -1.34686 0
M  V30 4434 H 423.405 -5.66105 0.905401 0
M  V30 4435 H 421.802 -5.75793 1.69063 0
M  V30 4436 H 422.872 -4.3921 2.05481 0
M  V30 4437 N 424.215 -0.530993 -1.48385 0
M  V30 4438 C 425.145 0.219985 -2.32461 0
M  V30 4439 C 426.126 0.934111 -1.42156 0
M  V30 4440 O 427.311 0.919694 -1.71042 0
M  V30 4441 C 424.441 1.26674 -3.23375 0
M  V30 4442 C 423.395 0.67069 -4.22712 0
M  V30 4443 C 422.721 1.82017 -5.02766 0
M  V30 4444 C 424.021 -0.358268 -5.2107 0
M  V30 4445 H 425.715 -0.48187 -2.95497 0
M  V30 4446 H 423.261 -0.233182 -1.42099 0
M  V30 4447 H 425.214 1.80006 -3.81019 0
M  V30 4448 H 423.938 1.99818 -2.58341 0
M  V30 4449 H 422.597 0.158878 -3.66256 0
M  V30 4450 H 422.245 2.54002 -4.34157 0
M  V30 4451 H 421.945 1.42727 -5.70003 0
M  V30 4452 H 423.469 2.35725 -5.63264 0
M  V30 4453 H 424.883 0.0880081 -5.73232 0
M  V30 4454 H 423.28 -0.66861 -5.96364 0
M  V30 4455 H 424.35 -1.26367 -4.68145 0
M  V30 4456 N 425.693 1.55336 -0.266172 0
M  V30 4457 C 426.939 1.99692 0.353681 0
M  V30 4458 C 427.272 1.1543 1.56172 0
M  V30 4459 O 426.547 0.222218 1.93226 0
M  V30 4460 C 426.83 3.52316 0.74466 0
M  V30 4461 C 426.683 4.47337 -0.470101 0
M  V30 4462 C 428.002 4.10588 1.58447 0
M  V30 4463 H 425.121 0.725961 0.12708 0
M  V30 4464 H 427.763 1.86336 -0.371333 0
M  V30 4465 H 425.913 3.63829 1.36239 0
M  V30 4466 H 427.585 4.4778 -1.10864 0
M  V30 4467 H 425.828 4.19364 -1.10978 0
M  V30 4468 H 426.499 5.51788 -0.15291 0
M  V30 4469 H 428.975 4.02297 1.06286 0
M  V30 4470 H 427.851 5.17607 1.82686 0
M  V30 4471 H 428.112 3.60253 2.56262 0
M  V30 4472 N 427.171 -0.0066808 1.57599 0
M  V30 4473 C 428.118 -1.00024 2.08 0
M  V30 4474 C 429.088 -1.34549 0.973943 0
M  V30 4475 O 430.273 -1.44502 1.24595 0
M  V30 4476 C 427.413 -2.2891 2.58252 0
M  V30 4477 C 426.526 -2.00346 3.82734 0
M  V30 4478 C 425.661 -3.23265 4.21513 0
M  V30 4479 C 424.7 -2.90357 5.3885 0
M  V30 4480 N 423.837 -4.05793 5.72954 0
M  V30 4481 H 428.677 -0.563499 2.92624 0
M  V30 4482 H 426.214 -0.266592 1.44664 0
M  V30 4483 H 428.172 -3.04247 2.85464 0
M  V30 4484 H 426.802 -2.70265 1.76512 0
M  V30 4485 H 425.854 -1.15406 3.62471 0
M  V30 4486 H 427.166 -1.72086 4.68175 0
M  V30 4487 H 426.32 -4.06953 4.49971 0
M  V30 4488 H 425.059 -3.54657 3.34768 0
M  V30 4489 H 424.064 -2.05075 5.10122 0
M  V30 4490 H 425.289 -2.60219 6.27266 0
M  V30 4491 H 423.235 -4.37094 4.89167 0
M  V30 4492 H 423.152 -3.81034 6.52954 0
M  V30 4493 H 424.42 -4.90289 6.06001 0
M  V30 4494 N 428.649 -1.55105 -0.279332 0
M  V30 4495 C 429.597 -1.88333 -1.36505 0
M  V30 4496 C 430.591 -0.759043 -1.51443 0
M  V30 4497 O 431.797 -0.943312 -1.53302 0
M  V30 4498 H 428.172 -0.59766 -0.456406 0
M  V30 4499 H 430.143 -2.79041 -1.05728 0
M  V30 4500 C 428.892 -2.16628 -2.7197 0
M  V30 4501 H 428.215 -3.02624 -2.61264 0
M  V30 4502 H 429.655 -2.43803 -3.46895 0
M  V30 4503 C 428.114 -0.971807 -3.22579 0
M  V30 4504 O 428.644 -0.203228 -4.01186 0
M  V30 4505 N 426.85 -0.771238 -2.80179 0
M  V30 4506 H 426.397 -1.39792 -2.1637 0
M  V30 4507 H 426.355 0.0263667 -3.14389 0
M  V30 4508 N 430.127 0.543554 -1.4793 0
M  V30 4509 C 431.376 1.29649 -1.54512 0
M  V30 4510 C 431.689 1.94382 -0.217973 0
M  V30 4511 O 432.895 2.71017 -0.161908 0
M  V30 4512 C 431.351 2.35175 -2.72435 0
M  V30 4513 C 430.959 1.76572 -4.11736 0
M  V30 4514 C 432.703 3.11564 -2.8832 0
M  V30 4515 C 430.61 2.79958 -5.20939 0
M  V30 4516 H 429.54 0.487541 -0.57517 0
M  V30 4517 H 432.191 0.575708 -1.74235 0
M  V30 4518 H 430.573 3.10229 -2.46118 0
M  V30 4519 H 431.747 1.07799 -4.48013 0
M  V30 4520 H 430.062 1.12722 -4.00852 0
M  V30 4521 H 432.659 3.88794 -3.67074 0
M  V30 4522 H 433.002 3.66594 -1.97268 0
M  V30 4523 H 433.535 2.43623 -3.14472 0
M  V30 4524 H 430.274 2.29766 -6.13912 0
M  V30 4525 H 429.794 3.47101 -4.89164 0
M  V30 4526 H 431.473 3.43198 -5.48474 0
M  V30 4527 N 431.605 1.3629 0.791371 0
M  V30 4528 C 432.537 1.26321 1.91248 0
M  V30 4529 C 433.55 0.18313 1.61767 0
M  V30 4530 O 434.739 0.437682 1.73051 0
M  V30 4531 C 431.839 0.925901 3.26007 0
M  V30 4532 C 431.012 2.10746 3.83281 0
M  V30 4533 C 430.071 1.74352 4.96475 0
M  V30 4534 O 429.097 2.46416 5.13096 0
M  V30 4535 N 430.299 0.676058 5.7655 0
M  V30 4536 H 433.064 2.22915 2.00323 0
M  V30 4537 H 430.625 1.29659 0.969546 0
M  V30 4538 H 432.617 0.663636 3.99222 0
M  V30 4539 H 431.187 0.0491581 3.12561 0
M  V30 4540 H 430.407 2.53264 3.02077 0
M  V30 4541 H 431.695 2.8969 4.18279 0
M  V30 4542 H 431.093 0.0776467 5.65647 0
M  V30 4543 H 429.65 0.473612 6.50077 0
M  V30 4544 N 433.083 -1.0153 1.20538 0
M  V30 4545 C 434.013 -2.11972 0.979295 0
M  V30 4546 C 434.994 -1.6985 -0.0921787 0
M  V30 4547 O 436.179 -1.94089 0.0655932 0
M  V30 4548 C 433.309 -3.43201 0.531984 0
M  V30 4549 C 432.263 -3.9907 1.54685 0
M  V30 4550 C 431.589 -5.26082 0.956127 0
M  V30 4551 C 432.889 -4.32313 2.93092 0
M  V30 4552 H 434.583 -2.31143 1.90298 0
M  V30 4553 H 432.129 -1.11079 0.916372 0
M  V30 4554 H 434.082 -4.1985 0.361044 0
M  V30 4555 H 432.806 -3.23792 -0.427327 0
M  V30 4556 H 431.465 -3.2453 1.70517 0
M  V30 4557 H 431.113 -5.02999 -0.0111538 0
M  V30 4558 H 430.813 -5.64426 1.63393 0
M  V30 4559 H 432.337 -6.05386 0.796284 0
M  V30 4560 H 433.751 -4.99845 2.80763 0
M  V30 4561 H 432.148 -4.81774 3.57791 0
M  V30 4562 H 433.218 -3.41025 3.44717 0
M  V30 4563 N 434.561 -1.01147 -1.20859 0
M  V30 4564 C 435.471 -0.58686 -2.27141 0
M  V30 4565 C 436.487 0.373198 -1.69951 0
M  V30 4566 O 437.663 0.235423 -2.00019 0
M  V30 4567 C 434.728 0.0733602 -3.46622 0
M  V30 4568 C 433.789 -0.931995 -4.19061 0
M  V30 4569 C 433.022 -0.303186 -5.32838 0
M  V30 4570 O 433.245 0.898395 -5.63281 0
M  V30 4571 O 432.179 -1.01735 -5.9324 0
M  V30 4572 H 436.005 -1.47155 -2.65667 0
M  V30 4573 H 433.59 -0.780689 -1.2738 0
M  V30 4574 H 435.472 0.442333 -4.19072 0
M  V30 4575 H 434.147 0.932329 -3.09983 0
M  V30 4576 H 433.054 -1.35224 -3.48805 0
M  V30 4577 H 434.387 -1.76076 -4.59628 0
M  V30 4578 N 436.039 1.36541 -0.78704 0
M  V30 4579 C 437.316 1.9355 -0.282424 0
M  V30 4580 C 437.696 1.71919 1.22503 0
M  V30 4581 O 437.044 1.07677 2.01539 0
M  V30 4582 C 437.254 3.4246 -0.672462 0
M  V30 4583 C 438.602 4.19582 -0.650863 0
M  V30 4584 O 439.626 3.50889 -0.612789 0
M  V30 4585 O 438.485 5.42106 -0.691623 0
M  V30 4586 H 435.579 0.824091 -0.0693 0
M  V30 4587 H 438.125 1.45736 -0.869423 0
M  V30 4588 H 436.897 3.51851 -1.71221 0
M  V30 4589 H 436.52 3.97556 -0.0592211 0
M  V30 4590 N 437.518 0.538854 1.48102 0
M  V30 4591 C 438.766 0.00798599 2.02098 0
M  V30 4592 C 439.087 -1.33922 1.41739 0
M  V30 4593 O 438.357 -1.86932 0.585934 0
M  V30 4594 H 436.937 -3.62179e-05 0.747 0
M  V30 4595 H 439.599 0.7047 1.81714 0
M  V30 4596 H 438.695 -0.0937672 3.11959 0
M  V30 4597 N 438.996 -1.55193 0.274407 0
M  V30 4598 C 439.943 -2.225 -0.613374 0
M  V30 4599 C 440.913 -1.19823 -1.15029 0
M  V30 4600 O 442.098 -1.48362 -1.19973 0
M  V30 4601 C 439.238 -2.94927 -1.79199 0
M  V30 4602 C 438.351 -4.12322 -1.28899 0
M  V30 4603 C 437.486 -4.72394 -2.42934 0
M  V30 4604 C 436.525 -5.81984 -1.89634 0
M  V30 4605 N 435.662 -6.36123 -2.9714 0
M  V30 4606 H 440.502 -2.97982 -0.032756 0
M  V30 4607 H 438.039 -1.47099 -0.00440146 0
M  V30 4608 H 439.997 -3.35134 -2.48478 0
M  V30 4609 H 438.627 -2.2187 -2.34465 0
M  V30 4610 H 437.679 -3.7724 -0.489327 0
M  V30 4611 H 438.991 -4.91355 -0.858587 0
M  V30 4612 H 438.145 -5.15317 -3.20208 0
M  V30 4613 H 436.884 -3.92636 -2.8929 0
M  V30 4614 H 435.889 -5.38511 -1.1084 0
M  V30 4615 H 437.114 -6.6361 -1.44215 0
M  V30 4616 H 435.06 -5.59259 -3.42878 0
M  V30 4617 H 434.977 -7.10427 -2.58515 0
M  V30 4618 H 436.245 -6.83704 -3.74391 0
M  V30 4619 N 440.474 -0.00167713 -1.576 0
M  V30 4620 C 441.407 1.02317 -2.03977 0
M  V30 4621 C 442.385 1.33381 -0.929963 0
M  V30 4622 O 443.569 1.45517 -1.19822 0
M  V30 4623 C 440.696 2.35035 -2.43878 0
M  V30 4624 C 439.742 2.19621 -3.65607 0
M  V30 4625 S 440.575 1.52068 -5.13455 0
M  V30 4626 C 441.731 2.86212 -5.56627 0
M  V30 4627 H 441.964 0.628285 -2.90585 0
M  V30 4628 H 439.497 0.209239 -1.52976 0
M  V30 4629 H 441.455 3.11345 -2.67534 0
M  V30 4630 H 440.116 2.71663 -1.57665 0
M  V30 4631 H 439.309 3.1767 -3.91282 0
M  V30 4632 H 438.911 1.51455 -3.41961 0
M  V30 4633 H 441.203 3.82509 -5.59189 0
M  V30 4634 H 442.146 2.65235 -6.56549 0
M  V30 4635 H 442.554 2.90199 -4.84195 0
M  V30 4636 N 441.952 1.55251 0.271103 0
M  V30 4637 C 443.201 1.75151 1.00025 0
M  V30 4638 C 443.514 0.561041 1.87381 0
M  V30 4639 O 444.72 0.642506 2.63788 0
M  V30 4640 C 443.176 3.09999 1.82835 0
M  V30 4641 C 442.784 4.3662 1.00336 0
M  V30 4642 C 444.528 3.39249 2.55168 0
M  V30 4643 C 442.435 5.62506 1.82595 0
M  V30 4644 H 441.365 0.652877 0.377183 0
M  V30 4645 H 444.016 1.81708 0.255843 0
M  V30 4646 H 442.398 2.97485 2.61378 0
M  V30 4647 H 443.572 4.60055 0.261959 0
M  V30 4648 H 441.887 4.14527 0.394486 0
M  V30 4649 H 444.484 4.3051 3.1712 0
M  V30 4650 H 444.827 2.59467 3.2555 0
M  V30 4651 H 445.36 3.52869 1.83653 0
M  V30 4652 H 442.099 6.45041 1.16631 0
M  V30 4653 H 441.619 5.43211 2.54327 0
M  V30 4654 H 443.298 6.00875 2.39913 0
M  V30 4655 N 443.43 -0.535701 1.48216 0
M  V30 4656 C 444.36 -1.65014 1.65204 0
M  V30 4657 C 445.341 -1.62554 0.501011 0
M  V30 4658 O 446.526 -1.7984 0.732886 0
M  V30 4659 C 443.656 -3.03616 1.68626 0
M  V30 4660 C 442.61 -3.20932 2.83172 0
M  V30 4661 C 441.936 -4.60537 2.71679 0
M  V30 4662 C 443.236 -3.04249 4.24535 0
M  V30 4663 H 444.93 -1.51053 2.58502 0
M  V30 4664 H 442.476 -0.725262 1.24402 0
M  V30 4665 H 444.429 -3.81446 1.79099 0
M  V30 4666 H 443.153 -3.18587 0.719026 0
M  V30 4667 H 441.812 -2.45517 2.72244 0
M  V30 4668 H 441.46 -4.72336 1.72937 0
M  V30 4669 H 441.16 -4.73069 3.48538 0
M  V30 4670 H 442.684 -5.40475 2.84112 0
M  V30 4671 H 444.098 -3.71877 4.36326 0
M  V30 4672 H 442.495 -3.28278 5.02348 0
M  V30 4673 H 443.565 -2.00739 4.41397 0
M  V30 4674 N 444.908 -1.36708 -0.784132 0
M  V30 4675 C 445.871 -1.31307 -1.87859 0
M  V30 4676 C 446.871 -0.219654 -1.59293 0
M  V30 4677 O 448.061 -0.47476 -1.67606 0
M  V30 4678 C 445.193 -1.03679 -3.24751 0
M  V30 4679 H 446.386 -2.28647 -1.94064 0
M  V30 4680 H 443.939 -1.21558 -0.98252 0
M  V30 4681 H 444.674 -0.0681936 -3.24228 0
M  V30 4682 H 444.459 -1.82811 -3.46876 0
M  V30 4683 H 445.949 -1.02518 -4.04821 0
M  V30 4684 N 446.386 1.0089 -1.21074 0
M  V30 4685 C 447.611 1.78727 -1.05221 0
M  V30 4686 C 448.036 1.83932 0.393795 0
M  V30 4687 O 447.394 1.28004 1.28393 0
M  V30 4688 C 447.442 3.20665 -1.64944 0
M  V30 4689 O 446.546 4.02632 -0.892273 0
M  V30 4690 H 445.887 0.550973 -0.370574 0
M  V30 4691 H 448.417 1.26847 -1.60534 0
M  V30 4692 H 448.427 3.71352 -1.69002 0
M  V30 4693 H 447.102 3.16191 -2.70177 0
M  V30 4694 H 445.679 3.61207 -0.926492 0
M  V30 4695 N 447.864 1.01787 1.20321 0
M  V30 4696 C 448.812 0.58254 2.25187 0
M  V30 4697 C 449.806 -0.379359 1.65098 0
M  V30 4698 O 451.012 -0.249142 1.78267 0
M  V30 4699 H 447.387 0.170078 0.732514 0
M  V30 4700 H 449.358 1.47788 2.59232 0
M  V30 4701 C 448.107 -0.0620885 3.47645 0
M  V30 4702 H 447.43 0.669069 3.94162 0
M  V30 4703 H 448.87 -0.329784 4.22716 0
M  V30 4704 C 447.329 -1.3053 3.10586 0
M  V30 4705 O 447.859 -2.39848 3.22236 0
M  V30 4706 N 446.065 -1.18988 2.65123 0
M  V30 4707 H 445.612 -0.300341 2.55843 0
M  V30 4708 H 445.57 -2.02267 2.40698 0
M  V30 4709 N 449.342 -1.36122 0.79427 0
M  V30 4710 C 450.589 -1.99111 0.368905 0
M  V30 4711 C 450.917 -1.63032 -1.0607 0
M  V30 4712 O 450.172 -0.879303 -1.74833 0
M  V30 4713 C 450.471 -3.5409 0.48527 0
M  V30 4714 C 450.137 -4.10003 1.87638 0
M  V30 4715 C 448.799 -4.24986 2.257 0
M  V30 4716 C 451.151 -4.40423 2.78706 0
M  V30 4717 C 448.479 -4.67701 3.54221 0
M  V30 4718 C 450.831 -4.84573 4.0666 0
M  V30 4719 C 449.495 -4.97761 4.44737 0
M  V30 4720 H 448.765 -0.7286 0.134992 0
M  V30 4721 H 451.412 -1.62534 1.01267 0
M  V30 4722 H 449.717 -3.91052 -0.241984 0
M  V30 4723 H 451.414 -4.00766 0.137109 0
M  V30 4724 H 448.004 -3.98784 1.57064 0
M  V30 4725 H 452.188 -4.28412 2.50553 0
M  V30 4726 H 447.444 -4.761 3.83587 0
M  V30 4727 H 451.618 -5.07074 4.77336 0
M  V30 4728 H 449.245 -5.30618 5.44379 0
M  V30 4729 N 450.82 -0.546701 -1.47814 0
M  V30 4730 C 452.067 -0.0187407 -2.02491 0
M  V30 4731 C 452.395 1.32685 -1.42215 0
M  V30 4732 O 451.65 1.87413 -0.563454 0
M  V30 4733 C 451.949 0.134869 -3.57145 0
M  V30 4734 C 451.615 -1.13849 -4.3629 0
M  V30 4735 C 450.277 -1.48743 -4.57634 0
M  V30 4736 C 452.629 -1.98277 -4.82012 0
M  V30 4737 C 449.957 -2.67932 -5.21948 0
M  V30 4738 C 452.309 -3.16659 -5.4764 0
M  V30 4739 C 450.973 -3.51879 -5.67219 0
M  V30 4740 H 450.243 -0.0068577 -0.740968 0
M  V30 4741 H 452.89 -0.716097 -1.77607 0
M  V30 4742 H 451.195 0.915118 -3.80963 0
M  V30 4743 H 452.892 0.558556 -3.97091 0
M  V30 4744 H 449.482 -0.856767 -4.19949 0
M  V30 4745 H 453.666 -1.72628 -4.6531 0
M  V30 4746 H 448.922 -2.95401 -5.35302 0
M  V30 4747 H 453.096 -3.82374 -5.82033 0
M  V30 4748 H 450.723 -4.44331 -6.16825 0
M  V30 4749 N 452.299 1.55045 -0.282633 0
M  V30 4750 C 453.246 2.22822 0.601566 0
M  V30 4751 C 454.216 1.20431 1.14392 0
M  V30 4752 O 455.401 1.48996 1.19184 0
M  V30 4753 C 452.541 2.95873 1.77632 0
M  V30 4754 C 451.654 4.12999 1.26711 0
M  V30 4755 C 450.789 4.73676 2.40426 0
M  V30 4756 C 449.828 5.82981 1.86545 0
M  V30 4757 N 448.965 6.3769 2.93762 0
M  V30 4758 H 453.805 2.97995 0.0169528 0
M  V30 4759 H 451.342 1.471 -0.00339964 0
M  V30 4760 H 453.3 3.36447 2.46697 0
M  V30 4761 H 451.93 2.2311 2.33285 0
M  V30 4762 H 450.982 3.77494 0.469314 0
M  V30 4763 H 452.294 4.91803 0.832518 0
M  V30 4764 H 451.448 5.17008 3.17471 0
M  V30 4765 H 450.187 3.94164 2.87203 0
M  V30 4766 H 449.192 5.39092 1.07983 0
M  V30 4767 H 450.417 6.64366 1.40694 0
M  V30 4768 H 448.363 5.61069 3.39908 0
M  V30 4769 H 448.28 7.11788 2.54744 0
M  V30 4770 H 449.548 6.8568 3.7076 0
M  V30 4771 N 453.777 0.010035 1.57597 0
M  V30 4772 C 455.025 -0.671371 1.90623 0
M  V30 4773 C 455.346 -1.73753 0.885151 0
M  V30 4774 O 454.616 -1.95752 -0.0760611 0
M  V30 4775 H 453.196 -0.250968 0.703579 0
M  V30 4776 H 455.858 0.0533325 1.94827 0
M  V30 4777 H 454.954 -1.13626 2.90681 0
M  V30 4778 N 455.255 -1.55392 -0.262866 0
M  V30 4779 C 456.218 -1.88181 -1.30846 0
M  V30 4780 C 457.218 -0.757079 -1.41862 0
M  V30 4781 O 458.408 -1.02519 -1.40838 0
M  V30 4782 C 455.54 -2.09609 -2.68844 0
M  V30 4783 H 456.733 -2.81659 -1.02997 0
M  V30 4784 H 454.286 -1.48039 -0.501414 0
M  V30 4785 H 455.021 -1.18547 -3.01856 0
M  V30 4786 H 454.806 -2.91508 -2.62231 0
M  V30 4787 H 456.296 -2.36215 -3.44372 0
M  V30 4788 N 456.733 0.527833 -1.48498 0
M  V30 4789 C 457.696 1.61439 -1.62696 0
M  V30 4790 C 458.696 1.52824 -0.500136 0
M  V30 4791 O 459.886 1.56456 -0.765976 0
M  V30 4792 C 457.018 3.01063 -1.59918 0
M  V30 4793 H 458.211 1.50189 -2.59583 0
M  V30 4794 H 455.764 0.750055 -1.37127 0
M  V30 4795 H 456.499 3.17818 -0.645163 0
M  V30 4796 H 456.284 3.08725 -2.41726 0
M  V30 4797 H 457.774 3.80057 -1.73051 0
M  V30 4798 N 458.211 1.37122 0.776871 0
M  V30 4799 C 459.436 1.354 1.57104 0
M  V30 4800 C 459.861 -0.0595562 1.88006 0
M  V30 4801 O 459.219 -1.03514 1.48844 0
M  V30 4802 C 459.267 2.19472 2.8612 0
M  V30 4803 O 458.371 1.59582 3.80273 0
M  V30 4804 H 457.712 0.462869 0.476076 0
M  V30 4805 H 460.242 1.80577 0.961932 0
M  V30 4806 H 460.252 2.32502 3.35271 0
M  V30 4807 H 458.927 3.22222 2.62956 0
M  V30 4808 H 457.504 1.55564 3.38902 0
M  V30 4809 N 459.689 -1.00246 1.21608 0
M  V30 4810 C 460.914 -1.78167 1.06167 0
M  V30 4811 C 461.339 -1.84138 -0.384035 0
M  V30 4812 O 460.697 -1.28683 -1.27712 0
M  V30 4813 C 460.745 -3.19786 1.66642 0
M  V30 4814 O 459.849 -4.02153 0.913613 0
M  V30 4815 H 459.19 -0.549 0.37349 0
M  V30 4816 H 461.72 -1.25994 1.61204 0
M  V30 4817 H 461.73 -3.70451 1.70969 0
M  V30 4818 H 460.405 -3.14754 2.7185 0
M  V30 4819 H 458.982 -3.60711 0.945635 0
M  V30 4820 N 461.167 -1.02423 -1.1978 0
M  V30 4821 C 462.413 -0.719051 -1.89625 0
M  V30 4822 C 462.746 0.750083 -1.7913 0
M  V30 4823 O 462.021 1.54574 -1.18056 0
M  V30 4824 C 462.304 -1.16499 -3.40735 0
M  V30 4825 C 462.157 -2.695 -3.60125 0
M  V30 4826 C 463.476 -0.742166 -4.33797 0
M  V30 4827 H 460.595 -0.26269 -0.688595 0
M  V30 4828 H 463.237 -1.27333 -1.41018 0
M  V30 4829 H 461.387 -0.69341 -3.82262 0
M  V30 4830 H 463.059 -3.24569 -3.278 0
M  V30 4831 H 461.302 -3.10113 -3.03336 0
M  V30 4832 H 461.973 -2.95757 -4.66081 0
M  V30 4833 H 464.449 -1.1477 -3.99959 0
M  V30 4834 H 463.325 -1.08213 -5.38127 0
M  V30 4835 H 463.586 0.355747 -4.40666 0
M  V30 4836 N 462.645 1.35699 -0.801477 0
M  V30 4837 C 463.575 2.32436 -0.222658 0
M  V30 4838 C 464.556 1.5723 0.649057 0
M  V30 4839 O 465.741 1.85324 0.580387 0
M  V30 4840 C 462.871 3.41469 0.633719 0
M  V30 4841 C 461.825 4.27774 -0.139083 0
M  V30 4842 C 461.151 5.28082 0.838666 0
M  V30 4843 C 462.451 5.04946 -1.33517 0
M  V30 4844 H 464.145 2.81094 -1.03086 0
M  V30 4845 H 461.691 1.35146 -0.497155 0
M  V30 4846 H 463.644 4.08143 1.04868 0
M  V30 4847 H 462.368 2.91408 1.47475 0
M  V30 4848 H 461.027 3.62673 -0.535156 0
M  V30 4849 H 460.675 4.7429 1.67506 0
M  V30 4850 H 460.375 5.86695 0.32594 0
M  V30 4851 H 461.899 5.97628 1.25194 0
M  V30 4852 H 463.313 5.64593 -0.995349 0
M  V30 4853 H 461.71 5.7303 -1.78202 0
M  V30 4854 H 462.78 4.35886 -2.12442 0
M  V30 4855 N 464.123 0.554532 1.47522 0
M  V30 4856 C 465.033 -0.197865 2.33764 0
M  V30 4857 C 466.049 -0.914576 1.48025 0
M  V30 4858 O 467.225 -0.884067 1.80959 0
M  V30 4859 C 464.29 -1.21628 3.24665 0
M  V30 4860 C 463.351 -0.507283 4.26292 0
M  V30 4861 C 462.584 -1.47718 5.1285 0
M  V30 4862 O 462.807 -2.7118 5.01814 0
M  V30 4863 O 461.741 -1.00313 5.93482 0
M  V30 4864 H 465.567 0.50949 2.99396 0
M  V30 4865 H 463.152 0.315176 1.46038 0
M  V30 4866 H 465.034 -1.80421 3.80823 0
M  V30 4867 H 463.709 -1.9056 2.61665 0
M  V30 4868 H 462.616 0.121778 3.73902 0
M  V30 4869 H 463.949 0.140544 4.91999 0
M  V30 4870 N 465.601 -1.54893 0.290851 0
M  V30 4871 C 466.531 -2.26103 -0.583084 0
M  V30 4872 C 467.512 -1.25684 -1.14619 0
M  V30 4873 O 468.697 -1.54436 -1.17741 0
M  V30 4874 C 465.827 -2.99409 -1.75987 0
M  V30 4875 C 464.781 -4.0689 -1.32758 0
M  V30 4876 C 464.107 -4.67856 -2.58872 0
M  V30 4877 C 465.407 -5.20215 -0.46624 0
M  V30 4878 H 467.101 -2.99398 0.0108214 0
M  V30 4879 H 464.647 -1.43998 0.00664468 0
M  V30 4880 H 466.6 -3.47943 -2.37727 0
M  V30 4881 H 465.324 -2.23675 -2.37985 0
M  V30 4882 H 463.983 -3.59191 -0.733299 0
M  V30 4883 H 463.631 -3.88772 -3.19163 0
M  V30 4884 H 463.331 -5.40438 -2.30653 0
M  V30 4885 H 464.855 -5.19147 -3.21433 0
M  V30 4886 H 466.269 -5.64704 -0.989047 0
M  V30 4887 H 464.666 -5.99455 -0.27826 0
M  V30 4888 H 465.736 -4.82198 0.511173 0
M  V30 4889 N 467.08 -0.0183926 -1.57589 0
M  V30 4890 C 468.308 0.673046 -1.95647 0
M  V30 4891 C 468.723 1.66275 -0.894312 0
M  V30 4892 O 468.08 1.82072 0.124975 0
M  V30 4893 C 468.131 1.38884 -3.33756 0
M  V30 4894 O 467.852 0.438806 -4.35897 0
M  V30 4895 C 469.353 2.1731 -3.86383 0
M  V30 4896 H 466.573 0.186292 -0.644621 0
M  V30 4897 H 469.117 -0.0749748 -2.04363 0
M  V30 4898 H 467.272 2.08835 -3.26293 0
M  V30 4899 H 467.686 0.945869 -5.15901 0
M  V30 4900 H 469.16 2.62863 -4.85394 0
M  V30 4901 H 469.637 3.00764 -3.20059 0
M  V30 4902 H 470.243 1.52339 -3.97081 0
M  V30 4903 N 468.558 1.5553 0.254621 0
M  V30 4904 C 469.468 1.92789 1.33677 0
M  V30 4905 C 470.484 0.827356 1.53071 0
M  V30 4906 O 471.66 1.12807 1.66843 0
M  V30 4907 C 468.725 2.20827 2.67275 0
M  V30 4908 C 467.786 3.4427 2.5647 0
M  V30 4909 C 467.019 3.70961 3.83697 0
M  V30 4910 O 467.242 2.99852 4.85227 0
M  V30 4911 O 466.176 4.64491 3.82794 0
M  V30 4912 H 470.002 2.84945 1.05071 0
M  V30 4913 H 467.587 1.42312 0.454723 0
M  V30 4914 H 469.469 2.40204 3.46237 0
M  V30 4915 H 468.144 1.31851 2.9563 0
M  V30 4916 H 467.051 3.30209 1.75821 0
M  V30 4917 H 468.384 4.33524 2.33062 0
M  V30 4918 N 470.036 -0.519951 1.48776 0
M  V30 4919 C 470.999 -1.60574 1.6355 0
M  V30 4920 C 471.999 -1.52557 0.508234 0
M  V30 4921 O 473.189 -1.56047 0.774262 0
M  V30 4922 C 470.321 -3.00211 1.61512 0
M  V30 4923 H 471.514 -1.4881 2.60376 0
M  V30 4924 H 469.067 -0.742772 1.37523 0
M  V30 4925 H 469.802 -3.17471 0.662009 0
M  V30 4926 H 469.587 -3.07439 2.43359 0
M  V30 4927 H 471.077 -3.79134 1.75064 0
M  V30 4928 N 471.514 -1.37532 -0.769588 0
M  V30 4929 C 472.424 -1.35668 -1.91393 0
M  V30 4930 C 473.44 -0.255954 -1.72107 0
M  V30 4931 O 474.616 -0.491704 -1.95305 0
M  V30 4932 C 471.681 -1.16481 -3.26547 0
M  V30 4933 C 470.742 -2.36212 -3.58472 0
M  V30 4934 C 469.975 -2.17932 -4.87177 0
M  V30 4935 O 470.198 -1.1647 -5.58382 0
M  V30 4936 O 469.132 -3.06167 -5.18214 0
M  V30 4937 H 472.958 -2.32055 -1.95918 0
M  V30 4938 H 470.543 -1.18284 -0.912641 0
M  V30 4939 H 472.425 -1.07778 -4.07384 0
M  V30 4940 H 471.1 -0.231687 -3.2287 0
M  V30 4941 H 470.007 -2.50488 -2.77861 0
M  V30 4942 H 471.34 -3.281 -3.66894 0
M  V30 4943 N 472.992 0.995999 -1.22138 0
M  V30 4944 C 473.922 2.10387 -1.01289 0
M  V30 4945 C 474.903 1.69975 0.0651454 0
M  V30 4946 O 476.088 1.9396 -0.0964628 0
M  V30 4947 C 473.218 3.42312 -0.586517 0
M  V30 4948 C 472.172 3.96558 -1.61014 0
M  V30 4949 C 471.498 5.24494 -1.0397 0
M  V30 4950 C 472.798 4.27595 -2.99933 0
M  V30 4951 H 474.492 2.28086 -1.93951 0
M  V30 4952 H 472.038 1.09607 -0.933928 0
M  V30 4953 H 473.991 4.19223 -0.427793 0
M  V30 4954 H 472.715 3.24431 0.375761 0
M  V30 4955 H 471.374 3.21776 -1.75658 0
M  V30 4956 H 471.022 5.02953 -0.0688703 0
M  V30 4957 H 470.722 5.61755 -1.72352 0
M  V30 4958 H 472.246 6.04042 -0.892494 0
M  V30 4959 H 473.66 4.95315 -2.8868 0
M  V30 4960 H 472.057 4.76021 -3.6541 0
M  V30 4961 H 473.127 3.35498 -3.50099 0
M  V30 4962 N 474.47 1.03057 1.19235 0
M  V30 4963 C 475.716 0.729098 1.89241 0
M  V30 4964 C 476.049 -0.740573 1.79525 0
M  V30 4965 O 475.324 -1.53946 1.18874 0
M  V30 4966 C 475.607 1.18304 3.40112 0
M  V30 4967 C 475.46 2.71406 3.5869 0
M  V30 4968 C 476.779 0.765161 4.33397 0
M  V30 4969 H 473.898 0.266338 0.687192 0
M  V30 4970 H 476.54 1.28079 1.40341 0
M  V30 4971 H 474.69 0.713672 3.81889 0
M  V30 4972 H 476.362 3.26303 3.26074 0
M  V30 4973 H 474.605 3.11717 3.01687 0
M  V30 4974 H 475.276 2.98225 4.64506 0
M  V30 4975 H 477.752 1.16889 3.99345 0
M  V30 4976 H 476.628 1.11065 5.37546 0
M  V30 4977 H 476.889 -0.332372 4.40849 0
M  V30 4978 N 475.948 -1.35272 0.808662 0
M  V30 4979 C 477.176 -2.02946 0.402537 0
M  V30 4980 C 477.591 -1.60937 -0.987147 0
M  V30 4981 O 476.948 -0.807917 -1.63643 0
M  V30 4982 C 476.999 -3.58317 0.47868 0
M  V30 4983 O 476.72 -3.98799 1.81358 0
M  V30 4984 C 478.221 -4.43251 0.0656281 0
M  V30 4985 H 475.441 -0.650831 0.163279 0
M  V30 4986 H 477.985 -1.72849 1.09286 0
M  V30 4987 H 476.14 -3.87055 -0.163415 0
M  V30 4988 H 476.554 -4.93451 1.77781 0
M  V30 4989 H 478.028 -5.51738 0.170017 0
M  V30 4990 H 478.505 -4.27913 -0.989278 0
M  V30 4991 H 479.111 -4.19813 0.68096 0
M  V30 4992 N 477.426 -0.562348 -1.47226 0
M  V30 4993 C 478.389 0.172056 -2.28553 0
M  V30 4994 C 479.389 0.837928 -1.37242 0
M  V30 4995 O 480.579 0.693001 -1.59822 0
M  V30 4996 C 477.711 1.25223 -3.17068 0
M  V30 4997 H 478.904 -0.542401 -2.94954 0
M  V30 4998 H 476.457 -0.319493 -1.53 0
M  V30 4999 H 477.192 1.99892 -2.55369 0
M  V30 5000 H 476.977 0.779515 -3.84273 0
M  V30 5001 H 478.467 1.76791 -3.78332 0
M  V30 5002 N 478.904 1.54736 -0.299062 0
M  V30 5003 C 479.814 2.27127 0.587413 0
M  V30 5004 C 480.83 1.30575 1.15005 0
M  V30 5005 O 482.006 1.63554 1.17525 0
M  V30 5006 C 479.071 2.99645 1.74395 0
M  V30 5007 C 478.132 4.11731 1.21559 0
M  V30 5008 C 477.365 4.80781 2.317 0
M  V30 5009 O 477.588 4.4918 3.51558 0
M  V30 5010 O 476.522 5.68226 1.98501 0
M  V30 5011 H 480.348 3.037 0.000250109 0
M  V30 5012 H 477.933 1.49256 -0.0655919 0
M  V30 5013 H 479.815 3.45138 2.4178 0
M  V30 5014 H 478.49 2.25969 2.31775 0
M  V30 5015 H 477.397 3.70641 0.507514 0
M  V30 5016 H 478.73 4.87379 0.687233 0
M  V30 5017 N 480.382 0.0267497 1.57577 0
M  V30 5018 C 481.345 -0.940916 2.08996 0
M  V30 5019 C 482.345 -1.25561 1.00455 0
M  V30 5020 O 483.535 -1.19634 1.26623 0
M  V30 5021 C 480.667 -2.25814 2.55384 0
M  V30 5022 H 481.86 -0.495628 2.95776 0
M  V30 5023 H 479.413 -0.221241 1.54726 0
M  V30 5024 H 480.148 -2.74976 1.71926 0
M  V30 5025 H 479.933 -2.04285 3.34679 0
M  V30 5026 H 481.423 -2.95178 2.95398 0
M  V30 5027 N 481.861 -1.55662 -0.24637 0
M  V30 5028 C 483.107 -1.77782 -0.975779 0
M  V30 5029 C 483.44 -0.592103 -1.84953 0
M  V30 5030 O 482.715 0.409588 -1.90138 0
M  V30 5031 C 482.998 -3.09788 -1.83584 0
M  V30 5032 C 482.851 -4.38764 -0.990241 0
M  V30 5033 C 484.17 -3.38029 -2.81823 0
M  V30 5034 H 481.289 -0.646789 -0.353317 0
M  V30 5035 H 483.931 -1.88398 -0.246248 0
M  V30 5036 H 482.081 -3.00869 -2.45784 0
M  V30 5037 H 483.753 -4.59675 -0.386897 0
M  V30 5038 H 481.996 -4.32798 -0.294626 0
M  V30 5039 H 482.667 -5.27514 -1.62584 0
M  V30 5040 H 485.143 -3.46915 -2.2976 0
M  V30 5041 H 484.019 -4.3161 -3.39122 0
M  V30 5042 H 484.28 -2.58968 -3.58313 0
M  V30 5043 N 483.339 0.512053 -1.4905 0
M  V30 5044 C 484.755 0.84224 -1.35567 0
M  V30 5045 C 484.955 1.97878 -0.380319 0
M  V30 5046 O 484.011 2.51769 0.19201 0
M  V30 5047 C 485.324 1.19286 -2.76028 0
M  V30 5048 C 486.872 1.30171 -2.84648 0
M  V30 5049 C 487.347 1.68568 -4.25851 0
M  V30 5050 N 488.838 1.75638 -4.28609 0
M  V30 5051 C 489.573 2.06769 -5.34821 0
M  V30 5052 N 489.069 2.36201 -6.51292 0
M  V30 5053 N 490.862 2.07927 -5.22229 0
M  V30 5054 H 483.013 -0.237574 -2.11067 0
M  V30 5055 H 485.276 -0.0436747 -0.946993 0
M  V30 5056 H 484.982 0.431199 -3.49047 0
M  V30 5057 H 484.856 2.13889 -3.10695 0
M  V30 5058 H 487.243 2.05411 -2.11873 0
M  V30 5059 H 487.324 0.336457 -2.53578 0
M  V30 5060 H 486.968 0.938824 -4.99148 0
M  V30 5061 H 486.898 2.66174 -4.54377 0
M  V30 5062 H 489.389 1.55097 -3.44606 0
M  V30 5063 H 489.702 2.59112 -7.28066 0
M  V30 5064 H 488.047 2.33681 -6.54536 0
M  V30 5065 H 491.238 1.84403 -4.30248 0
M  V30 5066 H 491.411 2.31856 -6.05101 0
M  V30 5067 N 484.817 1.37938 0.762283 0
M  V30 5068 C 486.042 1.37059 1.55659 0
M  V30 5069 C 486.467 -0.0396123 1.88058 0
M  V30 5070 O 485.825 -1.01929 1.49934 0
M  V30 5071 C 485.873 2.22494 2.83776 0
M  V30 5072 O 484.977 1.63607 3.78559 0
M  V30 5073 H 484.318 0.467892 0.47114 0
M  V30 5074 H 486.848 1.81587 0.942725 0
M  V30 5075 H 486.858 2.36045 3.32786 0
M  V30 5076 H 485.533 3.24993 2.59524 0
M  V30 5077 H 484.11 1.5915 3.37233 0
M  V30 5078 N 486.295 -0.989507 1.22664 0
M  V30 5079 C 487.541 -1.7321 1.05481 0
M  V30 5080 C 487.874 -1.89852 -0.408635 0
M  V30 5081 O 487.149 -1.44416 -1.30285 0
M  V30 5082 C 487.432 -3.1357 1.77047 0
M  V30 5083 C 487.285 -3.04555 3.31008 0
M  V30 5084 C 488.604 -4.12812 1.5256 0
M  V30 5085 H 485.723 -0.628697 0.384589 0
M  V30 5086 H 488.365 -1.15258 1.51049 0
M  V30 5087 H 486.515 -3.63046 1.3831 0
M  V30 5088 H 488.187 -2.62674 3.7921 0
M  V30 5089 H 486.43 -2.41278 3.6051 0
M  V30 5090 H 487.101 -4.03894 3.76263 0
M  V30 5091 H 489.577 -3.72106 1.86215 0
M  V30 5092 H 488.453 -5.09132 2.05124 0
M  V30 5093 H 488.714 -4.39711 0.458936 0
M  V30 5094 N 487.773 -1.03688 -1.18687 0
M  V30 5095 C 489.019 -0.74888 -1.89112 0
M  V30 5096 C 489.374 0.715345 -1.78607 0
M  V30 5097 O 488.667 1.51498 -1.17299 0
M  V30 5098 C 488.861 -1.14477 -3.3857 0
M  V30 5099 C 488.69 -2.64594 -3.63621 0
M  V30 5100 C 487.46 -3.31685 -3.812 0
M  V30 5101 C 489.658 -3.62811 -3.64517 0
M  V30 5102 N 487.64 -4.70822 -3.93955 0
M  V30 5103 C 489.011 -4.87603 -3.8294 0
M  V30 5104 C 491.066 -3.56495 -3.47585 0
M  V30 5105 C 489.769 -6.0684 -3.86184 0
M  V30 5106 C 491.795 -4.75155 -3.52111 0
M  V30 5107 C 491.157 -5.98765 -3.71026 0
M  V30 5108 H 487.256 -0.32603 -0.710794 0
M  V30 5109 H 489.84 -1.3258 -1.42586 0
M  V30 5110 H 488.011 -0.595974 -3.838 0
M  V30 5111 H 489.743 -0.808187 -3.96548 0
M  V30 5112 H 486.498 -2.82091 -3.80423 0
M  V30 5113 H 486.922 -5.43122 -4.04163 0
M  V30 5114 H 491.564 -2.61907 -3.31911 0
M  V30 5115 H 489.282 -7.01788 -4.00648 0
M  V30 5116 H 492.868 -4.71905 -3.40289 0
M  V30 5117 H 491.748 -6.89047 -3.74412 0
M  V30 5118 N 489.251 1.34841 -0.815825 0
M  V30 5119 C 490.183 2.28409 -0.190265 0
M  V30 5120 C 491.196 1.50705 0.615771 0
M  V30 5121 O 492.385 1.72822 0.446616 0
M  V30 5122 C 489.485 3.30441 0.752446 0
M  V30 5123 C 488.658 4.37399 -0.00922152 0
M  V30 5124 C 487.717 5.19234 0.853351 0
M  V30 5125 O 486.743 5.68404 0.300919 0
M  V30 5126 N 487.945 5.38248 2.17416 0
M  V30 5127 H 490.71 2.82732 -0.994114 0
M  V30 5128 H 488.271 1.47289 -0.672129 0
M  V30 5129 H 490.263 3.82084 1.33394 0
M  V30 5130 H 488.833 2.76565 1.45707 0
M  V30 5131 H 488.053 3.86567 -0.771979 0
M  V30 5132 H 489.341 5.05992 -0.533807 0
M  V30 5133 H 488.739 4.99961 2.6468 0
M  V30 5134 H 487.296 5.93035 2.70467 0
M  V30 5135 N 490.729 0.570148 1.46925 0
M  V30 5136 C 492.145 0.23087 1.57921 0
M  V30 5137 C 492.345 -1.26676 1.56702 0
M  V30 5138 O 491.401 -2.04774 1.47729 0
M  V30 5139 C 492.714 0.868973 2.8787 0
M  V30 5140 C 494.262 0.841397 3.01479 0
M  V30 5141 C 494.737 1.45881 4.34146 0
M  V30 5142 N 496.228 1.42258 4.40814 0
M  V30 5143 C 496.963 1.8698 5.42057 0
M  V30 5144 N 496.459 2.39618 6.50042 0
M  V30 5145 N 498.252 1.77972 5.33181 0
M  V30 5146 H 490.403 1.54301 1.45962 0
M  V30 5147 H 492.666 0.644224 0.69547 0
M  V30 5148 H 492.372 1.922 2.94537 0
M  V30 5149 H 492.246 0.369682 3.75384 0
M  V30 5150 H 494.633 -0.202973 2.94401 0
M  V30 5151 H 494.714 1.37858 2.15474 0
M  V30 5152 H 494.358 2.50231 4.4198 0
M  V30 5153 H 494.288 0.896958 5.18905 0
M  V30 5154 H 496.779 1.03768 3.63374 0
M  V30 5155 H 497.092 2.71633 7.23488 0
M  V30 5156 H 495.437 2.43636 6.50897 0
M  V30 5157 H 498.628 1.36617 4.4772 0
M  V30 5158 H 498.801 2.13143 6.11943 0
M  V30 5159 N 492.207 -1.54576 0.307264 0
M  V30 5160 C 493.456 -1.99442 -0.300976 0
M  V30 5161 C 493.769 -1.19928 -1.5452 0
M  V30 5162 O 494.975 -1.55092 -2.22842 0
M  V30 5163 C 493.431 -3.55084 -0.586809 0
M  V30 5164 C 493.039 -4.43413 0.639438 0
M  V30 5165 C 494.783 -4.0846 -1.1559 0
M  V30 5166 C 492.69 -5.90499 0.326411 0
M  V30 5167 H 491.62 -0.744986 -0.116238 0
M  V30 5168 H 494.271 -1.787 0.416947 0
M  V30 5169 H 492.653 -3.71749 -1.36449 0
M  V30 5170 H 493.827 -4.38522 1.41545 0
M  V30 5171 H 492.142 -4.00842 1.1276 0
M  V30 5172 H 494.739 -5.15926 -1.40445 0
M  V30 5173 H 495.082 -3.59443 -2.10015 0
M  V30 5174 H 495.615 -3.95362 -0.439778 0
M  V30 5175 H 492.354 -6.43676 1.23939 0
M  V30 5176 H 491.874 -5.98382 -0.412212 0
M  V30 5177 H 493.553 -6.46962 -0.0697393 0
M  V30 5178 N 493.685 -0.035106 -1.57561 0
M  V30 5179 C 494.615 0.942993 -2.13612 0
M  V30 5180 C 495.596 1.33531 -1.05373 0
M  V30 5181 O 496.781 1.41287 -1.33235 0
M  V30 5182 C 493.911 2.22332 -2.66807 0
M  V30 5183 C 492.865 1.97156 -3.79886 0
M  V30 5184 C 492.191 3.31506 -4.19533 0
M  V30 5185 C 493.491 1.30596 -5.05709 0
M  V30 5186 H 495.185 0.476179 -2.95589 0
M  V30 5187 H 492.731 0.227602 -1.4219 0
M  V30 5188 H 494.684 2.91142 -3.04654 0
M  V30 5189 H 493.408 2.7119 -1.81999 0
M  V30 5190 H 492.067 1.30763 -3.42486 0
M  V30 5191 H 491.715 3.78134 -3.31698 0
M  V30 5192 H 491.415 3.15465 -4.95738 0
M  V30 5193 H 492.939 4.01574 -4.59968 0
M  V30 5194 H 494.353 1.89416 -5.41105 0
M  V30 5195 H 492.75 1.24934 -5.86951 0
M  V30 5196 H 493.82 0.279742 -4.84092 0
M  V30 5197 N 495.163 1.55791 0.238111 0
M  V30 5198 C 496.574 1.68383 0.806472 0
M  V30 5199 C 496.925 0.634157 1.85669 0
M  V30 5200 O 496.05 -0.217913 2.153 0
M  V30 5201 C 496.645 3.05268 1.46959 0
M  V30 5202 C 495.204 3.1977 1.98555 0
M  V30 5203 C 494.351 2.64279 0.839763 0
M  V30 5204 H 497.302 1.58694 0.0137535 0
M  V30 5205 H 497.323 3.00203 2.33792 0
M  V30 5206 H 496.835 3.81643 0.704993 0
M  V30 5207 H 494.936 2.48234 2.77868 0
M  V30 5208 H 495.049 4.26788 2.17689 0
M  V30 5209 H 493.413 2.22329 1.24265 0
M  V30 5210 H 494.196 3.43187 0.0881032 0
M  V30 5211 N 496.642 -0.504142 1.49319 0
M  V30 5212 C 497.589 -1.60603 1.65756 0
M  V30 5213 C 498.559 -1.58425 0.499082 0
M  V30 5214 O 499.744 -1.76459 0.725728 0
M  V30 5215 C 496.884 -2.98764 1.72726 0
M  V30 5216 C 495.997 -3.10982 2.99857 0
M  V30 5217 C 495.132 -4.39857 2.97824 0
M  V30 5218 C 494.171 -4.45697 4.19548 0
M  V30 5219 N 493.308 -5.65995 4.15444 0
M  V30 5220 H 498.148 -1.45895 2.59843 0
M  V30 5221 H 495.685 -0.709891 1.28837 0
M  V30 5222 H 497.643 -3.78839 1.74747 0
M  V30 5223 H 496.273 -3.12183 0.821075 0
M  V30 5224 H 495.325 -2.23991 3.07461 0
M  V30 5225 H 496.637 -3.11157 3.89849 0
M  V30 5226 H 495.791 -5.2825 2.98391 0
M  V30 5227 H 494.53 -4.42242 2.05604 0
M  V30 5228 H 493.535 -3.55707 4.19229 0
M  V30 5229 H 494.76 -4.4503 5.12957 0
M  V30 5230 H 492.706 -5.69229 3.26059 0
M  V30 5231 H 492.623 -5.67773 4.99169 0
M  V30 5232 H 493.891 -6.56604 4.20109 0
M  V30 5233 N 498.12 -1.38341 -0.754957 0
M  V30 5234 C 499.366 -1.34672 -1.51628 0
M  V30 5235 C 499.699 0.0636036 -1.94096 0
M  V30 5236 O 498.974 1.0245 -1.6533 0
M  V30 5237 C 499.257 -2.30116 -2.76981 0
M  V30 5238 C 499.11 -3.80003 -2.4066 0
M  V30 5239 C 500.429 -2.23715 -3.78998 0
M  V30 5240 H 497.548 -0.490517 -0.550056 0
M  V30 5241 H 500.19 -1.69178 -0.864807 0
M  V30 5242 H 498.34 -2.00821 -3.3257 0
M  V30 5243 H 500.012 -4.19966 -1.90856 0
M  V30 5244 H 498.255 -3.97751 -1.73137 0
M  V30 5245 H 498.926 -4.42244 -3.30339 0
M  V30 5246 H 501.402 -2.49574 -3.32945 0
M  V30 5247 H 500.278 -2.9261 -4.64403 0
M  V30 5248 H 500.539 -1.23554 -4.24484 0
M  V30 5249 N 499.598 0.982988 -1.23187 0
M  V30 5250 C 500.528 2.09301 -1.03515 0
M  V30 5251 C 501.509 1.70035 0.0471136 0
M  V30 5252 O 502.694 1.93847 -0.117029 0
M  V30 5253 C 499.824 3.4167 -0.622791 0
M  V30 5254 C 498.778 3.94828 -1.65211 0
M  V30 5255 C 498.104 5.23362 -1.09527 0
M  V30 5256 C 499.404 4.2439 -3.04451 0
M  V30 5257 H 501.098 2.26016 -1.96359 0
M  V30 5258 H 498.644 1.08611 -0.945501 0
M  V30 5259 H 500.597 4.18746 -0.472233 0
M  V30 5260 H 499.321 3.24811 0.341329 0
M  V30 5261 H 497.98 3.19895 -1.79061 0
M  V30 5262 H 497.628 5.02852 -0.122211 0
M  V30 5263 H 497.328 5.59895 -1.783 0
M  V30 5264 H 498.852 6.03062 -0.956511 0
M  V30 5265 H 500.266 4.92225 -2.93917 0
M  V30 5266 H 498.663 4.72118 -3.70438 0
M  V30 5267 H 499.733 3.31765 -3.53638 0
M  V30 5268 N 501.076 1.04316 1.18135 0
M  V30 5269 C 501.986 0.646876 2.25505 0
M  V30 5270 C 503.002 -0.328008 1.7088 0
M  V30 5271 O 504.178 -0.182309 2.00573 0
M  V30 5272 C 501.243 0.0185664 3.46695 0
M  V30 5273 C 500.304 1.04277 4.16443 0
M  V30 5274 C 499.537 0.444352 5.31847 0
M  V30 5275 O 499.76 -0.748735 5.65465 0
M  V30 5276 O 498.694 1.17428 5.90334 0
M  V30 5277 H 502.52 1.54147 2.61672 0
M  V30 5278 H 500.105 0.814188 1.25265 0
M  V30 5279 H 501.987 -0.331068 4.20097 0
M  V30 5280 H 500.662 -0.849814 3.12346 0
M  V30 5281 H 499.569 1.44425 3.45098 0
M  V30 5282 H 500.902 1.882 4.54798 0
M  V30 5283 N 502.554 -1.34406 0.822964 0
M  V30 5284 C 503.8 -1.98578 0.411666 0
M  V30 5285 C 504.133 -1.65093 -1.02264 0
M  V30 5286 O 503.408 -0.92258 -1.71227 0
M  V30 5287 C 503.691 -3.54823 0.614235 0
M  V30 5288 C 503.544 -3.9805 2.09466 0
M  V30 5289 C 504.863 -4.40071 0.050221 0
M  V30 5290 H 501.982 -0.721355 0.151047 0
M  V30 5291 H 504.624 -1.59301 1.03554 0
M  V30 5292 H 502.774 -3.88411 0.0831774 0
M  V30 5293 H 504.446 -3.74795 2.68936 0
M  V30 5294 H 502.689 -3.4836 2.5851 0
M  V30 5295 H 503.36 -5.06819 2.18721 0
M  V30 5296 H 505.836 -4.13037 0.503953 0
M  V30 5297 H 504.712 -5.48452 0.221759 0
M  V30 5298 H 504.973 -4.29576 -1.04482 0
M  V30 5299 N 504.032 -0.577932 -1.46621 0
M  V30 5300 C 504.942 0.160651 -2.34049 0
M  V30 5301 C 505.958 0.890911 -1.49462 0
M  V30 5302 O 507.134 0.855166 -1.82343 0
M  V30 5303 C 504.199 1.16447 -3.26559 0
M  V30 5304 C 503.26 0.4394 -4.27045 0
M  V30 5305 C 502.493 1.3954 -5.15135 0
M  V30 5306 O 502.716 2.63162 -5.06065 0
M  V30 5307 O 501.65 0.908585 -5.95003 0
M  V30 5308 H 505.476 -0.557057 -2.98547 0
M  V30 5309 H 503.061 -0.338369 -1.45518 0
M  V30 5310 H 504.943 1.7434 -3.83645 0
M  V30 5311 H 503.618 1.86373 -2.64663 0
M  V30 5312 H 502.525 -0.181247 -3.73661 0
M  V30 5313 H 503.858 -0.218799 -4.91713 0
M  V30 5314 N 505.51 1.54411 -0.315457 0
M  V30 5315 C 506.787 1.92562 0.343398 0
M  V30 5316 C 507.167 1.24423 1.70535 0
M  V30 5317 O 506.515 0.385051 2.25232 0
M  V30 5318 C 506.725 3.46168 0.443687 0
M  V30 5319 C 508.073 4.18659 0.707783 0
M  V30 5320 O 509.097 3.52281 0.52693 0
M  V30 5321 O 507.956 5.36198 1.05612 0
M  V30 5322 H 505.05 0.80379 0.194552 0
M  V30 5323 H 507.596 1.65738 -0.364577 0
M  V30 5324 H 506.368 3.8792 -0.513172 0
M  V30 5325 H 505.991 3.79073 1.19956 0
M  V30 5326 N 506.988 0.0434614 1.5754 0
M  V30 5327 C 508.213 -0.645358 1.97104 0
M  V30 5328 C 508.638 -1.64037 0.920521 0
M  V30 5329 O 507.996 -1.80922 -0.11708 0
M  V30 5330 C 508.044 -1.31547 3.35749 0
M  V30 5331 O 507.148 -2.43103 3.33129 0
M  V30 5332 H 506.489 -0.168403 0.64229 0
M  V30 5333 H 509.019 0.109573 2.04306 0
M  V30 5334 H 509.029 -1.66895 3.72304 0
M  V30 5335 H 507.704 -0.586205 4.11748 0
M  V30 5336 H 506.281 -2.0976 3.0831 0
M  V30 5337 N 508.466 -1.55915 -0.229846 0
M  V30 5338 C 509.694 -1.82617 -0.972562 0
M  V30 5339 C 510.109 -0.621488 -1.78278 0
M  V30 5340 O 509.466 0.409956 -1.77836 0
M  V30 5341 C 509.517 -3.0774 -1.89679 0
M  V30 5342 O 509.238 -4.23559 -1.11934 0
M  V30 5343 C 510.739 -3.47368 -2.75409 0
M  V30 5344 H 507.959 -0.60727 -0.285419 0
M  V30 5345 H 510.503 -2.02996 -0.247579 0
M  V30 5346 H 508.658 -2.89361 -2.57583 0
M  V30 5347 H 509.072 -4.94586 -1.74599 0
M  V30 5348 H 510.546 -4.37977 -3.35977 0
M  V30 5349 H 511.023 -2.68737 -3.47386 0
M  V30 5350 H 511.629 -3.68158 -2.12931 0
M  V30 5351 N 509.944 0.496216 -1.49584 0
M  V30 5352 C 511.221 1.25755 -1.49816 0
M  V30 5353 C 511.601 2.09859 -0.228572 0
M  V30 5354 O 510.949 2.14449 0.788908 0
M  V30 5355 C 511.159 2.11017 -2.7798 0
M  V30 5356 C 512.507 2.70047 -3.27658 0
M  V30 5357 O 513.531 2.21281 -2.79129 0
M  V30 5358 O 512.39 3.58834 -4.1219 0
M  V30 5359 H 509.484 0.569322 -0.599834 0
M  V30 5360 H 512.03 0.510094 -1.61852 0
M  V30 5361 H 510.802 1.48879 -3.61871 0
M  V30 5362 H 510.425 2.92947 -2.68827 0
M  V30 5363 N 511.423 1.38739 0.74761 0
M  V30 5364 C 512.67 1.35274 1.50689 0
M  V30 5365 C 512.998 -0.0553359 1.94421 0
M  V30 5366 O 512.253 -1.03365 1.66175 0
M  V30 5367 C 512.552 2.25992 2.7688 0
M  V30 5368 C 512.218 3.73854 2.5208 0
M  V30 5369 C 510.88 4.14145 2.45025 0
M  V30 5370 C 513.232 4.67427 2.30568 0
M  V30 5371 C 510.56 5.4609 2.14483 0
M  V30 5372 C 512.912 5.99635 2.01545 0
M  V30 5373 C 511.576 6.39004 1.92951 0
M  V30 5374 H 510.846 0.495003 0.55141 0
M  V30 5375 H 513.493 1.71145 0.859158 0
M  V30 5376 H 511.798 1.83196 3.46333 0
M  V30 5377 H 513.495 2.20611 3.34861 0
M  V30 5378 H 510.085 3.41913 2.58444 0
M  V30 5379 H 514.269 4.3714 2.34994 0
M  V30 5380 H 509.525 5.75528 2.06342 0
M  V30 5381 H 513.699 6.71678 1.83906 0
M  V30 5382 H 511.326 7.41165 1.6905 0
M  V30 5383 N 512.901 -0.976442 1.23707 0
M  V30 5384 C 514.148 -1.71827 1.07153 0
M  V30 5385 C 514.476 -1.9053 -0.390982 0
M  V30 5386 O 513.731 -1.45779 -1.30564 0
M  V30 5387 C 514.03 -3.11814 1.74662 0
M  V30 5388 C 513.696 -3.12978 3.24585 0
M  V30 5389 C 512.358 -3.13003 3.6549 0
M  V30 5390 C 514.71 -3.07986 4.20469 0
M  V30 5391 C 512.038 -3.05757 5.00729 0
M  V30 5392 C 514.39 -3.02282 5.55705 0
M  V30 5393 C 513.054 -3.00631 5.95968 0
M  V30 5394 H 512.324 -0.628758 0.392102 0
M  V30 5395 H 514.971 -1.14239 1.53693 0
M  V30 5396 H 513.276 -3.72812 1.20492 0
M  V30 5397 H 514.973 -3.67989 1.59328 0
M  V30 5398 H 511.563 -3.13718 2.92026 0
M  V30 5399 H 515.747 -3.07103 3.89874 0
M  V30 5400 H 511.003 -3.02834 5.31132 0
M  V30 5401 H 515.177 -2.97376 6.29714 0
M  V30 5402 H 512.804 -2.94771 7.00724 0
M  V30 5403 N 514.379 -1.04941 -1.1758 0
M  V30 5404 C 515.326 -0.648155 -2.21512 0
M  V30 5405 C 516.296 0.348431 -1.62404 0
M  V30 5406 O 517.481 0.240419 -1.89279 0
M  V30 5407 C 514.621 -0.0264291 -3.4509 0
M  V30 5408 C 513.734 -1.07154 -4.185 0
M  V30 5409 C 512.869 -0.417403 -5.29558 0
M  V30 5410 C 511.908 -1.447 -5.94751 0
M  V30 5411 N 511.045 -0.817203 -6.97328 0
M  V30 5412 H 515.885 -1.53891 -2.55189 0
M  V30 5413 H 513.422 -0.769699 -1.25356 0
M  V30 5414 H 515.38 0.351456 -4.15717 0
M  V30 5415 H 514.01 0.827802 -3.12005 0
M  V30 5416 H 513.062 -1.56728 -3.46613 0
M  V30 5417 H 514.374 -1.8532 -4.63096 0
M  V30 5418 H 513.528 0.0142061 -6.06698 0
M  V30 5419 H 512.267 0.396265 -4.86087 0
M  V30 5420 H 511.272 -1.88865 -5.16343 0
M  V30 5421 H 512.497 -2.26252 -6.40302 0
M  V30 5422 H 510.443 -0.0239995 -6.55996 0
M  V30 5423 H 510.36 -1.53644 -7.40223 0
M  V30 5424 H 511.628 -0.410283 -7.7842 0
M  V30 5425 N 515.857 1.33968 -0.830081 0
M  V30 5426 C 517.082 2.02813 -0.433796 0
M  V30 5427 C 517.507 1.62076 0.954614 0
M  V30 5428 O 516.865 0.808955 1.62252 0
M  V30 5429 C 516.913 3.56348 -0.552115 0
M  V30 5430 O 516.017 4.10202 0.425191 0
M  V30 5431 H 515.358 0.639817 -0.177567 0
M  V30 5432 H 517.888 1.7106 -1.12248 0
M  V30 5433 H 517.898 4.05722 -0.430513 0
M  V30 5434 H 516.573 3.85344 -1.56471 0
M  V30 5435 H 515.15 3.71979 0.261878 0
M  V30 5436 N 517.335 0.585699 1.46312 0
M  V30 5437 C 518.583 0.072278 2.01971 0
M  V30 5438 C 518.904 -1.29345 1.45928 0
M  V30 5439 O 518.174 -1.84973 0.645109 0
M  V30 5440 H 516.754 0.023729 0.746623 0
M  V30 5441 H 519.416 0.762155 1.7938 0
M  V30 5442 H 518.512 0.00552767 3.121 0
M  V30 5443 N 518.813 -1.54241 0.323641 0
M  V30 5444 C 519.776 -2.22997 -0.529602 0
M  V30 5445 C 520.776 -1.22345 -1.04347 0
M  V30 5446 O 521.966 -1.46924 -0.935889 0
M  V30 5447 C 519.098 -2.93409 -1.73562 0
M  V30 5448 H 520.291 -2.99815 0.0714518 0
M  V30 5449 H 517.844 -1.56121 0.0747258 0
M  V30 5450 H 518.579 -2.20729 -2.37591 0
M  V30 5451 H 518.364 -3.67217 -1.37456 0
M  V30 5452 H 519.854 -3.45794 -2.34128 0
M  V30 5453 N 520.291 -0.0518155 -1.57515 0
M  V30 5454 C 521.254 0.907547 -2.10467 0
M  V30 5455 C 522.254 1.23947 -1.02439 0
M  V30 5456 O 523.444 1.17604 -1.2851 0
M  V30 5457 C 520.576 2.21723 -2.58944 0
M  V30 5458 H 521.769 0.44851 -2.96527 0
M  V30 5459 H 519.322 0.196598 -1.55059 0
M  V30 5460 H 520.057 2.72206 -1.76279 0
M  V30 5461 H 519.842 1.98935 -3.37886 0
M  V30 5462 H 521.332 2.90441 -3.00056 0
M  V30 5463 N 521.769 1.56035 0.221574 0
M  V30 5464 C 522.994 1.83476 0.967026 0
M  V30 5465 C 523.419 0.632139 1.7716 0
M  V30 5466 O 522.777 -0.419082 1.7639 0
M  V30 5467 C 522.825 3.08907 1.86034 0
M  V30 5468 O 521.929 2.876 2.95567 0
M  V30 5469 H 521.27 0.604913 0.273817 0
M  V30 5470 H 523.8 2.03247 0.234893 0
M  V30 5471 H 523.81 3.3901 2.27016 0
M  V30 5472 H 522.485 3.96068 1.26898 0
M  V30 5473 H 521.062 2.6873 2.58532 0
M  V30 5474 N 523.247 -0.488276 1.49845 0
M  V30 5475 C 524.493 -1.24341 1.6021 0
M  V30 5476 C 524.826 -1.91967 0.293651 0
M  V30 5477 O 524.101 -1.81323 -0.703718 0
M  V30 5478 C 524.384 -2.3005 2.77036 0
M  V30 5479 C 524.237 -1.66842 4.17713 0
M  V30 5480 C 525.556 -3.31509 2.89464 0
M  V30 5481 H 522.675 -0.450704 0.583125 0
M  V30 5482 H 525.317 -0.539673 1.82174 0
M  V30 5483 H 523.467 -2.90071 2.58439 0
M  V30 5484 H 525.139 -1.1055 4.47858 0
M  V30 5485 H 523.382 -0.972079 4.22768 0
M  V30 5486 H 524.053 -2.43576 4.95353 0
M  V30 5487 H 526.529 -2.81493 3.06433 0
M  V30 5488 H 525.405 -4.02822 3.72861 0
M  V30 5489 H 525.666 -3.94603 1.99351 0
M  V30 5490 N 524.725 -1.39134 -0.740242 0
M  V30 5491 C 526.002 -1.26584 -1.49117 0
M  V30 5492 C 526.382 0.126902 -2.10718 0
M  V30 5493 O 525.73 1.13765 -1.98166 0
M  V30 5494 C 525.94 -2.38619 -2.54681 0
M  V30 5495 C 527.288 -2.77685 -3.21211 0
M  V30 5496 O 528.312 -2.38029 -2.64991 0
M  V30 5497 O 527.171 -3.46115 -4.22926 0
M  V30 5498 H 524.265 -0.495769 -0.661923 0
M  V30 5499 H 526.811 -1.50995 -0.774514 0
M  V30 5500 H 525.583 -3.3175 -2.07504 0
M  V30 5501 H 525.206 -2.15845 -3.33911 0
M  V30 5502 N 526.204 0.969867 -1.24223 0
M  V30 5503 C 527.45 1.7151 -1.08223 0
M  V30 5504 C 527.783 1.90478 0.37838 0
M  V30 5505 O 527.058 1.4647 1.27971 0
M  V30 5506 C 527.341 3.10714 -1.82013 0
M  V30 5507 C 527.194 2.9925 -3.35811 0
M  V30 5508 C 528.513 4.10332 -1.59108 0
M  V30 5509 H 525.632 0.622499 -0.394543 0
M  V30 5510 H 528.274 1.1284 -1.52863 0
M  V30 5511 H 526.424 3.608 -1.44068 0
M  V30 5512 H 528.096 2.56608 -3.83341 0
M  V30 5513 H 526.339 2.35512 -3.64303 0
M  V30 5514 H 527.01 3.97857 -3.82641 0
M  V30 5515 H 529.486 3.69097 -1.92111 0
M  V30 5516 H 528.362 5.05804 -2.13198 0
M  V30 5517 H 528.623 4.38926 -0.528832 0
M  V30 5518 N 527.682 1.05563 1.17022 0
M  V30 5519 C 528.928 0.769074 1.87652 0
M  V30 5520 C 529.261 -0.702326 1.81055 0
M  V30 5521 O 528.536 -1.5139 1.22112 0
M  V30 5522 C 528.819 1.25492 3.37526 0
M  V30 5523 C 528.672 2.78953 3.52853 0
M  V30 5524 C 529.991 0.856919 4.31677 0
M  V30 5525 H 527.11 0.280854 0.681388 0
M  V30 5526 H 529.752 1.31027 1.37593 0
M  V30 5527 H 527.902 0.794516 3.80289 0
M  V30 5528 H 529.574 3.33146 3.19079 0
M  V30 5529 H 527.817 3.18046 2.95007 0
M  V30 5530 H 528.488 3.08011 4.58076 0
M  V30 5531 H 530.964 1.25334 3.96775 0
M  V30 5532 H 529.84 1.22443 5.35069 0
M  V30 5533 H 530.101 -0.238787 4.41455 0
M  V30 5534 N 529.16 -1.33526 0.837174 0
M  V30 5535 C 530.576 -1.50727 0.524743 0
M  V30 5536 C 530.776 -1.77792 -0.948279 0
M  V30 5537 O 529.832 -1.83719 -1.73216 0
M  V30 5538 C 531.145 -2.66299 1.39661 0
M  V30 5539 C 532.693 -2.80183 1.39521 0
M  V30 5540 C 533.168 -3.98815 2.25189 0
M  V30 5541 N 534.659 -4.06047 2.2289 0
M  V30 5542 C 535.394 -4.97032 2.85915 0
M  V30 5543 N 534.89 -5.93143 3.57985 0
M  V30 5544 N 536.683 -4.90015 2.75394 0
M  V30 5545 H 528.834 -1.1422 1.79074 0
M  V30 5546 H 531.097 -0.561399 0.763894 0
M  V30 5547 H 530.803 -2.52974 2.4433 0
M  V30 5548 H 530.677 -3.61663 1.07145 0
M  V30 5549 H 533.064 -2.92942 0.356253 0
M  V30 5550 H 533.145 -1.85586 1.76044 0
M  V30 5551 H 532.789 -3.86817 3.29143 0
M  V30 5552 H 532.719 -4.92654 1.86009 0
M  V30 5553 H 535.21 -3.37262 1.70478 0
M  V30 5554 H 535.523 -6.59227 4.03286 0
M  V30 5555 H 533.868 -5.93223 3.62093 0
M  V30 5556 H 537.059 -4.13894 2.18654 0
M  V30 5557 H 537.232 -5.60724 3.24796 0
M  V30 5558 N 530.638 -0.59345 -1.46 0
M  V30 5559 C 531.568 0.121192 -2.33185 0
M  V30 5560 C 532.549 0.872977 -1.4599 0
M  V30 5561 O 533.734 0.846321 -1.74789 0
M  V30 5562 C 530.864 1.12844 -3.28456 0
M  V30 5563 C 529.818 0.4908 -4.25177 0
M  V30 5564 C 529.144 1.60529 -5.10034 0
M  V30 5565 C 530.444 -0.578949 -5.19081 0
M  V30 5566 H 532.138 -0.606767 -2.93187 0
M  V30 5567 H 529.684 -0.293242 -1.40983 0
M  V30 5568 H 531.637 1.63684 -3.88311 0
M  V30 5569 H 530.361 1.88681 -2.66584 0
M  V30 5570 H 529.02 0.00339328 -3.666 0
M  V30 5571 H 528.668 2.35359 -4.44539 0
M  V30 5572 H 528.368 1.18422 -5.75543 0
M  V30 5573 H 529.892 2.11623 -5.72755 0
M  V30 5574 H 531.306 -0.155199 -5.7309 0
M  V30 5575 H 529.703 -0.920947 -5.92991 0
M  V30 5576 H 530.773 -1.46109 -4.62364 0
M  V30 5577 N 532.116 1.54067 -0.331816 0
M  V30 5578 C 533.362 2.01012 0.268667 0
M  V30 5579 C 533.695 1.2195 1.51136 0
M  V30 5580 O 532.97 0.303972 1.9211 0
M  V30 5581 C 533.253 3.55158 0.59456 0
M  V30 5582 C 533.106 4.4494 -0.659409 0
M  V30 5583 C 534.425 4.16939 1.4089 0
M  V30 5584 H 531.544 0.730698 0.0961756 0
M  V30 5585 H 534.186 1.84593 -0.450031 0
M  V30 5586 H 532.336 3.6928 1.20685 0
M  V30 5587 H 534.008 4.42675 -1.29756 0
M  V30 5588 H 532.251 4.1428 -1.28665 0
M  V30 5589 H 532.922 5.50643 -0.386804 0
M  V30 5590 H 535.398 4.06443 0.891272 0
M  V30 5591 H 534.274 5.24889 1.60569 0
M  V30 5592 H 534.535 3.70798 2.40752 0
M  V30 5593 N 533.594 0.0601682 1.57485 0
M  V30 5594 C 534.504 -0.926121 2.15546 0
M  V30 5595 C 535.52 -1.33532 1.11558 0
M  V30 5596 O 536.696 -1.4104 1.4377 0
M  V30 5597 C 533.761 -2.17952 2.69625 0
M  V30 5598 C 532.822 -1.82783 3.88444 0
M  V30 5599 C 532.055 -3.02148 4.39935 0
M  V30 5600 O 532.278 -4.15803 3.90466 0
M  V30 5601 O 531.212 -2.82639 5.31412 0
M  V30 5602 H 535.038 -0.462289 3.00161 0
M  V30 5603 H 532.623 -0.162246 1.48516 0
M  V30 5604 H 534.505 -2.91474 3.04337 0
M  V30 5605 H 533.18 -2.63456 1.88077 0
M  V30 5606 H 532.087 -1.06549 3.58606 0
M  V30 5607 H 533.42 -1.42072 4.7125 0
M  V30 5608 N 535.072 -1.5615 -0.213296 0
M  V30 5609 C 535.982 -1.96265 -1.28519 0
M  V30 5610 C 536.998 -0.86765 -1.50824 0
M  V30 5611 O 538.174 -1.17191 -1.63793 0
M  V30 5612 C 535.239 -2.27836 -2.61327 0
M  V30 5613 C 534.3 -3.50949 -2.47252 0
M  V30 5614 C 533.533 -3.81004 -3.73727 0
M  V30 5615 O 533.756 -3.12612 -4.77106 0
M  V30 5616 O 532.69 -4.74477 -3.70344 0
M  V30 5617 H 536.516 -2.87631 -0.974795 0
M  V30 5618 H 534.101 -1.43467 -0.416832 0
M  V30 5619 H 535.983 -2.49299 -3.39747 0
M  V30 5620 H 534.658 -1.39643 -2.9203 0
M  V30 5621 H 533.565 -3.34754 -1.67004 0
M  V30 5622 H 534.898 -4.39551 -2.21486 0
M  V30 5623 N 536.55 0.480323 -1.50102 0
M  V30 5624 C 537.796 1.23489 -1.60867 0
M  V30 5625 C 538.129 1.91809 -0.303827 0
M  V30 5626 O 537.404 1.81694 0.694092 0
M  V30 5627 C 537.687 2.28578 -2.78252 0
M  V30 5628 C 537.54 1.64624 -4.18592 0
M  V30 5629 C 538.859 3.2997 -2.91218 0
M  V30 5630 H 535.978 0.447605 -0.585507 0
M  V30 5631 H 538.62 0.530005 -1.82458 0
M  V30 5632 H 536.77 2.88697 -2.59974 0
M  V30 5633 H 538.442 1.08173 -4.48438 0
M  V30 5634 H 536.685 0.949645 -4.23278 0
M  V30 5635 H 537.356 2.40946 -4.96638 0
M  V30 5636 H 539.832 2.79864 -3.07921 0
M  V30 5637 H 538.708 4.00839 -3.74993 0
M  V30 5638 H 538.969 3.93541 -2.0144 0
M  V30 5639 N 538.028 1.39524 0.732853 0
M  V30 5640 C 538.975 1.38416 1.84688 0
M  V30 5641 C 539.945 0.243539 1.64305 0
M  V30 5642 O 541.13 0.438979 1.85681 0
M  V30 5643 C 538.27 1.23555 3.22224 0
M  V30 5644 C 537.383 2.47179 3.54298 0
M  V30 5645 C 536.518 2.2489 4.81246 0
M  V30 5646 C 535.557 3.44178 5.0617 0
M  V30 5647 N 534.694 3.21192 6.24323 0
M  V30 5648 H 539.534 2.33645 1.84971 0
M  V30 5649 H 537.071 1.16059 0.903804 0
M  V30 5650 H 539.029 1.12949 4.0162 0
M  V30 5651 H 537.659 0.31954 3.21215 0
M  V30 5652 H 536.711 2.68379 2.69587 0
M  V30 5653 H 538.023 3.36022 3.68633 0
M  V30 5654 H 537.177 2.11538 5.68627 0
M  V30 5655 H 535.916 1.33443 4.69089 0
M  V30 5656 H 534.921 3.58025 4.17251 0
M  V30 5657 H 536.146 4.36528 5.20212 0
M  V30 5658 H 534.092 2.32413 6.1345 0
M  V30 5659 H 534.009 4.03594 6.39256 0
M  V30 5660 H 535.277 3.1154 7.14537 0
M  V30 5661 N 539.506 -0.963266 1.24736 0
M  V30 5662 C 540.416 -2.09246 1.06082 0
M  V30 5663 C 541.432 -1.74 0.000363101 0
M  V30 5664 O 542.608 -2.0041 0.199479 0
M  V30 5665 C 539.673 -3.40115 0.672498 0
M  V30 5666 C 538.734 -3.89282 1.80993 0
M  V30 5667 C 537.967 -5.13905 1.44004 0
M  V30 5668 O 538.19 -5.69434 0.331835 0
M  V30 5669 O 537.124 -5.57566 2.26723 0
M  V30 5670 H 540.95 -2.27881 2.00759 0
M  V30 5671 H 538.535 -1.07649 1.03595 0
M  V30 5672 H 540.417 -4.18797 0.467668 0
M  V30 5673 H 539.092 -3.22771 -0.245102 0
M  V30 5674 H 537.999 -3.11642 2.06955 0
M  V30 5675 H 539.332 -4.1111 2.70646 0
M  V30 5676 N 540.985 -1.06182 -1.16461 0
M  V30 5677 C 541.915 -0.692861 -2.22984 0
M  V30 5678 C 542.896 0.314122 -1.67174 0
M  V30 5679 O 544.081 0.189499 -1.93273 0
M  V30 5680 C 541.211 -0.07732 -3.47214 0
M  V30 5681 C 540.165 -1.01015 -4.15909 0
M  V30 5682 C 539.491 -0.257973 -5.34077 0
M  V30 5683 C 540.791 -2.33868 -4.67015 0
M  V30 5684 H 542.485 -1.58343 -2.54102 0
M  V30 5685 H 540.031 -0.76279 -1.22137 0
M  V30 5686 H 541.984 0.19266 -4.20959 0
M  V30 5687 H 540.708 0.848254 -3.15392 0
M  V30 5688 H 539.367 -1.26486 -3.44088 0
M  V30 5689 H 539.015 0.670684 -4.98509 0
M  V30 5690 H 538.715 -0.879638 -5.80979 0
M  V30 5691 H 540.239 0.00448788 -6.106 0
M  V30 5692 H 541.653 -2.1279 -5.32347 0
M  V30 5693 H 540.05 -2.91522 -5.24533 0
M  V30 5694 H 541.12 -2.97019 -3.83286 0
M  V30 5695 N 542.463 1.3308 -0.844243 0
M  V30 5696 C 543.703 1.99414 -0.448697 0
M  V30 5697 C 544.067 1.65398 0.975058 0
M  V30 5698 O 545.268 2.24741 1.47461 0
M  V30 5699 C 543.539 3.51081 -0.669089 0
M  V30 5700 S 545.098 4.37241 -0.369564 0
M  V30 5701 H 541.916 0.690736 -0.168538 0
M  V30 5702 H 544.518 1.61977 -1.0947 0
M  V30 5703 H 543.222 3.73326 -1.70457 0
M  V30 5704 H 542.753 3.93399 -0.00913211 0
M  V30 5705 H 544.768 4.89568 0.808552 0
M  V30 5706 N 543.941 0.601185 1.45683 0
M  V30 5707 C 545.218 0.0261659 1.95582 0
M  V30 5708 C 545.598 -1.4399 1.5437 0
M  V30 5709 O 544.946 -2.13919 0.80318 0
M  V30 5710 C 545.156 0.217557 3.48321 0
M  V30 5711 C 546.504 0.0950076 4.24494 0
M  V30 5712 O 547.528 0.147345 3.55895 0
M  V30 5713 O 546.387 -0.025261 5.46494 0
M  V30 5714 H 543.481 -0.0393688 0.826062 0
M  V30 5715 H 546.027 0.670798 1.55879 0
M  V30 5716 H 544.799 1.23601 3.71266 0
M  V30 5717 H 544.422 -0.46264 3.94899 0
M  V30 5718 N 545.419 -1.53889 0.339982 0
M  V30 5719 C 546.667 -2.00458 -0.257112 0
M  V30 5720 C 546.988 -1.22953 -1.51353 0
M  V30 5721 O 546.258 -0.335734 -1.93002 0
M  V30 5722 H 544.838 -0.740544 -0.0979965 0
M  V30 5723 H 547.5 -1.89386 0.460317 0
M  V30 5724 H 546.596 -3.08035 -0.502057 0
M  V30 5725 N 546.897 -0.0685191 -1.57451 0
M  V30 5726 C 547.827 0.89747 -2.15564 0
M  V30 5727 C 548.808 1.31266 -1.08181 0
M  V30 5728 O 549.993 1.38429 -1.36202 0
M  V30 5729 C 547.123 2.16623 -2.71463 0
M  V30 5730 C 546.077 1.89054 -3.83982 0
M  V30 5731 C 545.403 3.22532 -4.26471 0
M  V30 5732 C 546.703 1.1984 -5.08366 0
M  V30 5733 H 548.397 0.413373 -2.96533 0
M  V30 5734 H 545.943 0.197391 -1.42641 0
M  V30 5735 H 547.896 2.84614 -3.10761 0
M  V30 5736 H 546.62 2.67269 -1.8771 0
M  V30 5737 H 545.279 1.23469 -3.45183 0
M  V30 5738 H 544.927 3.71013 -3.39644 0
M  V30 5739 H 544.627 3.04879 -5.02317 0
M  V30 5740 H 546.151 3.91727 -4.68383 0
M  V30 5741 H 547.565 1.77896 -5.45001 0
M  V30 5742 H 545.962 1.12456 -5.89469 0
M  V30 5743 H 547.032 0.176996 -4.84577 0
M  V30 5744 N 548.375 1.56261 0.205012 0
M  V30 5745 C 549.285 1.96944 1.27476 0
M  V30 5746 C 550.301 0.875636 1.50362 0
M  V30 5747 O 551.477 1.18058 1.6317 0
M  V30 5748 C 548.542 2.29219 2.60115 0
M  V30 5749 C 547.603 3.52255 2.45387 0
M  V30 5750 C 546.836 3.8298 3.71701 0
M  V30 5751 O 547.059 3.15138 4.75441 0
M  V30 5752 O 545.993 4.76435 3.67823 0
M  V30 5753 H 549.819 2.88144 0.959527 0
M  V30 5754 H 547.404 1.43686 0.409217 0
M  V30 5755 H 549.286 2.51098 3.3842 0
M  V30 5756 H 547.961 1.4119 2.91285 0
M  V30 5757 H 546.868 3.35635 1.65227 0
M  V30 5758 H 548.201 4.40719 2.19152 0
M  V30 5759 N 549.853 -0.472356 1.50355 0
M  V30 5760 C 550.783 -1.57859 1.72055 0
M  V30 5761 C 551.764 -1.60283 0.569505 0
M  V30 5762 O 552.949 -1.7657 0.808503 0
M  V30 5763 C 550.079 -2.96191 1.81351 0
M  V30 5764 C 549.033 -3.08633 2.96529 0
M  V30 5765 C 548.359 -4.486 2.90968 0
M  V30 5766 C 549.659 -2.85969 4.37057 0
M  V30 5767 H 551.353 -1.39953 2.64676 0
M  V30 5768 H 548.899 -0.671846 1.27367 0
M  V30 5769 H 550.852 -3.73507 1.95117 0
M  V30 5770 H 549.576 -3.15251 0.853502 0
M  V30 5771 H 548.235 -2.33749 2.82413 0
M  V30 5772 H 547.883 -4.64577 1.92815 0
M  V30 5773 H 547.583 -4.57861 3.68289 0
M  V30 5774 H 549.107 -5.27938 3.0678 0
M  V30 5775 H 550.521 -3.53036 4.51706 0
M  V30 5776 H 548.918 -3.06677 5.15819 0
M  V30 5777 H 549.988 -1.81838 4.49514 0
M  V30 5778 N 551.331 -1.39911 -0.725443 0
M  V30 5779 C 552.241 -1.41688 -1.8698 0
M  V30 5780 C 553.257 -0.310579 -1.71206 0
M  V30 5781 O 554.433 -0.55359 -1.93642 0
M  V30 5782 C 551.498 -1.26811 -3.22676 0
M  V30 5783 C 550.559 -2.47497 -3.50776 0
M  V30 5784 C 549.792 -2.3332 -4.79997 0
M  V30 5785 O 550.015 -1.34175 -5.54394 0
M  V30 5786 O 548.949 -3.22498 -5.08211 0
M  V30 5787 H 552.775 -2.38171 -1.88436 0
M  V30 5788 H 550.36 -1.21128 -0.874548 0
M  V30 5789 H 552.242 -1.20684 -4.03749 0
M  V30 5790 H 550.917 -0.334289 -3.21969 0
M  V30 5791 H 549.824 -2.59201 -2.69751 0
M  V30 5792 H 551.157 -3.39606 -3.5627 0
M  V30 5793 N 552.809 0.956637 -1.25245 0
M  V30 5794 C 553.757 2.0743 -1.0524 0
M  V30 5795 C 554.751 1.69392 0.0160725 0
M  V30 5796 O 555.957 1.7946 -0.139382 0
M  V30 5797 H 552.332 0.678921 -0.323373 0
M  V30 5798 H 554.303 2.2146 -1.99995 0
M  V30 5799 C 553.052 3.40872 -0.685702 0
M  V30 5800 H 552.375 3.70607 -1.49968 0
M  V30 5801 H 553.815 4.19939 -0.585415 0
M  V30 5802 C 552.274 3.31367 0.608082 0
M  V30 5803 O 552.804 3.66214 1.65076 0
M  V30 5804 N 551.01 2.84486 0.592955 0
M  V30 5805 H 550.557 2.56326 -0.25592 0
M  V30 5806 H 550.515 2.78509 1.45877 0
M  V30 5807 N 554.287 1.06798 1.15896 0
M  V30 5808 C 555.197 0.694564 2.24083 0
M  V30 5809 C 556.213 -0.291687 1.71538 0
M  V30 5810 O 557.389 -0.139723 2.00915 0
M  V30 5811 C 554.454 0.0921014 3.46578 0
M  V30 5812 C 553.515 1.13087 4.14137 0
M  V30 5813 C 552.748 0.557064 5.30785 0
M  V30 5814 O 552.971 -0.628623 5.66925 0
M  V30 5815 O 551.905 1.29924 5.8771 0
M  V30 5816 H 555.731 1.59663 2.58344 0
M  V30 5817 H 553.316 0.840575 1.2351 0
M  V30 5818 H 555.198 -0.241884 4.20705 0
M  V30 5819 H 553.873 -0.78337 3.14078 0
M  V30 5820 H 552.78 1.51712 3.41957 0
M  V30 5821 H 554.113 1.97805 4.50704 0
M  V30 5822 N 555.766 -1.3263 0.851289 0
M  V30 5823 C 557.043 -1.91982 0.374448 0
M  V30 5824 C 557.423 -1.77568 -1.14161 0
M  V30 5825 O 556.771 -1.1717 -1.96172 0
M  V30 5826 C 556.981 -3.38862 0.835088 0
M  V30 5827 C 558.329 -4.15999 0.850309 0
M  V30 5828 O 559.353 -3.47566 0.779505 0
M  V30 5829 O 558.212 -5.38189 0.949481 0
M  V30 5830 H 555.306 -0.819846 0.10854 0
M  V30 5831 H 557.852 -1.41422 0.937966 0
M  V30 5832 H 556.624 -3.43281 1.87814 0
M  V30 5833 H 556.247 -3.96821 0.248833 0
M  V30 5834 N 557.244 -0.608902 -1.45362 0
M  V30 5835 C 558.49 -0.104762 -2.02529 0
M  V30 5836 C 558.823 1.26191 -1.47613 0
M  V30 5837 O 558.098 1.8327 -0.65134 0
M  V30 5838 C 558.381 -0.0672661 -3.60037 0
M  V30 5839 C 558.234 -1.4647 -4.25284 0
M  V30 5840 C 559.553 0.619877 -4.35713 0
M  V30 5841 H 556.672 -0.0395438 -0.735938 0
M  V30 5842 H 559.314 -0.781126 -1.73201 0
M  V30 5843 H 557.464 0.50871 -3.85155 0
M  V30 5844 H 559.136 -2.08785 -4.11347 0
M  V30 5845 H 557.379 -2.02502 -3.83634 0
M  V30 5846 H 558.05 -1.39069 -5.34195 0
M  V30 5847 H 560.526 0.130297 -4.15896 0
M  V30 5848 H 559.402 0.615224 -5.45441 0
M  V30 5849 H 559.663 1.68621 -4.0868 0
M  V30 5850 N 558.722 1.53707 -0.348139 0
M  V30 5851 C 559.952 2.05108 0.247864 0
M  V30 5852 C 560.36 1.22252 1.44399 0
M  V30 5853 O 559.703 0.251853 1.81965 0
M  V30 5854 C 559.765 3.52171 0.722187 0
M  V30 5855 C 559.429 4.5562 -0.354902 0
M  V30 5856 C 560.426 5.05883 -1.19911 0
M  V30 5857 C 558.111 4.99703 -0.510145 0
M  V30 5858 C 560.105 5.98814 -2.18406 0
M  V30 5859 C 557.792 5.92443 -1.49848 0
M  V30 5860 C 558.79 6.41887 -2.33389 0
M  V30 5861 O 558.478 7.32802 -3.3054 0
M  V30 5862 H 558.21 0.674086 0.0508296 0
M  V30 5863 H 560.764 1.99229 -0.49968 0
M  V30 5864 H 558.994 3.55529 1.52105 0
M  V30 5865 H 560.683 3.8652 1.23925 0
M  V30 5866 H 561.449 4.72586 -1.09028 0
M  V30 5867 H 557.328 4.60816 0.130274 0
M  V30 5868 H 560.872 6.3733 -2.83649 0
M  V30 5869 H 556.769 6.25155 -1.60786 0
M  V30 5870 H 557.537 7.50749 -3.26064 0
M  V30 5871 N 560.2 0.0768682 1.57412 0
M  V30 5872 C 561.133 -0.924685 2.08626 0
M  V30 5873 C 562.111 -1.28792 0.992542 0
M  V30 5874 O 563.295 -1.39634 1.26628 0
M  V30 5875 C 560.422 -2.23131 2.54814 0
M  V30 5876 C 559.468 -2.01928 3.75669 0
M  V30 5877 S 560.301 -1.27397 5.20125 0
M  V30 5878 C 561.457 -2.59329 5.69648 0
M  V30 5879 H 561.69 -0.488928 2.93252 0
M  V30 5880 H 559.223 -0.136014 1.538 0
M  V30 5881 H 561.181 -2.98226 2.82084 0
M  V30 5882 H 559.842 -2.63831 1.70447 0
M  V30 5883 H 559.035 -2.98639 4.05993 0
M  V30 5884 H 558.637 -1.34967 3.48798 0
M  V30 5885 H 560.929 -3.55394 5.76803 0
M  V30 5886 H 561.872 -2.33608 6.68456 0
M  V30 5887 H 562.28 -2.66767 4.9749 0
M  V30 5888 N 561.678 -1.56367 -0.196722 0
M  V30 5889 C 562.641 -1.93561 -1.22746 0
M  V30 5890 C 563.641 -0.816566 -1.38524 0
M  V30 5891 O 564.831 -1.084 -1.36363 0
M  V30 5892 C 561.963 -2.20823 -2.59712 0
M  V30 5893 H 563.156 -2.85774 -0.909586 0
M  V30 5894 H 560.709 -1.50032 -0.438174 0
M  V30 5895 H 561.444 -1.31243 -2.96557 0
M  V30 5896 H 561.229 -3.02368 -2.49632 0
M  V30 5897 H 562.719 -2.50608 -3.34044 0
M  V30 5898 N 563.156 0.464375 -1.50603 0
M  V30 5899 C 564.381 1.24372 -1.65971 0
M  V30 5900 C 564.806 1.84901 -0.345453 0
M  V30 5901 O 564.164 1.67596 0.691457 0
M  V30 5902 C 564.212 2.32331 -2.7578 0
M  V30 5903 O 563.316 3.37146 -2.375 0
M  V30 5904 H 562.657 0.365604 -0.554283 0
M  V30 5905 H 565.187 0.55183 -1.97018 0
M  V30 5906 H 565.197 2.77539 -2.99059 0
M  V30 5907 H 563.872 1.87648 -3.71162 0
M  V30 5908 H 562.449 2.97602 -2.24694 0
M  V30 5909 N 564.634 1.40294 0.718013 0
M  V30 5910 C 565.862 1.4175 1.50714 0
M  V30 5911 C 566.277 0.0165366 1.88793 0
M  V30 5912 O 565.634 -0.958942 1.55276 0
M  V30 5913 C 565.685 2.30598 2.784 0
M  V30 5914 O 565.406 3.6524 2.41932 0
M  V30 5915 C 566.907 2.4062 3.72313 0
M  V30 5916 H 564.127 0.483565 0.465194 0
M  V30 5917 H 566.671 1.84316 0.885889 0
M  V30 5918 H 564.826 1.91401 3.36815 0
M  V30 5919 H 565.24 4.12402 3.24076 0
M  V30 5920 H 566.714 3.07001 4.58753 0
M  V30 5921 H 567.191 1.4305 4.15251 0
M  V30 5922 H 567.797 2.80359 3.19811 0
M  V30 5923 N 566.112 -0.949982 1.2575 0
M  V30 5924 C 567.359 -1.69515 1.10774 0
M  V30 5925 C 567.687 -1.91316 -0.350479 0
M  V30 5926 O 566.942 -1.48515 -1.27443 0
M  V30 5927 C 567.241 -3.08039 1.81237 0
M  V30 5928 C 566.907 -3.06023 3.31151 0
M  V30 5929 C 565.569 -3.0518 3.72047 0
M  V30 5930 C 567.921 -2.98998 4.26907 0
M  V30 5931 C 565.249 -2.95067 5.07102 0
M  V30 5932 C 567.601 -2.90426 5.61992 0
M  V30 5933 C 566.265 -2.87922 6.0221 0
M  V30 5934 H 565.535 -0.6203 0.405351 0
M  V30 5935 H 568.182 -1.10953 1.56082 0
M  V30 5936 H 566.487 -3.70172 1.28373 0
M  V30 5937 H 568.184 -3.64526 1.67098 0
M  V30 5938 H 564.774 -3.07453 2.98614 0
M  V30 5939 H 568.958 -2.98764 3.963 0
M  V30 5940 H 564.214 -2.915 5.37436 0
M  V30 5941 H 568.388 -2.83952 6.35881 0
M  V30 5942 H 566.015 -2.79841 7.06819 0
M  V30 5943 N 567.59 -1.07411 -1.15328 0
M  V30 5944 C 568.838 -0.796073 -1.85761 0
M  V30 5945 C 569.159 0.679864 -1.82764 0
M  V30 5946 O 568.429 1.49242 -1.269 0
M  V30 5947 H 567.009 -0.291495 -0.687779 0
M  V30 5948 H 569.671 -1.35799 -1.39802 0
M  V30 5949 H 568.767 -1.13114 -2.90881 0
M  V30 5950 N 569.068 1.32177 -0.85831 0
M  V30 5951 C 570.345 1.91781 -0.384624 0
M  V30 5952 C 570.725 1.78171 1.13217 0
M  V30 5953 O 570.073 1.18209 1.95548 0
M  V30 5954 C 570.283 3.38414 -0.853047 0
M  V30 5955 C 571.631 4.15542 -0.872359 0
M  V30 5956 O 572.655 3.47148 -0.797926 0
M  V30 5957 O 571.514 5.37678 -0.978009 0
M  V30 5958 H 568.608 0.819259 -0.112886 0
M  V30 5959 H 571.154 1.40923 -0.945453 0
M  V30 5960 H 569.926 3.4228 -1.89632 0
M  V30 5961 H 569.549 3.96683 -0.269874 0
M  V30 5962 N 570.547 0.616602 1.45037 0
M  V30 5963 C 571.794 0.115331 2.02171 0
M  V30 5964 C 572.122 -1.25748 1.48383 0
M  V30 5965 O 571.377 -1.84511 0.652229 0
M  V30 5966 C 571.676 0.0356829 3.57382 0
M  V30 5967 C 571.342 1.34535 4.30362 0
M  V30 5968 C 570.004 1.70408 4.50016 0
M  V30 5969 C 572.356 2.21049 4.72003 0
M  V30 5970 C 569.684 2.92529 5.0857 0
M  V30 5971 C 572.036 3.42427 5.31908 0
M  V30 5972 C 570.7 3.78541 5.49784 0
M  V30 5973 H 569.97 0.0422024 0.739797 0
M  V30 5974 H 572.617 0.80002 1.73988 0
M  V30 5975 H 570.922 -0.732314 3.84895 0
M  V30 5976 H 572.619 -0.368463 3.99304 0
M  V30 5977 H 569.209 1.05615 4.15383 0
M  V30 5978 H 573.393 1.94632 4.56544 0
M  V30 5979 H 568.649 3.20605 5.20598 0
M  V30 5980 H 572.823 4.09709 5.63127 0
M  V30 5981 H 570.45 4.73255 5.94923 0
M  V30 5982 N 572.025 -1.5352 0.356285 0
M  V30 5983 C 573.274 -2.00298 -0.237373 0
M  V30 5984 C 573.587 -1.24784 -1.50627 0
M  V30 5985 O 574.793 -1.62103 -2.17795 0
M  V30 5986 C 573.249 -3.56771 -0.473545 0
M  V30 5987 C 572.857 -4.41154 0.780183 0
M  V30 5988 C 574.601 -4.1193 -1.02537 0
M  V30 5989 C 572.508 -5.89161 0.514108 0
M  V30 5990 H 571.438 -0.748307 -0.092478 0
M  V30 5991 H 574.089 -1.77283 0.473588 0
M  V30 5992 H 572.471 -3.75902 -1.24553 0
M  V30 5993 H 573.645 -4.33797 1.55425 0
M  V30 5994 H 571.96 -3.97052 1.25455 0
M  V30 5995 H 574.557 -5.20133 -1.2396 0
M  V30 5996 H 574.9 -3.65943 -1.98473 0
M  V30 5997 H 575.433 -3.96561 -0.313775 0
M  V30 5998 H 572.172 -6.39408 1.44355 0
M  V30 5999 H 571.692 -5.9939 -0.221632 0
M  V30 6000 H 573.371 -6.46857 0.136122 0
M  V30 6001 N 573.503 -0.0852151 -1.57369 0
M  V30 6002 C 574.435 0.907099 -2.10486 0
M  V30 6003 C 575.448 1.25259 -1.03991 0
M  V30 6004 O 576.637 1.20743 -1.31467 0
M  V30 6005 C 573.737 2.21908 -2.56145 0
M  V30 6006 C 572.91 2.05042 -3.86363 0
M  V30 6007 C 571.969 3.19664 -4.17973 0
M  V30 6008 O 570.995 2.94062 -4.87356 0
M  V30 6009 N 572.197 4.45151 -3.72587 0
M  V30 6010 H 574.962 0.453505 -2.96249 0
M  V30 6011 H 572.523 0.100157 -1.6159 0
M  V30 6012 H 574.515 2.97519 -2.74343 0
M  V30 6013 H 573.085 2.58723 -1.75446 0
M  V30 6014 H 572.305 1.13819 -3.77411 0
M  V30 6015 H 573.593 1.91039 -4.71574 0
M  V30 6016 H 572.991 4.68834 -3.16561 0
M  V30 6017 H 571.548 5.17744 -3.9596 0
M  V30 6018 N 574.981 1.5647 0.188427 0
M  V30 6019 C 575.911 1.98101 1.23606 0
M  V30 6020 C 576.892 0.853961 1.47111 0
M  V30 6021 O 578.077 1.11879 1.58735 0
M  V30 6022 C 575.207 2.32624 2.57882 0
M  V30 6023 C 574.161 3.48129 2.48978 0
M  V30 6024 C 573.487 3.68347 3.87588 0
M  V30 6025 C 574.787 4.82112 2.00911 0
M  V30 6026 H 576.481 2.85864 0.890068 0
M  V30 6027 H 574.027 1.37532 0.426714 0
M  V30 6028 H 575.98 2.60343 3.3136 0
M  V30 6029 H 574.704 1.41751 2.94235 0
M  V30 6030 H 573.363 3.20511 1.77956 0
M  V30 6031 H 573.011 2.74793 4.21305 0
M  V30 6032 H 572.711 4.46055 3.82503 0
M  V30 6033 H 574.235 3.98449 4.62678 0
M  V30 6034 H 575.649 5.08819 2.64151 0
M  V30 6035 H 574.046 5.63337 2.06814 0
M  V30 6036 H 575.116 4.75249 0.96262 0
M  V30 6037 N 576.459 -0.456382 1.50847 0
M  V30 6038 C 577.389 -1.56025 1.73719 0
M  V30 6039 C 578.37 -1.5967 0.586473 0
M  V30 6040 O 579.555 -1.75702 0.827185 0
M  V30 6041 C 576.685 -2.94251 1.84483 0
M  V30 6042 C 575.639 -3.05471 2.99786 0
M  V30 6043 C 574.965 -4.45489 2.95709 0
M  V30 6044 C 576.265 -2.81318 4.40065 0
M  V30 6045 H 577.959 -1.37138 2.66146 0
M  V30 6046 H 575.505 -0.658299 1.28072 0
M  V30 6047 H 577.458 -3.71417 1.99067 0
M  V30 6048 H 576.182 -3.14328 0.886891 0
M  V30 6049 H 574.841 -2.30741 2.84876 0
M  V30 6050 H 574.489 -4.62505 1.97732 0
M  V30 6051 H 574.189 -4.53929 3.73125 0
M  V30 6052 H 575.713 -5.24655 3.12362 0
M  V30 6053 H 577.127 -3.48226 4.55425 0
M  V30 6054 H 575.524 -3.01188 5.19043 0
M  V30 6055 H 576.594 -1.7706 4.51418 0
M  V30 6056 N 577.937 -1.40673 -0.710563 0
M  V30 6057 C 579.183 -1.39428 -1.47267 0
M  V30 6058 C 579.516 0.00182129 -1.942 0
M  V30 6059 O 578.791 0.971387 -1.68506 0
M  V30 6060 C 579.074 -2.38812 -2.6952 0
M  V30 6061 C 578.927 -3.87467 -2.28449 0
M  V30 6062 C 580.246 -2.3566 -3.71689 0
M  V30 6063 H 577.365 -0.507768 -0.534173 0
M  V30 6064 H 580.007 -1.71843 -0.810547 0
M  V30 6065 H 578.157 -2.113 -3.26013 0
M  V30 6066 H 579.829 -4.25825 -1.77399 0
M  V30 6067 H 578.072 -4.03058 -1.60395 0
M  V30 6068 H 578.743 -4.5253 -3.16103 0
M  V30 6069 H 581.219 -2.6004 -3.24836 0
M  V30 6070 H 580.095 -3.07237 -4.54859 0
M  V30 6071 H 580.356 -1.36996 -4.20339 0
M  V30 6072 N 579.415 0.9433 -1.26252 0
M  V30 6073 C 580.831 1.21644 -1.03319 0
M  V30 6074 C 581.031 2.0003 0.242983 0
M  V30 6075 O 580.087 2.33838 0.952688 0
M  V30 6076 C 581.4 1.97978 -2.2633 0
M  V30 6077 C 582.948 2.10978 -2.31209 0
M  V30 6078 C 583.423 2.90713 -3.53907 0
M  V30 6079 N 584.914 2.98287 -3.54371 0
M  V30 6080 C 585.649 3.60406 -4.45976 0
M  V30 6081 N 585.145 4.24043 -5.47868 0
M  V30 6082 N 586.938 3.57658 -4.33633 0
M  V30 6083 H 579.089 0.419221 -2.08222 0
M  V30 6084 H 581.352 0.247995 -0.914988 0
M  V30 6085 H 581.058 1.47788 -3.19142 0
M  V30 6086 H 580.932 2.9865 -2.30408 0
M  V30 6087 H 583.319 2.6036 -1.38913 0
M  V30 6088 H 583.4 1.09575 -2.31143 0
M  V30 6089 H 583.044 2.42018 -4.46531 0
M  V30 6090 H 582.974 3.92367 -3.5122 0
M  V30 6091 H 585.465 2.53044 -2.80673 0
M  V30 6092 H 585.778 4.69334 -6.13959 0
M  V30 6093 H 584.123 4.22637 -5.51728 0
M  V30 6094 H 587.314 3.07134 -3.53251 0
M  V30 6095 H 587.487 4.05782 -5.05218 0
M  V30 6096 N 580.893 1.08022 1.14757 0
M  V30 6097 C 581.84 0.706657 2.19716 0
M  V30 6098 C 582.81 -0.30525 1.63271 0
M  V30 6099 O 583.995 -0.19015 1.8985 0
M  V30 6100 C 581.135 0.117914 3.44898 0
M  V30 6101 C 580.248 1.18212 4.15512 0
M  V30 6102 C 579.383 0.557659 5.28265 0
M  V30 6103 C 578.422 1.60418 5.90705 0
M  V30 6104 N 577.559 1.0018 6.94916 0
M  V30 6105 H 582.399 1.60603 2.51019 0
M  V30 6106 H 579.936 0.802664 1.23271 0
M  V30 6107 H 581.894 -0.241112 4.16503 0
M  V30 6108 H 580.524 -0.744788 3.1409 0
M  V30 6109 H 579.576 1.65863 3.42335 0
M  V30 6110 H 580.888 1.97533 4.5802 0
M  V30 6111 H 580.042 0.146654 6.06523 0
M  V30 6112 H 578.781 -0.267249 4.86967 0
M  V30 6113 H 577.786 2.02489 5.11154 0
M  V30 6114 H 579.011 2.43149 6.34078 0
M  V30 6115 H 576.957 0.197917 6.55701 0
M  V30 6116 H 576.874 1.73216 7.35889 0
M  V30 6117 H 578.142 0.616523 7.77058 0
M  V30 6118 N 582.371 -1.3172 0.865308 0
M  V30 6119 C 583.301 -2.31109 0.333302 0
M  V30 6120 C 584.282 -1.60148 -0.573301 0
M  V30 6121 O 585.467 -1.87882 -0.491305 0
M  V30 6122 C 582.597 -3.44104 -0.470078 0
M  V30 6123 C 581.551 -4.26623 0.343021 0
M  V30 6124 C 580.877 -5.31482 -0.585756 0
M  V30 6125 C 582.177 -4.98001 1.57456 0
M  V30 6126 H 583.871 -2.75855 1.1638 0
M  V30 6127 H 581.417 -1.3262 0.561069 0
M  V30 6128 H 583.37 -4.12682 -0.852752 0
M  V30 6129 H 582.094 -2.98112 -1.33404 0
M  V30 6130 H 580.753 -3.59707 0.707583 0
M  V30 6131 H 580.401 -4.81741 -1.44686 0
M  V30 6132 H 580.101 -5.87582 -0.0456494 0
M  V30 6133 H 581.625 -6.0292 -0.965375 0
M  V30 6134 H 583.039 -5.59201 1.26359 0
M  V30 6135 H 581.436 -5.63876 2.05339 0
M  V30 6136 H 582.506 -4.25253 2.32997 0
M  V30 6137 N 583.85 -0.624285 -1.44708 0
M  V30 6138 C 585.266 -0.289322 -1.56956 0
M  V30 6139 C 585.466 1.20773 -1.61295 0
M  V30 6140 O 584.522 1.9915 -1.55227 0
M  V30 6141 C 585.835 -0.975215 -2.84447 0
M  V30 6142 C 587.383 -0.952709 -2.98148 0
M  V30 6143 C 587.858 -1.61893 -4.28433 0
M  V30 6144 N 589.349 -1.5852 -4.35231 0
M  V30 6145 C 590.084 -2.06969 -5.34744 0
M  V30 6146 N 589.58 -2.63579 -6.40701 0
M  V30 6147 N 591.373 -1.97638 -5.26209 0
M  V30 6148 H 583.524 -1.59612 -1.40135 0
M  V30 6149 H 585.787 -0.669592 -0.671081 0
M  V30 6150 H 585.493 -2.02999 -2.87201 0
M  V30 6151 H 585.367 -0.508749 -3.73753 0
M  V30 6152 H 587.754 0.093568 -2.94952 0
M  V30 6153 H 587.835 -1.4576 -2.10209 0
M  V30 6154 H 587.479 -2.66463 -4.32389 0
M  V30 6155 H 587.409 -1.08893 -5.15218 0
M  V30 6156 H 589.899 -1.17183 -3.59272 0
M  V30 6157 H 590.213 -2.98298 -7.12908 0
M  V30 6158 H 588.558 -2.67626 -6.41406 0
M  V30 6159 H 591.749 -1.5314 -4.42341 0
M  V30 6160 H 591.922 -2.35708 -6.03611 0
M  V30 6161 N 585.328 1.53329 -0.364422 0
M  V30 6162 C 586.576 2.00842 0.225189 0
M  V30 6163 C 586.897 1.25345 1.49378 0
M  V30 6164 O 586.167 0.366396 1.92443 0
M  V30 6165 H 584.747 0.742009 0.0862027 0
M  V30 6166 H 587.409 1.8863 -0.490389 0
M  V30 6167 H 586.505 3.08795 0.452987 0
M  V30 6168 N 586.806 0.0935595 1.57322 0
M  V30 6169 C 588.083 -0.612692 1.85756 0
M  V30 6170 C 588.463 -1.86439 0.99013 0
M  V30 6171 O 587.811 -2.28416 0.0621362 0
M  V30 6172 C 588.021 -0.929547 3.36393 0
M  V30 6173 C 589.369 -1.29366 4.04413 0
M  V30 6174 O 590.393 -1.02061 3.41265 0
M  V30 6175 O 589.252 -1.80498 5.15832 0
M  V30 6176 H 586.346 -0.306444 0.768128 0
M  V30 6177 H 588.892 0.126141 1.69231 0
M  V30 6178 H 587.664 -0.0414766 3.91278 0
M  V30 6179 H 587.287 -1.72441 3.5826 0
M  V30 6180 N 588.284 -1.56567 -0.180126 0
M  V30 6181 C 589.561 -1.7235 -0.924931 0
M  V30 6182 C 589.941 -0.652523 -2.00762 0
M  V30 6183 O 589.289 0.334115 -2.26044 0
M  V30 6184 C 589.499 -3.1523 -1.49771 0
M  V30 6185 C 590.847 -3.75921 -1.97405 0
M  V30 6186 O 591.871 -3.18452 -1.59583 0
M  V30 6187 O 590.73 -4.7681 -2.67048 0
M  V30 6188 H 587.824 -0.703502 -0.434758 0
M  V30 6189 H 590.37 -1.6886 -0.168647 0
M  V30 6190 H 589.142 -3.84656 -0.718027 0
M  V30 6191 H 588.765 -3.23009 -2.31842 0
M  V30 6192 N 589.762 0.448376 -1.51087 0
M  V30 6193 C 590.672 1.56882 -1.74428 0
M  V30 6194 C 591.688 1.62268 -0.62809 0
M  V30 6195 O 592.864 1.79716 -0.909075 0
M  V30 6196 C 589.929 2.92947 -1.85426 0
M  V30 6197 C 588.99 2.97766 -3.09247 0
M  V30 6198 C 588.223 4.27341 -3.19711 0
M  V30 6199 O 588.446 5.19112 -2.36387 0
M  V30 6200 O 587.38 4.38219 -4.12611 0
M  V30 6201 H 591.206 1.40104 -2.69452 0
M  V30 6202 H 588.791 0.630247 -1.35456 0
M  V30 6203 H 590.673 3.73719 -1.94709 0
M  V30 6204 H 589.348 3.09876 -0.935887 0
M  V30 6205 H 588.255 2.15989 -3.0545 0
M  V30 6206 H 589.588 2.8578 -4.00738 0
M  V30 6207 N 591.24 1.41047 0.703093 0
M  V30 6208 C 592.15 1.44645 1.84703 0
M  V30 6209 C 593.166 0.337778 1.7069 0
M  V30 6210 O 594.342 0.584327 1.92737 0
M  V30 6211 C 591.407 1.31928 3.20618 0
M  V30 6212 C 590.468 2.53047 3.46794 0
M  V30 6213 C 589.701 2.40927 4.76224 0
M  V30 6214 O 589.924 1.42978 5.5219 0
M  V30 6215 O 588.858 3.30543 5.03016 0
M  V30 6216 H 592.684 2.41139 1.84624 0
M  V30 6217 H 590.269 1.22504 0.855167 0
M  V30 6218 H 592.151 1.27092 4.01778 0
M  V30 6219 H 590.826 0.385469 3.21397 0
M  V30 6220 H 589.733 2.6346 2.65593 0
M  V30 6221 H 591.066 3.45231 3.50822 0
M  V30 6222 N 592.718 -0.936591 1.26751 0
M  V30 6223 C 593.966 -1.67998 1.12343 0
M  V30 6224 C 594.287 -1.92137 -0.332938 0
M  V30 6225 O 593.557 -1.52132 -1.23421 0
M  V30 6226 H 592.137 -0.622609 0.412756 0
M  V30 6227 H 594.799 -1.12509 1.59147 0
M  V30 6228 H 593.895 -2.65185 1.64571 0
M  V30 6229 N 594.196 -1.08629 -1.14182 0
M  V30 6230 C 595.106 -0.730126 -2.22949 0
M  V30 6231 C 596.122 0.26436 -1.7198 0
M  V30 6232 O 597.298 0.107742 -2.01112 0
M  V30 6233 C 594.363 -0.147227 -3.46387 0
M  V30 6234 C 593.424 -1.19662 -4.12286 0
M  V30 6235 C 592.657 -0.641437 -5.29831 0
M  V30 6236 O 592.88 0.538351 -5.67854 0
M  V30 6237 O 591.814 -1.39257 -5.85569 0
M  V30 6238 H 595.64 -1.63753 -2.55771 0
M  V30 6239 H 593.225 -0.860118 -1.22157 0
M  V30 6240 H 595.107 0.174923 -4.21037 0
M  V30 6241 H 593.782 0.733304 -3.15285 0
M  V30 6242 H 592.689 -1.57133 -3.395 0
M  V30 6243 H 594.022 -2.0495 -4.475 0
M  V30 6244 N 595.674 1.31259 -0.872281 0
M  V30 6245 C 596.914 1.98418 -0.490894 0
M  V30 6246 C 597.278 1.67429 0.939755 0
M  V30 6247 O 598.479 2.27818 1.42661 0
M  V30 6248 C 596.75 3.49583 -0.743408 0
M  V30 6249 S 598.309 4.36359 -0.462226 0
M  V30 6250 H 595.127 0.687005 -0.183151 0
M  V30 6251 H 597.729 1.59619 -1.12881 0
M  V30 6252 H 596.433 3.69627 -1.78338 0
M  V30 6253 H 595.964 3.93291 -0.0925758 0
M  V30 6254 H 597.979 4.91173 0.704525 0
M  V30 6255 N 597.152 0.631951 1.44375 0
M  V30 6256 C 598.377 0.142146 2.06912 0
M  V30 6257 C 598.802 -1.17456 1.4692 0
M  V30 6258 O 598.16 -1.72074 0.570975 0
M  V30 6259 C 598.208 0.0417952 3.60576 0
M  V30 6260 O 597.312 -1.00194 4.00044 0
M  V30 6261 H 596.653 0.0851491 0.658518 0
M  V30 6262 H 599.183 0.868863 1.85235 0
M  V30 6263 H 599.193 -0.148517 4.0773 0
M  V30 6264 H 597.868 1.0031 4.03622 0
M  V30 6265 H 596.445 -0.786131 3.64519 0
M  V30 6266 N 598.631 -1.53133 0.372548 0
M  V30 6267 C 599.88 -2.00539 -0.216115 0
M  V30 6268 C 600.193 -1.26374 -1.49295 0
M  V30 6269 O 601.399 -1.64404 -2.16064 0
M  V30 6270 C 599.855 -3.57253 -0.435678 0
M  V30 6271 C 599.463 -4.40302 0.82693 0
M  V30 6272 C 601.207 -4.12995 -0.981618 0
M  V30 6273 C 599.114 -5.88583 0.576567 0
M  V30 6274 H 598.044 -0.749246 -0.084536 0
M  V30 6275 H 600.695 -1.76771 0.492364 0
M  V30 6276 H 599.077 -3.77202 -1.20559 0
M  V30 6277 H 600.251 -4.32124 1.60017 0
M  V30 6278 H 598.566 -3.95699 1.29659 0
M  V30 6279 H 601.163 -5.21418 -1.18436 0
M  V30 6280 H 601.506 -3.68027 -1.94581 0
M  V30 6281 H 602.039 -3.96871 -0.271696 0
M  V30 6282 H 598.778 -6.37841 1.51128 0
M  V30 6283 H 598.298 -5.99592 -0.158047 0
M  V30 6284 H 599.977 -6.46676 0.204722 0
M  V30 6285 N 600.109 -0.101901 -1.5727 0
M  V30 6286 C 601.386 0.602832 -1.86079 0
M  V30 6287 C 601.766 1.85912 -1 0
M  V30 6288 O 601.114 2.28379 -0.0742488 0
M  V30 6289 C 601.324 0.911694 -3.36881 0
M  V30 6290 C 602.672 1.2722 -4.05093 0
M  V30 6291 O 603.696 1.0025 -3.41802 0
M  V30 6292 O 602.555 1.7776 -5.16782 0
M  V30 6293 H 599.649 0.302366 -0.769743 0
M  V30 6294 H 602.195 -0.135113 -1.69161 0
M  V30 6295 H 600.967 0.0207256 -3.91295 0
M  V30 6296 H 600.59 1.70538 -3.59169 0
M  V30 6297 N 601.587 1.56661 0.17182 0
M  V30 6298 C 602.817 1.85831 0.902804 0
M  V30 6299 C 603.225 0.685157 1.76358 0
M  V30 6300 O 602.568 -0.354947 1.80238 0
M  V30 6301 C 602.63 3.09406 1.83053 0
M  V30 6302 C 602.294 4.4231 1.1494 0
M  V30 6303 C 603.291 5.17342 0.515104 0
M  V30 6304 C 600.976 4.89045 1.14631 0
M  V30 6305 C 602.97 6.37299 -0.113194 0
M  V30 6306 C 600.657 6.08933 0.514184 0
M  V30 6307 C 601.655 6.82904 -0.114463 0
M  V30 6308 O 601.343 8.00518 -0.736622 0
M  V30 6309 H 601.075 0.620715 0.267748 0
M  V30 6310 H 603.629 2.04637 0.176918 0
M  V30 6311 H 601.859 2.86544 2.59672 0
M  V30 6312 H 603.548 3.25027 2.4313 0
M  V30 6313 H 604.314 4.82317 0.509474 0
M  V30 6314 H 600.193 4.31409 1.62502 0
M  V30 6315 H 603.737 6.94976 -0.604477 0
M  V30 6316 H 599.634 6.43423 0.517395 0
M  V30 6317 H 600.402 8.16027 -0.635822 0
M  V30 6318 N 603.065 -0.440357 1.51323 0
M  V30 6319 C 604.311 -1.19181 1.64085 0
M  V30 6320 C 604.644 -1.90936 0.354575 0
M  V30 6321 O 603.919 -1.8347 -0.645675 0
M  V30 6322 C 604.202 -2.2112 2.84215 0
M  V30 6323 C 604.055 -1.53468 4.22809 0
M  V30 6324 C 605.374 -3.22133 2.99864 0
M  V30 6325 H 602.493 -0.431924 0.597169 0
M  V30 6326 H 605.135 -0.481443 1.83799 0
M  V30 6327 H 603.285 -2.81703 2.67537 0
M  V30 6328 H 604.957 -0.962455 4.51148 0
M  V30 6329 H 603.2 -0.837086 4.25647 0
M  V30 6330 H 603.871 -2.27694 5.02852 0
M  V30 6331 H 606.347 -2.71601 3.15233 0
M  V30 6332 H 605.223 -3.90756 3.85488 0
M  V30 6333 H 605.484 -3.88061 2.11804 0
M  V30 6334 N 604.543 -1.41418 -0.695603 0
M  V30 6335 C 605.453 -1.45622 -1.83933 0
M  V30 6336 C 606.469 -0.346825 -1.70508 0
M  V30 6337 O 607.645 -0.59454 -1.92424 0
M  V30 6338 C 604.71 -1.33627 -3.19914 0
M  V30 6339 C 603.771 -2.54882 -3.45447 0
M  V30 6340 C 603.004 -2.43449 -4.7494 0
M  V30 6341 O 603.227 -1.45905 -5.51424 0
M  V30 6342 O 602.161 -3.33206 -5.01256 0
M  V30 6343 H 605.987 -2.42114 -1.83342 0
M  V30 6344 H 603.572 -1.22956 -0.848658 0
M  V30 6345 H 605.454 -1.29221 -4.01098 0
M  V30 6346 H 604.129 -0.402508 -3.21188 0
M  V30 6347 H 603.036 -2.64865 -2.64192 0
M  V30 6348 H 604.369 -3.47087 -3.48987 0
M  V30 6349 N 606.021 0.929856 -1.27246 0
M  V30 6350 C 606.954 2.03069 -1.04106 0
M  V30 6351 C 607.932 1.62556 0.0378417 0
M  V30 6352 O 609.116 1.88197 -0.106869 0
M  V30 6353 C 606.243 3.33718 -0.578778 0
M  V30 6354 C 605.289 3.93209 -1.65193 0
M  V30 6355 S 606.122 4.26068 -3.24386 0
M  V30 6356 C 607.278 5.598 -2.79954 0
M  V30 6357 H 607.511 2.22386 -1.97311 0
M  V30 6358 H 605.044 1.07269 -1.11053 0
M  V30 6359 H 607.002 4.09261 -0.31874 0
M  V30 6360 H 605.663 3.12328 0.333182 0
M  V30 6361 H 604.856 4.87482 -1.27973 0
M  V30 6362 H 604.458 3.24243 -1.86393 0
M  V30 6363 H 606.75 6.39004 -2.25123 0
M  V30 6364 H 607.693 6.01917 -3.72963 0
M  V30 6365 H 608.101 5.20219 -2.19164 0
M  V30 6366 N 607.499 1.09233 1.13605 0
M  V30 6367 C 608.462 0.733553 2.17144 0
M  V30 6368 C 609.462 -0.235873 1.59061 0
M  V30 6369 O 610.652 -0.0143167 1.74194 0
M  V30 6370 C 607.784 0.084471 3.40795 0
M  V30 6371 H 608.977 1.65049 2.50397 0
M  V30 6372 H 606.53 0.891264 1.28399 0
M  V30 6373 H 607.265 -0.843795 3.1313 0
M  V30 6374 H 607.05 0.781985 3.84223 0
M  V30 6375 H 608.54 -0.151216 4.17326 0
M  V30 6376 N 608.977 -1.30795 0.87923 0
M  V30 6377 C 610.223 -1.96653 0.495519 0
M  V30 6378 C 610.556 -1.69282 -0.951703 0
M  V30 6379 O 609.831 -0.994374 -1.6716 0
M  V30 6380 C 610.114 -3.51898 0.764174 0
M  V30 6381 C 609.967 -3.88808 2.2616 0
M  V30 6382 C 611.286 -4.39462 0.236825 0
M  V30 6383 H 608.405 -0.7143 0.181507 0
M  V30 6384 H 611.047 -1.54765 1.10217 0
M  V30 6385 H 609.197 -3.87709 0.247841 0
M  V30 6386 H 610.869 -3.63051 2.8459 0
M  V30 6387 H 609.112 -3.37082 2.73053 0
M  V30 6388 H 609.783 -4.97086 2.4002 0
M  V30 6389 H 612.259 -4.10528 0.678683 0
M  V30 6390 H 611.135 -5.47018 0.454176 0
M  V30 6391 H 611.396 -4.33621 -0.861683 0
M  V30 6392 N 610.455 -0.639598 -1.44038 0
M  V30 6393 C 611.403 0.0723409 -2.32487 0
M  V30 6394 C 612.397 0.827129 -1.47834 0
M  V30 6395 O 613.603 0.73907 -1.64127 0
M  V30 6396 H 609.978 0.0421696 -0.750817 0
M  V30 6397 H 611.949 -0.691593 -2.90275 0
M  V30 6398 C 610.698 1.03452 -3.31953 0
M  V30 6399 H 610.021 0.46315 -3.97108 0
M  V30 6400 H 611.461 1.502 -3.96505 0
M  V30 6401 C 609.92 2.12392 -2.61518 0
M  V30 6402 O 610.45 3.2059 -2.42044 0
M  V30 6403 N 608.656 1.88563 -2.21116 0
M  V30 6404 H 608.203 1.00577 -2.37154 0
M  V30 6405 H 608.161 2.61651 -1.74316 0
M  V30 6406 N 611.933 1.52934 -0.380664 0
M  V30 6407 C 612.88 2.26197 0.458641 0
M  V30 6408 C 613.85 1.27462 1.06502 0
M  V30 6409 O 615.035 1.56274 1.09467 0
M  V30 6410 C 612.175 3.06571 1.58456 0
M  V30 6411 C 611.288 4.20222 1.00189 0
M  V30 6412 C 610.423 4.88007 2.09815 0
M  V30 6413 C 609.462 5.93665 1.49092 0
M  V30 6414 N 608.599 6.55081 2.52613 0
M  V30 6415 H 613.439 2.975 -0.172595 0
M  V30 6416 H 610.976 1.4678 -0.0969426 0
M  V30 6417 H 612.934 3.51455 2.24801 0
M  V30 6418 H 611.564 2.37494 2.18624 0
M  V30 6419 H 610.616 3.79714 0.228292 0
M  V30 6420 H 611.928 4.96102 0.518064 0
M  V30 6421 H 611.082 5.36151 2.83948 0
M  V30 6422 H 609.821 4.11632 2.61555 0
M  V30 6423 H 608.826 5.44868 0.7348 0
M  V30 6424 H 610.051 6.71969 0.981582 0
M  V30 6425 H 607.997 5.8155 3.03538 0
M  V30 6426 H 607.914 7.26548 2.08961 0
M  V30 6427 H 609.182 7.07871 3.26402 0
M  V30 6428 N 613.412 0.11024 1.57214 0
M  V30 6429 C 614.828 -0.24638 1.57687 0
M  V30 6430 C 615.028 -1.67344 1.12241 0
M  V30 6431 O 614.084 -2.39298 0.805783 0
M  V30 6432 C 615.397 -0.0210288 3.00693 0
M  V30 6433 C 616.945 -0.0876077 3.12877 0
M  V30 6434 C 617.42 0.10994 4.57868 0
M  V30 6435 N 618.911 0.0556135 4.63167 0
M  V30 6436 C 619.646 0.183495 5.73106 0
M  V30 6437 N 619.142 0.367058 6.91827 0
M  V30 6438 N 620.935 0.123689 5.61964 0
M  V30 6439 H 613.086 1.04246 1.85058 0
M  V30 6440 H 615.349 0.40979 0.854854 0
M  V30 6441 H 615.055 0.965203 3.38196 0
M  V30 6442 H 614.929 -0.756748 3.69531 0
M  V30 6443 H 617.316 -1.06436 2.75237 0
M  V30 6444 H 617.397 0.67985 2.466 0
M  V30 6445 H 617.041 1.08362 4.96206 0
M  V30 6446 H 616.971 -0.677397 5.22225 0
M  V30 6447 H 619.462 -0.0831062 3.77809 0
M  V30 6448 H 619.775 0.455739 7.71455 0
M  V30 6449 H 618.12 0.40292 6.93831 0
M  V30 6450 H 621.311 -0.0186928 4.68096 0
M  V30 6451 H 621.484 0.226797 6.47603 0
M  V30 6452 N 614.89 -1.56749 -0.16351 0
M  V30 6453 C 616.118 -1.86577 -0.894233 0
M  V30 6454 C 616.533 -0.696543 -1.75481 0
M  V30 6455 O 615.89 0.334161 -1.79415 0
M  V30 6456 C 615.941 -3.15508 -1.76456 0
M  V30 6457 O 615.662 -4.27926 -0.938685 0
M  V30 6458 C 617.163 -3.58737 -2.60428 0
M  V30 6459 H 614.383 -0.618829 -0.259405 0
M  V30 6460 H 616.927 -2.03863 -0.161259 0
M  V30 6461 H 615.082 -3.00025 -2.45079 0
M  V30 6462 H 615.496 -5.01546 -1.53465 0
M  V30 6463 H 616.97 -4.51832 -3.17099 0
M  V30 6464 H 617.447 -2.83229 -3.35675 0
M  V30 6465 H 618.053 -3.76858 -1.97125 0
M  V30 6466 N 616.368 0.432326 -1.51554 0
M  V30 6467 C 617.614 1.18309 -1.64714 0
M  V30 6468 C 617.947 1.90745 -0.364696 0
M  V30 6469 O 617.222 1.8381 0.635936 0
M  V30 6470 C 617.505 2.1961 -2.85383 0
M  V30 6471 C 617.358 1.51223 -4.23617 0
M  V30 6472 C 618.677 3.20538 -3.01569 0
M  V30 6473 H 615.796 0.428751 -0.599451 0
M  V30 6474 H 618.438 0.471689 -1.84052 0
M  V30 6475 H 616.588 2.8028 -2.69027 0
M  V30 6476 H 618.26 0.938516 -4.51652 0
M  V30 6477 H 616.503 0.814501 -4.26085 0
M  V30 6478 H 617.174 2.25024 -5.04052 0
M  V30 6479 H 619.65 2.69926 -3.16669 0
M  V30 6480 H 618.526 3.88706 -3.87555 0
M  V30 6481 H 618.787 3.86933 -2.13859 0
M  V30 6482 N 617.846 1.41785 0.688094 0
M  V30 6483 C 619.262 1.24419 0.999608 0
M  V30 6484 C 619.462 0.138868 2.01021 0
M  V30 6485 O 618.518 -0.494283 2.47615 0
M  V30 6486 C 619.831 2.59625 1.51709 0
M  V30 6487 C 621.379 2.66869 1.63554 0
M  V30 6488 C 621.854 4.0241 2.18702 0
M  V30 6489 N 623.345 4.04295 2.26053 0
M  V30 6490 C 624.08 5.05977 2.69768 0
M  V30 6491 N 623.576 6.18047 3.13033 0
M  V30 6492 N 625.369 4.93336 2.69398 0
M  V30 6493 H 617.52 2.12392 0.0187427 0
M  V30 6494 H 619.783 0.945347 0.0708673 0
M  V30 6495 H 619.489 3.41297 0.849059 0
M  V30 6496 H 619.363 2.82628 2.49803 0
M  V30 6497 H 621.75 1.8555 2.29467 0
M  V30 6498 H 621.831 2.47668 0.639857 0
M  V30 6499 H 621.475 4.8418 1.53402 0
M  V30 6500 H 621.405 4.18955 3.19037 0
M  V30 6501 H 623.896 3.23383 1.9553 0
M  V30 6502 H 624.209 6.91498 3.45038 0
M  V30 6503 H 622.554 6.21572 3.10923 0
M  V30 6504 H 625.745 4.04865 2.34952 0
M  V30 6505 H 625.918 5.72717 3.03148 0
M  V30 6506 N 619.324 -0.923095 1.27737 0
M  V30 6507 C 620.257 -2.02515 1.05181 0
M  V30 6508 C 621.235 -1.62574 -0.0292204 0
M  V30 6509 O 622.419 -1.88137 0.116848 0
M  V30 6510 C 619.546 -3.33407 0.596468 0
M  V30 6511 C 618.592 -3.92328 1.67276 0
M  V30 6512 S 619.425 -4.24342 3.26641 0
M  V30 6513 C 620.581 -5.58308 2.82919 0
M  V30 6514 H 620.814 -2.21336 1.98488 0
M  V30 6515 H 618.347 -1.06679 1.1162 0
M  V30 6516 H 620.305 -4.09086 0.34044 0
M  V30 6517 H 618.966 -3.125 -0.316614 0
M  V30 6518 H 618.159 -4.86797 1.30556 0
M  V30 6519 H 617.761 -3.2325 1.8811 0
M  V30 6520 H 620.053 -6.37801 2.28509 0
M  V30 6521 H 620.996 -5.99931 3.7615 0
M  V30 6522 H 621.404 -5.19049 2.21919 0
M  V30 6523 N 620.802 -1.09834 -1.13024 0
M  V30 6524 C 622.213 -0.855651 -1.65938 0
M  V30 6525 C 622.564 0.615159 -1.86307 0
M  V30 6526 O 621.689 1.47335 -1.58497 0
M  V30 6527 C 622.284 -1.5467 -3.01434 0
M  V30 6528 C 620.843 -1.35088 -3.51323 0
M  V30 6529 C 619.99 -1.6001 -2.26478 0
M  V30 6530 H 622.941 -1.25691 -0.968889 0
M  V30 6531 H 622.962 -0.982179 -3.67605 0
M  V30 6532 H 622.474 -2.61715 -2.86578 0
M  V30 6533 H 620.575 -0.30179 -3.71376 0
M  V30 6534 H 620.688 -2.0886 -4.31178 0
M  V30 6535 H 619.052 -1.02246 -2.33276 0
M  V30 6536 H 619.835 -2.68293 -2.14182 0
M  V30 6537 N 622.28 1.30327 -0.886154 0
M  V30 6538 C 623.23 2.25668 -0.325248 0
M  V30 6539 C 624.214 1.51318 0.546972 0
M  V30 6540 O 625.406 1.72623 0.391203 0
M  V30 6541 C 622.535 3.40229 0.458167 0
M  V30 6542 C 621.621 4.21933 -0.428208 0
M  V30 6543 N 622.012 4.82129 -1.52921 0
M  V30 6544 C 620.31 4.45439 -0.223535 0
M  V30 6545 C 621.011 5.43351 -2.07714 0
M  V30 6546 N 619.987 5.26002 -1.37195 0
M  V30 6547 H 623.789 2.69759 -1.1665 0
M  V30 6548 H 621.303 1.4478 -0.735691 0
M  V30 6549 H 623.3 4.07579 0.876648 0
M  V30 6550 H 621.96 2.97678 1.29684 0
M  V30 6551 H 622.971 4.81312 -1.91205 0
M  V30 6552 H 619.648 4.13481 0.577875 0
M  V30 6553 H 621.038 6.01118 -3.00178 0
M  V30 6554 N 623.758 0.647228 1.43697 0
M  V30 6555 C 624.69 -0.0866232 2.29036 0
M  V30 6556 C 625.703 -0.793051 1.42178 0
M  V30 6557 O 626.892 -0.651807 1.66174 0
M  V30 6558 C 623.992 -1.14552 3.18953 0
M  V30 6559 C 623.165 -0.518422 4.34317 0
M  V30 6560 C 622.224 -1.4734 5.05151 0
M  V30 6561 O 621.25 -0.984312 5.60625 0
M  V30 6562 N 622.452 -2.8075 5.08094 0
M  V30 6563 H 625.217 0.645834 2.92659 0
M  V30 6564 H 622.778 0.489567 1.54321 0
M  V30 6565 H 624.77 -1.78505 3.63205 0
M  V30 6566 H 623.34 -1.78001 2.56971 0
M  V30 6567 H 622.56 0.300079 3.93056 0
M  V30 6568 H 623.848 -0.080401 5.08736 0
M  V30 6569 H 623.246 -3.23052 4.64386 0
M  V30 6570 H 621.803 -3.40022 5.56083 0
M  V30 6571 N 625.236 -1.5273 0.388769 0
M  V30 6572 C 626.166 -2.29353 -0.438111 0
M  V30 6573 C 627.147 -1.32719 -1.06394 0
M  V30 6574 O 628.332 -1.61612 -1.07681 0
M  V30 6575 C 625.462 -3.09995 -1.56589 0
M  V30 6576 C 624.416 -4.14509 -1.06613 0
M  V30 6577 C 623.742 -4.83372 -2.28594 0
M  V30 6578 C 625.042 -5.22127 -0.134459 0
M  V30 6579 H 626.736 -2.98723 0.201206 0
M  V30 6580 H 624.282 -1.43665 0.0982089 0
M  V30 6581 H 626.235 -3.62357 -2.15118 0
M  V30 6582 H 624.959 -2.38357 -2.23279 0
M  V30 6583 H 623.618 -3.63128 -0.503383 0
M  V30 6584 H 623.266 -4.08283 -2.93792 0
M  V30 6585 H 622.966 -5.54012 -1.95817 0
M  V30 6586 H 624.49 -5.38538 -2.87766 0
M  V30 6587 H 625.904 -5.69851 -0.627914 0
M  V30 6588 H 624.301 -6.00011 0.103534 0
M  V30 6589 H 625.371 -4.77971 0.816798 0
M  V30 6590 N 626.714 -0.118576 -1.57153 0
M  V30 6591 C 627.961 0.539526 -1.9518 0
M  V30 6592 C 628.289 1.66714 -1.00184 0
M  V30 6593 O 627.544 1.95683 -0.0256482 0
M  V30 6594 C 627.843 1.11303 -3.39627 0
M  V30 6595 C 627.509 0.106809 -4.50773 0
M  V30 6596 C 626.171 -0.169876 -4.809 0
M  V30 6597 C 628.523 -0.57895 -5.17975 0
M  V30 6598 C 625.851 -1.13861 -5.75545 0
M  V30 6599 C 628.203 -1.53631 -6.13661 0
M  V30 6600 C 626.867 -1.82099 -6.42181 0
M  V30 6601 H 626.137 0.197427 -0.714215 0
M  V30 6602 H 628.784 -0.199391 -1.90459 0
M  V30 6603 H 627.089 1.92869 -3.4104 0
M  V30 6604 H 628.786 1.63032 -3.66363 0
M  V30 6605 H 625.376 0.332645 -4.27307 0
M  V30 6606 H 629.56 -0.378359 -4.94856 0
M  V30 6607 H 624.816 -1.36592 -5.95947 0
M  V30 6608 H 628.99 -2.07337 -6.64819 0
M  V30 6609 H 626.617 -2.57319 -7.15326 0
M  V30 6610 N 628.193 1.56834 0.155195 0
M  V30 6611 C 629.442 1.82088 0.867567 0
M  V30 6612 C 629.755 0.69849 1.82703 0
M  V30 6613 O 630.961 0.836407 2.58295 0
M  V30 6614 C 629.417 3.22707 1.59336 0
M  V30 6615 C 629.025 4.42859 0.676719 0
M  V30 6616 C 630.769 3.57242 2.293 0
M  V30 6617 C 628.676 5.74501 1.40367 0
M  V30 6618 H 627.606 0.679057 0.327715 0
M  V30 6619 H 630.257 1.83105 0.120351 0
M  V30 6620 H 628.639 3.16054 2.38591 0
M  V30 6621 H 629.813 4.60731 -0.0800196 0
M  V30 6622 H 628.128 4.16311 0.0859129 0
M  V30 6623 H 630.725 4.52847 2.84312 0
M  V30 6624 H 631.068 2.82901 3.05406 0
M  V30 6625 H 631.601 3.6552 1.56972 0
M  V30 6626 H 628.34 6.51915 0.684623 0
M  V30 6627 H 627.86 5.60579 2.13332 0
M  V30 6628 H 629.539 6.17016 1.94681 0
M  V30 6629 N 629.671 -0.424282 1.51781 0
M  V30 6630 C 630.919 -1.17028 1.64769 0
M  V30 6631 C 631.24 -1.91409 0.372523 0
M  V30 6632 O 630.51 -1.86091 -0.612108 0
M  V30 6633 H 629.09 -0.434992 0.607282 0
M  V30 6634 H 631.752 -0.485169 1.88765 0
M  V30 6635 H 630.848 -1.8927 2.4816 0
M  V30 6636 N 631.149 -1.42148 -0.680565 0
M  V30 6637 C 632.397 -1.42029 -1.43779 0
M  V30 6638 C 632.718 -0.0356347 -1.94967 0
M  V30 6639 O 631.988 0.924936 -1.7269 0
M  V30 6640 H 630.568 -0.522835 -0.533529 0
M  V30 6641 H 633.23 -1.7752 -0.804538 0
M  V30 6642 H 632.326 -2.11658 -2.29363 0
M  V30 6643 N 632.627 0.916307 -1.28225 0
M  V30 6644 C 633.537 2.05165 -1.13775 0
M  V30 6645 C 634.553 1.73879 -0.0649418 0
M  V30 6646 O 635.729 1.99531 -0.273722 0
M  V30 6647 C 632.794 3.37385 -0.798267 0
M  V30 6648 C 631.855 3.82296 -1.95316 0
M  V30 6649 C 631.088 5.08206 -1.62978 0
M  V30 6650 O 631.311 5.6781 -0.542948 0
M  V30 6651 O 630.245 5.48768 -2.47261 0
M  V30 6652 H 634.071 2.20273 -2.09078 0
M  V30 6653 H 631.656 1.0373 -1.07519 0
M  V30 6654 H 633.538 4.16773 -0.62278 0
M  V30 6655 H 632.213 3.23458 0.125139 0
M  V30 6656 H 631.12 3.03746 -2.18378 0
M  V30 6657 H 632.453 4.00782 -2.85718 0
M  V30 6658 N 634.105 1.10431 1.1244 0
M  V30 6659 C 635.352 0.846717 1.83948 0
M  V30 6660 C 635.68 -0.627709 1.84093 0
M  V30 6661 O 634.935 -1.47876 1.28184 0
M  V30 6662 C 635.234 1.34022 3.3132 0
M  V30 6663 C 634.9 2.82606 3.51347 0
M  V30 6664 C 633.562 3.23182 3.56521 0
M  V30 6665 C 635.914 3.78356 3.58464 0
M  V30 6666 C 633.242 4.58258 3.66356 0
M  V30 6667 C 635.594 5.13234 3.69829 0
M  V30 6668 C 634.258 5.53384 3.73259 0
M  V30 6669 H 633.528 0.309836 0.673114 0
M  V30 6670 H 636.175 1.38091 1.32677 0
M  V30 6671 H 634.48 0.726047 3.85014 0
M  V30 6672 H 636.177 1.11739 3.85118 0
M  V30 6673 H 632.767 2.50212 3.47983 0
M  V30 6674 H 636.951 3.48115 3.53737 0
M  V30 6675 H 632.207 4.88787 3.67284 0
M  V30 6676 H 636.381 5.87272 3.74279 0
M  V30 6677 H 634.008 6.58045 3.80633 0
M  V30 6678 N 635.583 -1.29855 0.893053 0
M  V30 6679 C 636.829 -1.96116 0.516349 0
M  V30 6680 C 637.162 -1.70281 -0.933695 0
M  V30 6681 O 636.437 -1.01205 -1.66096 0
M  V30 6682 C 636.72 -3.51068 0.801455 0
M  V30 6683 C 636.573 -3.86387 2.30272 0
M  V30 6684 C 637.892 -4.39186 0.283423 0
M  V30 6685 H 635.011 -0.712335 0.189072 0
M  V30 6686 H 637.653 -1.53587 1.11852 0
M  V30 6687 H 635.803 -3.87424 0.288949 0
M  V30 6688 H 637.475 -3.60012 2.88425 0
M  V30 6689 H 635.718 -3.34167 2.76613 0
M  V30 6690 H 636.389 -4.94512 2.45279 0
M  V30 6691 H 638.865 -4.09785 0.722187 0
M  V30 6692 H 637.741 -5.46505 0.512169 0
M  V30 6693 H 638.002 -4.34511 -0.815643 0
M  V30 6694 N 637.061 -0.65484 -1.43351 0
M  V30 6695 C 638.338 -0.0987371 -1.95351 0
M  V30 6696 C 638.718 1.38161 -1.59608 0
M  V30 6697 O 638.066 2.10791 -0.882021 0
M  V30 6698 C 638.276 -0.346684 -3.47274 0
M  V30 6699 C 639.624 -0.25249 -4.23849 0
M  V30 6700 O 640.648 -0.279332 -3.55103 0
M  V30 6701 O 639.507 -0.177584 -5.46211 0
M  V30 6702 H 636.601 0.0086829 -0.826954 0
M  V30 6703 H 639.147 -0.728189 -1.53282 0
M  V30 6704 H 637.919 -1.37296 -3.66423 0
M  V30 6705 H 637.542 0.315757 -3.96344 0
M  V30 6706 N 638.539 1.52521 -0.396863 0
M  V30 6707 C 639.502 2.2527 0.422604 0
M  V30 6708 C 640.502 1.27184 0.983913 0
M  V30 6709 O 641.692 1.51222 0.864723 0
M  V30 6710 C 638.824 3.01356 1.59365 0
M  V30 6711 H 640.017 2.99133 -0.214416 0
M  V30 6712 H 637.57 1.55587 -0.149128 0
M  V30 6713 H 638.305 2.31813 2.26789 0
M  V30 6714 H 638.09 3.73357 1.19779 0
M  V30 6715 H 639.58 3.56571 2.17363 0
M  V30 6716 N 640.017 0.126909 1.57088 0
M  V30 6717 C 640.927 -0.833867 2.1928 0
M  V30 6718 C 641.943 -1.2868 1.17122 0
M  V30 6719 O 643.119 -1.34815 1.49622 0
M  V30 6720 C 640.184 -2.0632 2.78627 0
M  V30 6721 C 639.245 -1.66143 3.95847 0
M  V30 6722 C 638.478 -2.83217 4.52354 0
M  V30 6723 O 638.701 -3.98868 4.0775 0
M  V30 6724 O 637.635 -2.59846 5.42922 0
M  V30 6725 H 641.461 -0.334564 3.01852 0
M  V30 6726 H 639.046 -0.0991091 1.49071 0
M  V30 6727 H 640.928 -2.78304 3.16425 0
M  V30 6728 H 639.603 -2.55242 1.99082 0
M  V30 6729 H 638.51 -0.912435 3.62802 0
M  V30 6730 H 639.843 -1.21957 4.76852 0
M  V30 6731 N 641.495 -1.56914 -0.146875 0
M  V30 6732 C 642.743 -1.82994 -0.85777 0
M  V30 6733 C 643.064 -0.707814 -1.817 0
M  V30 6734 O 642.334 0.270521 -1.94023 0
M  V30 6735 H 640.914 -0.675106 -0.319751 0
M  V30 6736 H 643.576 -1.9439 -0.140849 0
M  V30 6737 H 642.672 -2.77928 -1.41994 0
M  V30 6738 N 642.974 0.416227 -1.52004 0
M  V30 6739 C 643.937 1.48926 -1.74223 0
M  V30 6740 C 644.937 1.48693 -0.612119 0
M  V30 6741 O 646.127 1.50343 -0.879921 0
M  V30 6742 C 643.259 2.88372 -1.81809 0
M  V30 6743 H 644.452 1.3052 -2.70008 0
M  V30 6744 H 642.005 0.646271 -1.42313 0
M  V30 6745 H 642.74 3.12157 -0.879135 0
M  V30 6746 H 642.525 2.89944 -2.6396 0
M  V30 6747 H 644.015 3.66173 -2.00766 0
M  V30 6748 N 644.452 1.42507 0.673017 0
M  V30 6749 C 645.399 1.46124 1.78651 0
M  V30 6750 C 646.369 0.313007 1.63124 0
M  V30 6751 O 647.554 0.517337 1.83653 0
M  V30 6752 C 644.694 1.3711 3.16694 0
M  V30 6753 C 643.807 2.61983 3.43495 0
M  V30 6754 C 642.942 2.45098 4.71275 0
M  V30 6755 C 641.981 3.65336 4.91117 0
M  V30 6756 N 641.118 3.47383 6.10139 0
M  V30 6757 H 645.958 2.4128 1.74895 0
M  V30 6758 H 643.495 1.19788 0.853766 0
M  V30 6759 H 645.453 1.29881 3.96468 0
M  V30 6760 H 644.083 0.45549 3.1957 0
M  V30 6761 H 643.135 2.79571 2.57961 0
M  V30 6762 H 644.447 3.51355 3.5405 0
M  V30 6763 H 643.601 2.35466 5.59143 0
M  V30 6764 H 642.34 1.53219 4.63007 0
M  V30 6765 H 641.345 3.754 4.0169 0
M  V30 6766 H 642.57 4.58199 5.01229 0
M  V30 6767 H 640.516 2.58222 6.0304 0
M  V30 6768 H 640.433 4.30344 6.21563 0
M  V30 6769 H 641.701 3.41565 7.00681 0
M  V30 6770 N 645.93 -0.909495 1.28709 0
M  V30 6771 C 647.158 -1.69272 1.18973 0
M  V30 6772 C 647.573 -1.87123 -0.251048 0
M  V30 6773 O 646.93 -1.40127 -1.16922 0
M  V30 6774 C 646.981 -3.08257 1.88839 0
M  V30 6775 O 646.702 -2.91228 3.27289 0
M  V30 6776 C 648.203 -4.02642 1.85457 0
M  V30 6777 H 645.423 -0.528999 0.412797 0
M  V30 6778 H 647.967 -1.13803 1.69909 0
M  V30 6779 H 646.122 -3.6053 1.41762 0
M  V30 6780 H 646.536 -3.79223 3.6234 0
M  V30 6781 H 648.01 -4.97613 2.38925 0
M  V30 6782 H 648.487 -4.31327 0.827893 0
M  V30 6783 H 649.093 -3.56298 2.32233 0
M  V30 6784 N 647.408 -1.11026 -1.11852 0
M  V30 6785 C 648.633 -0.879064 -1.87849 0
M  V30 6786 C 649.058 0.565406 -1.79401 0
M  V30 6787 O 648.416 1.39886 -1.15333 0
M  V30 6788 C 648.464 -1.33985 -3.34784 0
M  V30 6789 O 647.568 -0.508803 -4.09249 0
M  V30 6790 H 646.909 -0.316992 -0.583448 0
M  V30 6791 H 649.439 -1.47863 -1.41413 0
M  V30 6792 H 649.449 -1.33248 -3.85628 0
M  V30 6793 H 648.124 -2.39172 -3.40249 0
M  V30 6794 H 646.701 -0.581913 -3.68332 0
M  V30 6795 N 648.886 1.2938 -0.899927 0
M  V30 6796 C 649.796 2.31462 -0.382437 0
M  V30 6797 C 650.812 1.65956 0.522929 0
M  V30 6798 O 651.988 1.97131 0.412454 0
M  V30 6799 C 649.053 3.44595 0.381472 0
M  V30 6800 C 648.114 4.25692 -0.555444 0
M  V30 6801 C 647.347 5.33422 0.172102 0
M  V30 6802 O 647.57 5.53053 1.396 0
M  V30 6803 O 646.504 5.99939 -0.485491 0
M  V30 6804 H 650.33 2.77706 -1.22934 0
M  V30 6805 H 647.915 1.33821 -0.664259 0
M  V30 6806 H 649.797 4.13474 0.813442 0
M  V30 6807 H 648.472 3.00458 1.20443 0
M  V30 6808 H 647.379 3.59453 -1.03653 0
M  V30 6809 H 648.712 4.73471 -1.34483 0
M  V30 6810 N 650.364 0.662433 1.43002 0
M  V30 6811 C 651.592 0.187615 2.06048 0
M  V30 6812 C 652.007 -1.15039 1.49705 0
M  V30 6813 O 651.364 -1.71209 0.631956 0
M  V30 6814 C 651.415 0.100498 3.6136 0
M  V30 6815 O 651.136 1.38562 4.15611 0
M  V30 6816 C 652.637 -0.399298 4.41498 0
M  V30 6817 H 649.857 0.0941675 0.664359 0
M  V30 6818 H 652.401 0.905681 1.83351 0
M  V30 6819 H 650.556 -0.568181 3.83211 0
M  V30 6820 H 650.97 1.25084 5.09366 0
M  V30 6821 H 652.444 -0.409187 5.50481 0
M  V30 6822 H 652.921 -1.43232 4.15188 0
M  V30 6823 H 653.527 0.23721 4.24638 0
M  V30 6824 N 651.842 -1.52309 0.404946 0
M  V30 6825 C 653.091 -2.00952 -0.173529 0
M  V30 6826 C 653.404 -1.29512 -1.46581 0
M  V30 6827 O 654.61 -1.6895 -2.12528 0
M  V30 6828 C 653.066 -3.58097 -0.359801 0
M  V30 6829 C 652.674 -4.38449 0.920138 0
M  V30 6830 C 654.418 -4.14984 -0.893794 0
M  V30 6831 C 652.325 -5.87227 0.701285 0
M  V30 6832 H 651.255 -0.750871 -0.0686244 0
M  V30 6833 H 653.906 -1.75687 0.529749 0
M  V30 6834 H 652.288 -3.79675 -1.12531 0
M  V30 6835 H 653.462 -4.28633 1.69147 0
M  V30 6836 H 651.777 -3.92859 1.38024 0
M  V30 6837 H 654.374 -5.23813 -1.0735 0
M  V30 6838 H 654.717 -3.72072 -1.8673 0
M  V30 6839 H 655.25 -3.97358 -0.187453 0
M  V30 6840 H 651.989 -6.34491 1.64624 0
M  V30 6841 H 651.509 -5.99792 -0.0308288 0
M  V30 6842 H 653.188 -6.46096 0.341846 0
M  V30 6843 N 653.32 -0.135238 -1.57019 0
M  V30 6844 C 654.268 0.826099 -2.17436 0
M  V30 6845 C 655.262 1.26378 -1.12805 0
M  V30 6846 O 656.468 1.23363 -1.31079 0
M  V30 6847 H 652.843 0.284568 -0.696078 0
M  V30 6848 H 654.814 0.292212 -2.96966 0
M  V30 6849 C 653.563 2.05991 -2.80112 0
M  V30 6850 H 652.886 1.73209 -3.60331 0
M  V30 6851 H 654.326 2.71225 -3.25903 0
M  V30 6852 C 652.785 2.86027 -1.78017 0
M  V30 6853 O 653.315 3.81971 -1.24344 0
M  V30 6854 N 651.521 2.50332 -1.47588 0
M  V30 6855 H 651.068 1.72377 -1.91426 0
M  V30 6856 H 651.026 3.04177 -0.795228 0
M  V30 6857 N 654.798 1.5699 0.138552 0
M  V30 6858 C 656.209 1.73171 0.697754 0
M  V30 6859 C 656.56 0.750952 1.8126 0
M  V30 6860 O 655.685 -0.080549 2.1625 0
M  V30 6861 C 656.28 3.13996 1.27248 0
M  V30 6862 C 654.839 3.3175 1.77816 0
M  V30 6863 C 653.986 2.69084 0.669991 0
M  V30 6864 H 656.937 1.5846 -0.0871979 0
M  V30 6865 H 656.958 3.14463 2.14227 0
M  V30 6866 H 656.47 3.85354 0.460855 0
M  V30 6867 H 654.571 2.65403 2.61519 0
M  V30 6868 H 654.684 4.39768 1.90107 0
M  V30 6869 H 653.048 2.29782 1.09874 0
M  V30 6870 H 653.831 3.43053 -0.130329 0
M  V30 6871 N 656.276 -0.40816 1.52223 0
M  V30 6872 C 657.504 -1.17672 1.70179 0
M  V30 6873 C 657.919 -1.84257 0.411696 0
M  V30 6874 O 657.276 -1.7192 -0.612354 0
M  V30 6875 C 657.327 -2.23911 2.83806 0
M  V30 6876 O 657.048 -1.60044 4.0782 0
M  V30 6877 C 658.549 -3.1364 3.13281 0
M  V30 6878 H 655.769 -0.353562 0.570293 0
M  V30 6879 H 658.313 -0.480083 1.98785 0
M  V30 6880 H 656.468 -2.89242 2.57717 0
M  V30 6881 H 656.882 -2.30484 4.71145 0
M  V30 6882 H 658.356 -3.84255 3.96298 0
M  V30 6883 H 658.833 -3.76066 2.26872 0
M  V30 6884 H 659.439 -2.53977 3.41139 0
M  V30 6885 N 657.755 -1.42862 -0.66545 0
M  V30 6886 C 659.032 -1.3431 -1.42197 0
M  V30 6887 C 659.412 0.0150265 -2.11095 0
M  V30 6888 O 658.76 1.03101 -2.03918 0
M  V30 6889 C 658.97 -2.51783 -2.41674 0
M  V30 6890 C 660.318 -2.94321 -3.0604 0
M  V30 6891 O 661.342 -2.51741 -2.52001 0
M  V30 6892 O 660.201 -3.68047 -4.03985 0
M  V30 6893 H 657.295 -0.530159 -0.634713 0
M  V30 6894 H 659.841 -1.54888 -0.693386 0
M  V30 6895 H 658.613 -3.42282 -1.89627 0
M  V30 6896 H 658.236 -2.33241 -3.22001 0
M  V30 6897 N 659.233 0.902656 -1.29189 0
M  V30 6898 C 660.481 1.6496 -1.16758 0
M  V30 6899 C 660.802 1.92952 0.28188 0
M  V30 6900 O 660.072 1.55351 1.19344 0
M  V30 6901 H 658.652 0.611447 -0.429118 0
M  V30 6902 H 661.314 1.0825 -1.62074 0
M  V30 6903 H 660.41 2.60728 -1.71544 0
M  V30 6904 N 660.711 1.11618 1.11262 0
M  V30 6905 C 661.936 0.889013 1.8738 0
M  V30 6906 C 662.361 -0.555884 1.79698 0
M  V30 6907 O 661.719 -1.39272 1.16073 0
M  V30 6908 C 661.767 1.35759 3.34069 0
M  V30 6909 O 660.871 0.530499 4.08974 0
M  V30 6910 H 660.212 0.320082 0.581759 0
M  V30 6911 H 662.742 1.48611 1.40627 0
M  V30 6912 H 662.752 1.35291 3.84916 0
M  V30 6913 H 661.427 2.40973 3.38976 0
M  V30 6914 H 660.004 0.601439 3.68018 0
M  V30 6915 N 662.189 -1.289 0.906776 0
M  V30 6916 C 663.435 -1.95558 0.53712 0
M  V30 6917 C 663.768 -1.71262 -0.915582 0
M  V30 6918 O 663.043 -1.02961 -1.65013 0
M  V30 6919 C 663.326 -3.50198 0.838645 0
M  V30 6920 C 663.179 -3.83923 2.34357 0
M  V30 6921 C 664.498 -4.38861 0.329988 0
M  V30 6922 H 661.617 -0.710289 0.196617 0
M  V30 6923 H 664.259 -1.52392 1.13475 0
M  V30 6924 H 662.409 -3.87096 0.330024 0
M  V30 6925 H 664.081 -3.56933 2.92227 0
M  V30 6926 H 662.324 -3.31215 2.80141 0
M  V30 6927 H 662.995 -4.91883 2.5051 0
M  V30 6928 H 665.471 -4.08996 0.765609 0
M  V30 6929 H 664.347 -5.45931 0.570105 0
M  V30 6930 H 664.608 -4.35352 -0.769511 0
M  V30 6931 N 663.667 -0.670007 -1.42649 0
M  V30 6932 C 664.916 -0.187526 -2.00826 0
M  V30 6933 C 665.229 1.21142 -1.53571 0
M  V30 6934 O 666.435 1.79001 -2.04134 0
M  V30 6935 C 664.891 -0.284409 -3.58774 0
M  V30 6936 C 664.499 -1.6871 -4.15019 0
M  V30 6937 C 666.243 0.139605 -4.2427 0
M  V30 6938 C 664.15 -1.73701 -5.65316 0
M  V30 6939 H 663.08 -0.0663468 -0.751075 0
M  V30 6940 H 665.731 -0.834492 -1.63427 0
M  V30 6941 H 664.113 0.430364 -3.93655 0
M  V30 6942 H 665.287 -2.42857 -3.91608 0
M  V30 6943 H 663.602 -2.05855 -3.61957 0
M  V30 6944 H 666.199 0.122398 -5.3456 0
M  V30 6945 H 666.542 1.17403 -3.99402 0
M  V30 6946 H 667.075 -0.523995 -3.94334 0
M  V30 6947 H 663.814 -2.75109 -5.94975 0
M  V30 6948 H 663.334 -1.03903 -5.90732 0
M  V30 6949 H 665.013 -1.48829 -6.2965 0
M  V30 6950 N 665.145 1.52092 -0.413018 0
M  V30 6951 C 666.385 2.03765 0.160975 0
M  V30 6952 C 666.749 1.29174 1.4205 0
M  V30 6953 O 667.95 1.71093 2.07318 0
M  V30 6954 C 666.221 3.55167 0.398871 0
M  V30 6955 S 667.78 4.28619 0.939755 0
M  V30 6956 H 664.598 0.709685 0.0432281 0
M  V30 6957 H 667.2 1.87102 -0.566831 0
M  V30 6958 H 665.904 4.07034 -0.524544 0
M  V30 6959 H 665.435 3.7608 1.15444 0
M  V30 6960 H 667.45 4.43773 2.21991 0
M  V30 6961 N 666.623 0.143563 1.56945 0
M  V30 6962 C 667.555 -0.828353 2.13708 0
M  V30 6963 C 668.568 -1.21313 1.08568 0
M  V30 6964 O 669.757 -1.1578 1.35857 0
M  V30 6965 C 666.857 -2.12248 2.64204 0
M  V30 6966 C 666.03 -1.90561 3.93707 0
M  V30 6967 C 665.089 -3.03931 4.29549 0
M  V30 6968 O 664.115 -2.75772 4.97934 0
M  V30 6969 N 665.317 -4.31016 3.88852 0
M  V30 6970 H 668.082 -0.343242 2.97728 0
M  V30 6971 H 665.643 -0.0401152 1.6185 0
M  V30 6972 H 667.635 -2.87132 2.85197 0
M  V30 6973 H 666.205 -2.52033 1.84928 0
M  V30 6974 H 665.425 -0.997327 3.81375 0
M  V30 6975 H 666.713 -1.73405 4.78339 0
M  V30 6976 H 666.111 -4.56762 3.33743 0
M  V30 6977 H 664.668 -5.02691 4.14903 0
M  V30 6978 N 668.101 -1.57061 -0.130224 0
M  V30 6979 C 669.347 -1.8453 -0.841216 0
M  V30 6980 C 669.68 -0.727666 -1.80052 0
M  V30 6981 O 668.955 0.267419 -1.92653 0
M  V30 6982 C 669.238 -3.22553 -1.60099 0
M  V30 6983 C 669.091 -4.44901 -0.662048 0
M  V30 6984 C 670.41 -3.58003 -2.55973 0
M  V30 6985 H 667.529 -0.671215 -0.304366 0
M  V30 6986 H 670.171 -1.89705 -0.105821 0
M  V30 6987 H 668.321 -3.18272 -2.22789 0
M  V30 6988 H 669.993 -4.61278 -0.0448559 0
M  V30 6989 H 668.236 -4.33791 0.0272253 0
M  V30 6990 H 668.907 -5.3812 -1.23006 0
M  V30 6991 H 671.383 -3.63002 -2.03393 0
M  V30 6992 H 670.259 -4.55576 -3.06172 0
M  V30 6993 H 670.52 -2.84833 -3.38116 0
M  V30 6994 N 669.579 0.400081 -1.52437 0
M  V30 6995 C 670.804 1.17221 -1.71096 0
M  V30 6996 C 671.229 1.83269 -0.423565 0
M  V30 6997 O 670.587 1.70378 0.619751 0
M  V30 6998 C 670.635 2.20425 -2.85386 0
M  V30 6999 O 669.739 3.26769 -2.51586 0
M  V30 7000 H 669.08 0.341766 -0.569291 0
M  V30 7001 H 671.61 0.467772 -1.99181 0
M  V30 7002 H 671.62 2.64605 -3.10561 0
M  V30 7003 H 670.295 1.71737 -3.78786 0
M  V30 7004 H 668.872 2.87804 -2.37114 0
M  V30 7005 N 671.057 1.43213 0.657864 0
M  V30 7006 C 671.987 1.50815 1.78262 0
M  V30 7007 C 672.968 0.363211 1.66177 0
M  V30 7008 O 674.153 0.579806 1.85343 0
M  V30 7009 C 671.283 1.42625 3.16663 0
M  V30 7010 C 670.237 2.5532 3.43505 0
M  V30 7011 C 669.563 2.32184 4.81658 0
M  V30 7012 C 670.863 3.97583 3.38711 0
M  V30 7013 H 672.557 2.44954 1.72157 0
M  V30 7014 H 670.103 1.17896 0.82683 0
M  V30 7015 H 672.056 1.46548 3.95097 0
M  V30 7016 H 670.78 0.449877 3.23487 0
M  V30 7017 H 669.439 2.50742 2.6744 0
M  V30 7018 H 669.087 1.32801 4.85153 0
M  V30 7019 H 668.787 3.07724 5.00579 0
M  V30 7020 H 670.311 2.37883 5.62356 0
M  V30 7021 H 671.725 4.03673 4.07089 0
M  V30 7022 H 670.122 4.73112 3.69168 0
M  V30 7023 H 671.192 4.23049 2.36976 0
M  V30 7024 N 672.536 -0.895792 1.29666 0
M  V30 7025 C 673.499 -1.98189 1.15124 0
M  V30 7026 C 674.499 -1.60572 0.0855717 0
M  V30 7027 O 675.689 -1.70991 0.332826 0
M  V30 7028 C 672.821 -3.32289 0.761372 0
M  V30 7029 H 674.014 -2.12518 2.11603 0
M  V30 7030 H 671.567 -1.0808 1.12908 0
M  V30 7031 H 672.302 -3.23662 -0.203393 0
M  V30 7032 H 672.087 -3.60958 1.53139 0
M  V30 7033 H 673.577 -4.1198 0.682792 0
M  V30 7034 N 674.014 -1.12206 -1.10668 0
M  V30 7035 C 674.946 -0.74552 -2.16736 0
M  V30 7036 C 675.959 0.226696 -1.61214 0
M  V30 7037 O 677.148 0.0083936 -1.78498 0
M  V30 7038 C 674.248 -0.0823368 -3.388 0
M  V30 7039 C 673.421 -1.08341 -4.2377 0
M  V30 7040 C 672.48 -0.448292 -5.24287 0
M  V30 7041 O 671.506 -1.10458 -5.58379 0
M  V30 7042 N 672.708 0.785336 -5.75163 0
M  V30 7043 H 675.473 -1.65818 -2.49649 0
M  V30 7044 H 673.034 -1.01335 -1.26265 0
M  V30 7045 H 675.026 0.354476 -4.03145 0
M  V30 7046 H 673.596 0.733041 -3.03884 0
M  V30 7047 H 672.816 -1.69792 -3.55759 0
M  V30 7048 H 674.104 -1.76042 -4.77375 0
M  V30 7049 H 673.502 1.33755 -5.4966 0
M  V30 7050 H 672.059 1.16501 -6.41304 0
M  V30 7051 N 675.492 1.28418 -0.913599 0
M  V30 7052 C 676.738 1.9527 -0.547484 0
M  V30 7053 C 677.071 1.71745 0.906486 0
M  V30 7054 O 676.346 1.03834 1.64465 0
M  V30 7055 C 676.629 3.49748 -0.857205 0
M  V30 7056 C 676.482 3.82675 -2.3639 0
M  V30 7057 C 677.801 4.3868 -0.353258 0
M  V30 7058 H 674.92 0.709236 -0.200381 0
M  V30 7059 H 677.562 1.51789 -1.14281 0
M  V30 7060 H 675.712 3.86915 -0.350548 0
M  V30 7061 H 677.384 3.55378 -2.94116 0
M  V30 7062 H 675.627 3.29724 -2.81894 0
M  V30 7063 H 676.298 4.90547 -2.53115 0
M  V30 7064 H 678.774 4.08584 -0.787288 0
M  V30 7065 H 677.65 5.45621 -0.599049 0
M  V30 7066 H 677.911 4.35753 0.746413 0
M  V30 7067 N 676.97 0.677563 1.42291 0
M  V30 7068 C 678.198 0.209459 2.05837 0
M  V30 7069 C 678.613 -1.13444 1.50917 0
M  V30 7070 O 677.97 -1.70529 0.65008 0
M  V30 7071 C 678.021 0.138819 3.61233 0
M  V30 7072 O 677.742 1.42962 4.14118 0
M  V30 7073 C 679.243 -0.352449 4.41897 0
M  V30 7074 H 676.463 0.101209 0.663323 0
M  V30 7075 H 679.007 0.925077 1.8238 0
M  V30 7076 H 677.162 -0.527505 3.83792 0
M  V30 7077 H 677.576 1.3048 5.08011 0
M  V30 7078 H 679.05 -0.350778 5.50884 0
M  V30 7079 H 679.527 -1.3882 4.16684 0
M  V30 7080 H 680.133 0.282236 4.24362 0
M  V30 7081 N 678.448 -1.51871 0.421078 0
M  V30 7082 C 679.725 -1.9447 -0.20993 0
M  V30 7083 C 680.105 -1.35875 -1.61558 0
M  V30 7084 O 679.453 -0.539294 -2.22045 0
M  V30 7085 C 679.663 -3.48402 -0.204165 0
M  V30 7086 C 681.011 -4.2254 -0.417696 0
M  V30 7087 O 682.035 -3.55074 -0.282999 0
M  V30 7088 O 680.894 -5.422 -0.684239 0
M  V30 7089 H 677.988 -0.815283 -0.138718 0
M  V30 7090 H 680.534 -1.62832 0.477884 0
M  V30 7091 H 679.306 -3.83464 0.779183 0
M  V30 7092 H 678.929 -3.86436 -0.935576 0
M  V30 7093 N 679.926 -0.151884 -1.56866 0
M  V30 7094 C 681.172 0.498742 -1.96572 0
M  V30 7095 C 681.505 1.64194 -1.03702 0
M  V30 7096 O 680.78 1.94334 -0.0803432 0
M  V30 7097 C 681.063 1.00027 -3.45929 0
M  V30 7098 C 680.916 -0.141767 -4.49577 0
M  V30 7099 C 682.235 1.88044 -3.97904 0
M  V30 7100 H 679.354 0.17982 -0.714726 0
M  V30 7101 H 681.996 -0.234097 -1.88552 0
M  V30 7102 H 680.146 1.62476 -3.52894 0
M  V30 7103 H 681.818 -0.778269 -4.54687 0
M  V30 7104 H 680.061 -0.80019 -4.26356 0
M  V30 7105 H 680.732 0.250947 -5.51429 0
M  V30 7106 H 683.208 1.35416 -3.93449 0
M  V30 7107 H 682.084 2.20043 -5.02864 0
M  V30 7108 H 682.345 2.81916 -3.40552 0
M  V30 7109 N 681.404 1.57128 0.121893 0
M  V30 7110 C 682.681 1.75664 0.860327 0
M  V30 7111 C 683.061 0.726585 1.98202 0
M  V30 7112 O 682.409 -0.24999 2.27128 0
M  V30 7113 C 682.619 3.20571 1.37968 0
M  V30 7114 C 683.967 3.82988 1.83317 0
M  V30 7115 O 684.991 3.24156 1.47654 0
M  V30 7116 O 683.85 4.86393 2.49168 0
M  V30 7117 H 680.944 0.719153 0.408348 0
M  V30 7118 H 683.49 1.6937 0.105859 0
M  V30 7119 H 682.262 3.87056 0.57477 0
M  V30 7120 H 681.885 3.31392 2.19694 0
M  V30 7121 N 682.882 -0.391992 1.52647 0
M  V30 7122 C 683.829 -1.47866 1.77213 0
M  V30 7123 C 684.799 -1.54286 0.615223 0
M  V30 7124 O 685.984 -1.7059 0.854622 0
M  V30 7125 C 683.124 -2.85129 1.94411 0
M  V30 7126 C 682.237 -2.87883 3.22098 0
M  V30 7127 C 681.372 -4.16553 3.29631 0
M  V30 7128 C 680.411 -4.13348 4.51453 0
M  V30 7129 N 679.548 -5.33619 4.56284 0
M  V30 7130 H 684.388 -1.26219 2.6995 0
M  V30 7131 H 681.925 -0.612367 1.33748 0
M  V30 7132 H 683.883 -3.64833 2.02367 0
M  V30 7133 H 682.513 -3.05232 1.05038 0
M  V30 7134 H 681.565 -2.00567 3.23229 0
M  V30 7135 H 682.877 -2.81382 4.11856 0
M  V30 7136 H 682.031 -5.0466 3.36753 0
M  V30 7137 H 680.77 -4.25773 2.37842 0
M  V30 7138 H 679.775 -3.23629 4.44459 0
M  V30 7139 H 681 -4.05754 5.44555 0
M  V30 7140 H 678.946 -5.43474 3.67385 0
M  V30 7141 H 678.863 -5.29182 5.3991 0
M  V30 7142 H 680.131 -6.23632 4.67657 0
M  V30 7143 N 684.36 -1.4356 -0.65026 0
M  V30 7144 C 685.323 -1.48615 -1.74489 0
M  V30 7145 C 686.323 -0.370483 -1.56474 0
M  V30 7146 O 687.513 -0.632351 -1.62317 0
M  V30 7147 C 684.645 -1.34161 -3.13391 0
M  V30 7148 H 685.838 -2.46103 -1.71387 0
M  V30 7149 H 683.391 -1.30369 -0.862186 0
M  V30 7150 H 684.126 -0.376918 -3.22102 0
M  V30 7151 H 683.911 -2.1504 -3.27872 0
M  V30 7152 H 685.401 -1.40637 -3.93206 0
M  V30 7153 N 685.838 0.888903 -1.30139 0
M  V30 7154 C 687.084 1.6428 -1.18912 0
M  V30 7155 C 687.417 1.92499 0.256477 0
M  V30 7156 O 686.692 1.54312 1.18397 0
M  V30 7157 C 686.975 2.9851 -2.01405 0
M  V30 7158 C 686.828 2.77288 -3.54163 0
M  V30 7159 C 688.147 3.99383 -1.84882 0
M  V30 7160 H 685.266 0.596148 -0.433333 0
M  V30 7161 H 687.908 1.0289 -1.5973 0
M  V30 7162 H 686.058 3.50907 -1.66722 0
M  V30 7163 H 687.73 2.31709 -3.98884 0
M  V30 7164 H 685.973 2.11867 -3.78543 0
M  V30 7165 H 686.644 3.72717 -4.07168 0
M  V30 7166 H 689.12 3.56132 -2.15196 0
M  V30 7167 H 687.996 4.91222 -2.44934 0
M  V30 7168 H 688.257 4.34674 -0.806902 0
M  V30 7169 N 687.317 1.12792 1.10072 0
M  V30 7170 C 688.28 0.802264 2.14701 0
M  V30 7171 C 689.28 -0.18515 1.59731 0
M  V30 7172 O 690.47 0.041109 1.74151 0
M  V30 7173 C 687.602 0.19285 3.40354 0
M  V30 7174 H 688.795 1.72932 2.45019 0
M  V30 7175 H 686.348 0.931662 1.25498 0
M  V30 7176 H 687.083 -0.743748 3.15656 0
M  V30 7177 H 686.868 0.903827 3.81541 0
M  V30 7178 H 688.358 -0.0183704 4.17596 0
M  V30 7179 N 688.795 -1.27931 0.920396 0
M  V30 7180 C 689.758 -2.25345 0.41858 0
M  V30 7181 C 690.758 -1.54116 -0.458798 0
M  V30 7182 O 691.948 -1.72235 -0.260912 0
M  V30 7183 C 689.08 -3.38556 -0.399104 0
M  V30 7184 H 690.273 -2.71251 1.27918 0
M  V30 7185 H 687.826 -1.39728 0.700406 0
M  V30 7186 H 688.561 -2.98021 -1.27882 0
M  V30 7187 H 688.346 -3.91426 0.229863 0
M  V30 7188 H 689.836 -4.10976 -0.740817 0
M  V30 7189 N 690.273 -0.685099 -1.4193 0
M  V30 7190 C 691.236 -0.0222632 -2.29189 0
M  V30 7191 C 692.236 0.7186 -1.4385 0
M  V30 7192 O 693.426 0.555058 -1.6512 0
M  V30 7193 C 690.558 0.979013 -3.2654 0
M  V30 7194 H 691.751 -0.790424 -2.89296 0
M  V30 7195 H 689.304 -0.448012 -1.49742 0
M  V30 7196 H 690.039 1.77531 -2.71392 0
M  V30 7197 H 689.824 0.451037 -3.89497 0
M  V30 7198 H 691.314 1.44091 -3.91954 0
M  V30 7199 N 691.751 1.51645 -0.429126 0
M  V30 7200 C 692.698 2.27542 0.386446 0
M  V30 7201 C 693.668 1.30786 1.02393 0
M  V30 7202 O 694.853 1.59678 1.0444 0
M  V30 7203 C 691.993 3.11457 1.48623 0
M  V30 7204 C 691.106 4.23196 0.867691 0
M  V30 7205 C 690.241 4.94435 1.94183 0
M  V30 7206 C 689.28 5.98108 1.30129 0
M  V30 7207 N 688.417 6.62786 2.31644 0
M  V30 7208 H 693.257 2.968 -0.267155 0
M  V30 7209 H 690.794 1.46397 -0.143591 0
M  V30 7210 H 692.752 3.58429 2.13506 0
M  V30 7211 H 691.382 2.44329 2.10957 0
M  V30 7212 H 690.434 3.80248 0.107373 0
M  V30 7213 H 691.746 4.97499 0.35997 0
M  V30 7214 H 690.9 5.44914 2.66747 0
M  V30 7215 H 689.639 4.19744 2.48326 0
M  V30 7216 H 688.644 5.4693 0.561082 0
M  V30 7217 H 689.869 6.74751 0.767303 0
M  V30 7218 H 687.815 5.90913 2.84883 0
M  V30 7219 H 687.732 7.32828 1.85741 0
M  V30 7220 H 689 7.17897 3.03717 0
M  V30 7221 N 693.229 0.160201 1.56784 0
M  V30 7222 C 694.506 -0.533355 1.88188 0
M  V30 7223 C 694.886 -1.82072 1.06831 0
M  V30 7224 O 694.234 -2.27946 0.158959 0
M  V30 7225 C 694.444 -0.786034 3.40033 0
M  V30 7226 C 695.792 -1.12097 4.09536 0
M  V30 7227 O 696.816 -0.874949 3.45287 0
M  V30 7228 O 695.675 -1.58457 5.23023 0
M  V30 7229 H 692.769 -0.273589 0.780434 0
M  V30 7230 H 695.315 0.197803 1.68543 0
M  V30 7231 H 694.087 0.124515 3.91102 0
M  V30 7232 H 693.71 -1.57091 3.65251 0
M  V30 7233 N 694.707 -1.5719 -0.113559 0
M  V30 7234 C 695.67 -1.99796 -1.12314 0
M  V30 7235 C 696.67 -0.888847 -1.34001 0
M  V30 7236 O 697.86 -1.15476 -1.30426 0
M  V30 7237 C 694.992 -2.34279 -2.47641 0
M  V30 7238 H 696.185 -2.90193 -0.756825 0
M  V30 7239 H 693.738 -1.52144 -0.358029 0
M  V30 7240 H 694.473 -1.46778 -2.89183 0
M  V30 7241 H 694.258 -3.15175 -2.33253 0
M  V30 7242 H 695.748 -2.67963 -3.2029 0
M  V30 7243 N 696.185 0.383891 -1.52853 0
M  V30 7244 C 697.432 1.12842 -1.68146 0
M  V30 7245 C 697.76 1.89823 -0.423954 0
M  V30 7246 O 697.015 1.86475 0.593765 0
M  V30 7247 C 697.314 2.12881 -2.87082 0
M  V30 7248 C 696.98 1.52519 -4.24322 0
M  V30 7249 C 695.642 1.35783 -4.61645 0
M  V30 7250 C 697.994 1.0868 -5.09743 0
M  V30 7251 C 695.322 0.737643 -5.82044 0
M  V30 7252 C 697.674 0.480699 -6.30771 0
M  V30 7253 C 696.338 0.300681 -6.66822 0
M  V30 7254 H 695.608 0.412917 -0.615289 0
M  V30 7255 H 698.255 0.412416 -1.87006 0
M  V30 7256 H 696.56 2.90719 -2.62659 0
M  V30 7257 H 698.257 2.70408 -2.96109 0
M  V30 7258 H 694.847 1.66534 -3.94923 0
M  V30 7259 H 699.031 1.2041 -4.81472 0
M  V30 7260 H 694.287 0.586415 -6.08581 0
M  V30 7261 H 698.461 0.132733 -6.96273 0
M  V30 7262 H 696.088 -0.181966 -7.59982 0
M  V30 7263 N 697.663 1.43903 0.642637 0
M  V30 7264 C 698.573 1.52349 1.78401 0
M  V30 7265 C 699.589 0.409869 1.69104 0
M  V30 7266 O 700.765 0.665548 1.90085 0
M  V30 7267 C 697.83 1.45408 3.14734 0
M  V30 7268 C 696.891 2.67528 3.35749 0
M  V30 7269 C 696.124 2.60909 4.65577 0
M  V30 7270 O 696.347 1.6627 5.45628 0
M  V30 7271 O 695.281 3.5158 4.88544 0
M  V30 7272 H 699.107 2.48752 1.7423 0
M  V30 7273 H 696.692 1.26021 0.802439 0
M  V30 7274 H 698.574 1.44019 3.96026 0
M  V30 7275 H 697.249 0.521437 3.19473 0
M  V30 7276 H 696.156 2.74487 2.5418 0
M  V30 7277 H 697.489 3.598 3.35864 0
M  V30 7278 N 699.141 -0.881989 1.30609 0
M  V30 7279 C 700.089 -2.00942 1.17155 0
M  V30 7280 C 701.083 -1.69198 0.0827154 0
M  V30 7281 O 702.289 -1.78342 0.243775 0
M  V30 7282 H 698.664 -0.658913 0.362406 0
M  V30 7283 H 700.635 -2.09423 2.12567 0
M  V30 7284 C 699.384 -3.36294 0.883273 0
M  V30 7285 H 698.707 -3.61233 1.7132 0
M  V30 7286 H 700.147 -4.15812 0.829255 0
M  V30 7287 C 698.606 -3.34348 -0.413851 0
M  V30 7288 O 699.136 -3.75216 -1.43444 0
M  V30 7289 N 697.342 -2.87459 -0.426082 0
M  V30 7290 H 696.889 -2.54397 0.40493 0
M  V30 7291 H 696.847 -2.8654 -1.29391 0
M  V30 7292 N 700.619 -1.13374 -1.09472 0
M  V30 7293 C 701.867 -0.893422 -1.8128 0
M  V30 7294 C 702.188 0.582029 -1.86111 0
M  V30 7295 O 701.458 1.42305 -1.34633 0
M  V30 7296 H 700.038 -0.327543 -0.67136 0
M  V30 7297 H 702.7 -1.43018 -1.32408 0
M  V30 7298 H 701.796 -1.28374 -2.84476 0
M  V30 7299 N 702.098 1.27442 -0.927168 0
M  V30 7300 C 703.514 1.46754 -0.627329 0
M  V30 7301 C 703.714 1.83902 0.823549 0
M  V30 7302 O 702.77 1.95215 1.60148 0
M  V30 7303 C 704.083 2.56045 -1.57674 0
M  V30 7304 C 705.631 2.69906 -1.58491 0
M  V30 7305 C 706.106 3.82355 -2.52128 0
M  V30 7306 N 707.597 3.89728 -2.50332 0
M  V30 7307 C 708.332 4.76155 -3.19475 0
M  V30 7308 N 707.828 5.67073 -3.97995 0
M  V30 7309 N 709.621 4.6988 -3.08496 0
M  V30 7310 H 701.772 1.01613 -1.86517 0
M  V30 7311 H 704.035 0.507443 -0.800753 0
M  V30 7312 H 703.741 2.35542 -2.61176 0
M  V30 7313 H 703.615 3.53423 -1.31804 0
M  V30 7314 H 706.002 2.89792 -0.557208 0
M  V30 7315 H 706.083 1.73018 -1.8841 0
M  V30 7316 H 705.727 3.63224 -3.55008 0
M  V30 7317 H 705.657 4.7867 -2.19505 0
M  V30 7318 H 708.148 3.24717 -1.93306 0
M  V30 7319 H 708.461 6.2988 -4.4774 0
M  V30 7320 H 706.806 5.6687 -4.02098 0
M  V30 7321 H 709.997 3.97848 -2.46646 0
M  V30 7322 H 710.17 5.37017 -3.62652 0
M  V30 7323 N 703.576 0.692616 1.41565 0
M  V30 7324 C 704.822 0.231408 2.02079 0
M  V30 7325 C 705.177 -1.15514 1.53864 0
M  V30 7326 O 704.47 -1.76786 0.73873 0
M  V30 7327 C 704.664 0.225073 3.56691 0
M  V30 7328 C 704.493 1.60947 4.19912 0
M  V30 7329 C 703.263 2.2116 4.54331 0
M  V30 7330 C 705.461 2.55553 4.46315 0
M  V30 7331 N 703.443 3.52195 5.02824 0
M  V30 7332 C 704.814 3.71263 4.96552 0
M  V30 7333 C 706.869 2.53857 4.28323 0
M  V30 7334 C 705.572 4.85555 5.30687 0
M  V30 7335 C 707.598 3.67259 4.63546 0
M  V30 7336 C 706.96 4.81699 5.13951 0
M  V30 7337 H 703.059 0.130001 0.771119 0
M  V30 7338 H 705.643 0.909459 1.72154 0
M  V30 7339 H 703.814 -0.422453 3.86096 0
M  V30 7340 H 705.546 -0.250685 4.03923 0
M  V30 7341 H 702.301 1.73474 4.40685 0
M  V30 7342 H 702.725 4.19354 5.3148 0
M  V30 7343 H 707.367 1.66598 3.88594 0
M  V30 7344 H 705.085 5.73477 5.69341 0
M  V30 7345 H 708.671 3.67195 4.51286 0
M  V30 7346 H 707.551 5.67995 5.40695 0
M  V30 7347 N 705.054 -1.51416 0.437162 0
M  V30 7348 C 706.302 -2.01687 -0.129108 0
M  V30 7349 C 706.623 -1.32329 -1.43227 0
M  V30 7350 O 705.893 -0.457796 -1.90476 0
M  V30 7351 H 704.473 -0.745277 -0.0507023 0
M  V30 7352 H 707.135 -1.86075 0.579828 0
M  V30 7353 H 706.231 -3.10605 -0.305141 0
M  V30 7354 N 706.532 -0.168513 -1.56696 0
M  V30 7355 C 707.479 0.762875 -2.17828 0
M  V30 7356 C 708.449 1.22892 -1.11745 0
M  V30 7357 O 709.634 1.29759 -1.39883 0
M  V30 7358 C 706.774 1.9879 -2.82093 0
M  V30 7359 C 705.887 1.56568 -4.02629 0
M  V30 7360 C 705.022 2.74416 -4.54829 0
M  V30 7361 C 704.061 2.28671 -5.67782 0
M  V30 7362 N 703.198 3.39602 -6.14504 0
M  V30 7363 H 708.038 0.23479 -2.97074 0
M  V30 7364 H 705.575 0.104163 -1.46731 0
M  V30 7365 H 707.533 2.70636 -3.17509 0
M  V30 7366 H 706.163 2.48973 -2.05456 0
M  V30 7367 H 705.215 0.744067 -3.73052 0
M  V30 7368 H 706.527 1.18988 -4.844 0
M  V30 7369 H 705.681 3.54423 -4.92412 0
M  V30 7370 H 704.42 3.15254 -3.7211 0
M  V30 7371 H 703.425 1.4711 -5.29753 0
M  V30 7372 H 704.65 1.88894 -6.52301 0
M  V30 7373 H 702.596 3.80021 -5.34715 0
M  V30 7374 H 702.513 3.06105 -6.91257 0
M  V30 7375 H 703.781 4.19902 -6.56737 0
M  V30 7376 N 708.01 1.57248 0.105221 0
M  V30 7377 C 709.259 1.84756 0.809198 0
M  V30 7378 C 709.572 0.756262 1.80389 0
M  V30 7379 O 710.778 0.918158 2.55504 0
M  V30 7380 C 709.234 3.27613 1.48989 0
M  V30 7381 C 708.842 4.44788 0.535484 0
M  V30 7382 C 710.586 3.64356 2.17819 0
M  V30 7383 C 708.493 5.78676 1.22019 0
M  V30 7384 H 707.423 0.689139 0.305946 0
M  V30 7385 H 710.074 1.83395 0.0620371 0
M  V30 7386 H 708.456 3.23485 2.28415 0
M  V30 7387 H 709.63 4.60243 -0.226557 0
M  V30 7388 H 707.945 4.16374 -0.0465769 0
M  V30 7389 H 710.542 4.61663 2.69761 0
M  V30 7390 H 710.885 2.92474 2.96251 0
M  V30 7391 H 711.418 3.70328 1.45264 0
M  V30 7392 H 708.157 6.53763 0.476875 0
M  V30 7393 H 707.677 5.67083 1.9539 0
M  V30 7394 H 709.356 6.22897 1.74952 0
M  V30 7395 N 709.488 -0.375779 1.53054 0
M  V30 7396 C 710.713 -1.14484 1.7294 0
M  V30 7397 C 711.138 -1.82572 0.452668 0
M  V30 7398 O 710.496 -1.71343 -0.592567 0
M  V30 7399 C 710.544 -2.15857 2.88857 0
M  V30 7400 O 709.648 -3.22725 2.56753 0
M  V30 7401 H 708.989 -0.332666 0.574656 0
M  V30 7402 H 711.519 -0.436025 1.999 0
M  V30 7403 H 711.529 -2.59631 3.14731 0
M  V30 7404 H 710.204 -1.65689 3.81471 0
M  V30 7405 H 708.781 -2.83996 2.41663 0
M  V30 7406 N 710.966 -1.44241 -0.634997 0
M  V30 7407 C 711.929 -1.50457 -1.72903 0
M  V30 7408 C 712.929 -0.387058 -1.56072 0
M  V30 7409 O 714.119 -0.649531 -1.61638 0
M  V30 7410 C 711.251 -1.37477 -3.1195 0
M  V30 7411 H 712.444 -2.47907 -1.68767 0
M  V30 7412 H 709.997 -1.31276 -0.84831 0
M  V30 7413 H 710.732 -0.41106 -3.21684 0
M  V30 7414 H 710.517 -2.18506 -3.25573 0
M  V30 7415 H 712.007 -1.44799 -3.91692 0
M  V30 7416 N 712.444 0.87505 -1.31075 0
M  V30 7417 C 713.86 1.15997 -1.09622 0
M  V30 7418 C 714.06 2.01036 0.136611 0
M  V30 7419 O 713.116 2.38559 0.827397 0
M  V30 7420 C 714.429 1.85702 -2.36506 0
M  V30 7421 C 715.977 1.98425 -2.42067 0
M  V30 7422 C 716.452 2.71544 -3.68819 0
M  V30 7423 N 717.943 2.79084 -3.69684 0
M  V30 7424 C 718.678 3.36259 -4.64454 0
M  V30 7425 N 718.174 3.94406 -5.69575 0
M  V30 7426 N 719.967 3.34169 -4.51982 0
M  V30 7427 H 712.118 0.308258 -2.10151 0
M  V30 7428 H 714.381 0.199145 -0.926847 0
M  V30 7429 H 714.087 1.30663 -3.26527 0
M  V30 7430 H 713.961 2.86017 -2.45915 0
M  V30 7431 H 716.348 2.5263 -1.52518 0
M  V30 7432 H 716.429 0.971682 -2.36626 0
M  V30 7433 H 716.073 2.18008 -4.58732 0
M  V30 7434 H 716.003 3.73198 -3.71525 0
M  V30 7435 H 718.494 2.3781 -2.93691 0
M  V30 7436 H 718.807 4.36129 -6.37974 0
M  V30 7437 H 717.152 3.92797 -5.73355 0
M  V30 7438 H 720.343 2.87977 -3.69035 0
M  V30 7439 H 720.516 3.78431 -5.26017 0
M  V30 7440 N 713.922 1.13953 1.08869 0
M  V30 7441 C 715.199 0.815768 1.77777 0
M  V30 7442 C 715.579 -0.691624 1.99449 0
M  V30 7443 O 714.927 -1.63085 1.60049 0
M  V30 7444 C 715.137 1.60916 3.09689 0
M  V30 7445 C 716.485 1.80549 3.84301 0
M  V30 7446 O 717.509 1.57562 3.19457 0
M  V30 7447 O 716.368 2.18946 5.00724 0
M  V30 7448 H 713.462 0.298445 0.771271 0
M  V30 7449 H 716.008 1.24446 1.15374 0
M  V30 7450 H 714.78 2.6333 2.89435 0
M  V30 7451 H 714.403 1.17578 3.79817 0
M  V30 7452 N 715.4 -1.26948 0.933913 0
M  V30 7453 C 716.816 -1.46419 0.635103 0
M  V30 7454 C 717.016 -1.84336 -0.813785 0
M  V30 7455 O 716.072 -1.96061 -1.59111 0
M  V30 7456 C 717.385 -2.55206 1.5903 0
M  V30 7457 C 718.933 -2.69062 1.5992 0
M  V30 7458 C 719.408 -3.81013 2.54152 0
M  V30 7459 N 720.899 -3.88395 2.52395 0
M  V30 7460 C 721.634 -4.74454 3.21996 0
M  V30 7461 N 721.13 -5.64954 4.00997 0
M  V30 7462 N 722.923 -4.68237 3.10983 0
M  V30 7463 H 715.074 -1.00622 1.87053 0
M  V30 7464 H 717.337 -0.503189 0.803433 0
M  V30 7465 H 717.043 -2.34153 2.62422 0
M  V30 7466 H 716.917 -3.52719 1.33677 0
M  V30 7467 H 719.304 -2.89492 0.572569 0
M  V30 7468 H 719.385 -1.72016 1.89325 0
M  V30 7469 H 719.029 -3.61336 3.5693 0
M  V30 7470 H 718.959 -4.77499 2.22041 0
M  V30 7471 H 721.45 -3.23687 1.95025 0
M  V30 7472 H 721.763 -6.27496 4.51074 0
M  V30 7473 H 720.108 -5.6473 4.05099 0
M  V30 7474 H 723.299 -3.96535 2.48753 0
M  V30 7475 H 723.472 -5.35087 3.65494 0
M  V30 7476 N 716.879 -0.700114 -1.41195 0
M  V30 7477 C 718.127 -0.232546 -2.00758 0
M  V30 7478 C 718.448 1.1734 -1.55745 0
M  V30 7479 O 717.718 1.79262 -0.790058 0
M  V30 7480 H 716.298 -0.0829845 -0.742376 0
M  V30 7481 H 718.96 -0.902289 -1.72756 0
M  V30 7482 H 718.056 -0.253521 -3.11069 0
M  V30 7483 N 718.357 1.51182 -0.445186 0
M  V30 7484 C 719.773 1.59299 -0.0978954 0
M  V30 7485 C 719.973 1.4555 1.39346 0
M  V30 7486 O 719.029 1.30073 2.16419 0
M  V30 7487 C 720.342 2.94133 -0.625005 0
M  V30 7488 C 721.89 3.07463 -0.586137 0
M  V30 7489 C 722.365 4.44832 -1.09035 0
M  V30 7490 N 723.856 4.51173 -1.04867 0
M  V30 7491 C 724.591 5.55804 -1.40959 0
M  V30 7492 N 724.087 6.67816 -1.84375 0
M  V30 7493 N 725.88 5.46205 -1.32726 0
M  V30 7494 H 718.031 1.58363 -1.41544 0
M  V30 7495 H 720.294 0.746946 -0.58376 0
M  V30 7496 H 720 3.09589 -1.66876 0
M  V30 7497 H 719.874 3.77161 -0.0542262 0
M  V30 7498 H 722.261 2.9167 0.448646 0
M  V30 7499 H 722.342 2.26255 -1.19341 0
M  V30 7500 H 721.986 4.61372 -2.12364 0
M  V30 7501 H 721.916 5.24591 -0.459539 0
M  V30 7502 H 724.407 3.70783 -0.729932 0
M  V30 7503 H 724.72 7.43683 -2.10131 0
M  V30 7504 H 723.065 6.69003 -1.88308 0
M  V30 7505 H 726.256 4.57583 -0.986678 0
M  V30 7506 H 726.429 6.27634 -1.61182 0
M  V30 7507 N 719.835 0.176821 1.56605 0
M  V30 7508 C 720.765 -0.746841 2.21234 0
M  V30 7509 C 721.746 -1.23502 1.16967 0
M  V30 7510 O 722.931 -1.28718 1.45414 0
M  V30 7511 C 720.061 -1.97407 2.8574 0
M  V30 7512 C 719.015 -1.62153 3.96094 0
M  V30 7513 C 718.341 -2.92387 4.47676 0
M  V30 7514 C 719.641 -0.845353 5.15413 0
M  V30 7515 H 721.335 -0.208116 2.98676 0
M  V30 7516 H 718.881 -0.0986594 1.43662 0
M  V30 7517 H 720.834 -2.62531 3.2963 0
M  V30 7518 H 719.558 -2.53703 2.05676 0
M  V30 7519 H 718.217 -0.993964 3.52868 0
M  V30 7520 H 717.865 -3.46734 3.64396 0
M  V30 7521 H 717.565 -2.69551 5.22127 0
M  V30 7522 H 719.089 -3.5853 4.94255 0
M  V30 7523 H 720.503 -1.39929 5.55961 0
M  V30 7524 H 718.9 -0.715814 5.95815 0
M  V30 7525 H 719.97 0.157239 4.84645 0
M  V30 7526 N 721.313 -1.57302 -0.09688 0
M  V30 7527 C 722.246 -1.97179 -1.14872 0
M  V30 7528 C 723.224 -0.844734 -1.38935 0
M  V30 7529 O 724.408 -1.10487 -1.52725 0
M  V30 7530 C 721.535 -2.28703 -2.49826 0
M  V30 7531 C 720.581 -3.51158 -2.42054 0
M  V30 7532 S 721.414 -5.0294 -1.83879 0
M  V30 7533 C 722.57 -5.37639 -3.2046 0
M  V30 7534 H 722.803 -2.86088 -0.808771 0
M  V30 7535 H 720.336 -1.51368 -0.304492 0
M  V30 7536 H 722.294 -2.47541 -3.27466 0
M  V30 7537 H 720.955 -1.40368 -2.8099 0
M  V30 7538 H 720.148 -3.70651 -3.41517 0
M  V30 7539 H 719.75 -3.31821 -1.72543 0
M  V30 7540 H 722.042 -5.34175 -4.16729 0
M  V30 7541 H 722.985 -6.38677 -3.05773 0
M  V30 7542 H 723.393 -4.651 -3.19909 0
M  V30 7543 N 722.791 0.367657 -1.53252 0
M  V30 7544 C 724.021 1.12955 -1.72988 0
M  V30 7545 C 724.429 1.8358 -0.457708 0
M  V30 7546 O 723.772 1.74336 0.579006 0
M  V30 7547 C 723.834 2.20545 -2.83902 0
M  V30 7548 C 723.498 1.69704 -4.24323 0
M  V30 7549 C 724.495 1.16223 -5.06743 0
M  V30 7550 C 722.18 1.7528 -4.70725 0
M  V30 7551 C 724.174 0.689935 -6.33655 0
M  V30 7552 C 721.861 1.27662 -5.97617 0
M  V30 7553 C 722.859 0.746083 -6.78913 0
M  V30 7554 O 722.547 0.276925 -8.03423 0
M  V30 7555 H 722.279 0.343753 -0.582074 0
M  V30 7556 H 724.833 0.433106 -2.00782 0
M  V30 7557 H 723.063 2.93676 -2.51577 0
M  V30 7558 H 724.752 2.82111 -2.91836 0
M  V30 7559 H 725.518 1.11256 -4.72067 0
M  V30 7560 H 721.397 2.15515 -4.07522 0
M  V30 7561 H 724.941 0.275164 -6.97057 0
M  V30 7562 H 720.838 1.32322 -6.31792 0
M  V30 7563 H 721.606 0.396445 -8.17539 0
M  V30 7564 N 724.269 1.44576 0.627338 0
M  V30 7565 C 725.685 1.28546 0.945938 0
M  V30 7566 C 725.885 0.224003 2.00251 0
M  V30 7567 O 724.941 -0.388817 2.49488 0
M  V30 7568 C 726.254 2.65825 1.40561 0
M  V30 7569 C 727.802 2.73566 1.52088 0
M  V30 7570 C 728.277 4.11323 2.01438 0
M  V30 7571 N 729.768 4.13519 2.08702 0
M  V30 7572 C 730.503 5.16964 2.48065 0
M  V30 7573 N 729.999 6.30768 2.86538 0
M  V30 7574 N 731.792 5.04319 2.48232 0
M  V30 7575 H 723.943 2.1228 -0.0713567 0
M  V30 7576 H 726.206 0.947503 0.0307081 0
M  V30 7577 H 725.912 3.44591 0.703539 0
M  V30 7578 H 725.786 2.92969 2.37591 0
M  V30 7579 H 728.173 1.95116 2.21391 0
M  V30 7580 H 728.254 2.50159 0.534237 0
M  V30 7581 H 727.898 4.9025 1.32729 0
M  V30 7582 H 727.828 4.32109 3.0098 0
M  V30 7583 H 730.319 3.31385 1.81638 0
M  V30 7584 H 730.632 7.0551 3.15398 0
M  V30 7585 H 728.977 6.342 2.84281 0
M  V30 7586 H 732.168 4.14465 2.17569 0
M  V30 7587 H 732.341 5.85059 2.78585 0
M  V30 7588 N 725.747 -0.868086 1.31537 0
M  V30 7589 C 726.677 -1.99131 1.21939 0
M  V30 7590 C 727.658 -1.69768 0.106166 0
M  V30 7591 O 728.843 -1.92006 0.291081 0
M  V30 7592 C 725.973 -3.34676 0.927879 0
M  V30 7593 C 724.927 -3.7835 2.00088 0
M  V30 7594 C 724.253 -5.11375 1.56203 0
M  V30 7595 C 725.553 -3.95256 3.41424 0
M  V30 7596 H 727.247 -2.07419 2.15911 0
M  V30 7597 H 724.793 -0.996569 1.03945 0
M  V30 7598 H 726.746 -4.12793 0.847327 0
M  V30 7599 H 725.47 -3.26565 -0.0475042 0
M  V30 7600 H 724.129 -3.02474 2.07135 0
M  V30 7601 H 723.777 -4.99709 0.57445 0
M  V30 7602 H 723.477 -5.41568 2.27985 0
M  V30 7603 H 725.001 -5.92001 1.49558 0
M  V30 7604 H 726.415 -4.63764 3.3704 0
M  V30 7605 H 724.812 -4.36849 4.1144 0
M  V30 7606 H 725.882 -2.98579 3.82072 0
M  V30 7607 N 727.225 -1.14528 -1.08264 0
M  V30 7608 C 728.188 -0.83632 -2.13397 0
M  V30 7609 C 729.188 0.159715 -1.60005 0
M  V30 7610 O 730.378 -0.0688098 -1.74064 0
M  V30 7611 C 727.51 -0.246973 -3.40004 0
M  V30 7612 H 728.703 -1.76808 -2.42237 0
M  V30 7613 H 726.256 -0.951509 -1.24 0
M  V30 7614 H 726.991 0.693436 -3.168 0
M  V30 7615 H 726.776 -0.964412 -3.80055 0
M  V30 7616 H 728.266 -0.0480679 -4.17572 0
M  V30 7617 N 728.703 1.26451 -0.940633 0
M  V30 7618 C 729.98 1.88947 -0.505811 0
M  V30 7619 C 730.36 1.85011 1.01657 0
M  V30 7620 O 729.708 1.30406 1.87634 0
M  V30 7621 C 729.918 3.32304 -1.06654 0
M  V30 7622 C 731.266 4.09153 -1.13486 0
M  V30 7623 O 732.29 3.41371 -1.01708 0
M  V30 7624 O 731.149 5.30369 -1.31797 0
M  V30 7625 H 728.243 0.810422 -0.164759 0
M  V30 7626 H 730.789 1.34625 -1.03316 0
M  V30 7627 H 729.561 3.29527 -2.11015 0
M  V30 7628 H 729.184 3.94164 -0.521603 0
M  V30 7629 N 730.181 0.707592 1.40822 0
M  V30 7630 C 731.111 0.0644925 2.33411 0
M  V30 7631 C 732.092 -0.754205 1.52466 0
M  V30 7632 O 733.277 -0.704749 1.80961 0
M  V30 7633 C 730.407 -0.863865 3.36385 0
M  V30 7634 C 729.361 -0.15138 4.27732 0
M  V30 7635 C 728.687 -1.19491 5.21177 0
M  V30 7636 C 729.987 0.989607 5.12839 0
M  V30 7637 H 731.681 0.837829 2.87438 0
M  V30 7638 H 729.227 0.404346 1.38207 0
M  V30 7639 H 731.18 -1.32309 4.0009 0
M  V30 7640 H 729.904 -1.66901 2.80734 0
M  V30 7641 H 728.563 0.287937 3.65467 0
M  V30 7642 H 728.211 -1.9929 4.61836 0
M  V30 7643 H 727.911 -0.723123 5.83134 0
M  V30 7644 H 729.435 -1.6544 5.8776 0
M  V30 7645 H 730.849 0.610114 5.70044 0
M  V30 7646 H 729.246 1.38926 5.83798 0
M  V30 7647 H 730.316 1.82389 4.49291 0
M  V30 7648 N 731.66 -1.50943 0.453197 0
M  V30 7649 C 732.593 -2.24742 -0.395787 0
M  V30 7650 C 733.571 -1.27316 -1.01141 0
M  V30 7651 O 734.755 -1.56494 -1.05081 0
M  V30 7652 C 731.882 -3.00999 -1.55298 0
M  V30 7653 C 730.928 -4.13207 -1.0565 0
M  V30 7654 S 731.761 -5.35498 0.01435 0
M  V30 7655 C 732.917 -6.15298 -1.14714 0
M  V30 7656 H 733.15 -2.96403 0.23071 0
M  V30 7657 H 730.683 -1.52557 0.237874 0
M  V30 7658 H 732.641 -3.45529 -2.2163 0
M  V30 7659 H 731.302 -2.28896 -2.15094 0
M  V30 7660 H 730.495 -4.65901 -1.9223 0
M  V30 7661 H 730.097 -3.7102 -0.471182 0
M  V30 7662 H 732.389 -6.45346 -2.06239 0
M  V30 7663 H 733.332 -7.05019 -0.659842 0
M  V30 7664 H 733.74 -5.47046 -1.39288 0
M  V30 7665 N 733.138 -0.185124 -1.56509 0
M  V30 7666 C 734.048 0.751908 -2.22224 0
M  V30 7667 C 735.064 1.24244 -1.21817 0
M  V30 7668 O 736.24 1.29169 -1.54523 0
M  V30 7669 C 733.305 1.95837 -2.86092 0
M  V30 7670 C 732.366 1.51337 -4.01741 0
M  V30 7671 C 731.599 2.66233 -4.62554 0
M  V30 7672 O 731.822 3.8346 -4.22273 0
M  V30 7673 O 730.756 2.39517 -5.52191 0
M  V30 7674 H 734.582 0.222304 -3.02885 0
M  V30 7675 H 732.167 0.0437141 -1.49336 0
M  V30 7676 H 734.049 2.66368 -3.26536 0
M  V30 7677 H 732.724 2.47677 -2.08417 0
M  V30 7678 H 731.631 0.777155 -3.65939 0
M  V30 7679 H 732.964 1.04175 -4.81049 0
M  V30 7680 N 734.616 1.57351 0.0885366 0
M  V30 7681 C 735.548 1.99221 1.13329 0
M  V30 7682 C 736.561 0.895705 1.35945 0
M  V30 7683 O 737.75 1.17376 1.34481 0
M  V30 7684 C 734.85 2.3016 2.48756 0
M  V30 7685 C 734.023 3.61444 2.46327 0
M  V30 7686 C 733.082 3.80244 3.63732 0
M  V30 7687 O 732.108 4.52024 3.45924 0
M  V30 7688 N 733.31 3.2132 4.8346 0
M  V30 7689 H 736.075 2.89456 0.776862 0
M  V30 7690 H 733.636 1.59505 0.277428 0
M  V30 7691 H 735.628 2.39925 3.25911 0
M  V30 7692 H 734.198 1.459 2.76464 0
M  V30 7693 H 733.418 3.62588 1.54673 0
M  V30 7694 H 734.706 4.47678 2.41789 0
M  V30 7695 H 734.104 2.63028 5.00832 0
M  V30 7696 H 732.661 3.3656 5.58185 0
M  V30 7697 N 736.094 -0.359525 1.53444 0
M  V30 7698 C 737.044 -1.441 1.7669 0
M  V30 7699 C 738.028 -1.48408 0.621599 0
M  V30 7700 O 739.22 -1.53547 0.880468 0
M  V30 7701 C 736.349 -2.81455 1.96566 0
M  V30 7702 C 735.435 -2.81601 3.17115 0
M  V30 7703 N 735.826 -2.51388 4.38905 0
M  V30 7704 C 734.124 -3.12758 3.1796 0
M  V30 7705 C 734.825 -2.59365 5.20677 0
M  V30 7706 N 733.801 -2.94328 4.57025 0
M  V30 7707 H 737.603 -1.19613 2.68458 0
M  V30 7708 H 735.117 -0.567761 1.52152 0
M  V30 7709 H 737.114 -3.59357 2.11348 0
M  V30 7710 H 735.774 -3.06901 1.06029 0
M  V30 7711 H 736.785 -2.24873 4.66533 0
M  V30 7712 H 733.462 -3.43479 2.37336 0
M  V30 7713 H 734.852 -2.39301 6.27841 0
M  V30 7714 N 737.572 -1.44907 -0.619662 0
M  V30 7715 C 738.504 -1.48652 -1.74457 0
M  V30 7716 C 739.517 -0.378596 -1.58337 0
M  V30 7717 O 740.706 -0.644987 -1.6644 0
M  V30 7718 C 737.806 -1.31568 -3.12319 0
M  V30 7719 C 736.979 -2.55816 -3.54792 0
M  V30 7720 C 736.038 -2.33465 -4.71573 0
M  V30 7721 O 735.064 -3.07015 -4.79302 0
M  V30 7722 N 736.266 -1.37254 -5.6404 0
M  V30 7723 H 739.031 -2.45632 -1.71712 0
M  V30 7724 H 736.592 -1.40492 -0.804582 0
M  V30 7725 H 738.584 -1.14445 -3.88181 0
M  V30 7726 H 737.154 -0.429095 -3.09641 0
M  V30 7727 H 736.374 -2.88137 -2.69018 0
M  V30 7728 H 737.662 -3.38431 -3.79924 0
M  V30 7729 H 737.06 -0.765309 -5.60499 0
M  V30 7730 H 735.617 -1.26106 -6.39485 0
M  V30 7731 N 739.05 0.861098 -1.31996 0
M  V30 7732 C 739.96 2.00154 -1.22374 0
M  V30 7733 C 740.976 1.73447 -0.138631 0
M  V30 7734 O 742.152 1.98191 -0.358104 0
M  V30 7735 C 739.217 3.33696 -0.940645 0
M  V30 7736 C 738.278 3.73668 -2.11355 0
M  V30 7737 C 737.511 5.00837 -1.84386 0
M  V30 7738 O 737.734 5.64996 -0.783287 0
M  V30 7739 O 736.668 5.37787 -2.70313 0
M  V30 7740 H 740.494 2.11207 -2.18233 0
M  V30 7741 H 738.079 0.990768 -1.11822 0
M  V30 7742 H 739.961 4.13756 -0.798987 0
M  V30 7743 H 738.636 3.23698 -0.0121636 0
M  V30 7744 H 737.543 2.94211 -2.31065 0
M  V30 7745 H 738.876 3.88303 -3.02459 0
M  V30 7746 N 740.528 1.15101 1.07655 0
M  V30 7747 C 741.438 0.858869 2.18313 0
M  V30 7748 C 742.454 -0.163641 1.73229 0
M  V30 7749 O 743.63 0.00969541 2.01398 0
M  V30 7750 C 740.695 0.34893 3.4494 0
M  V30 7751 C 739.756 1.43495 4.04608 0
M  V30 7752 C 738.989 0.949253 5.2519 0
M  V30 7753 O 739.212 -0.20636 5.70027 0
M  V30 7754 O 738.146 1.73161 5.76454 0
M  V30 7755 H 741.972 1.78386 2.45788 0
M  V30 7756 H 739.557 0.929876 1.16934 0
M  V30 7757 H 741.439 0.070851 4.2134 0
M  V30 7758 H 740.114 -0.548237 3.19024 0
M  V30 7759 H 739.021 1.7666 3.29761 0
M  V30 7760 H 740.354 2.30692 4.3479 0
M  V30 7761 N 742.006 -1.2595 0.947325 0
M  V30 7762 C 742.936 -2.28521 0.479604 0
M  V30 7763 C 743.917 -1.63469 -0.470293 0
M  V30 7764 O 745.102 -1.90627 -0.370824 0
M  V30 7765 C 742.232 -3.46397 -0.250289 0
M  V30 7766 C 741.186 -4.23578 0.613643 0
M  V30 7767 C 740.512 -5.34131 -0.246568 0
M  V30 7768 C 741.812 -4.86979 1.88809 0
M  V30 7769 H 743.506 -2.67895 1.33688 0
M  V30 7770 H 741.052 -1.28783 0.644274 0
M  V30 7771 H 743.005 -4.17269 -0.588576 0
M  V30 7772 H 741.729 -3.05993 -1.14175 0
M  V30 7773 H 740.388 -3.54478 0.93491 0
M  V30 7774 H 740.036 -4.89968 -1.13756 0
M  V30 7775 H 739.736 -5.86683 0.328123 0
M  V30 7776 H 741.26 -6.07839 -0.579986 0
M  V30 7777 H 742.674 -5.50034 1.61666 0
M  V30 7778 H 741.071 -5.49675 2.40784 0
M  V30 7779 H 742.141 -4.09575 2.5957 0
M  V30 7780 N 743.484 -0.715051 -1.40445 0
M  V30 7781 C 744.447 -0.0708726 -2.2909 0
M  V30 7782 C 745.447 0.687926 -1.45342 0
M  V30 7783 O 746.637 0.519908 -1.66261 0
M  V30 7784 C 743.769 0.909528 -3.28543 0
M  V30 7785 H 744.962 -0.851611 -2.87555 0
M  V30 7786 H 742.515 -0.479674 -1.48758 0
M  V30 7787 H 743.25 1.71734 -2.75096 0
M  V30 7788 H 743.035 0.368318 -3.90366 0
M  V30 7789 H 744.525 1.35744 -3.94922 0
M  V30 7790 N 744.962 1.50701 -0.461195 0
M  V30 7791 C 746.19 2.06681 0.0951756 0
M  V30 7792 C 746.605 1.32615 1.34382 0
M  V30 7793 O 745.962 0.392531 1.78229 0
M  V30 7794 C 746.013 3.59354 0.393316 0
M  V30 7795 O 745.734 4.30626 -0.805797 0
M  V30 7796 C 747.235 4.31926 0.997744 0
M  V30 7797 H 744.455 0.670995 -0.00267259 0
M  V30 7798 H 746.999 1.93991 -0.647137 0
M  V30 7799 H 745.154 3.7188 1.08555 0
M  V30 7800 H 745.568 5.21667 -0.544409 0
M  V30 7801 H 747.042 5.39756 1.15619 0
M  V30 7802 H 747.519 3.91772 1.98523 0
M  V30 7803 H 748.125 4.23905 0.344188 0
M  V30 7804 N 746.441 0.193421 1.56409 0
M  V30 7805 C 747.69 -0.445995 1.96707 0
M  V30 7806 C 748.003 -1.62876 1.08309 0
M  V30 7807 O 749.209 -2.33586 1.38383 0
M  V30 7808 C 747.665 -0.844863 3.49843 0
M  V30 7809 C 747.273 0.31352 4.46902 0
M  V30 7810 C 749.017 -1.45146 3.98915 0
M  V30 7811 C 746.924 -0.106214 5.91305 0
M  V30 7812 H 745.854 -0.170398 0.734493 0
M  V30 7813 H 748.505 0.285172 1.81271 0
M  V30 7814 H 746.887 -1.63265 3.60778 0
M  V30 7815 H 748.061 1.09103 4.47698 0
M  V30 7816 H 746.376 0.8315 4.08014 0
M  V30 7817 H 748.973 -1.77792 5.04276 0
M  V30 7818 H 749.316 -2.35734 3.43126 0
M  V30 7819 H 749.849 -0.727675 3.91088 0
M  V30 7820 H 746.588 0.765442 6.51016 0
M  V30 7821 H 746.108 -0.848623 5.93766 0
M  V30 7822 H 747.787 -0.542588 6.44721 0
M  V30 7823 N 747.919 -1.57396 -0.0801906 0
M  V30 7824 C 748.829 -2.06451 -1.11423 0
M  V30 7825 C 749.845 -0.992352 -1.42928 0
M  V30 7826 O 751.021 -1.30651 -1.53272 0
M  V30 7827 C 748.086 -2.49164 -2.41077 0
M  V30 7828 C 747.147 -3.70641 -2.16619 0
M  V30 7829 C 746.38 -4.11307 -3.40092 0
M  V30 7830 O 746.603 -3.51922 -4.48895 0
M  V30 7831 O 745.537 -5.04157 -3.288 0
M  V30 7832 H 749.363 -2.94857 -0.727519 0
M  V30 7833 H 746.948 -1.46484 -0.293743 0
M  V30 7834 H 748.83 -2.77196 -3.17396 0
M  V30 7835 H 747.505 -1.6389 -2.79145 0
M  V30 7836 H 746.412 -3.47703 -1.38033 0
M  V30 7837 H 747.745 -4.5674 -1.83437 0
M  V30 7838 N 749.397 0.351382 -1.53633 0
M  V30 7839 C 750.36 1.41403 -1.80383 0
M  V30 7840 C 751.36 1.45963 -0.674635 0
M  V30 7841 O 752.55 1.46476 -0.942895 0
M  V30 7842 C 749.682 2.80401 -1.93876 0
M  V30 7843 H 750.875 1.18951 -2.75301 0
M  V30 7844 H 748.428 0.58533 -1.44926 0
M  V30 7845 H 749.163 3.08147 -1.01074 0
M  V30 7846 H 748.948 2.78488 -2.7602 0
M  V30 7847 H 750.438 3.57329 -2.16116 0
M  V30 7848 N 750.875 1.45233 0.611969 0
M  V30 7849 C 751.805 1.5641 1.73373 0
M  V30 7850 C 752.786 0.415896 1.64937 0
M  V30 7851 O 753.971 0.638478 1.83404 0
M  V30 7852 C 751.101 1.52627 3.11965 0
M  V30 7853 C 750.055 2.66119 3.35208 0
M  V30 7854 C 749.381 2.4739 4.74028 0
M  V30 7855 C 750.681 4.08157 3.25891 0
M  V30 7856 H 752.375 2.50307 1.64277 0
M  V30 7857 H 749.921 1.20467 0.788904 0
M  V30 7858 H 751.874 1.59043 3.90235 0
M  V30 7859 H 750.598 0.552564 3.21892 0
M  V30 7860 H 749.257 2.59123 2.59327 0
M  V30 7861 H 748.905 1.48168 4.80682 0
M  V30 7862 H 748.605 3.23494 4.90536 0
M  V30 7863 H 750.129 2.55653 5.54503 0
M  V30 7864 H 751.543 4.1642 3.9404 0
M  V30 7865 H 749.94 4.84617 3.5393 0
M  V30 7866 H 751.01 4.30374 2.23397 0
M  V30 7867 N 752.353 -0.854086 1.3245 0
M  V30 7868 C 753.63 -1.59188 1.1366 0
M  V30 7869 C 754.01 -2.08917 -0.302807 0
M  V30 7870 O 753.358 -1.8795 -1.29951 0
M  V30 7871 C 753.568 -2.73757 2.16467 0
M  V30 7872 C 754.916 -3.43323 2.49829 0
M  V30 7873 O 755.94 -2.83983 2.15017 0
M  V30 7874 O 754.799 -4.50409 3.09506 0
M  V30 7875 H 751.893 -0.701092 0.438633 0
M  V30 7876 H 754.439 -0.898165 1.43983 0
M  V30 7877 H 753.211 -2.3454 3.1322 0
M  V30 7878 H 752.834 -3.50804 1.87142 0
M  V30 7879 N 753.831 -1.1567 -1.07043 0
M  V30 7880 C 754.794 -0.858906 -2.12498 0
M  V30 7881 C 755.794 0.142735 -1.60165 0
M  V30 7882 O 756.984 -0.0872678 -1.73981 0
M  V30 7883 C 754.116 -0.283021 -3.39723 0
M  V30 7884 H 755.309 -1.79368 -2.40348 0
M  V30 7885 H 752.862 -0.964608 -1.22984 0
M  V30 7886 H 753.597 0.659796 -3.17517 0
M  V30 7887 H 753.382 -1.00467 -3.7901 0
M  V30 7888 H 754.872 -0.0923543 -4.17498 0
M  V30 7889 N 755.309 1.25446 -0.953992 0
M  V30 7890 C 756.557 1.92762 -0.607227 0
M  V30 7891 C 756.878 1.7509 0.858399 0
M  V30 7892 O 756.148 1.11416 1.61132 0
M  V30 7893 H 754.728 0.713377 -0.221591 0
M  V30 7894 H 757.39 1.52625 -1.21209 0
M  V30 7895 H 756.486 3.00695 -0.835998 0
M  V30 7896 N 756.787 0.722489 1.40064 0
M  V30 7897 C 757.75 0.0830209 2.2905 0
M  V30 7898 C 758.75 -0.680208 1.45705 0
M  V30 7899 O 759.94 -0.511084 1.66534 0
M  V30 7900 C 757.072 -0.892092 3.29021 0
M  V30 7901 H 758.265 0.866848 2.87099 0
M  V30 7902 H 755.818 0.487556 1.48501 0
M  V30 7903 H 756.553 -1.70273 2.76003 0
M  V30 7904 H 756.338 -0.34761 3.90556 0
M  V30 7905 H 757.828 -1.33648 3.95636 0
M  V30 7906 N 758.265 -1.50454 0.469181 0
M  V30 7907 C 759.511 -2.02615 -0.0865971 0
M  V30 7908 C 759.844 -1.35062 -1.39542 0
M  V30 7909 O 759.119 -0.475701 -1.88593 0
M  V30 7910 C 759.402 -3.59068 -0.272385 0
M  V30 7911 C 759.255 -4.37196 1.05733 0
M  V30 7912 C 760.574 -4.2793 -1.0278 0
M  V30 7913 H 757.693 -0.736389 -0.0299977 0
M  V30 7914 H 760.335 -1.79792 0.614399 0
M  V30 7915 H 758.485 -3.78646 -0.869471 0
M  V30 7916 H 760.157 -4.29195 1.69084 0
M  V30 7917 H 758.4 -4.01013 1.65442 0
M  V30 7918 H 759.071 -5.44924 0.880997 0
M  V30 7919 H 761.547 -4.12816 -0.521718 0
M  V30 7920 H 760.423 -5.37214 -1.12659 0
M  V30 7921 H 760.684 -3.90968 -2.0639 0
M  V30 7922 N 759.743 -0.201713 -1.56304 0
M  V30 7923 C 760.973 0.440084 -2.01858 0
M  V30 7924 C 761.381 1.55279 -1.08098 0
M  V30 7925 O 760.724 1.83529 -0.0792216 0
M  V30 7926 C 760.786 1.05091 -3.43797 0
M  V30 7927 C 760.45 0.0761208 -4.56937 0
M  V30 7928 C 761.447 -0.716951 -5.14933 0
M  V30 7929 C 759.132 -0.0368815 -5.02286 0
M  V30 7930 C 761.126 -1.60993 -6.16733 0
M  V30 7931 C 758.813 -0.933409 -6.03929 0
M  V30 7932 C 759.811 -1.71849 -6.61027 0
M  V30 7933 O 759.499 -2.59998 -7.60695 0
M  V30 7934 H 759.231 0.114139 -0.666294 0
M  V30 7935 H 761.785 -0.309672 -2.03052 0
M  V30 7936 H 760.015 1.84938 -3.3961 0
M  V30 7937 H 761.704 1.59804 -3.73118 0
M  V30 7938 H 762.47 -0.63999 -4.80759 0
M  V30 7939 H 758.349 0.564034 -4.57537 0
M  V30 7940 H 761.893 -2.22315 -6.61227 0
M  V30 7941 H 757.79 -1.01146 -6.37526 0
M  V30 7942 H 758.558 -2.53851 -7.7814 0
M  V30 7943 N 761.222 1.57436 0.0718424 0
M  V30 7944 C 762.45 1.91474 0.783932 0
M  V30 7945 C 762.865 0.797669 1.71122 0
M  V30 7946 O 762.222 -0.228989 1.81058 0
M  V30 7947 C 762.273 3.25259 1.57761 0
M  V30 7948 O 761.994 4.3267 0.687596 0
M  V30 7949 C 763.495 3.7331 2.3907 0
M  V30 7950 H 760.715 0.632901 0.222885 0
M  V30 7951 H 763.259 2.04457 0.0421262 0
M  V30 7952 H 761.414 3.13804 2.27169 0
M  V30 7953 H 761.828 5.09641 1.23962 0
M  V30 7954 H 763.302 4.69551 2.90216 0
M  V30 7955 H 763.779 3.02318 3.18591 0
M  V30 7956 H 764.385 3.8771 1.74818 0
M  V30 7957 N 762.7 -0.34323 1.53817 0
M  V30 7958 C 763.63 -1.42709 1.84814 0
M  V30 7959 C 764.611 -1.5488 0.703297 0
M  V30 7960 O 765.796 -1.69082 0.955237 0
M  V30 7961 C 762.926 -2.79756 2.05801 0
M  V30 7962 C 761.88 -2.82392 3.21619 0
M  V30 7963 C 761.206 -4.22326 3.2794 0
M  V30 7964 C 762.506 -2.479 4.59721 0
M  V30 7965 H 764.2 -1.17018 2.75585 0
M  V30 7966 H 761.746 -0.561485 1.32602 0
M  V30 7967 H 763.699 -3.55627 2.26069 0
M  V30 7968 H 762.423 -3.06883 1.11761 0
M  V30 7969 H 761.082 -2.08974 3.01207 0
M  V30 7970 H 760.73 -4.46564 2.31494 0
M  V30 7971 H 760.43 -4.25001 4.05768 0
M  V30 7972 H 761.954 -5.00039 3.50419 0
M  V30 7973 H 763.368 -3.13484 4.80001 0
M  V30 7974 H 761.765 -2.61857 5.39954 0
M  V30 7975 H 762.835 -1.43087 4.63308 0
M  V30 7976 N 764.178 -1.45556 -0.604258 0
M  V30 7977 C 765.141 -1.54091 -1.69672 0
M  V30 7978 C 766.141 -0.420076 -1.55216 0
M  V30 7979 O 767.331 -0.683671 -1.60224 0
M  V30 7980 C 764.463 -1.44063 -3.08964 0
M  V30 7981 H 765.656 -2.51431 -1.6347 0
M  V30 7982 H 763.209 -1.33046 -0.820273 0
M  V30 7983 H 763.944 -0.479201 -3.2074 0
M  V30 7984 H 763.729 -2.25362 -3.20865 0
M  V30 7985 H 765.219 -1.53075 -3.88533 0
M  V30 7986 N 765.656 0.84705 -1.32902 0
M  V30 7987 C 766.586 1.97166 -1.25091 0
M  V30 7988 C 767.567 1.69578 -0.133161 0
M  V30 7989 O 768.752 1.91519 -0.321591 0
M  V30 7990 C 765.882 3.33157 -0.981006 0
M  V30 7991 C 764.836 3.75119 -2.06082 0
M  V30 7992 C 764.162 5.08826 -1.64318 0
M  V30 7993 C 765.462 3.89774 -3.47669 0
M  V30 7994 H 767.156 2.03958 -2.19184 0
M  V30 7995 H 764.702 0.979907 -1.05517 0
M  V30 7996 H 766.655 4.11393 -0.912891 0
M  V30 7997 H 765.379 3.266 -0.00445559 0
M  V30 7998 H 764.038 2.9914 -2.11921 0
M  V30 7999 H 763.686 4.98732 -0.653876 0
M  V30 8000 H 763.386 5.37873 -2.36572 0
M  V30 8001 H 764.91 5.89546 -1.58958 0
M  V30 8002 H 766.324 4.58343 -3.44376 0
M  V30 8003 H 764.721 4.30248 -4.18338 0
M  V30 8004 H 765.791 2.92463 -3.86773 0
M  V30 8005 N 767.134 1.16236 1.06428 0
M  V30 8006 C 768.081 0.86769 2.13869 0
M  V30 8007 C 769.051 -0.183298 1.65086 0
M  V30 8008 O 770.236 -0.0488002 1.90738 0
M  V30 8009 C 767.376 0.373427 3.43074 0
M  V30 8010 C 766.489 1.48708 4.05598 0
M  V30 8011 C 765.624 0.947977 5.22673 0
M  V30 8012 C 764.663 2.03793 5.77178 0
M  V30 8013 N 763.8 1.51451 6.85571 0
M  V30 8014 H 768.64 1.78781 2.38414 0
M  V30 8015 H 766.177 0.891892 1.16977 0
M  V30 8016 H 768.135 0.0685035 4.17144 0
M  V30 8017 H 766.765 -0.509752 3.1875 0
M  V30 8018 H 765.817 1.908 3.29089 0
M  V30 8019 H 767.129 2.30964 4.42105 0
M  V30 8020 H 766.283 0.596154 6.03764 0
M  V30 8021 H 765.022 0.0947081 4.87608 0
M  V30 8022 H 764.027 2.39847 4.94726 0
M  V30 8023 H 765.252 2.89514 6.14295 0
M  V30 8024 H 763.198 0.683755 6.52427 0
M  V30 8025 H 763.115 2.27325 7.21013 0
M  V30 8026 H 764.383 1.19123 7.70344 0
M  V30 8027 N 768.612 -1.24939 0.960631 0
M  V30 8028 C 769.84 -1.96881 0.636045 0
M  V30 8029 C 770.255 -1.71334 -0.793093 0
M  V30 8030 O 769.612 -0.992917 -1.53125 0
M  V30 8031 C 769.663 -3.50309 0.892533 0
M  V30 8032 O 769.384 -3.74977 2.26548 0
M  V30 8033 C 770.885 -4.39474 0.581159 0
M  V30 8034 H 768.105 -0.627399 0.237931 0
M  V30 8035 H 770.649 -1.58952 1.28664 0
M  V30 8036 H 768.804 -3.86326 0.288257 0
M  V30 8037 H 769.218 -4.69401 2.34014 0
M  V30 8038 H 770.692 -5.46008 0.811125 0
M  V30 8039 H 771.169 -4.3652 -0.48443 0
M  V30 8040 H 771.775 -4.09032 1.16502 0
M  V30 8041 N 770.09 -0.729906 -1.39679 0
M  V30 8042 C 771.04 -0.0627678 -2.27914 0
M  V30 8043 C 772.024 0.717867 -1.43998 0
M  V30 8044 O 773.216 0.587713 -1.66958 0
M  V30 8045 C 770.345 0.847564 -3.32673 0
M  V30 8046 C 769.431 0.0613515 -4.24056 0
M  V30 8047 N 769.822 -0.962863 -4.96551 0
M  V30 8048 C 768.12 0.291773 -4.45045 0
M  V30 8049 C 768.821 -1.43652 -5.63683 0
M  V30 8050 N 767.797 -0.756044 -5.38317 0
M  V30 8051 H 771.599 -0.847545 -2.81414 0
M  V30 8052 H 769.113 -0.563776 -1.523 0
M  V30 8053 H 771.11 1.34094 -3.94746 0
M  V30 8054 H 769.77 1.63156 -2.80732 0
M  V30 8055 H 770.781 -1.34409 -5.00154 0
M  V30 8056 H 767.458 1.05097 -4.04056 0
M  V30 8057 H 768.848 -2.28835 -6.31731 0
M  V30 8058 N 771.568 1.50203 -0.477153 0
M  V30 8059 C 772.814 2.02658 0.0758507 0
M  V30 8060 C 773.147 1.358 1.38824 0
M  V30 8061 O 772.422 0.485696 1.88338 0
M  V30 8062 C 772.705 3.59208 0.253339 0
M  V30 8063 C 772.558 4.36629 -1.0805 0
M  V30 8064 C 773.877 4.28469 1.00509 0
M  V30 8065 H 770.996 0.736538 0.0260921 0
M  V30 8066 H 773.638 1.79464 -0.623925 0
M  V30 8067 H 771.788 3.79101 0.849378 0
M  V30 8068 H 773.46 4.28292 -1.71358 0
M  V30 8069 H 771.703 4.0013 -1.67566 0
M  V30 8070 H 772.374 5.44449 -0.909883 0
M  V30 8071 H 774.85 4.13087 0.499818 0
M  V30 8072 H 773.726 5.37804 1.09808 0
M  V30 8073 H 773.987 3.92057 2.04314 0
M  V30 8074 N 773.046 0.209999 1.56195 0
M  V30 8075 C 774.294 -0.423974 1.97603 0
M  V30 8076 C 774.615 -1.61112 1.09854 0
M  V30 8077 O 773.885 -1.95134 0.173032 0
M  V30 8078 H 772.465 -0.159629 0.729745 0
M  V30 8079 H 775.127 0.300205 1.92574 0
M  V30 8080 H 774.223 -0.75809 3.02753 0
M  V30 8081 N 774.524 -1.57472 -0.0634922 0
M  V30 8082 C 775.457 -1.99571 -1.10664 0
M  V30 8083 C 776.435 -0.874015 -1.37112 0
M  V30 8084 O 777.619 -1.13702 -1.50347 0
M  V30 8085 C 774.746 -2.3395 -2.44918 0
M  V30 8086 C 773.792 -3.56213 -2.34551 0
M  V30 8087 S 774.625 -5.06727 -1.73169 0
M  V30 8088 C 775.781 -5.44316 -3.08984 0
M  V30 8089 H 776.014 -2.87739 -0.747905 0
M  V30 8090 H 773.547 -1.5198 -0.272316 0
M  V30 8091 H 775.505 -2.54431 -3.22141 0
M  V30 8092 H 774.166 -1.46297 -2.7795 0
M  V30 8093 H 773.359 -3.77812 -3.33578 0
M  V30 8094 H 772.961 -3.35406 -1.65466 0
M  V30 8095 H 775.253 -5.42894 -4.05305 0
M  V30 8096 H 776.196 -6.4502 -2.92156 0
M  V30 8097 H 776.604 -4.71781 -3.09972 0
M  V30 8098 N 776.003 0.335068 -1.53997 0
M  V30 8099 C 777.228 1.09859 -1.75914 0
M  V30 8100 C 777.653 1.81308 -0.500915 0
M  V30 8101 O 777.011 1.72854 0.54693 0
M  V30 8102 C 777.059 2.08122 -2.94478 0
M  V30 8103 O 776.163 3.15805 -2.65219 0
M  V30 8104 H 775.504 0.317313 -0.583274 0
M  V30 8105 H 778.034 0.382872 -2.00986 0
M  V30 8106 H 778.044 2.51195 -3.21504 0
M  V30 8107 H 776.719 1.55517 -3.8573 0
M  V30 8108 H 775.296 2.77489 -2.49107 0
M  V30 8109 N 777.481 1.45874 0.596531 0
M  V30 8110 C 778.73 1.49737 1.35135 0
M  V30 8111 C 779.043 0.147755 1.95041 0
M  V30 8112 O 780.249 0.0640984 2.71424 0
M  V30 8113 C 778.705 2.6378 2.44843 0
M  V30 8114 C 778.313 4.05102 1.91301 0
M  V30 8115 C 780.057 2.769 3.21755 0
M  V30 8116 C 777.964 5.10508 2.98557 0
M  V30 8117 H 776.894 0.557219 0.507959 0
M  V30 8118 H 779.545 1.72046 0.638147 0
M  V30 8119 H 777.927 2.34774 3.189 0
M  V30 8120 H 779.101 4.43836 1.2388 0
M  V30 8121 H 777.416 3.96528 1.271 0
M  V30 8122 H 780.013 3.52819 4.01775 0
M  V30 8123 H 780.356 1.83924 3.73467 0
M  V30 8124 H 780.889 3.05485 2.54802 0
M  V30 8125 H 777.628 6.0523 2.51749 0
M  V30 8126 H 777.148 4.76332 3.6451 0
M  V30 8127 H 778.827 5.35745 3.62748 0
M  V30 8128 N 778.959 -0.83999 1.33349 0
M  V30 8129 C 779.891 -1.95678 1.19344 0
M  V30 8130 C 780.904 -1.62322 0.124692 0
M  V30 8131 O 782.093 -1.74516 0.375012 0
M  V30 8132 C 779.193 -3.29133 0.807771 0
M  V30 8133 C 778.366 -3.9063 1.96792 0
M  V30 8134 C 777.425 -5.02438 1.56341 0
M  V30 8135 O 776.451 -5.21646 2.27759 0
M  V30 8136 N 777.653 -5.78612 0.467767 0
M  V30 8137 H 780.418 -2.08229 2.15548 0
M  V30 8138 H 777.979 -1.01566 1.26079 0
M  V30 8139 H 779.971 -4.01355 0.519282 0
M  V30 8140 H 778.541 -3.12535 -0.063555 0
M  V30 8141 H 777.761 -3.11011 2.4221 0
M  V30 8142 H 779.049 -4.2845 2.74422 0
M  V30 8143 H 778.447 -5.65559 -0.126324 0
M  V30 8144 H 777.004 -6.51362 0.238945 0
M  V30 8145 N 780.437 -1.16799 -1.0581 0
M  V30 8146 C 781.665 -0.97687 -1.82387 0
M  V30 8147 C 782.08 0.474917 -1.82729 0
M  V30 8148 O 781.437 1.3297 -1.25001 0
M  V30 8149 C 781.488 -1.50279 -3.28783 0
M  V30 8150 O 781.209 -2.89772 -3.28578 0
M  V30 8151 C 782.71 -1.35538 -4.22071 0
M  V30 8152 H 779.93 -0.345977 -0.574927 0
M  V30 8153 H 782.474 -1.54942 -1.33466 0
M  V30 8154 H 780.629 -0.972414 -3.74997 0
M  V30 8155 H 781.043 -3.13954 -4.20159 0
M  V30 8156 H 782.517 -1.7716 -5.22799 0
M  V30 8157 H 782.994 -0.301598 -4.38163 0
M  V30 8158 H 783.6 -1.87562 -3.81708 0
M  V30 8159 N 781.915 1.24427 -0.967243 0
M  V30 8160 C 783.162 1.92487 -0.62888 0
M  V30 8161 C 783.49 1.75623 0.835871 0
M  V30 8162 O 782.745 1.1027 1.61675 0
M  V30 8163 C 783.044 3.44568 -0.949096 0
M  V30 8164 C 782.71 3.816 -2.40192 0
M  V30 8165 C 781.372 3.9142 -2.799 0
M  V30 8166 C 783.724 3.99715 -3.34481 0
M  V30 8167 C 781.052 4.16771 -4.12939 0
M  V30 8168 C 783.404 4.26562 -4.67148 0
M  V30 8169 C 782.068 4.34601 -5.06634 0
M  V30 8170 H 781.338 0.704361 -0.230124 0
M  V30 8171 H 783.985 1.4772 -1.21864 0
M  V30 8172 H 782.29 3.90819 -0.277085 0
M  V30 8173 H 783.987 3.95436 -0.665692 0
M  V30 8174 H 780.577 3.74522 -2.08402 0
M  V30 8175 H 784.761 3.91531 -3.04987 0
M  V30 8176 H 780.017 4.21214 -4.43158 0
M  V30 8177 H 784.191 4.39523 -5.40178 0
M  V30 8178 H 781.818 4.53998 -6.09746 0
M  V30 8179 N 783.393 0.737304 1.3929 0
M  V30 8180 C 784.809 0.413132 1.5416 0
M  V30 8181 C 785.009 -1.07574 1.70382 0
M  V30 8182 O 784.065 -1.86185 1.70562 0
M  V30 8183 C 785.378 1.19817 2.75798 0
M  V30 8184 C 786.926 1.18662 2.89635 0
M  V30 8185 C 787.401 1.95427 4.14213 0
M  V30 8186 N 788.892 1.92605 4.21257 0
M  V30 8187 C 789.627 2.48808 5.16606 0
M  V30 8188 N 789.123 3.13659 6.1773 0
M  V30 8189 N 790.916 2.38829 5.08839 0
M  V30 8190 H 783.067 1.70243 1.27008 0
M  V30 8191 H 785.33 0.720802 0.61575 0
M  V30 8192 H 785.036 2.25179 2.70161 0
M  V30 8193 H 784.91 0.804144 3.68529 0
M  V30 8194 H 787.297 0.141112 2.94762 0
M  V30 8195 H 787.378 1.62003 1.97961 0
M  V30 8196 H 787.022 2.9998 4.09847 0
M  V30 8197 H 786.952 1.4949 5.04936 0
M  V30 8198 H 789.443 1.45362 3.48824 0
M  V30 8199 H 789.756 3.54006 6.8695 0
M  V30 8200 H 788.101 3.17749 6.1811 0
M  V30 8201 H 791.292 1.87806 4.28773 0
M  V30 8202 H 791.465 2.82929 5.82971 0
M  V30 8203 N 784.871 -1.49948 0.485112 0
M  V30 8204 C 786.101 -2.06506 -0.0621921 0
M  V30 8205 C 786.509 -1.34756 -1.32806 0
M  V30 8206 O 785.852 -0.41466 -1.78959 0
M  V30 8207 C 785.914 -3.57243 -0.402182 0
M  V30 8208 C 785.578 -4.50574 0.763671 0
M  V30 8209 C 786.575 -4.93032 1.6497 0
M  V30 8210 C 784.26 -4.9308 0.957973 0
M  V30 8211 C 786.254 -5.76718 2.71432 0
M  V30 8212 C 783.941 -5.76546 2.0258 0
M  V30 8213 C 784.939 -6.18267 2.90232 0
M  V30 8214 O 784.627 -7.00066 3.95174 0
M  V30 8215 H 784.359 -0.675925 0.0100672 0
M  V30 8216 H 786.913 -1.93922 0.677023 0
M  V30 8217 H 785.143 -3.6778 -1.19478 0
M  V30 8218 H 786.832 -3.96107 -0.886219 0
M  V30 8219 H 787.598 -4.60851 1.51134 0
M  V30 8220 H 783.477 -4.60117 0.285144 0
M  V30 8221 H 787.021 -6.09203 3.39878 0
M  V30 8222 H 782.918 -6.0814 2.16417 0
M  V30 8223 H 783.686 -7.18343 3.92333 0
M  V30 8224 N 786.349 -0.21828 -1.56081 0
M  V30 8225 C 787.596 0.414307 -1.98216 0
M  V30 8226 C 787.924 1.60005 -1.10584 0
M  V30 8227 O 787.179 1.95124 -0.150043 0
M  V30 8228 C 787.478 0.894782 -3.46018 0
M  V30 8229 C 787.144 -0.180083 -4.5054 0
M  V30 8230 C 785.806 -0.475367 -4.78846 0
M  V30 8231 C 788.158 -0.907191 -5.13244 0
M  V30 8232 C 785.486 -1.50233 -5.67139 0
M  V30 8233 C 787.838 -1.92347 -6.02649 0
M  V30 8234 C 786.502 -2.22571 -6.293 0
M  V30 8235 H 785.772 0.151606 -0.725325 0
M  V30 8236 H 788.419 -0.320113 -1.88806 0
M  V30 8237 H 786.724 1.7079 -3.52616 0
M  V30 8238 H 788.421 1.39403 -3.75989 0
M  V30 8239 H 785.011 0.06022 -4.28558 0
M  V30 8240 H 789.195 -0.692303 -4.91448 0
M  V30 8241 H 784.451 -1.74215 -5.86054 0
M  V30 8242 H 788.625 -2.49197 -6.50288 0
M  V30 8243 H 786.252 -3.0229 -6.97513 0
M  V30 8244 N 787.827 1.57504 0.0551401 0
M  V30 8245 C 788.79 2.03826 1.04821 0
M  V30 8246 C 789.79 0.937968 1.30609 0
M  V30 8247 O 790.98 1.20237 1.2605 0
M  V30 8248 C 788.112 2.43309 2.38775 0
M  V30 8249 H 789.305 2.92802 0.6486 0
M  V30 8250 H 786.858 1.53368 0.301315 0
M  V30 8251 H 787.593 1.5741 2.83536 0
M  V30 8252 H 787.378 3.23615 2.21395 0
M  V30 8253 H 788.868 2.79666 3.10124 0
M  V30 8254 N 789.305 -0.326896 1.54172 0
M  V30 8255 C 790.553 -1.06313 1.71878 0
M  V30 8256 C 790.874 -1.88652 0.493498 0
M  V30 8257 O 790.144 -1.89608 -0.492522 0
M  V30 8258 H 788.724 -0.39549 0.633716 0
M  V30 8259 H 791.386 -0.364139 1.91468 0
M  V30 8260 H 790.482 -1.73105 2.59694 0
M  V30 8261 N 790.784 -1.46188 -0.588786 0
M  V30 8262 C 792.03 -1.52396 -1.34711 0
M  V30 8263 C 792.385 -0.170846 -1.9164 0
M  V30 8264 O 791.678 0.819714 -1.7318 0
M  V30 8265 C 791.872 -2.55364 -2.50048 0
M  V30 8266 C 791.701 -4.00554 -2.04417 0
M  V30 8267 C 790.471 -4.68334 -1.89715 0
M  V30 8268 C 792.669 -4.88533 -1.60747 0
M  V30 8269 N 790.651 -5.98167 -1.38091 0
M  V30 8270 C 792.022 -6.08143 -1.20672 0
M  V30 8271 C 794.077 -4.75236 -1.4851 0
M  V30 8272 C 792.78 -7.15927 -0.695782 0
M  V30 8273 C 794.806 -5.83085 -0.988196 0
M  V30 8274 C 794.168 -7.01864 -0.59719 0
M  V30 8275 H 790.267 -0.61252 -0.486151 0
M  V30 8276 H 792.851 -1.8277 -0.671063 0
M  V30 8277 H 791.022 -2.2691 -3.15225 0
M  V30 8278 H 792.754 -2.51603 -3.16983 0
M  V30 8279 H 789.509 -4.23763 -2.11476 0
M  V30 8280 H 789.933 -6.67254 -1.14458 0
M  V30 8281 H 794.575 -3.83801 -1.7736 0
M  V30 8282 H 792.293 -8.07135 -0.394857 0
M  V30 8283 H 795.879 -5.74836 -0.897504 0
M  V30 8284 H 794.759 -7.83895 -0.218621 0
M  V30 8285 N 792.262 0.832906 -1.33792 0
M  V30 8286 C 793.502 1.60217 -1.26925 0
M  V30 8287 C 793.866 1.91323 0.161146 0
M  V30 8288 O 795.067 2.66461 0.353864 0
M  V30 8289 C 793.338 2.87314 -2.12568 0
M  V30 8290 S 794.897 3.77939 -2.22952 0
M  V30 8291 H 791.715 0.549273 -0.451464 0
M  V30 8292 H 794.317 0.984648 -1.68893 0
M  V30 8293 H 793.021 2.62444 -3.15518 0
M  V30 8294 H 792.552 3.5407 -1.71459 0
M  V30 8295 H 794.567 4.76188 -1.39496 0
M  V30 8296 N 793.74 1.17359 1.05189 0
M  V30 8297 C 795.017 0.871914 1.75091 0
M  V30 8298 C 795.397 -0.627821 2.01548 0
M  V30 8299 O 794.745 -1.5791 1.65156 0
M  V30 8300 C 794.955 1.70687 3.04413 0
M  V30 8301 C 796.303 1.92684 3.78362 0
M  V30 8302 O 797.327 1.67645 3.14282 0
M  V30 8303 O 796.186 2.34765 4.93505 0
M  V30 8304 H 793.28 0.322831 0.761386 0
M  V30 8305 H 795.826 1.28054 1.11357 0
M  V30 8306 H 794.598 2.72405 2.80911 0
M  V30 8307 H 794.221 1.29602 3.75884 0
M  V30 8308 N 795.218 -1.23913 0.973828 0
M  V30 8309 C 796.165 -2.25132 0.508366 0
M  V30 8310 C 797.135 -1.59908 -0.449307 0
M  V30 8311 O 798.32 -1.87405 -0.358313 0
M  V30 8312 C 795.46 -3.4458 -0.189422 0
M  V30 8313 C 794.573 -4.24381 0.807738 0
M  V30 8314 C 793.708 -5.31131 0.0854315 0
M  V30 8315 C 792.747 -6.02635 1.07225 0
M  V30 8316 N 791.884 -7.01073 0.379535 0
M  V30 8317 H 796.724 -2.64313 1.37632 0
M  V30 8318 H 794.261 -1.29924 0.689802 0
M  V30 8319 H 796.219 -4.12706 -0.610733 0
M  V30 8320 H 794.849 -3.06218 -1.02129 0
M  V30 8321 H 793.901 -3.55735 1.34747 0
M  V30 8322 H 795.213 -4.73778 1.55998 0
M  V30 8323 H 794.367 -6.05422 -0.393572 0
M  V30 8324 H 793.106 -4.82658 -0.699461 0
M  V30 8325 H 792.111 -5.27143 1.56207 0
M  V30 8326 H 793.336 -6.53197 1.85769 0
M  V30 8327 H 791.282 -6.54862 -0.386269 0
M  V30 8328 H 791.199 -7.48382 1.07054 0
M  V30 8329 H 792.467 -7.79462 -0.0772984 0
M  V30 8330 N 796.696 -0.74468 -1.38897 0
M  V30 8331 C 797.945 -0.293716 -1.9955 0
M  V30 8332 C 798.258 1.12831 -1.59777 0
M  V30 8333 O 799.464 1.67929 -2.13336 0
M  V30 8334 C 797.92 -0.474188 -3.56762 0
M  V30 8335 C 797.528 -1.90472 -4.05493 0
M  V30 8336 C 799.272 -0.0854875 -4.24414 0
M  V30 8337 C 797.179 -2.03423 -5.55314 0
M  V30 8338 H 796.109 -0.106066 -0.746502 0
M  V30 8339 H 798.76 -0.919948 -1.58774 0
M  V30 8340 H 797.142 0.221092 -3.95382 0
M  V30 8341 H 798.316 -2.63274 -3.78184 0
M  V30 8342 H 796.631 -2.24752 -3.50536 0
M  V30 8343 H 799.228 -0.161133 -5.34457 0
M  V30 8344 H 799.571 0.96066 -4.05064 0
M  V30 8345 H 800.104 -0.732286 -3.91002 0
M  V30 8346 H 796.843 -3.0626 -5.79556 0
M  V30 8347 H 796.363 -1.3507 -5.84394 0
M  V30 8348 H 798.042 -1.81996 -6.20876 0
M  V30 8349 N 798.174 1.49689 -0.493057 0
M  V30 8350 C 799.106 2.26867 0.326195 0
M  V30 8351 C 800.119 1.33083 0.937697 0
M  V30 8352 O 801.308 1.58427 0.822382 0
M  V30 8353 C 798.408 3.0519 1.4735 0
M  V30 8354 C 797.581 4.26491 0.970767 0
M  V30 8355 C 796.64 4.86926 1.99473 0
M  V30 8356 O 795.666 5.47221 1.56647 0
M  V30 8357 N 796.868 4.75871 3.32456 0
M  V30 8358 H 799.633 2.97816 -0.335547 0
M  V30 8359 H 797.194 1.58602 -0.325129 0
M  V30 8360 H 799.186 3.42496 2.15589 0
M  V30 8361 H 797.756 2.369 2.03954 0
M  V30 8362 H 796.976 3.94036 0.113529 0
M  V30 8363 H 798.264 5.05092 0.613156 0
M  V30 8364 H 797.662 4.2797 3.69944 0
M  V30 8365 H 796.219 5.17383 3.96431 0
M  V30 8366 N 799.652 0.226554 1.55963 0
M  V30 8367 C 800.9 -0.402991 1.98041 0
M  V30 8368 C 801.221 -1.59938 1.11557 0
M  V30 8369 O 800.491 -1.9494 0.193719 0
M  V30 8370 H 799.071 -0.15188 0.731397 0
M  V30 8371 H 801.733 0.320613 1.92245 0
M  V30 8372 H 800.829 -0.725937 3.0354 0
M  V30 8373 N 801.13 -1.57531 -0.0467866 0
M  V30 8374 C 802.355 -1.93087 -0.757123 0
M  V30 8375 C 802.78 -0.825116 -1.69037 0
M  V30 8376 O 802.138 0.220449 -1.79955 0
M  V30 8377 C 802.186 -3.27669 -1.5055 0
M  V30 8378 O 801.29 -3.18667 -2.61773 0
M  V30 8379 H 800.631 -0.631597 -0.204892 0
M  V30 8380 H 803.161 -2.04599 -0.00755232 0
M  V30 8381 H 803.171 -3.6214 -1.87932 0
M  V30 8382 H 801.846 -4.07717 -0.820931 0
M  V30 8383 H 800.423 -2.95798 -2.27064 0
M  V30 8384 N 802.608 0.318715 -1.54344 0
M  V30 8385 C 803.836 1.0755 -1.7675 0
M  V30 8386 C 804.251 1.81543 -0.518422 0
M  V30 8387 O 803.608 1.75198 0.511078 0
M  V30 8388 C 803.659 2.06983 -2.96378 0
M  V30 8389 O 803.38 1.35995 -4.16458 0
M  V30 8390 C 804.881 2.94841 -3.31034 0
M  V30 8391 H 802.101 0.319711 -0.589937 0
M  V30 8392 H 804.645 0.363369 -2.01246 0
M  V30 8393 H 802.8 2.73724 -2.74142 0
M  V30 8394 H 803.214 2.02623 -4.83781 0
M  V30 8395 H 804.688 3.60496 -4.18027 0
M  V30 8396 H 805.165 3.62199 -2.48412 0
M  V30 8397 H 805.771 2.33656 -3.55366 0
M  V30 8398 N 804.086 1.46499 0.581025 0
M  V30 8399 C 805.335 1.51162 1.3354 0
M  V30 8400 C 805.648 0.168433 1.94873 0
M  V30 8401 O 806.854 0.092883 2.71341 0
M  V30 8402 C 805.31 2.66362 2.42032 0
M  V30 8403 C 804.918 4.07109 1.86994 0
M  V30 8404 C 806.662 2.80297 3.188 0
M  V30 8405 C 804.569 5.13645 2.93125 0
M  V30 8406 H 803.499 0.562576 0.502021 0
M  V30 8407 H 806.15 1.72713 0.619863 0
M  V30 8408 H 804.532 2.38143 3.16392 0
M  V30 8409 H 805.706 4.45125 1.19166 0
M  V30 8410 H 804.021 3.97854 1.22887 0
M  V30 8411 H 806.618 3.5706 3.9801 0
M  V30 8412 H 806.961 1.87875 3.71495 0
M  V30 8413 H 807.494 3.0817 2.51547 0
M  V30 8414 H 804.233 6.07866 2.45315 0
M  V30 8415 H 803.753 4.80172 3.59437 0
M  V30 8416 H 805.432 5.39562 3.57046 0
M  V30 8417 N 805.565 -0.825799 1.34232 0
M  V30 8418 C 806.976 -1.39835 1.23706 0
M  V30 8419 C 807.327 -1.95709 -0.138649 0
M  V30 8420 O 806.452 -1.89833 -1.03886 0
M  V30 8421 C 807.047 -2.54203 2.23978 0
M  V30 8422 C 805.606 -3.07374 2.17251 0
M  V30 8423 C 804.753 -1.80232 2.10741 0
M  V30 8424 H 807.704 -0.630442 1.4564 0
M  V30 8425 H 807.725 -3.32214 1.8551 0
M  V30 8426 H 807.237 -2.13506 3.24094 0
M  V30 8427 H 805.338 -3.52583 1.20483 0
M  V30 8428 H 805.451 -3.6666 3.08379 0
M  V30 8429 H 803.815 -2.01012 1.56417 0
M  V30 8430 H 804.598 -1.41713 3.12686 0
M  V30 8431 N 807.043 -1.17915 -1.04565 0
M  V30 8432 C 808.292 -0.965816 -1.77073 0
M  V30 8433 C 808.605 0.506005 -1.88942 0
M  V30 8434 O 809.811 0.837717 -2.58253 0
M  V30 8435 C 808.267 -1.67894 -3.18339 0
M  V30 8436 C 807.875 -3.18972 -3.1458 0
M  V30 8437 C 809.619 -1.54823 -3.9526 0
M  V30 8438 C 807.526 -3.82946 -4.50674 0
M  V30 8439 H 806.456 -0.357729 -0.663736 0
M  V30 8440 H 809.107 -1.41235 -1.17153 0
M  V30 8441 H 807.489 -1.16016 -3.78624 0
M  V30 8442 H 808.663 -3.77835 -2.63776 0
M  V30 8443 H 806.978 -3.32127 -2.51159 0
M  V30 8444 H 809.575 -1.99984 -4.95894 0
M  V30 8445 H 809.918 -0.499727 -4.1329 0
M  V30 8446 H 810.451 -2.03953 -3.41538 0
M  V30 8447 H 807.19 -4.8782 -4.37849 0
M  V30 8448 H 806.71 -3.2887 -5.01602 0
M  V30 8449 H 808.389 -3.85518 -5.196 0
M  V30 8450 N 808.521 1.23394 -0.980386 0
M  V30 8451 C 809.469 2.26872 -0.513018 0
M  V30 8452 C 810.463 1.63853 0.429948 0
M  V30 8453 O 811.669 1.77417 0.303842 0
M  V30 8454 H 808.044 0.737398 -0.147473 0
M  V30 8455 H 810.015 2.63654 -1.39746 0
M  V30 8456 C 808.764 3.47289 0.168962 0
M  V30 8457 H 808.087 3.96033 -0.547546 0
M  V30 8458 H 809.527 4.21502 0.459616 0
M  V30 8459 C 807.986 3.06425 1.40019 0
M  V30 8460 O 808.516 3.14708 2.49643 0
M  V30 8461 N 806.722 2.61339 1.27084 0
M  V30 8462 H 806.269 2.54799 0.378872 0
M  V30 8463 H 806.227 2.34364 2.09573 0
M  V30 8464 N 809.999 0.752036 1.385 0
M  V30 8465 C 810.931 0.0835089 2.29048 0
M  V30 8466 C 811.944 -0.685402 1.47669 0
M  V30 8467 O 813.133 -0.526748 1.70551 0
M  V30 8468 C 810.233 -0.905772 3.26572 0
M  V30 8469 C 809.406 -0.194828 4.36966 0
M  V30 8470 C 808.465 -1.09464 5.14688 0
M  V30 8471 O 807.491 -0.565743 5.66381 0
M  V30 8472 N 808.693 -2.42287 5.2752 0
M  V30 8473 H 811.458 0.861142 2.87062 0
M  V30 8474 H 809.019 0.602689 1.50264 0
M  V30 8475 H 811.011 -1.51072 3.75446 0
M  V30 8476 H 809.581 -1.58449 2.69467 0
M  V30 8477 H 808.801 0.590812 3.89747 0
M  V30 8478 H 810.089 0.297189 5.07931 0
M  V30 8479 H 809.487 -2.87715 4.8707 0
M  V30 8480 H 808.044 -2.97836 5.79773 0
M  V30 8481 N 811.477 -1.49425 0.500989 0
M  V30 8482 C 812.44 -2.27646 -0.266416 0
M  V30 8483 C 813.44 -1.3366 -0.893961 0
M  V30 8484 O 814.63 -1.5682 -0.758495 0
M  V30 8485 C 811.762 -3.11618 -1.38227 0
M  V30 8486 H 812.955 -2.96945 0.419973 0
M  V30 8487 H 810.508 -1.5419 0.255954 0
M  V30 8488 H 811.243 -2.46885 -2.10281 0
M  V30 8489 H 811.028 -3.80721 -0.937746 0
M  V30 8490 H 812.518 -3.70698 -1.92283 0
M  V30 8491 N 812.955 -0.234822 -1.55841 0
M  V30 8492 C 814.371 0.120295 -1.59146 0
M  V30 8493 C 814.571 1.57896 -1.25184 0
M  V30 8494 O 813.627 2.32138 -0.993393 0
M  V30 8495 C 814.94 -0.217984 -2.99909 0
M  V30 8496 C 816.488 -0.161298 -3.12584 0
M  V30 8497 C 816.963 -0.473438 -4.55546 0
M  V30 8498 N 818.454 -0.423494 -4.6126 0
M  V30 8499 C 819.189 -0.638334 -5.69836 0
M  V30 8500 N 818.685 -0.915659 -6.86722 0
M  V30 8501 N 820.478 -0.569864 -5.59204 0
M  V30 8502 H 812.629 -1.18622 -1.76189 0
M  V30 8503 H 814.892 -0.476426 -0.819587 0
M  V30 8504 H 814.598 -1.2309 -3.29457 0
M  V30 8505 H 814.472 0.460707 -3.74376 0
M  V30 8506 H 816.859 0.842274 -2.82825 0
M  V30 8507 H 816.94 -0.873661 -2.40418 0
M  V30 8508 H 816.584 -1.47451 -4.86025 0
M  V30 8509 H 816.514 0.260268 -5.25956 0
M  V30 8510 H 819.005 -0.217383 -3.77274 0
M  V30 8511 H 819.318 -1.06734 -7.65394 0
M  V30 8512 H 817.663 -0.953 -6.88435 0
M  V30 8513 H 820.854 -0.35334 -4.66765 0
M  V30 8514 H 821.027 -0.740698 -6.43753 0
M  V30 8515 N 814.433 1.57553 0.0384317 0
M  V30 8516 C 815.844 1.77258 0.586211 0
M  V30 8517 C 816.195 0.864706 1.76117 0
M  V30 8518 O 815.32 0.057141 2.16325 0
M  V30 8519 C 815.915 3.21453 1.07021 0
M  V30 8520 C 814.474 3.42387 1.56358 0
M  V30 8521 C 813.621 2.72801 0.497508 0
M  V30 8522 H 816.572 1.57585 -0.187796 0
M  V30 8523 H 816.593 3.27451 1.93794 0
M  V30 8524 H 816.105 3.87505 0.214851 0
M  V30 8525 H 814.206 2.81497 2.44111 0
M  V30 8526 H 814.319 4.50968 1.61754 0
M  V30 8527 H 812.683 2.36305 0.95038 0
M  V30 8528 H 813.466 3.41529 -0.348234 0
M  V30 8529 N 815.911 -0.310526 1.54511 0
M  V30 8530 C 816.859 -1.40272 1.85544 0
M  V30 8531 C 817.853 -1.52941 0.728377 0
M  V30 8532 O 819.059 -1.55172 0.912234 0
M  V30 8533 H 815.434 -0.468355 0.588343 0
M  V30 8534 H 817.405 -1.11329 2.76855 0
M  V30 8535 C 816.154 -2.76279 2.11105 0
M  V30 8536 H 815.477 -2.67308 2.97298 0
M  V30 8537 H 816.917 -3.51736 2.36765 0
M  V30 8538 C 815.376 -3.24472 0.906618 0
M  V30 8539 O 815.906 -4.01514 0.122358 0
M  V30 8540 N 814.112 -2.81676 0.714632 0
M  V30 8541 H 813.659 -2.19143 1.35404 0
M  V30 8542 H 813.617 -3.14272 -0.089703 0
M  V30 8543 N 817.389 -1.46805 -0.573248 0
M  V30 8544 C 818.805 -1.31969 -0.897577 0
M  V30 8545 C 819.005 -0.298171 -1.99282 0
M  V30 8546 O 818.061 0.295953 -2.5076 0
M  V30 8547 C 819.374 -2.70859 -1.30598 0
M  V30 8548 C 820.922 -2.79022 -1.4183 0
M  V30 8549 C 821.397 -4.18516 -1.86033 0
M  V30 8550 N 822.888 -4.2098 -1.9321 0
M  V30 8551 C 823.623 -5.25814 -2.28707 0
M  V30 8552 N 823.119 -6.40968 -2.6293 0
M  V30 8553 N 824.912 -5.13184 -2.29343 0
M  V30 8554 H 817.063 -2.11869 0.150094 0
M  V30 8555 H 819.326 -0.947989 0.00447895 0
M  V30 8556 H 819.032 -3.46965 -0.575161 0
M  V30 8557 H 818.906 -3.01585 -2.26554 0
M  V30 8558 H 821.293 -2.03198 -2.13996 0
M  V30 8559 H 821.374 -2.51969 -0.441024 0
M  V30 8560 H 821.018 -4.94839 -1.14442 0
M  V30 8561 H 820.948 -4.42982 -2.84735 0
M  V30 8562 H 823.439 -3.37898 -1.69214 0
M  V30 8563 H 823.752 -7.16729 -2.88996 0
M  V30 8564 H 822.097 -6.44314 -2.60547 0
M  V30 8565 H 825.288 -4.22255 -2.02036 0
M  V30 8566 H 825.461 -5.94996 -2.56679 0
M  V30 8567 N 818.867 0.818669 -1.34668 0
M  V30 8568 C 819.815 1.95123 -1.26609 0
M  V30 8569 C 820.809 1.68611 -0.163348 0
M  V30 8570 O 822.015 1.76975 -0.328586 0
M  V30 8571 H 818.39 0.640871 -0.393431 0
M  V30 8572 H 820.361 1.99043 -2.22316 0
M  V30 8573 C 819.11 3.31697 -1.04272 0
M  V30 8574 H 818.433 3.52648 -1.8836 0
M  V30 8575 H 819.873 4.11382 -1.0267 0
M  V30 8576 C 818.332 3.35942 0.253858 0
M  V30 8577 O 818.862 3.81632 1.25378 0
M  V30 8578 N 817.068 2.89165 0.288447 0
M  V30 8579 H 816.615 2.52176 -0.525845 0
M  V30 8580 H 816.573 2.92387 1.15572 0
M  V30 8581 N 820.346 1.18468 1.03938 0
M  V30 8582 C 821.276 0.936389 2.13902 0
M  V30 8583 C 822.257 -0.126381 1.6963 0
M  V30 8584 O 823.442 0.0264757 1.94182 0
M  V30 8585 C 820.572 0.462729 3.44204 0
M  V30 8586 C 819.526 1.46613 4.02105 0
M  V30 8587 C 818.852 0.84994 5.27902 0
M  V30 8588 C 820.152 2.84323 4.3813 0
M  V30 8589 H 821.846 1.85602 2.3493 0
M  V30 8590 H 819.392 0.893806 1.12903 0
M  V30 8591 H 821.345 0.276382 4.20493 0
M  V30 8592 H 820.069 -0.492477 3.22866 0
M  V30 8593 H 818.728 1.63944 3.27899 0
M  V30 8594 H 818.376 -0.112493 5.02874 0
M  V30 8595 H 818.076 1.51988 5.67603 0
M  V30 8596 H 819.6 0.674152 6.06867 0
M  V30 8597 H 821.014 2.70636 5.054 0
M  V30 8598 H 819.411 3.48012 4.88884 0
M  V30 8599 H 820.481 3.37776 3.47901 0
M  V30 8600 N 821.824 -1.22873 0.986916 0
M  V30 8601 C 823.052 -1.95487 0.677663 0
M  V30 8602 C 823.467 -1.72978 -0.756572 0
M  V30 8603 O 822.824 -1.02517 -1.50985 0
M  V30 8604 C 822.875 -3.48337 0.966638 0
M  V30 8605 O 822.596 -3.70087 2.34451 0
M  V30 8606 C 824.097 -4.38142 0.674248 0
M  V30 8607 H 821.317 -0.622211 0.251185 0
M  V30 8608 H 823.861 -1.56187 1.32007 0
M  V30 8609 H 822.016 -3.85628 0.370137 0
M  V30 8610 H 822.43 -4.64332 2.43918 0
M  V30 8611 H 823.904 -5.44165 0.926759 0
M  V30 8612 H 824.381 -4.3745 -0.391728 0
M  V30 8613 H 824.987 -4.06469 1.25152 0
M  V30 8614 N 823.302 -0.75937 -1.38099 0
M  V30 8615 C 824.232 -0.151077 -2.33011 0
M  V30 8616 C 825.213 0.697099 -1.5516 0
M  V30 8617 O 826.398 0.637101 -1.83452 0
M  V30 8618 C 823.528 0.738423 -3.39359 0
M  V30 8619 C 822.482 -0.0074741 -4.27999 0
M  V30 8620 C 821.808 1.00066 -5.25253 0
M  V30 8621 C 823.108 -1.17926 -5.08813 0
M  V30 8622 H 824.802 -0.943933 -2.84131 0
M  V30 8623 H 822.348 -0.455362 -1.36611 0
M  V30 8624 H 824.301 1.17369 -4.04725 0
M  V30 8625 H 823.025 1.56366 -2.86735 0
M  V30 8626 H 821.684 -0.423379 -3.64147 0
M  V30 8627 H 821.332 1.82012 -4.68914 0
M  V30 8628 H 821.032 0.506199 -5.85416 0
M  V30 8629 H 822.556 1.43512 -5.93495 0
M  V30 8630 H 823.97 -0.821262 -5.67387 0
M  V30 8631 H 822.367 -1.60497 -5.78239 0
M  V30 8632 H 823.437 -1.98938 -4.42212 0
M  V30 8633 N 824.78 1.49157 -0.508906 0
M  V30 8634 C 826.008 2.06879 0.0293734 0
M  V30 8635 C 826.423 1.36823 1.30095 0
M  V30 8636 O 825.78 0.449034 1.7689 0
M  V30 8637 C 825.831 3.60423 0.278791 0
M  V30 8638 O 825.552 4.27844 -0.942389 0
M  V30 8639 C 827.053 4.34881 0.859825 0
M  V30 8640 H 824.273 0.67057 -0.0240184 0
M  V30 8641 H 826.817 1.91834 -0.708526 0
M  V30 8642 H 824.972 3.75145 0.966689 0
M  V30 8643 H 825.386 5.19671 -0.710097 0
M  V30 8644 H 826.86 5.43161 0.983884 0
M  V30 8645 H 827.337 3.9789 1.85958 0
M  V30 8646 H 827.943 4.24785 0.209152 0
M  V30 8647 N 826.258 0.243083 1.55714 0
M  V30 8648 C 827.674 -0.111853 1.59208 0
M  V30 8649 C 827.874 -1.5723 1.2602 0
M  V30 8650 O 826.93 -2.31608 1.00569 0
M  V30 8651 C 828.243 0.233885 2.99789 0
M  V30 8652 C 829.791 0.177873 3.12494 0
M  V30 8653 C 830.266 0.49759 4.55289 0
M  V30 8654 N 831.757 0.447949 4.61029 0
M  V30 8655 C 832.492 0.668545 5.69489 0
M  V30 8656 N 831.988 0.952064 6.86227 0
M  V30 8657 N 833.781 0.599512 5.58894 0
M  V30 8658 H 825.932 1.19554 1.75558 0
M  V30 8659 H 828.195 0.480765 0.817049 0
M  V30 8660 H 827.901 1.24835 3.28799 0
M  V30 8661 H 827.775 -0.440846 3.74615 0
M  V30 8662 H 830.162 -0.827263 2.83267 0
M  V30 8663 H 830.243 0.886399 2.39951 0
M  V30 8664 H 829.887 1.50026 4.85237 0
M  V30 8665 H 829.817 -0.232371 5.26087 0
M  V30 8666 H 832.308 0.237388 3.77154 0
M  V30 8667 H 832.621 1.10791 7.64817 0
M  V30 8668 H 830.966 0.989496 6.8792 0
M  V30 8669 H 834.157 0.378088 4.66571 0
M  V30 8670 H 834.33 0.774828 6.43351 0
M  V30 8671 N 827.736 -1.57571 -0.0300757 0
M  V30 8672 C 828.683 -2.06492 -1.03101 0
M  V30 8673 C 829.653 -0.953862 -1.3598 0
M  V30 8674 O 830.838 -1.22436 -1.46335 0
M  V30 8675 C 827.978 -2.54826 -2.32718 0
M  V30 8676 C 827.091 -3.79718 -2.06006 0
M  V30 8677 C 826.226 -4.16668 -3.29487 0
M  V30 8678 C 825.265 -5.3448 -2.98324 0
M  V30 8679 N 824.402 -5.66867 -4.14254 0
M  V30 8680 H 829.242 -2.91755 -0.606877 0
M  V30 8681 H 826.779 -1.44252 -0.288038 0
M  V30 8682 H 828.737 -2.80916 -3.08451 0
M  V30 8683 H 827.367 -1.72481 -2.72856 0
M  V30 8684 H 826.419 -3.60718 -1.20774 0
M  V30 8685 H 827.731 -4.65569 -1.79017 0
M  V30 8686 H 826.885 -4.43881 -4.13588 0
M  V30 8687 H 825.624 -3.29466 -3.59588 0
M  V30 8688 H 824.629 -5.07021 -2.12625 0
M  V30 8689 H 825.854 -6.23334 -2.69502 0
M  V30 8690 H 823.8 -4.82625 -4.44308 0
M  V30 8691 H 823.717 -6.47226 -3.90685 0
M  V30 8692 H 824.985 -5.98656 -4.99231 0
M  V30 8693 N 829.214 0.302327 -1.54673 0
M  V30 8694 C 830.124 1.39542 -1.88587 0
M  V30 8695 C 831.14 1.55543 -0.779895 0
M  V30 8696 O 832.316 1.70233 -1.07623 0
M  V30 8697 C 829.381 2.7394 -2.12504 0
M  V30 8698 C 828.442 2.66935 -3.3622 0
M  V30 8699 C 827.675 3.94923 -3.58987 0
M  V30 8700 O 827.898 4.94218 -2.84789 0
M  V30 8701 O 826.832 3.96896 -4.52501 0
M  V30 8702 H 830.658 1.13784 -2.81579 0
M  V30 8703 H 828.243 0.49827 -1.40846 0
M  V30 8704 H 830.125 3.5346 -2.29443 0
M  V30 8705 H 828.8 2.99544 -1.22698 0
M  V30 8706 H 827.707 1.85892 -3.24646 0
M  V30 8707 H 829.04 2.46283 -4.26152 0
M  V30 8708 N 830.692 1.47107 0.565454 0
M  V30 8709 C 832.103 1.47266 1.1476 0
M  V30 8710 C 832.454 0.222841 1.9493 0
M  V30 8711 O 831.579 -0.672862 2.05673 0
M  V30 8712 C 832.174 2.66822 2.08785 0
M  V30 8713 C 830.733 2.69967 2.62288 0
M  V30 8714 C 829.88 2.40236 1.38499 0
M  V30 8715 H 832.831 1.54736 0.352479 0
M  V30 8716 H 832.852 2.43323 2.92531 0
M  V30 8717 H 832.364 3.5777 1.50408 0
M  V30 8718 H 830.465 1.83137 3.24487 0
M  V30 8719 H 830.578 3.70426 3.03845 0
M  V30 8720 H 828.942 1.90648 1.68895 0
M  V30 8721 H 829.725 3.33381 0.819274 0
M  V30 8722 N 832.17 -0.811516 1.35101 0
M  V30 8723 C 833.416 -1.57068 1.28287 0
M  V30 8724 C 833.749 -1.93667 -0.143808 0
M  V30 8725 O 833.024 -1.60953 -1.09199 0
M  V30 8726 C 833.307 -2.86259 2.18466 0
M  V30 8727 C 833.16 -2.56168 3.69727 0
M  V30 8728 C 834.479 -3.87924 2.07852 0
M  V30 8729 H 831.598 -0.569869 0.467353 0
M  V30 8730 H 834.24 -0.934023 1.65457 0
M  V30 8731 H 832.39 -3.4059 1.86898 0
M  V30 8732 H 834.062 -2.08059 4.11715 0
M  V30 8733 H 832.305 -1.89436 3.90252 0
M  V30 8734 H 832.976 -3.48344 4.28206 0
M  V30 8735 H 835.452 -3.4298 2.35593 0
M  V30 8736 H 834.328 -4.76106 2.73157 0
M  V30 8737 H 834.589 -4.2923 1.05896 0
M  V30 8738 N 833.648 -1.19017 -1.03309 0
M  V30 8739 C 834.896 -0.988258 -1.76289 0
M  V30 8740 C 835.217 0.482557 -1.88935 0
M  V30 8741 O 834.487 1.34969 -1.41987 0
M  V30 8742 H 833.067 -0.36267 -0.653054 0
M  V30 8743 H 835.729 -1.49836 -1.2464 0
M  V30 8744 H 834.825 -1.43273 -2.77271 0
M  V30 8745 N 835.127 1.22348 -0.993418 0
M  V30 8746 C 836.373 1.91393 -0.67056 0
M  V30 8747 C 836.706 1.77163 0.795428 0
M  V30 8748 O 835.981 1.14084 1.57528 0
M  V30 8749 C 836.264 3.43589 -1.0779 0
M  V30 8750 C 836.117 3.66867 -2.60248 0
M  V30 8751 C 837.436 4.35545 -0.631527 0
M  V30 8752 H 834.555 0.695057 -0.24508 0
M  V30 8753 H 837.197 1.44213 -1.23703 0
M  V30 8754 H 835.347 3.83903 -0.595902 0
M  V30 8755 H 837.019 3.35954 -3.16121 0
M  V30 8756 H 835.262 3.1113 -3.02293 0
M  V30 8757 H 835.933 4.73457 -2.838 0
M  V30 8758 H 838.409 4.0275 -1.04554 0
M  V30 8759 H 837.285 5.40707 -0.944831 0
M  V30 8760 H 837.546 4.39618 0.467779 0
M  V30 8761 N 836.605 0.766683 1.37694 0
M  V30 8762 C 837.845 0.333815 2.01656 0
M  V30 8763 C 838.209 -1.06813 1.59546 0
M  V30 8764 O 839.41 -1.60084 2.15932 0
M  V30 8765 C 837.681 0.467032 3.54335 0
M  V30 8766 S 839.24 0.118679 4.38639 0
M  V30 8767 H 836.058 0.128723 0.699251 0
M  V30 8768 H 838.66 1.00018 1.67978 0
M  V30 8769 H 837.364 1.48808 3.82471 0
M  V30 8770 H 836.895 -0.216066 3.92806 0
M  V30 8771 H 838.91 -1.08746 4.84137 0
M  V30 8772 N 838.083 -1.48885 0.516809 0
M  V30 8773 C 839.331 -2.02088 -0.0220166 0
M  V30 8774 C 839.652 -1.39735 -1.36011 0
M  V30 8775 O 838.922 -0.558119 -1.87781 0
M  V30 8776 H 837.502 -0.746917 -0.0111255 0
M  V30 8777 H 840.164 -1.8274 0.677647 0
M  V30 8778 H 839.26 -3.11786 -0.140067 0
M  V30 8779 N 839.561 -0.251338 -1.55583 0
M  V30 8780 C 840.81 0.372681 -1.98227 0
M  V30 8781 C 841.123 1.58743 -1.1428 0
M  V30 8782 O 842.329 2.28289 -1.46957 0
M  V30 8783 C 840.785 0.714439 -3.52738 0
M  V30 8784 C 840.393 -0.479168 -4.4543 0
M  V30 8785 C 842.137 1.3024 -4.04027 0
M  V30 8786 C 840.044 -0.113318 -5.91291 0
M  V30 8787 H 838.974 0.14302 -0.740312 0
M  V30 8788 H 841.625 -0.352253 -1.80087 0
M  V30 8789 H 840.007 1.49762 -3.66589 0
M  V30 8790 H 841.181 -1.25644 -4.4334 0
M  V30 8791 H 839.496 -0.982359 -4.04646 0
M  V30 8792 H 842.093 1.58953 -5.10527 0
M  V30 8793 H 842.436 2.22837 -3.51638 0
M  V30 8794 H 842.969 0.582024 -3.93519 0
M  V30 8795 H 839.708 -1.00654 -6.47726 0
M  V30 8796 H 839.228 0.627666 -5.96507 0
M  V30 8797 H 840.907 0.30293 -6.4629 0
M  V30 8798 N 841.039 1.57585 0.0217189 0
M  V30 8799 C 842.288 1.88786 0.710125 0
M  V30 8800 C 842.601 0.850819 1.76126 0
M  V30 8801 O 843.807 1.0523 2.50277 0
M  V30 8802 C 842.263 3.3505 1.31413 0
M  V30 8803 C 841.871 4.47001 0.298959 0
M  V30 8804 C 843.615 3.7539 1.98199 0
M  V30 8805 C 841.522 5.8433 0.911727 0
M  V30 8806 H 840.452 0.704388 0.268986 0
M  V30 8807 H 843.103 1.83466 -0.0352638 0
M  V30 8808 H 841.485 3.35138 2.10947 0
M  V30 8809 H 842.659 4.58395 -0.470203 0
M  V30 8810 H 840.974 4.15542 -0.267222 0
M  V30 8811 H 843.571 4.75314 2.4491 0
M  V30 8812 H 843.914 3.07766 2.80331 0
M  V30 8813 H 844.447 3.77508 1.2543 0
M  V30 8814 H 841.186 6.55372 0.129659 0
M  V30 8815 H 840.706 5.76643 1.65056 0
M  V30 8816 H 842.385 6.31295 1.41688 0
M  V30 8817 N 842.517 -0.29412 1.54831 0
M  V30 8818 C 843.766 -1.02614 1.73647 0
M  V30 8819 C 844.079 -1.88193 0.533162 0
M  V30 8820 O 845.285 -2.64713 0.603275 0
M  V30 8821 C 843.741 -1.87417 3.07251 0
M  V30 8822 C 843.349 -1.06806 4.35082 0
M  V30 8823 C 845.093 -2.60176 3.35423 0
M  V30 8824 C 843 -1.90926 5.59733 0
M  V30 8825 H 841.93 -0.386834 0.647206 0
M  V30 8826 H 844.581 -0.282789 1.81308 0
M  V30 8827 H 842.963 -2.65765 2.93572 0
M  V30 8828 H 844.137 -0.330226 4.59615 0
M  V30 8829 H 842.452 -0.455979 4.13896 0
M  V30 8830 H 845.049 -3.23476 4.25755 0
M  V30 8831 H 845.392 -3.29365 2.54606 0
M  V30 8832 H 845.925 -1.88871 3.50103 0
M  V30 8833 H 842.664 -1.26194 6.43238 0
M  V30 8834 H 842.184 -2.62363 5.39375 0
M  V30 8835 H 843.863 -2.48807 5.97247 0
M  V30 8836 N 843.995 -1.47404 -0.557645 0
M  V30 8837 C 845.406 -1.47872 -1.13977 0
M  V30 8838 C 845.757 -0.233176 -1.94809 0
M  V30 8839 O 844.882 0.661945 -2.06027 0
M  V30 8840 C 845.477 -2.67926 -2.07368 0
M  V30 8841 C 844.036 -2.71354 -2.60852 0
M  V30 8842 C 843.183 -2.40967 -1.37223 0
M  V30 8843 H 846.134 -1.54921 -0.344268 0
M  V30 8844 H 846.155 -2.44871 -2.91236 0
M  V30 8845 H 845.667 -3.58562 -1.48509 0
M  V30 8846 H 843.768 -1.84855 -3.23511 0
M  V30 8847 H 843.881 -3.72032 -3.01876 0
M  V30 8848 H 842.245 -1.91541 -1.67882 0
M  V30 8849 H 843.028 -3.33811 -0.801583 0
M  V30 8850 N 845.473 0.80434 -1.35529 0
M  V30 8851 C 846.719 1.56328 -1.30127 0
M  V30 8852 C 847.074 1.92008 0.122699 0
M  V30 8853 O 846.367 1.58693 1.07364 0
M  V30 8854 C 846.561 2.85988 -2.14349 0
M  V30 8855 C 846.39 2.62977 -3.64792 0
M  V30 8856 C 845.16 2.58757 -4.34019 0
M  V30 8857 C 847.358 2.332 -4.58391 0
M  V30 8858 N 845.34 2.27487 -5.70195 0
M  V30 8859 C 846.711 2.11788 -5.82706 0
M  V30 8860 C 848.766 2.19082 -4.4711 0
M  V30 8861 C 847.469 1.77688 -6.97008 0
M  V30 8862 C 849.495 1.86378 -5.61264 0
M  V30 8863 C 848.857 1.65804 -6.84608 0
M  V30 8864 H 844.956 0.57368 -0.531428 0
M  V30 8865 H 847.54 0.941313 -1.70433 0
M  V30 8866 H 845.711 3.46077 -1.76311 0
M  V30 8867 H 847.443 3.51571 -2.00449 0
M  V30 8868 H 844.198 2.73484 -3.86656 0
M  V30 8869 H 844.622 2.1464 -6.42074 0
M  V30 8870 H 849.264 2.33686 -3.5235 0
M  V30 8871 H 846.982 1.61822 -7.91732 0
M  V30 8872 H 850.568 1.7616 -5.5449 0
M  V30 8873 H 849.448 1.40868 -7.71444 0
M  V30 8874 N 846.951 1.19563 1.02676 0
M  V30 8875 C 847.899 0.931942 2.13114 0
M  V30 8876 C 848.893 -0.113007 1.69023 0
M  V30 8877 O 850.099 0.0364298 1.79963 0
M  V30 8878 H 846.474 0.283981 0.696318 0
M  V30 8879 H 848.445 1.86991 2.32545 0
M  V30 8880 C 847.194 0.489461 3.44238 0
M  V30 8881 H 846.517 1.28508 3.78584 0
M  V30 8882 H 847.957 0.34408 4.22602 0
M  V30 8883 C 846.416 -0.796761 3.27343 0
M  V30 8884 O 846.946 -1.85767 3.56165 0
M  V30 8885 N 845.152 -0.754824 2.80626 0
M  V30 8886 H 844.699 0.108778 2.5737 0
M  V30 8887 H 844.657 -1.6158 2.69702 0
M  V30 8888 N 848.429 -1.21819 0.999893 0
M  V30 8889 C 849.659 -1.94475 0.697346 0
M  V30 8890 C 850.067 -1.73991 -0.743228 0
M  V30 8891 O 849.41 -1.04042 -1.51397 0
M  V30 8892 C 849.472 -3.47204 0.932181 0
M  V30 8893 C 849.136 -3.91432 2.3586 0
M  V30 8894 C 850.133 -3.98545 3.33853 0
M  V30 8895 C 847.818 -4.23888 2.69489 0
M  V30 8896 C 849.812 -4.37499 4.63545 0
M  V30 8897 C 847.499 -4.62519 3.99399 0
M  V30 8898 C 848.497 -4.69294 4.96238 0
M  V30 8899 O 848.185 -5.07048 6.23825 0
M  V30 8900 H 847.917 -0.625419 0.256567 0
M  V30 8901 H 850.471 -1.55728 1.33933 0
M  V30 8902 H 848.701 -3.85997 0.233025 0
M  V30 8903 H 850.39 -4.01078 0.623807 0
M  V30 8904 H 851.156 -3.73654 3.09205 0
M  V30 8905 H 847.035 -4.17815 1.94812 0
M  V30 8906 H 850.579 -4.42702 5.3913 0
M  V30 8907 H 846.476 -4.86864 4.23833 0
M  V30 8908 H 847.244 -5.25098 6.27865 0
M  V30 8909 N 849.908 -0.773975 -1.37286 0
M  V30 8910 C 851.319 -0.404433 -1.82267 0
M  V30 8911 C 851.67 1.06971 -1.64474 0
M  V30 8912 O 850.795 1.82867 -1.15708 0
M  V30 8913 C 851.39 -0.727298 -3.30902 0
M  V30 8914 C 849.949 -0.410784 -3.74152 0
M  V30 8915 C 849.096 -0.969983 -2.59782 0
M  V30 8916 H 852.047 -0.968437 -1.25726 0
M  V30 8917 H 852.068 -0.0127575 -3.80498 0
M  V30 8918 H 851.58 -1.80026 -3.4382 0
M  V30 8919 H 849.681 0.65477 -3.66802 0
M  V30 8920 H 849.794 -0.920592 -4.70172 0
M  V30 8921 H 848.158 -0.394094 -2.51633 0
M  V30 8922 H 848.941 -2.04839 -2.75492 0
M  V30 8923 N 851.386 1.48609 -0.524698 0
M  V30 8924 C 852.316 2.32366 0.229837 0
M  V30 8925 C 853.297 1.41759 0.940129 0
M  V30 8926 O 854.482 1.7065 0.926936 0
M  V30 8927 C 851.612 3.22835 1.28043 0
M  V30 8928 C 850.566 4.22424 0.688603 0
M  V30 8929 C 849.892 5.0199 1.84146 0
M  V30 8930 C 851.192 5.21217 -0.336176 0
M  V30 8931 H 852.886 2.95698 -0.469339 0
M  V30 8932 H 850.432 1.42197 -0.227156 0
M  V30 8933 H 852.385 3.80253 1.8162 0
M  V30 8934 H 851.109 2.57492 2.00912 0
M  V30 8935 H 849.768 3.66185 0.174402 0
M  V30 8936 H 849.416 4.33076 2.5584 0
M  V30 8937 H 849.116 5.69392 1.45142 0
M  V30 8938 H 850.64 5.62259 2.38111 0
M  V30 8939 H 852.054 5.7319 0.112307 0
M  V30 8940 H 850.451 5.96642 -0.643324 0
M  V30 8941 H 851.521 4.68676 -1.24381 0
M  V30 8942 N 852.864 0.259585 1.55447 0
M  V30 8943 C 853.797 -0.675542 2.17972 0
M  V30 8944 C 854.775 -1.16362 1.13572 0
M  V30 8945 O 855.959 -1.23944 1.42021 0
M  V30 8946 C 853.086 -1.91952 2.79056 0
M  V30 8947 C 852.132 -1.56824 3.96621 0
M  V30 8948 S 852.965 -0.659846 5.31419 0
M  V30 8949 C 854.121 -1.91255 5.95963 0
M  V30 8950 H 854.354 -0.144236 2.9695 0
M  V30 8951 H 851.887 0.0439448 1.54337 0
M  V30 8952 H 853.845 -2.63362 3.14882 0
M  V30 8953 H 852.506 -2.42196 2 0
M  V30 8954 H 851.699 -2.49348 4.37997 0
M  V30 8955 H 851.301 -0.934472 3.62138 0
M  V30 8956 H 853.593 -2.85834 6.14252 0
M  V30 8957 H 854.536 -1.54207 6.91105 0
M  V30 8958 H 854.944 -2.07042 5.25161 0
M  V30 8959 N 854.342 -1.57594 -0.0133615 0
M  V30 8960 C 855.275 -2.02991 -1.04259 0
M  V30 8961 C 856.253 -0.917193 -1.34262 0
M  V30 8962 O 857.437 -1.18428 -1.46653 0
M  V30 8963 C 854.564 -2.41624 -2.37351 0
M  V30 8964 C 853.61 -3.63495 -2.231 0
M  V30 8965 S 854.443 -5.1198 -1.5696 0
M  V30 8966 C 855.599 -5.5387 -2.91511 0
M  V30 8967 H 855.832 -2.89973 -0.655985 0
M  V30 8968 H 853.365 -1.52769 -0.223827 0
M  V30 8969 H 855.323 -2.64551 -3.13884 0
M  V30 8970 H 853.984 -1.55065 -2.73155 0
M  V30 8971 H 853.177 -3.88233 -3.21389 0
M  V30 8972 H 852.779 -3.405 -1.54711 0
M  V30 8973 H 855.071 -5.55514 -3.87828 0
M  V30 8974 H 856.014 -6.53988 -2.71488 0
M  V30 8975 H 856.422 -4.81404 -2.94806 0
M  V30 8976 N 855.82 0.285905 -1.54985 0
M  V30 8977 C 856.75 1.35752 -1.89983 0
M  V30 8978 C 857.731 1.52163 -0.760295 0
M  V30 8979 O 858.916 1.65421 -1.01733 0
M  V30 8980 C 856.046 2.71925 -2.16042 0
M  V30 8981 C 855 2.70261 -3.31878 0
M  V30 8982 C 854.326 4.09864 -3.43388 0
M  V30 8983 C 855.626 2.30667 -4.68604 0
M  V30 8984 H 857.32 1.06709 -2.79738 0
M  V30 8985 H 854.866 0.511884 -1.34595 0
M  V30 8986 H 856.819 3.46992 -2.39113 0
M  V30 8987 H 855.543 3.02523 -1.23074 0
M  V30 8988 H 854.202 1.97651 -3.08755 0
M  V30 8989 H 853.85 4.37664 -2.47909 0
M  V30 8990 H 853.55 4.09648 -4.21262 0
M  V30 8991 H 855.074 4.86689 -3.68736 0
M  V30 8992 H 856.488 2.95453 -4.91305 0
M  V30 8993 H 854.885 2.41637 -5.49301 0
M  V30 8994 H 855.955 1.25793 -4.68299 0
M  V30 8995 N 857.298 1.47698 0.54982 0
M  V30 8996 C 858.523 1.58579 1.33669 0
M  V30 8997 C 858.948 0.239049 1.86575 0
M  V30 8998 O 858.306 -0.786256 1.63364 0
M  V30 8999 C 858.354 2.62029 2.47736 0
M  V30 9000 O 857.458 2.17813 3.50188 0
M  V30 9001 H 856.799 0.532447 0.396732 0
M  V30 9002 H 859.329 1.93536 0.6637 0
M  V30 9003 H 859.339 2.82682 2.94202 0
M  V30 9004 H 858.014 3.59812 2.08586 0
M  V30 9005 H 856.591 2.07291 3.09976 0
M  V30 9006 N 858.776 -0.797141 1.35954 0
M  V30 9007 C 860.022 -1.55636 1.30954 0
M  V30 9008 C 860.377 -1.92071 -0.112515 0
M  V30 9009 O 859.67 -1.5926 -1.06521 0
M  V30 9010 C 859.864 -2.84847 2.15863 0
M  V30 9011 C 859.693 -2.61039 3.66182 0
M  V30 9012 C 858.463 -2.56452 4.35385 0
M  V30 9013 C 860.661 -2.30766 4.59621 0
M  V30 9014 N 858.643 -2.2446 5.71394 0
M  V30 9015 C 860.014 -2.08695 5.8382 0
M  V30 9016 C 862.069 -2.16708 4.48266 0
M  V30 9017 C 860.772 -1.73989 6.9794 0
M  V30 9018 C 862.798 -1.83399 5.62244 0
M  V30 9019 C 862.16 -1.62171 6.85478 0
M  V30 9020 H 858.259 -0.570853 0.534463 0
M  V30 9021 H 860.843 -0.932261 1.7093 0
M  V30 9022 H 859.014 -3.45137 1.78144 0
M  V30 9023 H 860.746 -3.50503 2.02311 0
M  V30 9024 H 857.501 -2.7143 3.88101 0
M  V30 9025 H 857.925 -2.11232 6.43203 0
M  V30 9026 H 862.567 -2.31814 3.53585 0
M  V30 9027 H 860.285 -1.57621 7.92579 0
M  V30 9028 H 863.871 -1.73217 5.55416 0
M  V30 9029 H 862.751 -1.36774 7.7218 0
M  V30 9030 N 860.254 -1.20106 -1.0204 0
M  V30 9031 C 861.201 -0.946468 -2.10501 0
M  V30 9032 C 862.171 0.121902 -1.65652 0
M  V30 9033 O 863.356 -0.0220244 -1.90787 0
M  V30 9034 C 860.496 -0.500499 -3.41451 0
M  V30 9035 C 859.609 -1.63659 -3.998 0
M  V30 9036 C 858.744 -1.14131 -5.18794 0
M  V30 9037 C 857.783 -2.25074 -5.69217 0
M  V30 9038 N 856.92 -1.76791 -6.79477 0
M  V30 9039 H 861.76 -1.87506 -2.31615 0
M  V30 9040 H 859.297 -0.934693 -1.13587 0
M  V30 9041 H 861.255 -0.223276 -4.16602 0
M  V30 9042 H 859.885 0.391099 -3.20422 0
M  V30 9043 H 858.937 -2.02882 -3.21781 0
M  V30 9044 H 860.249 -2.47213 -4.33229 0
M  V30 9045 H 859.403 -0.819826 -6.01135 0
M  V30 9046 H 858.142 -0.275615 -4.86921 0
M  V30 9047 H 857.147 -2.58043 -4.85483 0
M  V30 9048 H 858.372 -3.12114 -6.03127 0
M  V30 9049 H 856.318 -0.925428 -6.4944 0
M  V30 9050 H 856.235 -2.53928 -7.12079 0
M  V30 9051 H 857.503 -1.47631 -7.65392 0
M  V30 9052 N 861.732 1.21287 -1.00634 0
M  V30 9053 C 862.96 1.94385 -0.708678 0
M  V30 9054 C 863.375 1.7416 0.728957 0
M  V30 9055 O 862.732 1.04906 1.49335 0
M  V30 9056 C 862.783 3.46755 -1.02193 0
M  V30 9057 O 862.504 3.6631 -2.40309 0
M  V30 9058 C 864.005 4.37014 -0.743867 0
M  V30 9059 H 861.225 0.618136 -0.261052 0
M  V30 9060 H 863.769 1.54067 -1.34475 0
M  V30 9061 H 861.924 3.8499 -0.431441 0
M  V30 9062 H 862.338 4.60393 -2.51274 0
M  V30 9063 H 863.812 5.42621 -1.01321 0
M  V30 9064 H 864.289 4.38017 0.322084 0
M  V30 9065 H 864.895 4.04426 -1.31603 0
M  V30 9066 N 863.21 0.781244 1.36873 0
M  V30 9067 C 864.173 0.180094 2.28491 0
M  V30 9068 C 865.173 -0.617798 1.48458 0
M  V30 9069 O 866.363 -0.439991 1.68552 0
M  V30 9070 C 863.495 -0.751741 3.32508 0
M  V30 9071 H 864.688 0.987837 2.83164 0
M  V30 9072 H 862.241 0.550102 1.463 0
M  V30 9073 H 862.976 -1.58413 2.82977 0
M  V30 9074 H 862.761 -0.181649 3.91679 0
M  V30 9075 H 864.251 -1.16748 4.00949 0
M  V30 9076 N 864.689 -1.48329 0.532571 0
M  V30 9077 C 865.652 -2.2816 -0.218069 0
M  V30 9078 C 866.652 -1.35526 -0.865409 0
M  V30 9079 O 867.842 -1.58394 -0.725061 0
M  V30 9080 C 864.974 -3.1448 -1.31586 0
M  V30 9081 H 866.167 -2.95987 0.482865 0
M  V30 9082 H 863.72 -1.53612 0.288603 0
M  V30 9083 H 864.455 -2.5129 -2.04997 0
M  V30 9084 H 864.24 -3.82625 -0.856779 0
M  V30 9085 H 865.73 -3.74693 -1.84377 0
M  V30 9086 N 866.167 -0.267825 -1.55308 0
M  V30 9087 C 867.407 0.352316 -2.01341 0
M  V30 9088 C 867.771 1.53593 -1.1521 0
M  V30 9089 O 868.972 2.22521 -1.50791 0
M  V30 9090 C 867.243 0.731857 -3.49827 0
M  V30 9091 S 868.802 1.33956 -4.17853 0
M  V30 9092 H 865.62 0.109927 -0.702451 0
M  V30 9093 H 868.222 -0.387955 -1.91612 0
M  V30 9094 H 866.926 -0.138561 -4.10166 0
M  V30 9095 H 866.457 1.50378 -3.63525 0
M  V30 9096 H 868.472 2.62831 -4.20874 0
M  V30 9097 N 867.645 1.57599 0.00500368 0
M  V30 9098 C 868.575 2.11143 0.99705 0
M  V30 9099 C 869.556 1.0194 1.3617 0
M  V30 9100 O 870.741 1.29596 1.44632 0
M  V30 9101 C 867.871 2.61062 2.2905 0
M  V30 9102 C 866.825 3.74745 2.0676 0
M  V30 9103 C 866.151 4.10961 3.42075 0
M  V30 9104 C 867.451 5.02222 1.43424 0
M  V30 9105 H 869.145 2.94281 0.551251 0
M  V30 9106 H 866.691 1.41565 0.263715 0
M  V30 9107 H 868.644 2.97146 2.98801 0
M  V30 9108 H 867.368 1.75038 2.75734 0
M  V30 9109 H 866.027 3.39047 1.39436 0
M  V30 9110 H 865.675 3.21968 3.86453 0
M  V30 9111 H 865.375 4.87549 3.27979 0
M  V30 9112 H 866.899 4.49599 4.1315 0
M  V30 9113 H 868.313 5.36109 2.03125 0
M  V30 9114 H 866.71 5.83581 1.39831 0
M  V30 9115 H 867.78 4.83224 0.40285 0
M  V30 9116 N 869.123 -0.277682 1.55134 0
M  V30 9117 C 870.086 -1.32635 1.86924 0
M  V30 9118 C 871.086 -1.42578 0.743507 0
M  V30 9119 O 872.276 -1.4181 1.01171 0
M  V30 9120 C 869.408 -2.70832 2.07034 0
M  V30 9121 H 870.601 -1.0568 2.80663 0
M  V30 9122 H 868.154 -0.515517 1.47554 0
M  V30 9123 H 868.889 -3.02974 1.15661 0
M  V30 9124 H 868.674 -2.65001 2.88993 0
M  V30 9125 H 870.164 -3.46611 2.32918 0
M  V30 9126 N 870.601 -1.47988 -0.541979 0
M  V30 9127 C 871.564 -1.61148 -1.62984 0
M  V30 9128 C 872.564 -0.48553 -1.53295 0
M  V30 9129 O 873.754 -0.751012 -1.5718 0
M  V30 9130 C 870.886 -1.57038 -3.02576 0
M  V30 9131 H 872.079 -2.58138 -1.52659 0
M  V30 9132 H 869.632 -1.36405 -0.763106 0
M  V30 9133 H 870.367 -0.614807 -3.18419 0
M  V30 9134 H 870.152 -2.38769 -3.11018 0
M  V30 9135 H 871.642 -1.69416 -3.81691 0
M  V30 9136 N 872.079 0.78992 -1.36375 0
M  V30 9137 C 873.327 1.54472 -1.30319 0
M  V30 9138 C 873.648 1.94647 0.117338 0
M  V30 9139 O 872.918 1.64906 1.05748 0
M  V30 9140 H 871.498 0.572879 -0.479394 0
M  V30 9141 H 874.16 0.941245 -1.70665 0
M  V30 9142 H 873.256 2.45252 -1.93024 0
M  V30 9143 N 873.557 1.20646 1.01402 0
M  V30 9144 C 874.505 0.954493 2.12114 0
M  V30 9145 C 875.499 -0.0950737 1.69133 0
M  V30 9146 O 876.705 0.0555153 1.79914 0
M  V30 9147 H 873.08 0.29135 0.693267 0
M  V30 9148 H 875.051 1.89447 2.30548 0
M  V30 9149 C 873.8 0.525944 3.43699 0
M  V30 9150 H 873.123 1.32516 3.772 0
M  V30 9151 H 874.563 0.388883 4.22213 0
M  V30 9152 C 873.022 -0.761997 3.28169 0
M  V30 9153 O 873.552 -1.81979 3.58115 0
M  V30 9154 N 871.758 -0.725017 2.8141 0
M  V30 9155 H 871.305 0.13607 2.5724 0
M  V30 9156 H 871.263 -1.5871 2.71401 0
M  V30 9157 N 875.035 -1.20752 1.01276 0
M  V30 9158 C 876.263 -1.94006 0.718976 0
M  V30 9159 C 876.678 -1.74544 -0.719711 0
M  V30 9160 O 876.035 -1.05697 -1.48776 0
M  V30 9161 C 876.086 -3.46208 1.04031 0
M  V30 9162 O 875.807 -3.65031 2.42248 0
M  V30 9163 C 877.308 -4.36614 0.767032 0
M  V30 9164 H 874.528 -0.616743 0.264327 0
M  V30 9165 H 877.072 -1.53352 1.3529 0
M  V30 9166 H 875.227 -3.84756 0.451852 0
M  V30 9167 H 875.641 -4.59054 2.53712 0
M  V30 9168 H 877.115 -5.42076 1.04198 0
M  V30 9169 H 877.592 -4.38182 -0.298851 0
M  V30 9170 H 878.198 -4.03723 1.33746 0
M  V30 9171 N 876.513 -0.788492 -1.36457 0
M  V30 9172 C 877.759 -0.360995 -1.99561 0
M  V30 9173 C 878.092 1.06433 -1.62437 0
M  V30 9174 O 877.367 1.7352 -0.878705 0
M  V30 9175 C 877.65 -0.523735 -3.56271 0
M  V30 9176 C 877.503 -1.99268 -4.03252 0
M  V30 9177 C 878.822 0.0617908 -4.40057 0
M  V30 9178 H 875.941 -0.13264 -0.724966 0
M  V30 9179 H 878.583 -0.994659 -1.61884 0
M  V30 9180 H 876.733 0.0156979 -3.88497 0
M  V30 9181 H 878.405 -2.59311 -3.81518 0
M  V30 9182 H 876.648 -2.49561 -3.54826 0
M  V30 9183 H 877.319 -2.05752 -5.12221 0
M  V30 9184 H 879.795 -0.398674 -4.14186 0
M  V30 9185 H 878.671 -0.0821089 -5.48839 0
M  V30 9186 H 878.932 1.15381 -4.26778 0
M  V30 9187 N 877.991 1.48044 -0.54043 0
M  V30 9188 C 879.237 2.02797 -0.0101718 0
M  V30 9189 C 879.57 1.41565 1.32939 0
M  V30 9190 O 878.845 0.565139 1.86109 0
M  V30 9191 C 879.128 3.59959 0.100758 0
M  V30 9192 C 878.981 4.31654 -1.26471 0
M  V30 9193 C 880.3 4.32347 0.822455 0
M  V30 9194 H 877.419 0.736982 -0.00517052 0
M  V30 9195 H 880.061 1.76656 -0.69948 0
M  V30 9196 H 878.211 3.82363 0.687824 0
M  V30 9197 H 879.883 4.20639 -1.89369 0
M  V30 9198 H 878.126 3.92663 -1.84386 0
M  V30 9199 H 878.797 5.401 -1.13998 0
M  V30 9200 H 881.273 4.14835 0.324164 0
M  V30 9201 H 880.149 5.41978 0.868993 0
M  V30 9202 H 880.41 4.00369 1.87501 0
M  V30 9203 N 879.47 0.276058 1.55163 0
M  V30 9204 C 880.719 -0.341098 1.98795 0
M  V30 9205 C 881.032 -1.56905 1.16791 0
M  V30 9206 O 882.238 -2.25922 1.50571 0
M  V30 9207 C 880.694 -0.658231 3.5383 0
M  V30 9208 C 880.302 0.549972 4.44611 0
M  V30 9209 C 882.046 -1.23796 4.06048 0
M  V30 9210 C 879.953 0.207373 5.91036 0
M  V30 9211 H 878.883 -0.131224 0.742493 0
M  V30 9212 H 881.534 0.380858 1.79504 0
M  V30 9213 H 879.916 -1.43911 3.68925 0
M  V30 9214 H 881.09 1.32681 4.41285 0
M  V30 9215 H 879.405 1.04661 4.03032 0
M  V30 9216 H 882.002 -1.50811 5.12991 0
M  V30 9217 H 882.345 -2.17214 3.55139 0
M  V30 9218 H 882.878 -0.519345 3.94395 0
M  V30 9219 H 879.617 1.10946 6.46043 0
M  V30 9220 H 879.137 -0.532687 5.9743 0
M  V30 9221 H 880.816 -0.200072 6.46691 0
M  V30 9222 N 880.948 -1.576 0.00335426 0
M  V30 9223 C 881.895 -2.08632 -0.986975 0
M  V30 9224 C 882.865 -0.982491 -1.33927 0
M  V30 9225 O 884.05 -1.25513 -1.43705 0
M  V30 9226 C 881.19 -2.59705 -2.27261 0
M  V30 9227 C 880.303 -3.84002 -1.97905 0
M  V30 9228 C 879.438 -4.23563 -3.20574 0
M  V30 9229 C 878.477 -5.40688 -2.8692 0
M  V30 9230 N 877.614 -5.75526 -4.02136 0
M  V30 9231 H 882.454 -2.92977 -0.544855 0
M  V30 9232 H 879.991 -1.44831 -0.257376 0
M  V30 9233 H 881.949 -2.87395 -3.02423 0
M  V30 9234 H 880.579 -1.7823 -2.69136 0
M  V30 9235 H 879.631 -3.63199 -1.13096 0
M  V30 9236 H 880.943 -4.69261 -1.69102 0
M  V30 9237 H 880.097 -4.52554 -4.04079 0
M  V30 9238 H 878.836 -3.37019 -3.52518 0
M  V30 9239 H 877.841 -5.11417 -2.01822 0
M  V30 9240 H 879.066 -6.2891 -2.5622 0
M  V30 9241 H 877.012 -4.9194 -4.33971 0
M  V30 9242 H 876.929 -6.55367 -3.76869 0
M  V30 9243 H 878.197 -6.0911 -4.8642 0
M  V30 9244 N 882.426 0.269451 -1.5528 0
M  V30 9245 C 883.837 0.840233 -1.66724 0
M  V30 9246 C 884.188 1.86909 -0.596621 0
M  V30 9247 O 883.313 2.14817 0.261246 0
M  V30 9248 C 883.908 1.5308 -3.02245 0
M  V30 9249 C 882.467 2.04957 -3.15705 0
M  V30 9250 C 881.614 0.892838 -2.62533 0
M  V30 9251 H 884.565 0.0457236 -1.58634 0
M  V30 9252 H 884.586 2.39792 -2.95432 0
M  V30 9253 H 884.098 0.781741 -3.80145 0
M  V30 9254 H 882.199 2.82813 -2.42585 0
M  V30 9255 H 882.312 2.26244 -4.22316 0
M  V30 9256 H 880.676 1.28719 -2.19781 0
M  V30 9257 H 881.459 0.157229 -3.4294 0
M  V30 9258 N 883.904 1.48273 0.534124 0
M  V30 9259 C 884.867 1.6201 1.62127 0
M  V30 9260 C 885.867 0.493653 1.53035 0
M  V30 9261 O 887.057 0.759337 1.56779 0
M  V30 9262 C 884.189 1.5864 3.01739 0
M  V30 9263 H 885.382 2.58944 1.51288 0
M  V30 9264 H 882.935 1.36808 0.755861 0
M  V30 9265 H 883.67 0.631685 3.18088 0
M  V30 9266 H 883.455 2.40415 3.09747 0
M  V30 9267 H 884.945 1.71438 3.80787 0
M  V30 9268 N 885.382 -0.782676 1.36792 0
M  V30 9269 C 886.314 -1.9044 1.27536 0
M  V30 9270 C 887.327 -1.61647 0.193426 0
M  V30 9271 O 888.516 -1.72769 0.448692 0
M  V30 9272 C 885.616 -3.2541 0.946641 0
M  V30 9273 C 884.789 -3.81932 2.13183 0
M  V30 9274 C 883.848 -4.95355 1.7751 0
M  V30 9275 O 882.874 -5.11517 2.49678 0
M  V30 9276 N 884.076 -5.76108 0.712755 0
M  V30 9277 H 886.841 -1.98899 2.24186 0
M  V30 9278 H 884.402 -0.96127 1.30274 0
M  V30 9279 H 886.394 -3.98791 0.689043 0
M  V30 9280 H 884.964 -3.12524 0.0690591 0
M  V30 9281 H 884.184 -3.00459 2.55183 0
M  V30 9282 H 885.472 -4.16426 2.92347 0
M  V30 9283 H 884.87 -5.65586 0.113662 0
M  V30 9284 H 883.427 -6.49762 0.514995 0
M  V30 9285 N 886.86 -1.21182 -1.00761 0
M  V30 9286 C 888.106 -1.02898 -1.74756 0
M  V30 9287 C 888.439 0.436774 -1.89225 0
M  V30 9288 O 887.714 1.32415 -1.42466 0
M  V30 9289 C 887.997 -1.72372 -3.16164 0
M  V30 9290 C 887.85 -3.2645 -3.09435 0
M  V30 9291 C 889.169 -1.46415 -4.15031 0
M  V30 9292 H 886.288 -0.375214 -0.634337 0
M  V30 9293 H 888.93 -1.49321 -1.17487 0
M  V30 9294 H 887.08 -1.32906 -3.65059 0
M  V30 9295 H 888.752 -3.75269 -2.68274 0
M  V30 9296 H 886.995 -3.56889 -2.46603 0
M  V30 9297 H 887.666 -3.70226 -4.09435 0
M  V30 9298 H 890.142 -1.80671 -3.7483 0
M  V30 9299 H 889.018 -1.97544 -5.12121 0
M  V30 9300 H 889.279 -0.39361 -4.40344 0
M  V30 9301 N 888.338 1.20213 -1.01915 0
M  V30 9302 C 889.566 1.93622 -0.729255 0
M  V30 9303 C 889.981 1.74923 0.710444 0
M  V30 9304 O 889.338 1.06484 1.48214 0
M  V30 9305 C 889.389 3.45651 -1.05865 0
M  V30 9306 O 889.11 3.63741 -2.44181 0
M  V30 9307 C 890.611 4.36201 -0.790176 0
M  V30 9308 H 887.831 0.615333 -0.267594 0
M  V30 9309 H 890.375 1.52633 -1.36101 0
M  V30 9310 H 888.53 3.84511 -0.47225 0
M  V30 9311 H 888.944 4.57702 -2.56143 0
M  V30 9312 H 890.418 5.41516 -1.07071 0
M  V30 9313 H 890.895 4.38334 0.275609 0
M  V30 9314 H 891.501 4.03008 -1.35885 0
M  V30 9315 N 889.816 0.795718 1.36037 0
M  V30 9316 C 891.227 0.433379 1.816 0
M  V30 9317 C 891.578 -1.04341 1.66155 0
M  V30 9318 O 890.703 -1.81004 1.18603 0
M  V30 9319 C 891.298 0.77985 3.29703 0
M  V30 9320 C 889.857 0.470256 3.73451 0
M  V30 9321 C 889.004 1.01119 2.58206 0
M  V30 9322 H 891.955 0.988317 1.24169 0
M  V30 9323 H 891.976 0.0732898 3.80429 0
M  V30 9324 H 891.488 1.85473 3.40913 0
M  V30 9325 H 889.589 -0.596332 3.67797 0
M  V30 9326 H 889.702 0.995276 4.68648 0
M  V30 9327 H 888.066 0.434077 2.50974 0
M  V30 9328 H 888.849 2.09196 2.72198 0
M  V30 9329 N 891.294 -1.47756 0.548274 0
M  V30 9330 C 892.224 -2.32702 -0.19284 0
M  V30 9331 C 893.205 -1.43237 -0.917457 0
M  V30 9332 O 894.39 -1.72103 -0.89967 0
M  V30 9333 C 891.52 -3.24831 -1.22891 0
M  V30 9334 C 890.474 -4.23466 -0.621312 0
M  V30 9335 C 889.8 -5.04856 -1.76137 0
M  V30 9336 C 891.1 -5.20616 0.419055 0
M  V30 9337 H 892.794 -2.94914 0.516323 0
M  V30 9338 H 890.34 -1.41818 0.24975 0
M  V30 9339 H 892.293 -3.83094 -1.75547 0
M  V30 9340 H 891.017 -2.60656 -1.9679 0
M  V30 9341 H 889.676 -3.66416 -0.116123 0
M  V30 9342 H 889.324 -4.37091 -2.48918 0
M  V30 9343 H 889.024 -5.71629 -1.36065 0
M  V30 9344 H 890.548 -5.65976 -2.29136 0
M  V30 9345 H 891.962 -5.73296 -0.0211034 0
M  V30 9346 H 890.359 -5.95543 0.738163 0
M  V30 9347 H 891.429 -4.66638 1.31822 0
M  V30 9348 N 892.772 -0.284283 -1.55015 0
M  V30 9349 C 894 0.332948 -2.04203 0
M  V30 9350 C 894.415 1.48783 -1.16229 0
M  V30 9351 O 893.772 1.81567 -0.184323 0
M  V30 9352 C 893.823 0.805207 -3.52418 0
M  V30 9353 O 893.544 -0.303689 -4.37046 0
M  V30 9354 C 895.045 1.48931 -4.17534 0
M  V30 9355 H 892.265 0.0747447 -0.666824 0
M  V30 9356 H 894.809 -0.419048 -2.00161 0
M  V30 9357 H 892.964 1.50727 -3.56876 0
M  V30 9358 H 893.378 0.0609703 -5.24465 0
M  V30 9359 H 894.852 1.77108 -5.22816 0
M  V30 9360 H 895.329 2.42389 -3.66257 0
M  V30 9361 H 895.935 0.830867 -4.17105 0
M  V30 9362 N 894.251 1.57596 -0.0117121 0
M  V30 9363 C 895.214 2.08089 0.960816 0
M  V30 9364 C 896.214 0.992519 1.26514 0
M  V30 9365 O 897.404 1.25475 1.20837 0
M  V30 9366 C 894.536 2.53217 2.28241 0
M  V30 9367 H 895.729 2.9529 0.523829 0
M  V30 9368 H 893.282 1.54508 0.235995 0
M  V30 9369 H 894.017 1.69294 2.76604 0
M  V30 9370 H 893.802 3.32714 2.0747 0
M  V30 9371 H 895.292 2.92568 2.97983 0
M  V30 9372 N 895.729 -0.261212 1.5542 0
M  V30 9373 C 896.659 -1.32712 1.92119 0
M  V30 9374 C 897.64 -1.50934 0.784406 0
M  V30 9375 O 898.825 -1.63781 1.04352 0
M  V30 9376 C 895.955 -2.68453 2.20341 0
M  V30 9377 C 894.909 -2.64947 3.36136 0
M  V30 9378 C 894.235 -4.04349 3.49865 0
M  V30 9379 C 895.535 -2.23182 4.72215 0
M  V30 9380 H 897.229 -1.02245 2.81401 0
M  V30 9381 H 894.775 -0.490406 1.35392 0
M  V30 9382 H 896.728 -3.43144 2.44603 0
M  V30 9383 H 895.452 -3.00527 1.27871 0
M  V30 9384 H 894.111 -1.92714 3.11861 0
M  V30 9385 H 893.759 -4.33665 2.5484 0
M  V30 9386 H 893.459 -4.02895 4.27726 0
M  V30 9387 H 894.983 -4.80761 3.76432 0
M  V30 9388 H 896.397 -2.87599 4.95943 0
M  V30 9389 H 894.794 -2.32867 5.53076 0
M  V30 9390 H 895.864 -1.18327 4.70241 0
M  V30 9391 N 897.207 -1.48554 -0.526253 0
M  V30 9392 C 898.154 -1.63354 -1.63046 0
M  V30 9393 C 899.124 -0.475509 -1.59148 0
M  V30 9394 O 900.309 -0.699453 -1.77517 0
M  V30 9395 C 897.449 -1.68271 -3.01295 0
M  V30 9396 C 896.562 -2.95207 -3.15399 0
M  V30 9397 C 895.697 -2.91262 -4.4423 0
M  V30 9398 C 894.736 -4.12886 -4.51876 0
M  V30 9399 N 893.873 -4.06996 -5.721 0
M  V30 9400 H 898.713 -2.57649 -1.49737 0
M  V30 9401 H 896.25 -1.27769 -0.728938 0
M  V30 9402 H 898.208 -1.69104 -3.81392 0
M  V30 9403 H 896.838 -0.774641 -3.13367 0
M  V30 9404 H 895.89 -3.04102 -2.2853 0
M  V30 9405 H 897.202 -3.85187 -3.1691 0
M  V30 9406 H 896.356 -2.90516 -5.32621 0
M  V30 9407 H 895.095 -1.99016 -4.45246 0
M  V30 9408 H 894.1 -4.13902 -3.61891 0
M  V30 9409 H 895.325 -5.06294 -4.52596 0
M  V30 9410 H 893.271 -3.17573 -5.74006 0
M  V30 9411 H 893.188 -4.90685 -5.75121 0
M  V30 9412 H 894.456 -4.10315 -6.62768 0
M  V30 9413 N 898.685 0.775411 -1.37205 0
M  V30 9414 C 899.932 1.53384 -1.32211 0
M  V30 9415 C 900.26 1.9427 0.0944958 0
M  V30 9416 O 899.515 1.64059 1.06692 0
M  V30 9417 C 899.814 2.81377 -2.20367 0
M  V30 9418 C 899.48 2.59561 -3.68699 0
M  V30 9419 C 898.142 2.53319 -4.09124 0
M  V30 9420 C 900.494 2.39939 -4.62686 0
M  V30 9421 C 897.822 2.25442 -5.41658 0
M  V30 9422 C 900.174 2.13586 -5.95453 0
M  V30 9423 C 898.838 2.05786 -6.34987 0
M  V30 9424 H 898.108 0.561271 -0.483793 0
M  V30 9425 H 900.755 0.893466 -1.6938 0
M  V30 9426 H 899.06 3.49954 -1.76181 0
M  V30 9427 H 900.757 3.39238 -2.13819 0
M  V30 9428 H 897.347 2.6528 -3.36637 0
M  V30 9429 H 901.531 2.43753 -4.32317 0
M  V30 9430 H 896.787 2.17896 -5.71254 0
M  V30 9431 H 900.961 1.97401 -6.67837 0
M  V30 9432 H 898.588 1.83948 -7.37609 0
M  V30 9433 N 900.163 1.21714 1.00117 0
M  V30 9434 C 901.126 0.981338 2.07129 0
M  V30 9435 C 902.126 -0.0491116 1.60725 0
M  V30 9436 O 903.316 0.188555 1.73177 0
M  V30 9437 C 900.448 0.480608 3.37495 0
M  V30 9438 H 901.641 1.93075 2.29482 0
M  V30 9439 H 899.194 1.03467 1.17151 0
M  V30 9440 H 899.929 -0.473552 3.20824 0
M  V30 9441 H 899.714 1.22393 3.72508 0
M  V30 9442 H 901.204 0.33561 4.16249 0
M  V30 9443 N 901.641 -1.19671 1.02551 0
M  V30 9444 C 902.551 -2.26441 0.613329 0
M  V30 9445 C 903.567 -1.70375 -0.353339 0
M  V30 9446 O 904.743 -2.0028 -0.212064 0
M  V30 9447 C 901.808 -3.46684 -0.0329028 0
M  V30 9448 C 900.869 -4.17945 0.980837 0
M  V30 9449 C 900.102 -5.32448 0.36535 0
M  V30 9450 O 900.325 -5.64291 -0.832596 0
M  V30 9451 O 899.259 -5.92012 1.08652 0
M  V30 9452 H 903.085 -2.63932 1.50246 0
M  V30 9453 H 900.67 -1.2646 0.795502 0
M  V30 9454 H 902.552 -4.1956 -0.393395 0
M  V30 9455 H 901.227 -3.1105 -0.896089 0
M  V30 9456 H 900.134 -3.47204 1.39286 0
M  V30 9457 H 901.467 -4.57542 1.81428 0
M  V30 9458 N 903.119 -0.802921 -1.35613 0
M  V30 9459 C 904.049 -0.225131 -2.32412 0
M  V30 9460 C 905.03 0.647383 -1.57299 0
M  V30 9461 O 906.215 0.578414 -1.85386 0
M  V30 9462 C 903.345 0.630085 -3.41537 0
M  V30 9463 C 902.299 -0.143635 -4.27759 0
M  V30 9464 C 901.625 0.833046 -5.28171 0
M  V30 9465 C 902.925 -1.34054 -5.04804 0
M  V30 9466 H 904.619 -1.03385 -2.80984 0
M  V30 9467 H 902.165 -0.498593 -1.35093 0
M  V30 9468 H 904.118 1.04433 -4.08254 0
M  V30 9469 H 902.842 1.47165 -2.91565 0
M  V30 9470 H 901.501 -0.539015 -3.62616 0
M  V30 9471 H 901.149 1.67001 -4.74468 0
M  V30 9472 H 900.849 0.319697 -5.8673 0
M  V30 9473 H 902.373 1.24558 -5.97761 0
M  V30 9474 H 903.787 -1.00136 -5.64487 0
M  V30 9475 H 902.184 -1.78812 -5.72841 0
M  V30 9476 H 903.254 -2.12906 -4.35659 0
M  V30 9477 N 904.597 1.47463 -0.556102 0
M  V30 9478 C 905.825 2.06868 -0.0364585 0
M  V30 9479 C 906.24 1.40893 1.25677 0
M  V30 9480 O 905.597 0.505083 1.75371 0
M  V30 9481 C 905.648 3.61128 0.163984 0
M  V30 9482 O 905.369 4.24629 -1.07803 0
M  V30 9483 C 906.87 4.37397 0.721036 0
M  V30 9484 H 904.09 0.669466 -0.0453399 0
M  V30 9485 H 906.634 1.89482 -0.769198 0
M  V30 9486 H 904.789 3.78031 0.84685 0
M  V30 9487 H 905.203 5.17149 -0.875067 0
M  V30 9488 H 906.677 5.46016 0.810584 0
M  V30 9489 H 907.154 4.03604 1.73206 0
M  V30 9490 H 907.76 4.25236 0.073904 0
M  V30 9491 N 906.075 0.2925 1.54862 0
M  V30 9492 C 907.005 -0.580677 2.26165 0
M  V30 9493 C 907.986 -1.14485 1.25806 0
M  V30 9494 O 909.171 -1.17577 1.54562 0
M  V30 9495 C 906.301 -1.75668 2.99596 0
M  V30 9496 C 905.255 -1.32325 4.07031 0
M  V30 9497 C 904.581 -2.58374 4.68131 0
M  V30 9498 C 905.881 -0.460703 5.20264 0
M  V30 9499 H 907.575 0.0140075 2.99397 0
M  V30 9500 H 905.121 0.00817706 1.43998 0
M  V30 9501 H 907.074 -2.37356 3.48195 0
M  V30 9502 H 905.798 -2.37747 2.23928 0
M  V30 9503 H 904.457 -0.729477 3.59269 0
M  V30 9504 H 904.105 -3.18749 3.89112 0
M  V30 9505 H 903.805 -2.30078 5.40683 0
M  V30 9506 H 905.329 -3.2088 5.19489 0
M  V30 9507 H 906.743 -0.983037 5.64809 0
M  V30 9508 H 905.14 -0.271881 5.99484 0
M  V30 9509 H 906.21 0.516304 4.82143 0
M  V30 9510 N 907.553 -1.57587 0.0200696 0
M  V30 9511 C 908.5 -2.09667 -0.964791 0
M  V30 9512 C 909.47 -0.99664 -1.32877 0
M  V30 9513 O 910.655 -1.2703 -1.42366 0
M  V30 9514 C 907.795 -2.62101 -2.24493 0
M  V30 9515 C 906.908 -3.8608 -1.93821 0
M  V30 9516 C 906.043 -4.26939 -3.16064 0
M  V30 9517 C 905.082 -5.43701 -2.81169 0
M  V30 9518 N 904.219 -5.79759 -3.9601 0
M  V30 9519 H 909.059 -2.93538 -0.513751 0
M  V30 9520 H 906.596 -1.45096 -0.242 0
M  V30 9521 H 908.554 -2.90587 -2.99358 0
M  V30 9522 H 907.184 -1.81074 -2.6723 0
M  V30 9523 H 906.236 -3.64378 -1.09237 0
M  V30 9524 H 907.548 -4.71028 -1.64115 0
M  V30 9525 H 906.702 -4.56814 -3.99257 0
M  V30 9526 H 905.441 -3.40739 -3.48924 0
M  V30 9527 H 904.446 -5.13529 -1.96387 0
M  V30 9528 H 905.671 -6.31593 -2.49535 0
M  V30 9529 H 903.617 -4.96516 -4.28729 0
M  V30 9530 H 903.534 -6.59327 -3.69896 0
M  V30 9531 H 904.802 -6.14235 -4.79933 0
M  V30 9532 N 909.032 0.252966 -1.55557 0
M  V30 9533 C 909.995 1.29645 -1.8901 0
M  V30 9534 C 910.995 1.41378 -0.766096 0
M  V30 9535 O 912.185 1.40183 -1.03414 0
M  V30 9536 C 909.317 2.67504 -2.11316 0
M  V30 9537 H 910.51 1.01202 -2.82309 0
M  V30 9538 H 908.063 0.491977 -1.48355 0
M  V30 9539 H 908.798 3.01095 -1.20466 0
M  V30 9540 H 908.583 2.6037 -2.93172 0
M  V30 9541 H 910.073 3.42861 -2.38403 0
M  V30 9542 N 910.51 1.48831 0.518367 0
M  V30 9543 C 911.758 1.57128 1.27103 0
M  V30 9544 C 912.079 0.252098 1.93364 0
M  V30 9545 O 911.349 -0.727281 1.819 0
M  V30 9546 H 909.929 0.578891 0.472116 0
M  V30 9547 H 912.591 1.85361 0.602262 0
M  V30 9548 H 911.687 2.35838 2.04418 0
M  V30 9549 N 911.988 -0.768124 1.37614 0
M  V30 9550 C 913.237 -1.5221 1.32345 0
M  V30 9551 C 913.55 -1.95399 -0.0885761 0
M  V30 9552 O 914.756 -2.70216 -0.263752 0
M  V30 9553 C 913.212 -2.74872 2.32322 0
M  V30 9554 C 912.82 -2.38767 3.79071 0
M  V30 9555 C 914.564 -3.52805 2.36069 0
M  V30 9556 C 912.471 -3.57953 4.7077 0
M  V30 9557 H 911.401 -0.571461 0.491883 0
M  V30 9558 H 914.052 -0.841004 1.63093 0
M  V30 9559 H 912.434 -3.44889 1.94596 0
M  V30 9560 H 913.608 -1.7651 4.25654 0
M  V30 9561 H 911.923 -1.74 3.78303 0
M  V30 9562 H 914.52 -4.41397 3.01782 0
M  V30 9563 H 914.863 -3.92925 1.37535 0
M  V30 9564 H 915.396 -2.89788 2.72521 0
M  V30 9565 H 912.135 -3.22911 5.70446 0
M  V30 9566 H 911.655 -4.19302 4.28889 0
M  V30 9567 H 913.334 -4.2472 4.8808 0
M  V30 9568 N 913.466 -1.22244 -0.994698 0
M  V30 9569 C 914.877 -1.043 -1.5485 0
M  V30 9570 C 915.228 0.394102 -1.92201 0
M  V30 9571 O 914.353 1.27883 -1.74571 0
M  V30 9572 C 914.948 -1.88708 -2.8138 0
M  V30 9573 C 913.507 -1.75067 -3.3321 0
M  V30 9574 C 912.654 -1.85286 -2.06312 0
M  V30 9575 H 915.605 -1.36115 -0.815988 0
M  V30 9576 H 915.626 -1.40342 -3.53673 0
M  V30 9577 H 915.138 -2.93296 -2.54164 0
M  V30 9578 H 913.239 -0.732047 -3.65338 0
M  V30 9579 H 913.352 -2.57632 -4.03934 0
M  V30 9580 H 911.716 -1.28706 -2.19788 0
M  V30 9581 H 912.499 -2.91401 -1.81494 0
M  V30 9582 N 914.944 1.19125 -1.03184 0
M  V30 9583 C 915.891 2.2245 -0.6152 0
M  V30 9584 C 916.861 1.61869 0.372502 0
M  V30 9585 O 918.046 1.88901 0.268491 0
M  V30 9586 C 915.186 3.45091 0.0248027 0
M  V30 9587 C 914.299 4.20044 -1.0093 0
M  V30 9588 C 913.434 5.30119 -0.338744 0
M  V30 9589 C 912.473 5.96833 -1.35855 0
M  V30 9590 N 911.61 6.98464 -0.713594 0
M  V30 9591 H 916.45 2.57445 -1.50086 0
M  V30 9592 H 913.987 1.26485 -0.751005 0
M  V30 9593 H 915.945 4.15149 0.413131 0
M  V30 9594 H 914.575 3.10742 0.874028 0
M  V30 9595 H 913.627 3.48901 -1.51566 0
M  V30 9596 H 914.939 4.65796 -1.78425 0
M  V30 9597 H 914.093 6.0661 0.104269 0
M  V30 9598 H 912.832 4.85446 0.468382 0
M  V30 9599 H 911.837 5.1909 -1.81179 0
M  V30 9600 H 913.062 6.4359 -2.16722 0
M  V30 9601 H 911.008 6.55959 0.0733863 0
M  V30 9602 H 910.925 7.42422 -1.42638 0
M  V30 9603 H 912.193 7.78943 -0.294681 0
M  V30 9604 N 916.422 0.810101 1.35185 0
M  V30 9605 C 917.67 0.391343 1.98275 0
M  V30 9606 C 917.991 -1.04592 1.64577 0
M  V30 9607 O 917.261 -1.72417 0.93001 0
M  V30 9608 H 915.841 0.141715 0.733434 0
M  V30 9609 H 918.503 1.03672 1.6504 0
M  V30 9610 H 917.599 0.49991 3.0807 0
M  V30 9611 N 917.9 -1.47166 0.563914 0
M  V30 9612 C 919.146 -2.02756 0.0424338 0
M  V30 9613 C 919.479 -1.43662 -1.3067 0
M  V30 9614 O 918.754 -0.594676 -1.85186 0
M  V30 9615 C 919.037 -3.60074 -0.0434793 0
M  V30 9616 C 918.89 -4.29587 1.33323 0
M  V30 9617 C 920.209 -4.336 -0.753568 0
M  V30 9618 H 917.328 -0.736806 0.0168946 0
M  V30 9619 H 919.97 -1.75521 0.727496 0
M  V30 9620 H 918.12 -3.83409 -0.626906 0
M  V30 9621 H 919.792 -4.17573 1.96037 0
M  V30 9622 H 918.035 -3.8968 1.9061 0
M  V30 9623 H 918.706 -5.38218 1.22576 0
M  V30 9624 H 921.182 -4.15299 -0.258126 0
M  V30 9625 H 920.058 -5.43291 -0.782659 0
M  V30 9626 H 920.319 -4.03302 -1.81108 0
M  V30 9627 N 919.378 -0.300708 -1.54705 0
M  V30 9628 C 920.624 0.309111 -2.0043 0
M  V30 9629 C 920.957 1.53562 -1.1888 0
M  V30 9630 O 920.232 1.92683 -0.265205 0
M  V30 9631 C 920.515 0.665995 -3.53888 0
M  V30 9632 C 920.368 -0.56963 -4.46178 0
M  V30 9633 C 921.687 1.49262 -4.14016 0
M  V30 9634 H 918.806 0.110878 -0.728612 0
M  V30 9635 H 921.448 -0.412748 -1.85463 0
M  V30 9636 H 919.598 1.281 -3.66773 0
M  V30 9637 H 921.27 -1.20811 -4.45199 0
M  V30 9638 H 919.513 -1.20292 -4.16788 0
M  V30 9639 H 920.184 -0.275785 -5.51311 0
M  V30 9640 H 922.66 0.972979 -4.04564 0
M  V30 9641 H 921.536 1.71111 -5.21548 0
M  V30 9642 H 921.797 2.48174 -3.65872 0
M  V30 9643 N 920.856 1.57574 -0.0284266 0
M  V30 9644 C 921.804 2.11332 0.971675 0
M  V30 9645 C 922.798 1.03974 1.33738 0
M  V30 9646 O 924.004 1.22409 1.31969 0
M  V30 9647 H 920.379 0.675174 0.331125 0
M  V30 9648 H 922.35 2.943 0.49296 0
M  V30 9649 C 921.099 2.65496 2.24516 0
M  V30 9650 H 920.422 3.47753 1.9725 0
M  V30 9651 H 921.862 3.06757 2.92705 0
M  V30 9652 C 920.321 1.58207 2.97443 0
M  V30 9653 O 920.851 0.981496 3.89525 0
M  V30 9654 N 919.057 1.30269 2.59766 0
M  V30 9655 H 918.604 1.79294 1.84963 0
M  V30 9656 H 918.562 0.587085 3.0887 0
M  V30 9657 N 922.334 -0.244713 1.55689 0
M  V30 9658 C 923.58 -0.973886 1.77886 0
M  V30 9659 C 923.913 -1.8489 0.594071 0
M  V30 9660 O 923.188 -1.90182 -0.407564 0
M  V30 9661 C 923.471 -1.83255 3.09983 0
M  V30 9662 C 923.324 -0.985571 4.3887 0
M  V30 9663 C 924.643 -2.81464 3.38329 0
M  V30 9664 H 921.762 -0.352629 0.647165 0
M  V30 9665 H 924.404 -0.244243 1.88424 0
M  V30 9666 H 922.554 -2.45464 3.01131 0
M  V30 9667 H 924.226 -0.382005 4.59716 0
M  V30 9668 H 922.469 -0.29002 4.32829 0
M  V30 9669 H 923.14 -1.62022 5.27686 0
M  V30 9670 H 925.616 -2.2939 3.47159 0
M  V30 9671 H 924.492 -3.38663 4.31971 0
M  V30 9672 H 924.753 -3.58037 2.59349 0
M  V30 9673 N 923.813 -1.49104 -0.510467 0
M  V30 9674 C 924.743 -1.67981 -1.62187 0
M  V30 9675 C 925.724 -0.528529 -1.6168 0
M  V30 9676 O 926.909 -0.763305 -1.7857 0
M  V30 9677 C 924.039 -1.73755 -3.0071 0
M  V30 9678 C 922.993 -2.88579 -3.1608 0
M  V30 9679 C 922.319 -2.79457 -4.5586 0
M  V30 9680 C 923.619 -4.29638 -2.97 0
M  V30 9681 H 925.313 -2.61029 -1.46643 0
M  V30 9682 H 922.859 -1.25615 -0.704042 0
M  V30 9683 H 924.812 -1.85548 -3.78352 0
M  V30 9684 H 923.536 -0.772996 -3.17321 0
M  V30 9685 H 922.195 -2.76372 -2.40861 0
M  V30 9686 H 921.843 -1.80929 -4.69333 0
M  V30 9687 H 921.543 -3.56518 -4.67086 0
M  V30 9688 H 923.067 -2.93245 -5.35574 0
M  V30 9689 H 924.481 -4.42575 -3.64418 0
M  V30 9690 H 922.878 -5.07847 -3.19704 0
M  V30 9691 H 923.948 -4.44741 -1.93219 0
M  V30 9692 N 925.291 0.760815 -1.38019 0
M  V30 9693 C 926.702 1.33773 -1.30237 0
M  V30 9694 C 927.053 1.96148 0.0451153 0
M  V30 9695 O 926.178 1.94574 0.9471 0
M  V30 9696 C 926.773 2.43227 -2.35851 0
M  V30 9697 C 925.332 2.96659 -2.31669 0
M  V30 9698 C 924.479 1.69972 -2.191 0
M  V30 9699 H 927.43 0.560237 -1.48482 0
M  V30 9700 H 927.451 3.22985 -2.01149 0
M  V30 9701 H 926.963 1.978 -3.33911 0
M  V30 9702 H 925.064 3.46433 -1.37167 0
M  V30 9703 H 925.177 3.51529 -3.25521 0
M  V30 9704 H 923.541 1.9332 -1.65829 0
M  V30 9705 H 924.324 1.26633 -3.19091 0
M  V30 9706 N 926.769 1.22769 0.988202 0
M  V30 9707 C 928.017 1.05301 1.725 0
M  V30 9708 C 928.338 -0.412103 1.90596 0
M  V30 9709 O 927.608 -1.29606 1.46898 0
M  V30 9710 H 926.188 0.386658 0.639144 0
M  V30 9711 H 928.85 1.54359 1.18993 0
M  V30 9712 H 927.946 1.53465 2.71763 0
M  V30 9713 N 928.247 -1.18576 1.03814 0
M  V30 9714 C 929.472 -1.92978 0.759873 0
M  V30 9715 C 929.897 -1.75514 -0.676486 0
M  V30 9716 O 929.255 -1.06359 -1.46824 0
M  V30 9717 C 929.303 -3.42507 1.12788 0
M  V30 9718 O 928.407 -4.1163 0.251886 0
M  V30 9719 H 927.748 -0.602129 0.279886 0
M  V30 9720 H 930.278 -1.50383 1.3873 0
M  V30 9721 H 930.288 -3.93206 1.08872 0
M  V30 9722 H 928.963 -3.5454 2.17427 0
M  V30 9723 H 927.54 -3.7125 0.350441 0
M  V30 9724 N 929.725 -0.817259 -1.34754 0
M  V30 9725 C 930.973 -0.401852 -1.98065 0
M  V30 9726 C 931.294 1.03718 -1.65129 0
M  V30 9727 O 930.564 1.71921 -0.939141 0
M  V30 9728 H 929.144 -0.145603 -0.732672 0
M  V30 9729 H 931.806 -1.04545 -1.64488 0
M  V30 9730 H 930.902 -0.516241 -3.07801 0
M  V30 9731 N 931.203 1.46865 -0.571711 0
M  V30 9732 C 932.428 2.07323 -0.0564655 0
M  V30 9733 C 932.853 1.41938 1.23431 0
M  V30 9734 O 932.211 0.499334 1.74288 0
M  V30 9735 C 932.259 3.6044 0.107339 0
M  V30 9736 O 931.363 3.95558 1.1665 0
M  V30 9737 H 930.704 0.661475 -0.0578465 0
M  V30 9738 H 933.234 1.88669 -0.791524 0
M  V30 9739 H 933.244 4.06767 0.316987 0
M  V30 9740 H 931.919 4.07425 -0.835348 0
M  V30 9741 H 930.496 3.60957 0.936189 0
M  V30 9742 N 932.681 0.308908 1.54543 0
M  V30 9743 C 933.611 -0.556657 2.26768 0
M  V30 9744 C 934.592 -1.13145 1.27013 0
M  V30 9745 O 935.777 -1.15931 1.558 0
M  V30 9746 C 932.907 -1.72481 3.01443 0
M  V30 9747 C 931.861 -1.28001 4.08411 0
M  V30 9748 C 931.187 -2.53395 4.70845 0
M  V30 9749 C 932.487 -0.405497 5.20724 0
M  V30 9750 H 934.181 0.0457618 2.99365 0
M  V30 9751 H 931.727 0.0234495 1.43981 0
M  V30 9752 H 933.68 -2.3365 3.50693 0
M  V30 9753 H 932.404 -2.35359 2.26437 0
M  V30 9754 H 931.063 -0.69133 3.60022 0
M  V30 9755 H 930.711 -3.14604 3.92471 0
M  V30 9756 H 930.411 -2.2433 5.43093 0
M  V30 9757 H 931.935 -3.15352 5.22863 0
M  V30 9758 H 933.349 -0.923076 5.6582 0
M  V30 9759 H 931.746 -0.208282 5.99738 0
M  V30 9760 H 932.816 0.567412 4.81569 0
M  V30 9761 N 934.159 -1.57557 0.0367827 0
M  V30 9762 C 935.405 -1.92399 -0.641133 0
M  V30 9763 C 935.738 -0.914191 -1.71336 0
M  V30 9764 O 935.013 0.0619616 -1.94401 0
M  V30 9765 C 935.296 -3.37689 -1.25052 0
M  V30 9766 C 935.149 -4.4941 -0.187326 0
M  V30 9767 C 936.468 -3.8309 -2.16634 0
M  V30 9768 H 933.587 -0.699666 -0.231597 0
M  V30 9769 H 936.229 -1.89759 0.0956083 0
M  V30 9770 H 934.379 -3.40069 -1.87843 0
M  V30 9771 H 936.051 -4.59161 0.443736 0
M  V30 9772 H 934.294 -4.31065 0.486313 0
M  V30 9773 H 934.965 -5.48119 -0.653459 0
M  V30 9774 H 937.441 -3.82494 -1.63821 0
M  V30 9775 H 936.317 -4.85429 -2.56222 0
M  V30 9776 H 936.578 -3.19028 -3.06062 0
M  V30 9777 N 935.637 0.236453 -1.55816 0
M  V30 9778 C 936.885 0.96111 -1.77784 0
M  V30 9779 C 937.206 1.85454 -0.602648 0
M  V30 9780 O 936.476 1.92157 0.381137 0
M  V30 9781 H 935.056 0.35787 -0.655697 0
M  V30 9782 H 937.718 0.251888 -1.93265 0
M  V30 9783 H 936.814 1.5767 -2.69345 0
M  V30 9784 N 937.115 1.49373 0.502552 0
M  V30 9785 C 938.047 1.62045 1.62093 0
M  V30 9786 C 939.06 0.503221 1.54827 0
M  V30 9787 O 940.249 0.775208 1.60788 0
M  V30 9788 C 937.349 1.55971 3.00876 0
M  V30 9789 C 936.522 2.832 3.33341 0
M  V30 9790 C 935.581 2.702 4.51529 0
M  V30 9791 O 934.607 3.44132 4.53389 0
M  V30 9792 N 935.809 1.81642 5.5135 0
M  V30 9793 H 938.574 2.58501 1.51649 0
M  V30 9794 H 936.135 1.46442 0.690396 0
M  V30 9795 H 938.127 1.4493 3.77859 0
M  V30 9796 H 936.697 0.673795 3.05252 0
M  V30 9797 H 935.917 3.08604 2.4527 0
M  V30 9798 H 937.205 3.67551 3.51829 0
M  V30 9799 H 936.603 1.20829 5.52645 0
M  V30 9800 H 935.16 1.76524 6.27441 0
M  V30 9801 N 938.594 -0.753485 1.38421 0
M  V30 9802 C 940.01 -1.05656 1.1962 0
M  V30 9803 C 940.21 -2.0145 0.0449443 0
M  V30 9804 O 939.266 -2.45039 -0.609253 0
M  V30 9805 C 940.579 -1.63655 2.52265 0
M  V30 9806 C 942.127 -1.75825 2.58949 0
M  V30 9807 C 942.602 -2.37236 3.91769 0
M  V30 9808 N 944.093 -2.44666 3.9331 0
M  V30 9809 C 944.828 -2.93077 4.92842 0
M  V30 9810 N 944.324 -3.41523 6.02772 0
M  V30 9811 N 946.117 -2.92118 4.80232 0
M  V30 9812 H 938.268 -0.117799 2.12073 0
M  V30 9813 H 940.531 -0.114889 0.941012 0
M  V30 9814 H 940.237 -1.00734 3.36965 0
M  V30 9815 H 940.111 -2.62715 2.70667 0
M  V30 9816 H 942.498 -2.37873 1.74644 0
M  V30 9817 H 942.579 -0.754693 2.44414 0
M  V30 9818 H 942.223 -1.75822 4.76497 0
M  V30 9819 H 942.153 -3.38233 4.03616 0
M  V30 9820 H 944.644 -2.10403 3.1391 0
M  V30 9821 H 944.957 -3.76919 6.74649 0
M  V30 9822 H 943.302 -3.3958 6.06391 0
M  V30 9823 H 946.493 -2.53582 3.93464 0
M  V30 9824 H 946.666 -3.29535 5.57952 0
M  V30 9825 N 940.072 -1.23292 -0.981677 0
M  V30 9826 C 941.002 -1.03738 -2.09191 0
M  V30 9827 C 941.983 0.0453041 -1.7004 0
M  V30 9828 O 943.168 -0.119092 -1.93834 0
M  V30 9829 C 940.298 -0.626426 -3.41604 0
M  V30 9830 C 939.252 -1.65631 -3.94652 0
M  V30 9831 C 938.578 -1.10084 -5.23245 0
M  V30 9832 C 939.878 -3.04903 -4.24066 0
M  V30 9833 H 941.572 -1.966 -2.25807 0
M  V30 9834 H 939.118 -0.946656 -1.0851 0
M  V30 9835 H 941.071 -0.476689 -4.18695 0
M  V30 9836 H 939.795 0.337873 -3.24848 0
M  V30 9837 H 938.454 -1.79402 -3.19704 0
M  V30 9838 H 938.102 -0.127562 -5.02838 0
M  V30 9839 H 937.802 -1.78896 -5.59705 0
M  V30 9840 H 939.326 -0.962928 -6.02959 0
M  V30 9841 H 940.74 -2.94441 -4.91912 0
M  V30 9842 H 939.137 -3.70941 -4.71724 0
M  V30 9843 H 940.207 -3.53991 -3.31389 0
M  V30 9844 N 941.55 1.18024 -1.04442 0
M  V30 9845 C 942.775 1.92573 -0.770097 0
M  V30 9846 C 943.2 1.75871 0.667169 0
M  V30 9847 O 942.558 1.07136 1.46258 0
M  V30 9848 C 942.606 3.41904 -1.14602 0
M  V30 9849 O 941.71 4.11491 -0.273712 0
M  V30 9850 H 941.051 0.600636 -0.283076 0
M  V30 9851 H 943.581 1.49645 -1.39526 0
M  V30 9852 H 943.591 3.92623 -1.10956 0
M  V30 9853 H 942.266 3.53382 -2.19304 0
M  V30 9854 H 940.843 3.71059 -0.370124 0
M  V30 9855 N 943.028 0.824394 1.34319 0
M  V30 9856 C 944.305 0.335692 1.92698 0
M  V30 9857 C 944.685 -1.17715 1.75232 0
M  V30 9858 O 944.033 -1.98493 1.13194 0
M  V30 9859 C 944.243 0.766647 3.40475 0
M  V30 9860 C 945.591 0.766323 4.17627 0
M  V30 9861 O 946.615 0.709321 3.49066 0
M  V30 9862 O 945.474 0.840856 5.39992 0
M  V30 9863 H 942.568 0.0919996 0.821867 0
M  V30 9864 H 945.114 0.909282 1.43283 0
M  V30 9865 H 943.886 1.80859 3.46995 0
M  V30 9866 H 943.509 0.168833 3.97241 0
M  V30 9867 N 944.506 -1.46559 0.579492 0
M  V30 9868 C 945.456 -2.27316 -0.17645 0
M  V30 9869 C 946.44 -1.35681 -0.864835 0
M  V30 9870 O 947.632 -1.59879 -0.759462 0
M  V30 9871 C 944.761 -3.21957 -1.19157 0
M  V30 9872 C 943.847 -4.21077 -0.505459 0
M  V30 9873 N 944.238 -5.03908 0.437133 0
M  V30 9874 C 942.536 -4.39535 -0.75661 0
M  V30 9875 C 943.237 -5.75635 0.837819 0
M  V30 9876 N 942.213 -5.43276 0.187679 0
M  V30 9877 H 946.015 -2.88747 0.547932 0
M  V30 9878 H 943.529 -1.5737 0.401048 0
M  V30 9879 H 945.526 -3.78518 -1.74728 0
M  V30 9880 H 944.186 -2.62085 -1.9168 0
M  V30 9881 H 945.197 -5.11487 0.812488 0
M  V30 9882 H 941.874 -3.90815 -1.46867 0
M  V30 9883 H 943.264 -6.52235 1.61364 0
M  V30 9884 N 945.984 -0.3171 -1.54377 0
M  V30 9885 C 947.395 0.172287 -1.85903 0
M  V30 9886 C 947.746 1.52141 -1.23885 0
M  V30 9887 O 946.871 2.0949 -0.542476 0
M  V30 9888 C 947.466 0.319392 -3.37291 0
M  V30 9889 C 946.025 0.752998 -3.68791 0
M  V30 9890 C 945.172 -0.129143 -2.76999 0
M  V30 9891 H 948.123 -0.537597 -1.49317 0
M  V30 9892 H 948.144 1.15137 -3.62662 0
M  V30 9893 H 947.656 -0.662671 -3.82401 0
M  V30 9894 H 945.757 1.74504 -3.2921 0
M  V30 9895 H 945.87 0.561228 -4.75801 0
M  V30 9896 H 944.234 0.394242 -2.5163 0
M  V30 9897 H 945.017 -1.10785 -3.24933 0
M  V30 9898 N 947.462 1.57535 -0.0451378 0
M  V30 9899 C 948.739 1.83785 0.669523 0
M  V30 9900 C 949.119 0.932331 1.89396 0
M  V30 9901 O 948.467 -0.00813229 2.28499 0
M  V30 9902 C 948.677 3.33376 1.03255 0
M  V30 9903 C 950.025 4.00243 1.41741 0
M  V30 9904 O 951.049 3.37965 1.12507 0
M  V30 9905 O 949.908 5.10038 1.96275 0
M  V30 9906 H 947.002 0.758342 0.329919 0
M  V30 9907 H 949.548 1.69538 -0.0740415 0
M  V30 9908 H 948.32 3.90965 0.161777 0
M  V30 9909 H 947.943 3.52787 1.83376 0
M  V30 9910 N 948.94 -0.228186 1.55939 0
M  V30 9911 C 950.186 -0.954964 1.78909 0
M  V30 9912 C 950.519 -1.8425 0.613648 0
M  V30 9913 O 949.794 -1.90604 -0.38737 0
M  V30 9914 C 950.077 -1.79957 3.1191 0
M  V30 9915 C 949.93 -0.938968 4.3989 0
M  V30 9916 C 951.249 -2.77859 3.41295 0
M  V30 9917 H 948.368 -0.345745 0.650868 0
M  V30 9918 H 951.01 -0.224244 1.88672 0
M  V30 9919 H 949.16 -2.42256 3.03717 0
M  V30 9920 H 950.832 -0.333225 4.60095 0
M  V30 9921 H 949.075 -0.244096 4.33113 0
M  V30 9922 H 949.746 -1.56416 5.29375 0
M  V30 9923 H 952.222 -2.25695 3.49572 0
M  V30 9924 H 951.098 -3.34062 4.35538 0
M  V30 9925 H 951.359 -3.55266 2.63132 0
M  V30 9926 N 950.418 -1.49637 -0.494624 0
M  V30 9927 C 951.834 -1.36541 -0.826361 0
M  V30 9928 C 952.034 -0.403386 -1.97421 0
M  V30 9929 O 951.09 0.162614 -2.51976 0
M  V30 9930 C 952.403 -2.77401 -1.16057 0
M  V30 9931 C 953.951 -2.86148 -1.26841 0
M  V30 9932 C 954.426 -4.27789 -1.63587 0
M  V30 9933 N 955.917 -4.3063 -1.70624 0
M  V30 9934 C 956.652 -5.37198 -2.00514 0
M  V30 9935 N 956.148 -6.54004 -2.28584 0
M  V30 9936 N 957.941 -5.2462 -2.01818 0
M  V30 9937 H 950.092 -2.10776 0.26219 0
M  V30 9938 H 952.355 -0.946419 0.0547235 0
M  V30 9939 H 952.061 -3.49526 -0.390434 0
M  V30 9940 H 951.935 -3.1317 -2.10249 0
M  V30 9941 H 954.322 -2.14256 -2.02925 0
M  V30 9942 H 954.403 -2.53953 -0.30684 0
M  V30 9943 H 954.047 -5.00209 -0.880507 0
M  V30 9944 H 953.977 -4.57453 -2.60854 0
M  V30 9945 H 956.468 -3.46393 -1.51065 0
M  V30 9946 H 956.781 -7.31041 -2.50598 0
M  V30 9947 H 955.126 -6.57219 -2.26027 0
M  V30 9948 H 958.317 -4.32371 -1.79369 0
M  V30 9949 H 958.49 -6.07765 -2.24778 0
M  V30 9950 N 951.896 0.746133 -1.38819 0
M  V30 9951 C 952.843 1.86001 -1.36647 0
M  V30 9952 C 953.813 1.6453 -0.227849 0
M  V30 9953 O 954.998 1.86092 -0.421241 0
M  V30 9954 C 952.138 3.23388 -1.20474 0
M  V30 9955 C 951.251 3.5664 -2.43786 0
M  V30 9956 C 950.386 4.8337 -2.20287 0
M  V30 9957 C 949.425 5.09431 -3.39332 0
M  V30 9958 N 948.562 6.2736 -3.1522 0
M  V30 9959 H 953.402 1.87192 -2.31869 0
M  V30 9960 H 950.939 0.914838 -1.15192 0
M  V30 9961 H 952.897 4.02679 -1.09112 0
M  V30 9962 H 951.527 3.21505 -0.288874 0
M  V30 9963 H 950.579 2.72135 -2.65794 0
M  V30 9964 H 951.891 3.71823 -3.3249 0
M  V30 9965 H 951.045 5.70619 -2.06103 0
M  V30 9966 H 949.784 4.70341 -1.28961 0
M  V30 9967 H 948.789 4.20648 -3.54027 0
M  V30 9968 H 950.014 5.24354 -4.31544 0
M  V30 9969 H 947.96 6.15639 -2.26549 0
M  V30 9970 H 947.877 6.43078 -3.97476 0
M  V30 9971 H 949.145 7.17477 -3.04707 0
M  V30 9972 N 953.375 1.23811 0.975125 0
M  V30 9973 C 954.624 1.06741 1.71141 0
M  V30 9974 C 954.937 -0.394986 1.9157 0
M  V30 9975 O 956.143 -0.685723 2.62698 0
M  V30 9976 C 954.599 1.86168 3.08009 0
M  V30 9977 C 954.207 3.36771 2.95448 0
M  V30 9978 C 955.951 1.77604 3.85561 0
M  V30 9979 C 953.858 4.0857 4.2758 0
M  V30 9980 H 952.788 0.395819 0.64175 0
M  V30 9981 H 955.439 1.47825 1.0872 0
M  V30 9982 H 953.821 1.37893 3.71216 0
M  V30 9983 H 954.995 3.92571 2.41298 0
M  V30 9984 H 953.31 3.46205 2.31368 0
M  V30 9985 H 955.907 2.28556 4.83391 0
M  V30 9986 H 956.25 0.739837 4.09673 0
M  V30 9987 H 956.783 2.23519 3.29065 0
M  V30 9988 H 953.522 5.12518 4.08663 0
M  V30 9989 H 953.042 3.57556 4.81574 0
M  V30 9990 H 954.721 4.15157 4.9624 0
M  V30 9991 N 954.853 -1.17469 1.05066 0
M  V30 9992 C 956.101 -1.87327 0.758485 0
M  V30 9993 C 956.422 -1.81358 -0.716549 0
M  V30 9994 O 955.692 -1.23868 -1.51768 0
M  V30 9995 H 954.272 -0.693512 0.277579 0
M  V30 9996 H 956.934 -1.4251 1.32954 0
M  V30 9997 H 956.03 -2.93101 1.0723 0
M  V30 9998 N 956.331 -0.831506 -1.3388 0
M  V30 9999 C 957.578 -0.423674 -1.98018 0
M  V30 10000 C 957.906 1.01533 -1.65895 0
M  V30 10001 O 957.161 1.72342 -0.927183 0
M  V30 10002 C 957.46 -0.582733 -3.52617 0
M  V30 10003 C 957.126 -1.98874 -4.04673 0
M  V30 10004 C 955.788 -2.37334 -4.186 0
M  V30 10005 C 958.14 -2.90745 -4.3257 0
M  V30 10006 C 955.468 -3.66984 -4.57755 0
M  V30 10007 C 957.82 -4.19868 -4.73174 0
M  V30 10008 C 956.484 -4.58294 -4.85307 0
M  V30 10009 H 955.754 -0.155033 -0.7246 0
M  V30 10010 H 958.401 -1.05711 -1.59679 0
M  V30 10011 H 956.706 0.134052 -3.91571 0
M  V30 10012 H 958.403 -0.247576 -4.00235 0
M  V30 10013 H 954.993 -1.68001 -3.94301 0
M  V30 10014 H 959.177 -2.62272 -4.2134 0
M  V30 10015 H 954.433 -3.9657 -4.65341 0
M  V30 10016 H 958.607 -4.91138 -4.93717 0
M  V30 10017 H 956.234 -5.58805 -5.15404 0
M  V30 10018 N 957.809 1.4625 -0.587256 0
M  V30 10019 C 959.037 2.06744 -0.08033 0
M  V30 10020 C 959.452 1.43527 1.2266 0
M  V30 10021 O 958.809 0.542168 1.74261 0
M  V30 10022 C 958.86 3.61394 0.0873469 0
M  V30 10023 O 958.581 4.22247 -1.16785 0
M  V30 10024 C 960.082 4.38828 0.628095 0
M  V30 10025 H 957.302 0.668354 -0.0595301 0
M  V30 10026 H 959.846 1.87808 -0.809217 0
M  V30 10027 H 958.001 3.79742 0.766473 0
M  V30 10028 H 958.415 5.15176 -0.984565 0
M  V30 10029 H 959.889 5.47613 0.694583 0
M  V30 10030 H 960.366 4.07188 1.64606 0
M  V30 10031 H 960.972 4.25297 -0.0163115 0
M  V30 10032 N 959.287 0.325282 1.54207 0
M  V30 10033 C 960.535 -0.276229 2.00203 0
M  V30 10034 C 960.856 -1.52519 1.21503 0
M  V30 10035 O 960.126 -1.93313 0.317302 0
M  V30 10036 H 958.706 -0.105059 0.739575 0
M  V30 10037 H 961.368 0.442225 1.89817 0
M  V30 10038 H 960.464 -0.531427 3.07542 0
M  V30 10039 N 960.765 -1.57509 0.0534917 0
M  V30 10040 C 961.99 -1.97511 -0.632794 0
M  V30 10041 C 962.415 -0.930947 -1.63447 0
M  V30 10042 O 961.773 0.105558 -1.80992 0
M  V30 10043 C 961.821 -3.3658 -1.29407 0
M  V30 10044 O 960.925 -3.3467 -2.40977 0
M  V30 10045 H 960.266 -0.643349 -0.16431 0
M  V30 10046 H 962.796 -2.04232 0.12258 0
M  V30 10047 H 962.806 -3.73359 -1.64521 0
M  V30 10048 H 961.481 -4.12113 -0.559976 0
M  V30 10049 H 960.058 -3.09639 -2.07793 0
M  V30 10050 N 962.243 0.219913 -1.56058 0
M  V30 10051 C 963.471 0.960915 -1.83232 0
M  V30 10052 C 963.886 1.77878 -0.632828 0
M  V30 10053 O 963.243 1.78093 0.398624 0
M  V30 10054 C 963.294 1.87716 -3.08942 0
M  V30 10055 O 963.015 1.09235 -4.24263 0
M  V30 10056 C 964.516 2.73192 -3.49115 0
M  V30 10057 H 961.736 0.281546 -0.609075 0
M  V30 10058 H 964.28 0.234648 -2.03149 0
M  V30 10059 H 962.435 2.55736 -2.90995 0
M  V30 10060 H 962.849 1.71446 -4.95688 0
M  V30 10061 H 964.323 3.33181 -4.40107 0
M  V30 10062 H 964.8 3.45668 -2.70943 0
M  V30 10063 H 965.406 2.10583 -3.69506 0
M  V30 10064 N 963.721 1.49897 0.486681 0
M  V30 10065 C 964.631 1.70379 1.6127 0
M  V30 10066 C 965.647 0.58659 1.63814 0
M  V30 10067 O 966.823 0.863044 1.81971 0
M  V30 10068 C 963.888 1.77911 2.97571 0
M  V30 10069 C 962.949 3.01569 3.0554 0
M  V30 10070 C 962.182 3.08732 4.35339 0
M  V30 10071 O 962.405 2.23099 5.2496 0
M  V30 10072 O 961.339 4.01325 4.48578 0
M  V30 10073 H 965.165 2.65799 1.46916 0
M  V30 10074 H 962.75 1.33808 0.664516 0
M  V30 10075 H 964.632 1.85135 3.78554 0
M  V30 10076 H 963.307 0.856722 3.12157 0
M  V30 10077 H 962.214 2.99854 2.23693 0
M  V30 10078 H 963.547 3.93335 2.95886 0
M  V30 10079 N 965.199 -0.738761 1.39212 0
M  V30 10080 C 966.445 -1.50046 1.36433 0
M  V30 10081 C 966.778 -1.94157 -0.0409474 0
M  V30 10082 O 966.053 -1.66515 -1.00514 0
M  V30 10083 C 966.336 -2.74277 2.33333 0
M  V30 10084 C 966.189 -2.36209 3.82786 0
M  V30 10085 C 967.508 -3.76361 2.28123 0
M  V30 10086 H 964.627 -0.544294 0.496903 0
M  V30 10087 H 967.269 -0.845005 1.70175 0
M  V30 10088 H 965.419 -3.30204 2.04689 0
M  V30 10089 H 967.091 -1.85942 4.22165 0
M  V30 10090 H 965.334 -1.68483 3.99745 0
M  V30 10091 H 966.005 -3.25156 4.46069 0
M  V30 10092 H 968.481 -3.30009 2.53443 0
M  V30 10093 H 967.357 -4.60957 2.9801 0
M  V30 10094 H 967.618 -4.23013 1.28499 0
M  V30 10095 N 966.677 -1.24326 -0.968545 0
M  V30 10096 C 967.925 -1.08032 -1.70803 0
M  V30 10097 C 968.246 0.381728 -1.91227 0
M  V30 10098 O 967.516 1.27253 -1.48942 0
M  V30 10099 H 966.096 -0.396777 -0.632912 0
M  V30 10100 H 968.758 -1.56232 -1.16523 0
M  V30 10101 H 967.854 -1.57769 -2.69287 0
M  V30 10102 N 968.156 1.1691 -1.05688 0
M  V30 10103 C 969.103 2.21095 -0.662246 0
M  V30 10104 C 970.073 1.62623 0.338083 0
M  V30 10105 O 971.258 1.89428 0.228362 0
M  V30 10106 C 968.398 3.45066 -0.0484018 0
M  V30 10107 C 967.511 4.17809 -1.09817 0
M  V30 10108 C 966.646 5.29281 -0.451114 0
M  V30 10109 C 965.685 5.93817 -1.48484 0
M  V30 10110 N 964.822 6.96793 -0.861588 0
M  V30 10111 H 969.662 2.54204 -1.55513 0
M  V30 10112 H 967.199 1.24863 -0.777665 0
M  V30 10113 H 969.157 4.15932 0.324978 0
M  V30 10114 H 967.787 3.12526 0.807918 0
M  V30 10115 H 966.839 3.45608 -1.58932 0
M  V30 10116 H 968.151 4.61907 -1.88265 0
M  V30 10117 H 967.305 6.06695 -0.0244251 0
M  V30 10118 H 966.044 4.8633 0.365306 0
M  V30 10119 H 965.049 5.1513 -1.92149 0
M  V30 10120 H 966.274 6.38848 -2.30325 0
M  V30 10121 H 964.22 6.55967 -0.0657688 0
M  V30 10122 H 964.137 7.39229 -1.58354 0
M  V30 10123 H 965.405 7.78142 -0.45984 0
M  V30 10124 N 969.634 0.838594 1.33437 0
M  V30 10125 C 970.584 0.243681 2.26694 0
M  V30 10126 C 971.568 -0.601168 1.49247 0
M  V30 10127 O 972.76 -0.453181 1.711 0
M  V30 10128 C 969.889 -0.580525 3.38356 0
M  V30 10129 C 968.975 0.275819 4.23202 0
M  V30 10130 N 969.366 1.3544 4.87329 0
M  V30 10131 C 967.664 0.0628047 4.45956 0
M  V30 10132 C 968.365 1.87991 5.50486 0
M  V30 10133 N 967.341 1.18143 5.30607 0
M  V30 10134 H 971.143 1.06849 2.73789 0
M  V30 10135 H 968.657 0.683019 1.47338 0
M  V30 10136 H 970.654 -1.02301 4.04153 0
M  V30 10137 H 969.314 -1.40331 2.92809 0
M  V30 10138 H 970.325 1.73729 4.87892 0
M  V30 10139 H 967.002 -0.726563 4.11129 0
M  V30 10140 H 968.392 2.78312 6.11549 0
M  V30 10141 N 971.112 -1.45937 0.595003 0
M  V30 10142 C 972.361 -2.01529 0.0829531 0
M  V30 10143 C 972.674 -1.47071 -1.28955 0
M  V30 10144 O 973.88 -1.94561 -1.89363 0
M  V30 10145 C 972.336 -3.59767 0.0976597 0
M  V30 10146 C 971.944 -4.23223 1.46924 0
M  V30 10147 C 973.688 -4.22972 -0.359805 0
M  V30 10148 C 971.595 -5.73576 1.44101 0
M  V30 10149 H 970.525 -0.753508 0.0272425 0
M  V30 10150 H 973.176 -1.67541 0.748473 0
M  V30 10151 H 971.558 -3.90888 -0.634268 0
M  V30 10152 H 972.732 -4.03695 2.22187 0
M  V30 10153 H 971.047 -3.72161 1.86775 0
M  V30 10154 H 973.644 -5.33202 -0.39991 0
M  V30 10155 H 973.987 -3.92765 -1.37991 0
M  V30 10156 H 974.52 -3.96523 0.31845 0
M  V30 10157 H 971.259 -6.08462 2.43831 0
M  V30 10158 H 970.779 -5.95332 0.730767 0
M  V30 10159 H 972.458 -6.36531 1.1592 0
M  V30 10160 N 972.59 -0.333456 -1.54032 0
M  V30 10161 C 973.523 0.570776 -2.20947 0
M  V30 10162 C 974.501 1.10811 -1.18994 0
M  V30 10163 O 975.685 1.17027 -1.47773 0
M  V30 10164 C 972.812 1.7842 -2.87896 0
M  V30 10165 C 971.858 1.37722 -4.03652 0
M  V30 10166 S 972.691 0.405548 -5.33962 0
M  V30 10167 C 973.847 1.62603 -6.0441 0
M  V30 10168 H 974.08 0.0023936 -2.973 0
M  V30 10169 H 971.613 -0.117531 -1.53952 0
M  V30 10170 H 973.571 2.48038 -3.27089 0
M  V30 10171 H 972.232 2.32378 -2.11327 0
M  V30 10172 H 971.425 2.28167 -4.49395 0
M  V30 10173 H 971.027 0.760628 -3.66184 0
M  V30 10174 H 973.319 2.56202 -6.2719 0
M  V30 10175 H 974.262 1.21058 -6.97675 0
M  V30 10176 H 974.67 1.8175 -5.34441 0
M  V30 10177 N 974.068 1.57479 -0.061844 0
M  V30 10178 C 975.015 2.12152 0.908862 0
M  V30 10179 C 975.985 1.03152 1.30188 0
M  V30 10180 O 977.17 1.3076 1.38948 0
M  V30 10181 C 974.31 2.6796 2.17465 0
M  V30 10182 C 973.423 3.91083 1.83517 0
M  V30 10183 C 972.558 4.35169 3.04633 0
M  V30 10184 C 971.597 5.50964 2.66655 0
M  V30 10185 N 970.734 5.90055 3.80499 0
M  V30 10186 H 975.574 2.94797 0.435743 0
M  V30 10187 H 973.111 1.45686 0.203445 0
M  V30 10188 H 975.069 2.98421 2.91548 0
M  V30 10189 H 973.699 1.88096 2.62335 0
M  V30 10190 H 972.751 3.67146 0.995381 0
M  V30 10191 H 974.063 4.75214 1.51569 0
M  V30 10192 H 973.217 4.67239 3.87005 0
M  V30 10193 H 971.956 3.49871 3.39767 0
M  V30 10194 H 970.961 5.18556 1.82703 0
M  V30 10195 H 972.186 6.37986 2.32702 0
M  V30 10196 H 970.132 5.07708 4.15414 0
M  V30 10197 H 970.049 6.68903 3.52285 0
M  V30 10198 H 971.317 6.26744 4.63479 0
M  V30 10199 N 975.546 -0.211634 1.56173 0
M  V30 10200 C 976.771 -0.955324 1.84088 0
M  V30 10201 C 977.196 -1.76754 0.643407 0
M  V30 10202 O 976.554 -1.76653 -0.407842 0
M  V30 10203 C 976.602 -1.84063 3.10085 0
M  V30 10204 O 975.706 -2.9373 2.89476 0
M  V30 10205 H 975.047 -0.26996 0.606645 0
M  V30 10206 H 977.577 -0.221947 2.03393 0
M  V30 10207 H 977.587 -2.24852 3.40449 0
M  V30 10208 H 976.262 -1.24373 3.96868 0
M  V30 10209 H 974.839 -2.56816 2.7037 0
M  V30 10210 N 977.024 -1.50153 -0.478725 0
M  V30 10211 C 978.264 -1.62393 -1.24129 0
M  V30 10212 C 978.628 -0.313774 -1.89419 0
M  V30 10213 O 979.829 -0.311537 -2.66989 0
M  V30 10214 C 978.1 -2.76633 -2.26293 0
M  V30 10215 S 979.659 -3.08961 -3.11591 0
M  V30 10216 H 976.477 -0.572559 -0.421541 0
M  V30 10217 H 979.079 -1.87906 -0.539592 0
M  V30 10218 H 977.783 -3.70319 -1.76896 0
M  V30 10219 H 977.314 -2.53182 -3.01102 0
M  V30 10220 H 979.329 -2.52197 -4.2733 0
M  V30 10221 N 978.502 0.731368 -1.39602 0
M  V30 10222 C 979.465 1.8271 -1.38383 0
M  V30 10223 C 980.465 1.58338 -0.280309 0
M  V30 10224 O 981.655 1.65671 -0.538402 0
M  V30 10225 C 978.787 3.20556 -1.16002 0
M  V30 10226 H 979.98 1.85193 -2.35889 0
M  V30 10227 H 977.533 0.935396 -1.2522 0
M  V30 10228 H 978.268 3.23732 -0.191927 0
M  V30 10229 H 978.053 3.39643 -1.9592 0
M  V30 10230 H 979.543 4.00612 -1.17899 0
M  V30 10231 N 979.98 1.24838 0.961938 0
M  V30 10232 C 981.229 1.0855 1.69999 0
M  V30 10233 C 981.542 -0.374645 1.91979 0
M  V30 10234 O 982.748 -0.657822 2.6341 0
M  V30 10235 C 981.204 1.89424 3.06017 0
M  V30 10236 C 980.812 3.39885 2.9186 0
M  V30 10237 C 982.556 1.81684 3.83655 0
M  V30 10238 C 980.463 4.13082 4.23223 0
M  V30 10239 H 979.393 0.402603 0.637516 0
M  V30 10240 H 982.044 1.4897 1.07146 0
M  V30 10241 H 980.426 1.41823 3.69733 0
M  V30 10242 H 981.6 3.95108 2.37121 0
M  V30 10243 H 979.915 3.4864 2.27683 0
M  V30 10244 H 982.512 2.3367 4.80939 0
M  V30 10245 H 982.855 0.783247 4.08865 0
M  V30 10246 H 983.388 2.26997 3.26676 0
M  V30 10247 H 980.127 5.16824 4.03204 0
M  V30 10248 H 979.647 3.62644 4.77755 0
M  V30 10249 H 981.326 4.20397 4.91808 0
M  V30 10250 N 981.458 -1.16348 1.06306 0
M  V30 10251 C 982.683 -1.91323 0.800636 0
M  V30 10252 C 983.108 -1.7691 -0.639105 0
M  V30 10253 O 982.466 -1.0945 -1.44535 0
M  V30 10254 C 982.514 -3.40038 1.20027 0
M  V30 10255 O 981.618 -4.11003 0.339142 0
M  V30 10256 H 980.959 -0.596057 0.292595 0
M  V30 10257 H 983.489 -1.47406 1.41889 0
M  V30 10258 H 983.499 -3.90808 1.17188 0
M  V30 10259 H 982.174 -3.49848 2.24898 0
M  V30 10260 H 980.751 -3.70423 0.42911 0
M  V30 10261 N 982.937 -0.845659 -1.3299 0
M  V30 10262 C 983.885 -0.272412 -2.30999 0
M  V30 10263 C 984.879 0.599311 -1.58444 0
M  V30 10264 O 986.085 0.488117 -1.73255 0
M  V30 10265 H 982.46 -0.0693751 -0.748793 0
M  V30 10266 H 984.431 -1.11343 -2.76849 0
M  V30 10267 C 983.18 0.532019 -3.43606 0
M  V30 10268 H 982.503 -0.129455 -3.9959 0
M  V30 10269 H 983.943 0.898853 -4.14363 0
M  V30 10270 C 982.402 1.71364 -2.90062 0
M  V30 10271 O 982.932 2.81252 -2.8681 0
M  V30 10272 N 981.138 1.53775 -2.4658 0
M  V30 10273 H 980.685 0.643836 -2.49424 0
M  V30 10274 H 980.643 2.32982 -2.11108 0
M  V30 10275 N 984.415 1.45619 -0.602734 0
M  V30 10276 C 985.661 2.02572 -0.0961759 0
M  V30 10277 C 985.994 1.47076 1.26815 0
M  V30 10278 O 985.269 0.643566 1.83544 0
M  V30 10279 C 985.552 3.60062 -0.0520032 0
M  V30 10280 C 985.405 4.25901 -1.44665 0
M  V30 10281 C 986.724 4.35446 0.638342 0
M  V30 10282 H 983.843 0.736099 -0.0364238 0
M  V30 10283 H 986.485 1.7353 -0.773776 0
M  V30 10284 H 984.635 3.84936 0.525032 0
M  V30 10285 H 986.307 4.12228 -2.0704 0
M  V30 10286 H 984.55 3.84489 -2.00874 0
M  V30 10287 H 985.221 5.34779 -1.36803 0
M  V30 10288 H 987.697 4.15837 0.147926 0
M  V30 10289 H 986.573 5.45176 0.63834 0
M  V30 10290 H 986.834 4.07962 1.70351 0
M  V30 10291 N 985.893 0.34162 1.53853 0
M  V30 10292 C 986.84 -0.516058 2.24957 0
M  V30 10293 C 987.81 -1.09711 1.2471 0
M  V30 10294 O 988.995 -1.13409 1.53438 0
M  V30 10295 C 986.135 -1.66207 3.02439 0
M  V30 10296 C 985.248 -1.10851 4.17536 0
M  V30 10297 C 984.383 -2.22167 4.82509 0
M  V30 10298 C 983.422 -1.64152 5.89678 0
M  V30 10299 N 982.559 -2.69203 6.4844 0
M  V30 10300 H 987.399 0.0968275 2.97843 0
M  V30 10301 H 984.936 0.0595565 1.46979 0
M  V30 10302 H 986.894 -2.33672 3.4562 0
M  V30 10303 H 985.524 -2.24597 2.31853 0
M  V30 10304 H 984.576 -0.324853 3.7901 0
M  V30 10305 H 985.888 -0.644151 4.94623 0
M  V30 10306 H 985.042 -2.97501 5.28751 0
M  V30 10307 H 983.781 -2.71946 4.04842 0
M  V30 10308 H 982.786 -0.873228 5.42821 0
M  V30 10309 H 984.011 -1.15228 6.69253 0
M  V30 10310 H 981.957 -3.1824 5.73637 0
M  V30 10311 H 981.874 -2.27383 7.20994 0
M  V30 10312 H 983.142 -3.44312 6.99335 0
M  V30 10313 N 987.371 -1.57444 0.0701946 0
M  V30 10314 C 988.318 -2.12631 -0.897599 0
M  V30 10315 C 989.288 -1.03841 -1.29639 0
M  V30 10316 O 990.473 -1.31495 -1.38253 0
M  V30 10317 C 987.613 -2.6911 -2.16041 0
M  V30 10318 C 986.726 -3.9205 -1.8144 0
M  V30 10319 C 985.861 -4.36778 -3.02321 0
M  V30 10320 C 984.9 -5.52371 -2.63729 0
M  V30 10321 N 984.037 -5.92065 -3.77364 0
M  V30 10322 H 988.877 -2.95024 -0.420104 0
M  V30 10323 H 986.414 -1.45792 -0.195716 0
M  V30 10324 H 988.372 -2.99963 -2.89962 0
M  V30 10325 H 987.002 -1.89484 -2.61334 0
M  V30 10326 H 986.054 -3.67669 -0.975896 0
M  V30 10327 H 987.366 -4.76011 -1.49046 0
M  V30 10328 H 986.52 -4.69285 -3.84521 0
M  V30 10329 H 985.259 -3.51668 -3.37907 0
M  V30 10330 H 984.264 -5.19517 -1.7995 0
M  V30 10331 H 985.489 -6.39212 -2.29315 0
M  V30 10332 H 983.435 -5.09904 -4.12715 0
M  V30 10333 H 983.352 -6.70762 -3.48733 0
M  V30 10334 H 984.62 -6.29193 -4.60148 0
M  V30 10335 N 988.849 0.203349 -1.56283 0
M  V30 10336 C 990.095 0.926381 -1.80405 0
M  V30 10337 C 990.428 1.8325 -0.642883 0
M  V30 10338 O 989.703 1.91196 0.356998 0
M  V30 10339 C 989.986 1.74972 -3.14733 0
M  V30 10340 C 989.839 0.868866 -4.41328 0
M  V30 10341 C 991.158 2.72394 -3.45672 0
M  V30 10342 H 988.277 0.335346 -0.656286 0
M  V30 10343 H 990.919 0.1942 -1.89005 0
M  V30 10344 H 989.069 2.37394 -3.07533 0
M  V30 10345 H 990.741 0.259986 -4.60567 0
M  V30 10346 H 988.984 0.175161 -4.33446 0
M  V30 10347 H 989.655 1.47975 -5.31796 0
M  V30 10348 H 992.131 2.20105 -3.53119 0
M  V30 10349 H 991.007 3.27091 -4.40798 0
M  V30 10350 H 991.268 3.51035 -2.6875 0
M  V30 10351 N 990.327 1.50405 0.470755 0
M  V30 10352 C 991.552 1.65442 1.25075 0
M  V30 10353 C 991.977 0.337612 1.85045 0
M  V30 10354 O 991.335 -0.698555 1.67302 0
M  V30 10355 C 991.383 2.74793 2.33498 0
M  V30 10356 O 990.487 2.36069 3.3815 0
M  V30 10357 H 989.828 0.552728 0.367951 0
M  V30 10358 H 992.358 1.96782 0.560177 0
M  V30 10359 H 992.368 2.97879 2.78804 0
M  V30 10360 H 991.043 3.70363 1.8922 0
M  V30 10361 H 989.62 2.2343 2.98552 0
M  V30 10362 N 991.805 -0.723954 1.39988 0
M  V30 10363 C 992.735 -1.85103 1.42335 0
M  V30 10364 C 993.716 -1.6769 0.285297 0
M  V30 10365 O 994.901 -1.87846 0.492716 0
M  V30 10366 C 992.031 -3.22972 1.27697 0
M  V30 10367 C 990.985 -3.55041 2.39018 0
M  V30 10368 C 990.311 -4.91965 2.09462 0
M  V30 10369 C 991.611 -3.56889 3.8135 0
M  V30 10370 H 993.305 -1.83396 2.36656 0
M  V30 10371 H 990.851 -0.880926 1.13911 0
M  V30 10372 H 992.804 -4.01503 1.27958 0
M  V30 10373 H 991.528 -3.25233 0.298487 0
M  V30 10374 H 990.187 -2.78845 2.37993 0
M  V30 10375 H 989.835 -4.90819 1.10025 0
M  V30 10376 H 989.535 -5.14389 2.84038 0
M  V30 10377 H 991.059 -5.7284 2.11391 0
M  V30 10378 H 992.473 -4.25476 3.84243 0
M  V30 10379 H 990.87 -3.90836 4.55376 0
M  V30 10380 H 991.94 -2.56452 4.11534 0
M  V30 10381 N 993.283 -1.25346 -0.955304 0
M  V30 10382 C 994.193 -1.07412 -2.08566 0
M  V30 10383 C 995.209 -0.0114424 -1.73996 0
M  V30 10384 O 996.385 -0.212236 -2.00279 0
M  V30 10385 C 993.45 -0.694141 -3.3968 0
M  V30 10386 C 992.511 -1.83468 -3.88121 0
M  V30 10387 C 991.744 -1.47274 -5.12978 0
M  V30 10388 O 991.967 -0.368086 -5.69211 0
M  V30 10389 O 990.901 -2.30269 -5.56111 0
M  V30 10390 H 994.727 -2.02206 -2.26598 0
M  V30 10391 H 992.312 -1.04279 -1.06988 0
M  V30 10392 H 994.194 -0.494325 -4.18491 0
M  V30 10393 H 992.869 0.224545 -3.2292 0
M  V30 10394 H 991.776 -2.08935 -3.10318 0
M  V30 10395 H 993.109 -2.73258 -4.09379 0
M  V30 10396 N 994.761 1.15782 -1.06922 0
M  V30 10397 C 995.691 2.22538 -0.707045 0
M  V30 10398 C 996.672 1.67371 0.303471 0
M  V30 10399 O 997.857 1.9339 0.177189 0
M  V30 10400 C 994.987 3.47158 -0.0994269 0
M  V30 10401 C 993.941 4.15257 -1.03661 0
M  V30 10402 C 993.267 5.33902 -0.291974 0
M  V30 10403 C 994.567 4.65516 -2.36837 0
M  V30 10404 H 996.261 2.53089 -1.59958 0
M  V30 10405 H 993.807 1.21649 -0.770552 0
M  V30 10406 H 995.76 4.21073 0.165852 0
M  V30 10407 H 994.484 3.15926 0.828155 0
M  V30 10408 H 993.143 3.43276 -1.28674 0
M  V30 10409 H 992.791 4.98926 0.638928 0
M  V30 10410 H 992.491 5.80407 -0.916613 0
M  V30 10411 H 994.015 6.1059 -0.0343915 0
M  V30 10412 H 995.429 5.30981 -2.16175 0
M  V30 10413 H 993.826 5.22666 -2.94856 0
M  V30 10414 H 994.896 3.81387 -2.99453 0
M  V30 10415 N 996.239 0.8527 1.3254 0
M  V30 10416 C 997.487 0.454224 1.96929 0
M  V30 10417 C 997.808 -0.993034 1.67821 0
M  V30 10418 O 997.078 -1.69371 0.984393 0
M  V30 10419 H 995.658 0.164977 0.728554 0
M  V30 10420 H 998.32 1.0887 1.61658 0
M  V30 10421 H 997.416 0.597667 3.06324 0
M  V30 10422 N 997.718 -1.45297 0.610449 0
M  V30 10423 C 998.966 -2.01819 0.106548 0
M  V30 10424 C 999.287 -1.48102 -1.26849 0
M  V30 10425 O 998.557 -0.676411 -1.83852 0
M  V30 10426 H 997.137 -0.746113 0.0363982 0
M  V30 10427 H 999.799 -1.78061 0.792491 0
M  V30 10428 H 998.895 -3.12045 0.0585 0
M  V30 10429 N 999.196 -0.349774 -1.5367 0
M  V30 10430 C 1000.14 0.504121 -2.25227 0
M  V30 10431 C 1001.11 1.09048 -1.2529 0
M  V30 10432 O 1002.3 1.12594 -1.54037 0
M  V30 10433 C 999.438 1.64601 -3.03316 0
M  V30 10434 C 998.551 1.08635 -4.18118 0
M  V30 10435 C 997.686 2.19605 -4.83681 0
M  V30 10436 C 996.725 1.61023 -5.90541 0
M  V30 10437 N 995.862 2.6576 -6.49858 0
M  V30 10438 H 1000.7 -0.112621 -2.97787 0
M  V30 10439 H 998.239 -0.0673503 -1.46946 0
M  V30 10440 H 1000.2 2.31836 -3.46854 0
M  V30 10441 H 998.827 2.23364 -2.33041 0
M  V30 10442 H 997.879 0.304748 -3.79177 0
M  V30 10443 H 999.191 0.617911 -4.94958 0
M  V30 10444 H 998.345 2.94693 -5.30322 0
M  V30 10445 H 997.084 2.69795 -4.06278 0
M  V30 10446 H 996.089 0.844428 -5.43277 0
M  V30 10447 H 997.314 1.11677 -6.69855 0
M  V30 10448 H 995.26 3.15193 -5.75317 0
M  V30 10449 H 995.177 2.23557 -7.2219 0
M  V30 10450 H 996.445 3.40598 -7.01151 0
M  V30 10451 N 1000.67 1.57404 -0.0785433 0
M  V30 10452 C 1001.9 1.98492 0.601292 0
M  V30 10453 C 1002.32 0.956832 1.61945 0
M  V30 10454 O 1001.68 -0.0767502 1.81137 0
M  V30 10455 C 1001.73 3.38596 1.24036 0
M  V30 10456 O 1000.83 3.38461 2.35622 0
M  V30 10457 H 1000.17 0.645882 0.154054 0
M  V30 10458 H 1002.7 2.04012 -0.155056 0
M  V30 10459 H 1002.71 3.75929 1.5856 0
M  V30 10460 H 1001.39 4.12952 0.494341 0
M  V30 10461 H 999.967 3.12906 2.02841 0
M  V30 10462 N 1002.15 -0.195058 1.56388 0
M  V30 10463 C 1003.56 -0.75973 1.70543 0
M  V30 10464 C 1003.91 -1.83849 0.685118 0
M  V30 10465 O 1003.04 -2.15819 -0.158457 0
M  V30 10466 C 1003.63 -1.38485 3.09204 0
M  V30 10467 C 1002.19 -1.89661 3.25124 0
M  V30 10468 C 1001.34 -0.766563 2.66494 0
M  V30 10469 H 1004.29 0.0300148 1.58672 0
M  V30 10470 H 1004.31 -2.25424 3.06536 0
M  V30 10471 H 1003.82 -0.599479 3.83442 0
M  V30 10472 H 1001.92 -2.70917 2.55802 0
M  V30 10473 H 1002.04 -2.05837 4.32629 0
M  V30 10474 H 1000.4 -1.18086 2.25672 0
M  V30 10475 H 1001.18 0.00657102 3.43299 0
M  V30 10476 N 1003.63 -1.50653 -0.462772 0
M  V30 10477 C 1004.56 -1.73056 -1.5676 0
M  V30 10478 C 1005.54 -0.579699 -1.59917 0
M  V30 10479 O 1006.73 -0.819729 -1.76051 0
M  V30 10480 C 1003.86 -1.83234 -2.9503 0
M  V30 10481 C 1002.81 -2.98488 -3.06739 0
M  V30 10482 C 1002.14 -2.93818 -4.46738 0
M  V30 10483 C 1003.44 -4.38869 -2.83181 0
M  V30 10484 H 1005.13 -2.65562 -1.38265 0
M  V30 10485 H 1002.68 -1.27792 -0.663722 0
M  V30 10486 H 1004.63 -1.97491 -3.72257 0
M  V30 10487 H 1003.35 -0.873558 -3.14701 0
M  V30 10488 H 1002.01 -2.83895 -2.31946 0
M  V30 10489 H 1001.66 -1.95769 -4.63339 0
M  V30 10490 H 1001.36 -3.71197 -4.55507 0
M  V30 10491 H 1002.88 -3.10135 -5.25974 0
M  V30 10492 H 1004.3 -4.53945 -3.50153 0
M  V30 10493 H 1002.69 -5.17762 -3.03386 0
M  V30 10494 H 1003.76 -4.50663 -1.78972 0
M  V30 10495 N 1005.11 0.71652 -1.4037 0
M  V30 10496 C 1006.36 1.47193 -1.37903 0
M  V30 10497 C 1006.67 1.95593 0.0159939 0
M  V30 10498 O 1007.88 2.71009 0.163282 0
M  V30 10499 C 1006.33 2.6606 -2.42363 0
M  V30 10500 C 1005.94 2.24533 -3.87671 0
M  V30 10501 C 1007.68 3.438 -2.49001 0
M  V30 10502 C 1005.59 3.40234 -4.8373 0
M  V30 10503 H 1004.52 0.552811 -0.512753 0
M  V30 10504 H 1007.17 0.779894 -1.66102 0
M  V30 10505 H 1005.55 3.37429 -2.07262 0
M  V30 10506 H 1006.73 1.6059 -4.31911 0
M  V30 10507 H 1005.04 1.59839 -3.845 0
M  V30 10508 H 1007.64 4.29893 -3.17956 0
M  V30 10509 H 1007.98 3.8755 -1.52023 0
M  V30 10510 H 1008.52 2.79474 -2.83088 0
M  V30 10511 H 1005.26 3.01517 -5.82037 0
M  V30 10512 H 1004.78 4.03095 -4.44156 0
M  V30 10513 H 1006.45 4.06312 -5.03507 0
M  V30 10514 N 1006.59 1.25851 0.948643 0
M  V30 10515 C 1007.84 1.10347 1.68838 0
M  V30 10516 C 1008.15 -0.354262 1.92365 0
M  V30 10517 O 1009.35 -0.629847 2.64093 0
M  V30 10518 C 1007.81 1.92659 3.03991 0
M  V30 10519 C 1007.42 3.42962 2.88238 0
M  V30 10520 C 1009.16 1.85743 3.81707 0
M  V30 10521 C 1007.07 4.17547 4.18818 0
M  V30 10522 H 1006 0.409342 0.63321 0
M  V30 10523 H 1008.65 1.50098 1.05559 0
M  V30 10524 H 1007.03 1.45736 3.68208 0
M  V30 10525 H 1008.21 3.97601 2.32917 0
M  V30 10526 H 1006.52 3.51035 2.23972 0
M  V30 10527 H 1009.12 2.38758 4.78434 0
M  V30 10528 H 1009.46 0.826568 4.08012 0
M  V30 10529 H 1009.99 2.30449 3.2425 0
M  V30 10530 H 1006.73 5.21072 3.97699 0
M  V30 10531 H 1006.25 3.6769 4.73882 0
M  V30 10532 H 1007.93 4.25589 4.87322 0
M  V30 10533 N 1008.06 -1.15214 1.07534 0
M  V30 10534 C 1009.31 -1.86043 0.799629 0
M  V30 10535 C 1009.64 -1.82435 -0.674356 0
M  V30 10536 O 1008.89 -1.24379 -1.51091 0
M  V30 10537 C 1009.19 -3.34623 1.25547 0
M  V30 10538 C 1008.86 -3.58425 2.73573 0
M  V30 10539 C 1007.52 -3.6463 3.14004 0
M  V30 10540 C 1009.87 -3.67977 3.6911 0
M  V30 10541 C 1007.2 -3.779 4.48786 0
M  V30 10542 C 1009.55 -3.82771 5.03656 0
M  V30 10543 C 1008.22 -3.87222 5.43705 0
M  V30 10544 H 1007.49 -0.680781 0.292605 0
M  V30 10545 H 1010.13 -1.36149 1.34669 0
M  V30 10546 H 1008.44 -3.86737 0.627828 0
M  V30 10547 H 1010.14 -3.87836 1.01901 0
M  V30 10548 H 1006.73 -3.54238 2.41275 0
M  V30 10549 H 1010.91 -3.62482 3.39 0
M  V30 10550 H 1006.17 -3.79604 4.79281 0
M  V30 10551 H 1010.34 -3.89104 5.77556 0
M  V30 10552 H 1007.97 -3.97256 6.48145 0
M  V30 10553 N 1009.54 -0.859717 -1.32086 0
M  V30 10554 C 1010.51 -0.313005 -2.27053 0
M  V30 10555 C 1011.51 0.530191 -1.51808 0
M  V30 10556 O 1012.7 0.340972 -1.7083 0
M  V30 10557 C 1009.83 0.5566 -3.36325 0
M  V30 10558 H 1011.02 -1.15125 -2.76923 0
M  V30 10559 H 1008.57 -0.634463 -1.42843 0
M  V30 10560 H 1009.31 1.41645 -2.91731 0
M  V30 10561 H 1009.09 -0.0470197 -3.92072 0
M  V30 10562 H 1010.58 0.931725 -4.07073 0
M  V30 10563 N 1011.02 1.44971 -0.618145 0
M  V30 10564 C 1012.3 1.95539 -0.0489895 0
M  V30 10565 C 1012.68 1.5604 1.42179 0
M  V30 10566 O 1012.03 0.82809 2.12967 0
M  V30 10567 C 1012.24 3.48044 -0.258193 0
M  V30 10568 C 1013.58 4.24354 -0.144541 0
M  V30 10569 O 1014.61 3.55699 -0.18887 0
M  V30 10570 O 1013.47 5.46486 -0.038519 0
M  V30 10571 H 1010.56 0.826466 0.0297256 0
M  V30 10572 H 1013.11 1.55086 -0.688944 0
M  V30 10573 H 1011.88 3.69798 -1.27926 0
M  V30 10574 H 1011.5 3.95412 0.416522 0
M  V30 10575 N 1012.5 0.357919 1.53482 0
M  V30 10576 C 1013.74 -0.23433 2.03052 0
M  V30 10577 C 1014.1 -1.46614 1.23969 0
M  V30 10578 O 1015.3 -2.13351 1.63508 0
M  V30 10579 C 1013.57 -0.526653 3.53498 0
M  V30 10580 S 1015.13 -1.09366 4.24952 0
M  V30 10581 H 1011.95 -0.0687848 0.707665 0
M  V30 10582 H 1014.55 0.499011 1.89024 0
M  V30 10583 H 1013.26 0.377463 4.0866 0
M  V30 10584 H 1012.79 -1.28927 3.71674 0
M  V30 10585 H 1014.8 -2.37845 4.35481 0
M  V30 10586 N 1013.98 -1.5736 0.0868897 0
M  V30 10587 C 1015.25 -1.85495 -0.620561 0
M  V30 10588 C 1015.63 -0.982218 -1.86857 0
M  V30 10589 O 1014.98 -0.0524529 -2.2844 0
M  V30 10590 C 1015.19 -3.35996 -0.943798 0
M  V30 10591 C 1016.54 -4.03861 -1.31079 0
M  V30 10592 O 1017.56 -3.4083 -1.03507 0
M  V30 10593 O 1016.42 -5.15062 -1.82683 0
M  V30 10594 H 1013.52 -0.766822 -0.309697 0
M  V30 10595 H 1016.06 -1.69282 0.118966 0
M  V30 10596 H 1014.83 -3.91257 -0.0580628 0
M  V30 10597 H 1014.46 -3.57525 -1.73958 0
M  V30 10598 N 1015.45 0.186762 -1.56489 0
M  V30 10599 C 1016.38 1.23395 -1.98232 0
M  V30 10600 C 1017.37 1.4702 -0.855526 0
M  V30 10601 O 1018.55 1.58616 -1.12048 0
M  V30 10602 C 1015.68 2.57635 -2.32898 0
M  V30 10603 C 1014.63 2.48607 -3.48394 0
M  V30 10604 C 1013.96 3.87196 -3.68759 0
M  V30 10605 C 1015.26 2.00398 -4.82325 0
M  V30 10606 H 1016.95 0.887026 -2.85958 0
M  V30 10607 H 1014.5 0.42525 -1.37578 0
M  V30 10608 H 1016.45 3.31082 -2.60696 0
M  V30 10609 H 1015.18 2.94084 -1.42064 0
M  V30 10610 H 1013.84 1.77615 -3.207 0
M  V30 10611 H 1013.48 4.21012 -2.75241 0
M  V30 10612 H 1013.18 3.82029 -4.46462 0
M  V30 10613 H 1014.71 4.62253 -3.98941 0
M  V30 10614 H 1016.12 2.6361 -5.091 0
M  V30 10615 H 1014.52 2.06214 -5.63556 0
M  V30 10616 H 1015.59 0.957562 -4.75351 0
M  V30 10617 N 1016.93 1.50896 0.454776 0
M  V30 10618 C 1017.88 1.71497 1.57136 0
M  V30 10619 C 1018.87 0.58098 1.59126 0
M  V30 10620 O 1020.08 0.761916 1.63079 0
M  V30 10621 H 1016.46 0.54158 0.521724 0
M  V30 10622 H 1018.43 2.65129 1.36928 0
M  V30 10623 C 1017.18 1.84125 2.94947 0
M  V30 10624 H 1016.5 2.7078 2.9414 0
M  V30 10625 H 1017.94 2.02558 3.72487 0
M  V30 10626 C 1016.4 0.596752 3.31573 0
M  V30 10627 O 1016.93 -0.256632 4.00879 0
M  V30 10628 N 1015.13 0.445958 2.87158 0
M  V30 10629 H 1014.68 1.14146 2.30929 0
M  V30 10630 H 1014.64 -0.385519 3.12027 0
M  V30 10631 N 1018.41 -0.709066 1.40748 0
M  V30 10632 C 1019.36 -1.82312 1.4153 0
M  V30 10633 C 1020.33 -1.63868 0.271392 0
M  V30 10634 O 1021.51 -1.8491 0.470431 0
M  V30 10635 C 1018.65 -3.2008 1.29006 0
M  V30 10636 C 1017.77 -3.50051 2.53156 0
M  V30 10637 C 1016.9 -4.7736 2.33025 0
M  V30 10638 C 1015.94 -5.00255 3.52719 0
M  V30 10639 N 1015.08 -6.18782 3.31743 0
M  V30 10640 H 1019.92 -1.80978 2.36751 0
M  V30 10641 H 1017.45 -0.883975 1.17577 0
M  V30 10642 H 1019.41 -3.99645 1.19749 0
M  V30 10643 H 1018.04 -3.20626 0.374014 0
M  V30 10644 H 1017.09 -2.64993 2.72916 0
M  V30 10645 H 1018.41 -3.62877 3.42231 0
M  V30 10646 H 1017.56 -5.64954 2.21159 0
M  V30 10647 H 1016.3 -4.66756 1.41386 0
M  V30 10648 H 1015.3 -4.11114 3.65055 0
M  V30 10649 H 1016.53 -5.12728 4.45295 0
M  V30 10650 H 1014.47 -6.09416 2.42791 0
M  V30 10651 H 1014.39 -6.32313 4.14386 0
M  V30 10652 H 1015.66 -7.09146 3.23623 0
M  V30 10653 N 1019.89 -1.26353 -0.941956 0
M  V30 10654 C 1020.85 -1.07904 -2.02211 0
M  V30 10655 C 1021.85 -0.0276283 -1.60776 0
M  V30 10656 O 1023.04 -0.270965 -1.7208 0
M  V30 10657 C 1020.17 -0.641084 -3.34818 0
M  V30 10658 H 1021.37 -2.03804 -2.20009 0
M  V30 10659 H 1018.92 -1.08939 -1.12081 0
M  V30 10660 H 1019.66 0.319943 -3.22718 0
M  V30 10661 H 1019.44 -1.40027 -3.66244 0
M  V30 10662 H 1020.93 -0.533826 -4.14174 0
M  V30 10663 N 1021.37 1.14642 -1.08144 0
M  V30 10664 C 1022.61 1.85892 -0.810683 0
M  V30 10665 C 1022.95 1.82575 0.661821 0
M  V30 10666 O 1022.22 1.25454 1.48632 0
M  V30 10667 C 1022.5 3.34647 -1.32979 0
M  V30 10668 C 1022.36 3.46551 -2.86744 0
M  V30 10669 C 1023.68 4.29661 -0.952864 0
M  V30 10670 H 1020.8 0.674963 -0.295963 0
M  V30 10671 H 1023.44 1.3464 -1.3406 0
M  V30 10672 H 1021.59 3.78425 -0.87903 0
M  V30 10673 H 1023.26 3.11579 -3.40171 0
M  V30 10674 H 1021.5 2.87849 -3.24539 0
M  V30 10675 H 1022.17 4.51101 -3.18138 0
M  V30 10676 H 1024.65 3.93885 -1.34141 0
M  V30 10677 H 1023.53 5.32209 -1.34331 0
M  V30 10678 H 1023.79 4.41877 0.140392 0
M  V30 10679 N 1022.85 0.866709 1.31628 0
M  V30 10680 C 1023.78 0.277328 2.27516 0
M  V30 10681 C 1024.79 -0.557786 1.52946 0
M  V30 10682 O 1025.98 -0.38031 1.74402 0
M  V30 10683 C 1023.08 -0.625742 3.33073 0
M  V30 10684 C 1022.25 0.176204 4.37045 0
M  V30 10685 C 1021.31 -0.654497 5.22114 0
M  V30 10686 O 1020.34 -0.0836961 5.69138 0
M  V30 10687 N 1021.54 -1.96708 5.46156 0
M  V30 10688 H 1024.3 1.10133 2.78731 0
M  V30 10689 H 1021.87 0.72787 1.44616 0
M  V30 10690 H 1023.86 -1.18709 3.86898 0
M  V30 10691 H 1022.43 -1.35042 2.81926 0
M  V30 10692 H 1021.65 0.918999 3.83338 0
M  V30 10693 H 1022.94 0.726594 5.03585 0
M  V30 10694 H 1022.33 -2.454 5.09701 0
M  V30 10695 H 1020.89 -2.47629 6.02929 0
M  V30 10696 N 1024.32 -1.44642 0.625825 0
M  V30 10697 C 1025.26 -2.27821 -0.131481 0
M  V30 10698 C 1026.23 -1.38224 -0.856324 0
M  V30 10699 O 1027.42 -1.67662 -0.861493 0
M  V30 10700 C 1024.55 -3.1703 -1.19204 0
M  V30 10701 C 1023.59 -4.22697 -0.568315 0
M  V30 10702 S 1024.42 -5.3169 0.637612 0
M  V30 10703 C 1025.58 -6.24468 -0.423088 0
M  V30 10704 H 1025.81 -2.91703 0.574177 0
M  V30 10705 H 1023.35 -1.4875 0.413844 0
M  V30 10706 H 1025.3 -3.6898 -1.79901 0
M  V30 10707 H 1023.97 -2.52379 -1.86986 0
M  V30 10708 H 1023.16 -4.8511 -1.36689 0
M  V30 10709 H 1022.76 -3.73983 -0.0360843 0
M  V30 10710 H 1025.05 -6.64967 -1.29713 0
M  V30 10711 H 1026 -7.07907 0.165338 0
M  V30 10712 H 1026.4 -5.59541 -0.746606 0
M  V30 10713 N 1025.8 -0.366053 -1.5329 0
M  V30 10714 C 1027.05 0.223051 -2.00865 0
M  V30 10715 C 1027.37 1.49244 -1.25504 0
M  V30 10716 O 1026.64 1.92404 -0.368444 0
M  V30 10717 H 1025.22 0.085413 -0.742101 0
M  V30 10718 H 1027.88 -0.492396 -1.88578 0
M  V30 10719 H 1026.98 0.449701 -3.08843 0
M  V30 10720 N 1027.28 1.57312 -0.0952337 0
M  V30 10721 C 1028.21 2.09691 0.900274 0
M  V30 10722 C 1029.19 1.0075 1.27625 0
M  V30 10723 O 1030.37 1.28249 1.38147 0
M  V30 10724 C 1027.5 2.574 2.20142 0
M  V30 10725 C 1026.55 3.78 1.9753 0
M  V30 10726 S 1027.38 5.21577 1.21318 0
M  V30 10727 C 1028.54 5.72636 2.52663 0
M  V30 10728 H 1028.77 2.93803 0.45467 0
M  V30 10729 H 1026.3 1.53948 0.118056 0
M  V30 10730 H 1028.26 2.85546 2.94914 0
M  V30 10731 H 1026.92 1.73514 2.61824 0
M  V30 10732 H 1026.11 4.09451 2.93881 0
M  V30 10733 H 1025.72 3.50349 1.30888 0
M  V30 10734 H 1028.01 5.80911 3.48638 0
M  V30 10735 H 1028.95 6.71136 2.25791 0
M  V30 10736 H 1029.36 5.00569 2.60943 0
M  V30 10737 N 1028.76 -0.17846 1.56586 0
M  V30 10738 C 1029.98 -0.916061 1.86073 0
M  V30 10739 C 1030.41 -1.75349 0.680754 0
M  V30 10740 O 1029.77 -1.77479 -0.37028 0
M  V30 10741 C 1029.81 -1.77445 3.1392 0
M  V30 10742 O 1028.92 -2.87524 2.95641 0
M  V30 10743 H 1028.26 -0.257031 0.612234 0
M  V30 10744 H 1030.79 -0.178755 2.03818 0
M  V30 10745 H 1030.8 -2.1758 3.45142 0
M  V30 10746 H 1029.47 -1.15927 3.99417 0
M  V30 10747 H 1028.05 -2.51023 2.75757 0
M  V30 10748 N 1030.24 -1.51135 -0.446768 0
M  V30 10749 C 1031.46 -1.67411 -1.22427 0
M  V30 10750 C 1031.89 -0.367009 -1.84485 0
M  V30 10751 O 1031.24 0.67185 -1.68392 0
M  V30 10752 C 1031.29 -2.78473 -2.29096 0
M  V30 10753 O 1030.4 -2.41419 -3.34351 0
M  V30 10754 H 1029.74 -0.558512 -0.359111 0
M  V30 10755 H 1032.27 -1.97648 -0.5288 0
M  V30 10756 H 1032.28 -3.02277 -2.7403 0
M  V30 10757 H 1030.95 -3.73326 -1.83304 0
M  V30 10758 H 1029.53 -2.28152 -2.9496 0
M  V30 10759 N 1031.71 0.701592 -1.41122 0
M  V30 10760 C 1032.96 1.46376 -1.40363 0
M  V30 10761 C 1033.29 1.94197 -0.0105442 0
M  V30 10762 O 1032.57 1.69121 0.960637 0
M  V30 10763 C 1032.85 2.67994 -2.40523 0
M  V30 10764 C 1032.7 2.25977 -3.88914 0
M  V30 10765 C 1034.02 3.70181 -2.38022 0
M  V30 10766 H 1031.14 0.530929 -0.511159 0
M  V30 10767 H 1033.78 0.799588 -1.72356 0
M  V30 10768 H 1031.93 3.24661 -2.13372 0
M  V30 10769 H 1033.61 1.74684 -4.26946 0
M  V30 10770 H 1031.85 1.57826 -4.04071 0
M  V30 10771 H 1032.52 3.13215 -4.54533 0
M  V30 10772 H 1035 3.23174 -2.62103 0
M  V30 10773 H 1033.87 4.52894 -3.10127 0
M  V30 10774 H 1034.13 4.19458 -1.3967 0
M  V30 10775 N 1033.19 1.2685 0.935242 0
M  V30 10776 C 1034.44 1.12745 1.68211 0
M  V30 10777 C 1034.77 -0.328128 1.91712 0
M  V30 10778 O 1034.02 -1.25701 1.49993 0
M  V30 10779 C 1034.32 1.8482 3.05903 0
M  V30 10780 C 1033.99 3.347 3.02137 0
M  V30 10781 C 1032.65 3.75583 3.00817 0
M  V30 10782 C 1035 4.30368 2.93995 0
M  V30 10783 C 1032.33 5.10511 2.89129 0
M  V30 10784 C 1034.68 5.65343 2.83848 0
M  V30 10785 C 1033.34 6.0553 2.80874 0
M  V30 10786 H 1032.61 0.412563 0.615527 0
M  V30 10787 H 1035.26 1.57366 1.09124 0
M  V30 10788 H 1033.57 1.32685 3.68649 0
M  V30 10789 H 1035.26 1.71341 3.62551 0
M  V30 10790 H 1031.85 3.02182 3.03947 0
M  V30 10791 H 1036.04 3.9976 2.94118 0
M  V30 10792 H 1031.29 5.40802 2.85208 0
M  V30 10793 H 1035.47 6.39151 2.76512 0
M  V30 10794 H 1033.09 7.10037 2.71573 0
M  V30 10795 N 1034.67 -1.14067 1.0875 0
M  V30 10796 C 1035.92 -1.85185 0.819317 0
M  V30 10797 C 1036.25 -1.8314 -0.654969 0
M  V30 10798 O 1035.5 -1.25974 -1.49763 0
M  V30 10799 C 1035.8 -3.33273 1.29089 0
M  V30 10800 C 1035.47 -3.55504 2.77359 0
M  V30 10801 C 1034.13 -3.61279 3.17853 0
M  V30 10802 C 1036.48 -3.64041 3.72992 0
M  V30 10803 C 1033.81 -3.73119 4.52768 0
M  V30 10804 C 1036.16 -3.77407 5.07687 0
M  V30 10805 C 1034.82 -3.81433 5.47782 0
M  V30 10806 H 1034.09 -0.67764 0.299809 0
M  V30 10807 H 1036.74 -1.34713 1.36106 0
M  V30 10808 H 1035.05 -3.86049 0.668811 0
M  V30 10809 H 1036.74 -3.86734 1.06009 0
M  V30 10810 H 1033.33 -3.51659 2.45019 0
M  V30 10811 H 1037.52 -3.58866 3.42825 0
M  V30 10812 H 1032.77 -3.74499 4.83281 0
M  V30 10813 H 1036.95 -3.82956 5.81651 0
M  V30 10814 H 1034.57 -3.9036 6.52321 0
M  V30 10815 N 1036.15 -0.873678 -1.31166 0
M  V30 10816 C 1037.1 -0.321349 -2.3037 0
M  V30 10817 C 1038.09 0.565568 -1.5968 0
M  V30 10818 O 1039.3 0.451257 -1.74252 0
M  V30 10819 H 1035.67 -0.0852425 -0.747153 0
M  V30 10820 H 1037.64 -1.17191 -2.74425 0
M  V30 10821 C 1036.39 0.459016 -3.44657 0
M  V30 10822 H 1035.71 -0.214185 -3.99226 0
M  V30 10823 H 1037.15 0.810758 -4.16176 0
M  V30 10824 C 1035.61 1.65173 -2.93632 0
M  V30 10825 O 1036.14 2.75105 -2.92711 0
M  V30 10826 N 1034.35 1.4851 -2.49786 0
M  V30 10827 H 1033.9 0.590785 -2.50734 0
M  V30 10828 H 1033.85 2.28452 -2.16002 0
M  V30 10829 N 1037.63 1.44308 -0.633487 0
M  V30 10830 C 1038.57 2.30694 0.0700257 0
M  V30 10831 C 1039.54 1.43618 0.834447 0
M  V30 10832 O 1040.73 1.72517 0.815014 0
M  V30 10833 C 1037.87 3.28929 1.04403 0
M  V30 10834 C 1036.98 4.31106 0.277779 0
M  V30 10835 C 1036.12 5.16433 1.24381 0
M  V30 10836 C 1035.16 6.10317 0.466855 0
M  V30 10837 N 1034.29 6.88335 1.38347 0
M  V30 10838 H 1039.13 2.90311 -0.672567 0
M  V30 10839 H 1036.67 1.43034 -0.343449 0
M  V30 10840 H 1038.63 3.84373 1.62214 0
M  V30 10841 H 1037.26 2.71006 1.75372 0
M  V30 10842 H 1036.31 3.78115 -0.416292 0
M  V30 10843 H 1037.62 4.97725 -0.327251 0
M  V30 10844 H 1036.78 5.76406 1.89318 0
M  V30 10845 H 1035.51 4.49893 1.88276 0
M  V30 10846 H 1034.52 5.49451 -0.195989 0
M  V30 10847 H 1035.74 6.78894 -0.167414 0
M  V30 10848 H 1033.69 6.24461 2.00959 0
M  V30 10849 H 1033.61 7.51402 0.832517 0
M  V30 10850 H 1034.88 7.52829 2.0216 0
M  V30 10851 N 1039.1 0.374177 1.53094 0
M  V30 10852 C 1040.35 -0.212396 2.00981 0
M  V30 10853 C 1040.67 -1.48576 1.26293 0
M  V30 10854 O 1039.94 -1.92206 0.378642 0
M  V30 10855 H 1038.52 -0.0814763 0.742543 0
M  V30 10856 H 1041.19 0.502389 1.88314 0
M  V30 10857 H 1040.28 -0.433316 3.09077 0
M  V30 10858 N 1040.58 -1.57259 0.103575 0
M  V30 10859 C 1041.49 -2.18018 -0.866327 0
M  V30 10860 C 1042.51 -1.15198 -1.30404 0
M  V30 10861 O 1043.68 -1.47605 -1.37021 0
M  V30 10862 C 1040.75 -2.75533 -2.10434 0
M  V30 10863 C 1039.81 -3.93337 -1.72002 0
M  V30 10864 C 1039.04 -4.481 -2.89901 0
M  V30 10865 O 1039.27 -4.01784 -4.04877 0
M  V30 10866 O 1038.2 -5.39004 -2.67877 0
M  V30 10867 H 1042.03 -3.01322 -0.379338 0
M  V30 10868 H 1039.61 -1.48907 -0.121228 0
M  V30 10869 H 1041.49 -3.12259 -2.8297 0
M  V30 10870 H 1040.17 -1.9527 -2.58169 0
M  V30 10871 H 1039.08 -3.61408 -0.966193 0
M  V30 10872 H 1040.41 -4.74989 -1.29022 0
M  V30 10873 N 1042.06 0.170153 -1.56679 0
M  V30 10874 C 1043.01 1.22997 -1.9742 0
M  V30 10875 C 1044 1.45762 -0.863117 0
M  V30 10876 O 1045.21 1.46328 -1.04824 0
M  V30 10877 H 1041.58 0.413482 -0.628122 0
M  V30 10878 H 1043.55 0.859502 -2.85754 0
M  V30 10879 C 1042.3 2.5615 -2.35122 0
M  V30 10880 H 1041.63 2.39456 -3.20158 0
M  V30 10881 H 1043.07 3.28991 -2.67471 0
M  V30 10882 C 1041.53 3.14992 -1.19507 0
M  V30 10883 O 1042.06 3.98781 -0.483357 0
M  V30 10884 N 1040.26 2.74098 -0.965332 0
M  V30 10885 H 1039.81 2.06062 -1.54585 0
M  V30 10886 H 1039.77 3.13803 -0.193611 0
M  V30 10887 N 1043.54 1.5137 0.438746 0
M  V30 10888 C 1044.78 1.65627 1.19779 0
M  V30 10889 C 1045.14 0.363885 1.8852 0
M  V30 10890 O 1046.34 0.382215 2.66069 0
M  V30 10891 C 1044.61 2.82536 2.18879 0
M  V30 10892 S 1046.17 3.17113 3.0329 0
M  V30 10893 H 1042.99 0.583535 0.406212 0
M  V30 10894 H 1045.59 1.89271 0.489582 0
M  V30 10895 H 1044.3 3.74879 1.67015 0
M  V30 10896 H 1043.83 2.61077 2.94283 0
M  V30 10897 H 1045.84 2.63439 4.20493 0
M  V30 10898 N 1045.02 -0.694098 1.41492 0
M  V30 10899 C 1046.27 -1.4498 1.40227 0
M  V30 10900 C 1046.58 -1.95594 0.0151253 0
M  V30 10901 O 1047.78 -2.71234 -0.120146 0
M  V30 10902 C 1046.24 -2.62171 2.46565 0
M  V30 10903 C 1045.85 -2.18337 3.91194 0
M  V30 10904 C 1047.59 -3.39796 2.54439 0
M  V30 10905 C 1045.5 -3.32495 4.89082 0
M  V30 10906 H 1044.43 -0.544584 0.521483 0
M  V30 10907 H 1047.08 -0.75337 1.67322 0
M  V30 10908 H 1045.46 -3.34089 2.12604 0
M  V30 10909 H 1046.64 -1.53698 4.34412 0
M  V30 10910 H 1044.95 -1.53702 3.86994 0
M  V30 10911 H 1047.55 -4.2478 3.24755 0
M  V30 10912 H 1047.89 -3.85082 1.5817 0
M  V30 10913 H 1048.42 -2.74935 2.87499 0
M  V30 10914 H 1045.16 -2.92219 5.86761 0
M  V30 10915 H 1044.68 -3.95978 4.50512 0
M  V30 10916 H 1046.36 -3.98251 5.09907 0
M  V30 10917 N 1046.49 -1.27344 -0.928501 0
M  V30 10918 C 1047.46 -1.10043 -2.01055 0
M  V30 10919 C 1048.46 -0.0446793 -1.60738 0
M  V30 10920 O 1049.65 -0.289202 -1.71783 0
M  V30 10921 C 1046.78 -0.676559 -3.34119 0
M  V30 10922 H 1047.97 -2.06126 -2.17835 0
M  V30 10923 H 1045.53 -1.10121 -1.10919 0
M  V30 10924 H 1046.26 0.285697 -3.23039 0
M  V30 10925 H 1046.05 -1.43903 -3.64739 0
M  V30 10926 H 1047.54 -0.577725 -4.13584 0
M  V30 10927 N 1047.97 1.13488 -1.09353 0
M  V30 10928 C 1048.94 2.17066 -0.735863 0
M  V30 10929 C 1049.94 1.59086 0.234181 0
M  V30 10930 O 1051.13 1.74196 0.012463 0
M  V30 10931 C 1048.26 3.40786 -0.0880975 0
M  V30 10932 H 1049.45 2.50221 -1.65316 0
M  V30 10933 H 1047 1.28304 -0.89263 0
M  V30 10934 H 1047.74 3.1322 0.840462 0
M  V30 10935 H 1047.52 3.8414 -0.786073 0
M  V30 10936 H 1049.01 4.17342 0.146775 0
M  V30 10937 N 1049.45 0.880621 1.30701 0
M  V30 10938 C 1050.7 0.495894 1.95922 0
M  V30 10939 C 1051.02 -0.957214 1.69889 0
M  V30 10940 O 1050.29 -1.67245 1.0201 0
M  V30 10941 H 1048.87 0.180394 0.724891 0
M  V30 10942 H 1051.53 1.12274 1.59313 0
M  V30 10943 H 1050.63 0.662508 3.04987 0
M  V30 10944 N 1050.93 -1.4397 0.641131 0
M  V30 10945 C 1052.35 -1.56607 0.30762 0
M  V30 10946 C 1052.55 -1.62694 -1.18882 0
M  V30 10947 O 1051.6 -1.57541 -1.97325 0
M  V30 10948 C 1052.91 -2.83289 1.00834 0
M  V30 10949 C 1054.46 -2.97016 0.98744 0
M  V30 10950 C 1054.94 -4.26514 1.66882 0
M  V30 10951 N 1056.43 -4.33351 1.63589 0
M  V30 10952 C 1057.16 -5.32292 2.13196 0
M  V30 10953 N 1056.66 -6.37582 2.71038 0
M  V30 10954 N 1058.45 -5.23866 2.03766 0
M  V30 10955 H 1050.6 -1.38262 1.61237 0
M  V30 10956 H 1052.87 -0.663221 0.677378 0
M  V30 10957 H 1052.57 -2.84812 2.06337 0
M  V30 10958 H 1052.45 -3.73134 0.552333 0
M  V30 10959 H 1054.83 -2.95041 -0.0591395 0
M  V30 10960 H 1054.91 -2.08493 1.48203 0
M  V30 10961 H 1054.56 -4.2925 2.71491 0
M  V30 10962 H 1054.49 -5.13912 1.14898 0
M  V30 10963 H 1056.98 -3.5788 1.21368 0
M  V30 10964 H 1057.29 -7.09378 3.06597 0
M  V30 10965 H 1055.64 -6.38239 2.75093 0
M  V30 10966 H 1058.83 -4.40524 1.58291 0
M  V30 10967 H 1059 -6.00819 2.42737 0
M  V30 10968 N 1052.41 -0.382291 -1.52893 0
M  V30 10969 C 1053.34 0.447829 -2.29165 0
M  V30 10970 C 1054.32 1.06956 -1.32267 0
M  V30 10971 O 1055.5 1.08365 -1.61154 0
M  V30 10972 C 1052.63 1.57902 -3.09329 0
M  V30 10973 C 1051.59 1.08369 -4.14053 0
M  V30 10974 C 1050.91 2.30641 -4.82399 0
M  V30 10975 C 1052.21 0.156591 -5.22065 0
M  V30 10976 H 1053.91 -0.188541 -2.98806 0
M  V30 10977 H 1051.45 -0.0921179 -1.43705 0
M  V30 10978 H 1053.41 2.16652 -3.61442 0
M  V30 10979 H 1052.13 2.24287 -2.37409 0
M  V30 10980 H 1050.79 0.518772 -3.62911 0
M  V30 10981 H 1050.44 2.9552 -4.07034 0
M  V30 10982 H 1050.14 1.98163 -5.53177 0
M  V30 10983 H 1051.66 2.90047 -5.37313 0
M  V30 10984 H 1053.08 0.652065 -5.6958 0
M  V30 10985 H 1051.47 -0.0780978 -6.00049 0
M  V30 10986 H 1052.54 -0.796529 -4.78313 0
M  V30 10987 N 1053.89 1.57202 -0.111913 0
M  V30 10988 C 1055.13 1.9495 0.547795 0
M  V30 10989 C 1055.46 0.994763 1.67137 0
M  V30 10990 O 1054.72 0.0173528 1.95692 0
M  V30 10991 C 1055.01 3.39152 1.12741 0
M  V30 10992 C 1054.68 4.50724 0.125916 0
M  V30 10993 C 1053.34 4.80968 -0.149489 0
M  V30 10994 C 1055.69 5.18215 -0.556987 0
M  V30 10995 C 1053.02 5.76023 -1.1142 0
M  V30 10996 C 1055.37 6.14307 -1.51029 0
M  V30 10997 C 1054.04 6.42947 -1.79375 0
M  V30 10998 H 1053.31 0.713372 0.200453 0
M  V30 10999 H 1055.96 1.90542 -0.191316 0
M  V30 11000 H 1054.26 3.4022 1.94313 0
M  V30 11001 H 1055.96 3.65668 1.64584 0
M  V30 11002 H 1052.55 4.27162 0.350756 0
M  V30 11003 H 1056.73 4.95012 -0.357378 0
M  V30 11004 H 1051.99 5.9652 -1.34064 0
M  V30 11005 H 1056.16 6.65692 -2.04516 0
M  V30 11006 H 1053.79 7.1641 -2.54284 0
M  V30 11007 N 1055.36 -0.161842 1.56767 0
M  V30 11008 C 1056.61 -0.878224 1.82798 0
M  V30 11009 C 1056.94 -1.81481 0.691242 0
M  V30 11010 O 1056.22 -1.92075 -0.30618 0
M  V30 11011 C 1056.5 -1.66565 3.19262 0
M  V30 11012 C 1056.35 -0.751551 4.43477 0
M  V30 11013 C 1057.67 -2.63134 3.52773 0
M  V30 11014 H 1054.79 -0.317828 0.664947 0
M  V30 11015 H 1057.43 -0.14402 1.89453 0
M  V30 11016 H 1055.58 -2.29157 3.13719 0
M  V30 11017 H 1057.26 -0.137783 4.61094 0
M  V30 11018 H 1055.5 -0.0601785 4.33758 0
M  V30 11019 H 1056.17 -1.33823 5.35533 0
M  V30 11020 H 1058.65 -2.10666 3.5883 0
M  V30 11021 H 1057.52 -3.15289 4.49315 0
M  V30 11022 H 1057.78 -3.43786 2.77963 0
M  V30 11023 N 1056.84 -1.516 -0.430713 0
M  V30 11024 C 1057.75 -1.76247 -1.54836 0
M  V30 11025 C 1058.77 -0.646985 -1.61524 0
M  V30 11026 O 1059.94 -0.929987 -1.78643 0
M  V30 11027 C 1057.01 -1.88833 -2.90763 0
M  V30 11028 C 1056.07 -3.12701 -2.94137 0
M  V30 11029 C 1055.3 -3.24676 -4.23581 0
M  V30 11030 O 1055.53 -2.42429 -5.16318 0
M  V30 11031 O 1054.46 -4.17697 -4.33374 0
M  V30 11032 H 1058.29 -2.71069 -1.3695 0
M  V30 11033 H 1055.87 -1.36182 -0.614396 0
M  V30 11034 H 1057.75 -1.99057 -3.71422 0
M  V30 11035 H 1056.43 -0.971987 -3.08762 0
M  V30 11036 H 1055.33 -3.0795 -2.1241 0
M  V30 11037 H 1056.67 -4.04045 -2.81084 0
M  V30 11038 N 1058.32 0.686584 -1.41858 0
M  V30 11039 C 1059.6 1.44176 -1.32185 0
M  V30 11040 C 1059.98 2.11049 0.046362 0
M  V30 11041 O 1059.32 2.02365 1.06117 0
M  V30 11042 C 1059.53 2.45385 -2.48168 0
M  V30 11043 C 1060.88 3.10375 -2.89746 0
M  V30 11044 O 1061.91 2.55711 -2.47973 0
M  V30 11045 O 1060.77 4.09404 -3.62009 0
M  V30 11046 H 1057.86 0.642513 -0.520678 0
M  V30 11047 H 1060.41 0.716303 -1.53841 0
M  V30 11048 H 1059.18 1.94687 -3.3943 0
M  V30 11049 H 1058.8 3.25428 -2.28435 0
M  V30 11050 N 1059.8 1.27835 0.921735 0
M  V30 11051 C 1061.02 1.17465 1.70929 0
M  V30 11052 C 1061.45 -0.264171 1.86236 0
M  V30 11053 O 1060.81 -1.19124 1.36671 0
M  V30 11054 C 1060.85 1.8697 3.08342 0
M  V30 11055 O 1059.96 1.17173 3.95404 0
M  V30 11056 H 1059.3 0.408206 0.523702 0
M  V30 11057 H 1061.83 1.69013 1.15307 0
M  V30 11058 H 1061.84 1.94564 3.58621 0
M  V30 11059 H 1060.51 2.91633 2.96518 0
M  V30 11060 H 1059.09 1.17688 3.53842 0
M  V30 11061 N 1061.28 -1.12907 1.09954 0
M  V30 11062 C 1062.52 -1.83661 0.833761 0
M  V30 11063 C 1062.84 -1.84736 -0.642798 0
M  V30 11064 O 1064.04 -2.51437 -1.0243 0
M  V30 11065 C 1062.5 -3.29763 1.44168 0
M  V30 11066 C 1062.11 -3.3706 2.95118 0
M  V30 11067 C 1063.85 -4.05522 1.25509 0
M  V30 11068 C 1061.76 -4.77467 3.48969 0
M  V30 11069 H 1060.69 -0.688115 0.308242 0
M  V30 11070 H 1063.34 -1.27166 1.32291 0
M  V30 11071 H 1061.72 -3.86094 0.880215 0
M  V30 11072 H 1062.9 -2.90695 3.57537 0
M  V30 11073 H 1061.21 -2.7477 3.12874 0
M  V30 11074 H 1063.81 -5.09188 1.63191 0
M  V30 11075 H 1064.15 -4.15837 0.196208 0
M  V30 11076 H 1064.68 -3.55536 1.78435 0
M  V30 11077 H 1061.42 -4.72344 4.54501 0
M  V30 11078 H 1060.94 -5.24305 2.91315 0
M  V30 11079 H 1062.62 -5.46397 3.46495 0
M  V30 11080 N 1062.75 -0.88754 -1.30232 0
M  V30 11081 C 1063.7 -0.327649 -2.25633 0
M  V30 11082 C 1064.69 0.545362 -1.51376 0
M  V30 11083 O 1065.88 0.389366 -1.72664 0
M  V30 11084 C 1063.01 0.454546 -3.40277 0
M  V30 11085 C 1062.09 -0.432698 -4.21887 0
M  V30 11086 N 1062.49 -1.53434 -4.81966 0
M  V30 11087 C 1060.78 -0.228275 -4.45415 0
M  V30 11088 C 1061.48 -2.08292 -5.43129 0
M  V30 11089 N 1060.46 -1.37754 -5.25856 0
M  V30 11090 H 1064.26 -1.16937 -2.69635 0
M  V30 11091 H 1061.78 -0.737232 -1.44702 0
M  V30 11092 H 1063.77 0.87231 -4.07672 0
M  V30 11093 H 1062.43 1.29367 -2.97816 0
M  V30 11094 H 1063.44 -1.91717 -4.81108 0
M  V30 11095 H 1060.12 0.573475 -4.13543 0
M  V30 11096 H 1061.51 -3.00818 -6.00798 0
M  V30 11097 N 1064.23 1.43628 -0.648757 0
M  V30 11098 C 1065.51 1.95391 -0.0904551 0
M  V30 11099 C 1065.89 1.59021 1.38837 0
M  V30 11100 O 1065.24 0.873078 2.11163 0
M  V30 11101 C 1065.45 3.47418 -0.33196 0
M  V30 11102 C 1066.8 4.23952 -0.234521 0
M  V30 11103 O 1067.82 3.55218 -0.264276 0
M  V30 11104 O 1066.68 5.46282 -0.154428 0
M  V30 11105 H 1063.77 0.82691 0.0121884 0
M  V30 11106 H 1066.32 1.5359 -0.721685 0
M  V30 11107 H 1065.09 3.67001 -1.35741 0
M  V30 11108 H 1064.71 3.96207 0.332556 0
M  V30 11109 N 1065.71 0.390394 1.52688 0
M  V30 11110 C 1066.62 -0.451543 2.30213 0
M  V30 11111 C 1067.64 -1.07051 1.37172 0
M  V30 11112 O 1068.81 -1.07609 1.70242 0
M  V30 11113 C 1065.88 -1.56299 3.0947 0
M  V30 11114 C 1064.94 -0.969017 4.18221 0
M  V30 11115 C 1064.17 -2.0275 4.93688 0
M  V30 11116 O 1064.39 -3.24273 4.69258 0
M  V30 11117 O 1063.33 -1.64418 5.79008 0
M  V30 11118 H 1067.15 0.180042 3.03166 0
M  V30 11119 H 1064.74 0.154082 1.48603 0
M  V30 11120 H 1066.62 -2.20864 3.58883 0
M  V30 11121 H 1065.3 -2.17952 2.3933 0
M  V30 11122 H 1064.2 -0.286587 3.73001 0
M  V30 11123 H 1065.54 -0.396687 4.90599 0
M  V30 11124 N 1067.19 -1.57141 0.120249 0
M  V30 11125 C 1068.44 -1.95238 -0.537449 0
M  V30 11126 C 1068.76 -1.00361 -1.66607 0
M  V30 11127 O 1068.02 -0.0277306 -1.9568 0
M  V30 11128 C 1068.32 -3.39745 -1.10941 0
M  V30 11129 C 1067.98 -4.50785 -0.102012 0
M  V30 11130 C 1066.65 -4.80882 0.174994 0
M  V30 11131 C 1069 -5.17913 0.584462 0
M  V30 11132 C 1066.33 -5.75424 1.14474 0
M  V30 11133 C 1068.68 -6.13497 1.54284 0
M  V30 11134 C 1067.34 -6.41987 1.82782 0
M  V30 11135 H 1066.61 -0.714425 -0.196666 0
M  V30 11136 H 1069.26 -1.90438 0.201418 0
M  V30 11137 H 1067.56 -3.41246 -1.92506 0
M  V30 11138 H 1069.26 -3.66536 -1.62642 0
M  V30 11139 H 1065.85 -4.27342 -0.328097 0
M  V30 11140 H 1070.03 -4.94815 0.383625 0
M  V30 11141 H 1065.29 -5.95801 1.37226 0
M  V30 11142 H 1069.46 -6.64598 2.08044 0
M  V30 11143 H 1067.09 -7.15052 2.5808 0
M  V30 11144 N 1068.67 0.153526 -1.5685 0
M  V30 11145 C 1069.91 0.868517 -1.83261 0
M  V30 11146 C 1070.25 1.81112 -0.700857 0
M  V30 11147 O 1069.52 1.92235 0.295989 0
M  V30 11148 C 1069.8 1.6487 -3.2014 0
M  V30 11149 C 1069.66 0.728021 -4.43869 0
M  V30 11150 C 1070.98 2.61259 -3.54163 0
M  V30 11151 H 1068.09 0.314297 -0.666623 0
M  V30 11152 H 1070.74 0.133971 -1.89527 0
M  V30 11153 H 1068.89 2.2749 -3.1493 0
M  V30 11154 H 1070.56 0.113328 -4.61161 0
M  V30 11155 H 1068.8 0.0371744 -4.33784 0
M  V30 11156 H 1069.47 1.30981 -5.36235 0
M  V30 11157 H 1071.95 2.0876 -3.59942 0
M  V30 11158 H 1070.82 3.12902 -4.50981 0
M  V30 11159 H 1071.09 3.42307 -2.79782 0
M  V30 11160 N 1070.14 1.51827 0.422667 0
M  V30 11161 C 1071.56 1.40328 0.760275 0
M  V30 11162 C 1071.76 0.497119 1.95272 0
M  V30 11163 O 1070.82 -0.0422083 2.52465 0
M  V30 11164 C 1072.13 2.82622 1.02689 0
M  V30 11165 C 1073.68 2.91874 1.13044 0
M  V30 11166 C 1074.15 4.35107 1.4299 0
M  V30 11167 N 1075.64 4.3828 1.49883 0
M  V30 11168 C 1076.38 5.46153 1.74655 0
M  V30 11169 N 1075.87 6.64165 1.9712 0
M  V30 11170 N 1077.67 5.33651 1.76558 0
M  V30 11171 H 1069.82 2.09285 -0.362455 0
M  V30 11172 H 1072.08 0.94273 -0.0998161 0
M  V30 11173 H 1071.79 3.50991 0.223226 0
M  V30 11174 H 1071.66 3.22844 1.95068 0
M  V30 11175 H 1074.05 2.23694 1.92471 0
M  V30 11176 H 1074.13 2.55128 0.185326 0
M  V30 11177 H 1073.77 5.03841 0.640848 0
M  V30 11178 H 1073.7 4.69377 2.38731 0
M  V30 11179 H 1076.19 3.53206 1.34366 0
M  V30 11180 H 1076.51 7.42165 2.15434 0
M  V30 11181 H 1074.85 6.67255 1.94413 0
M  V30 11182 H 1078.04 4.40436 1.58536 0
M  V30 11183 H 1078.22 6.17798 1.95525 0
M  V30 11184 N 1071.62 -0.679052 1.4222 0
M  V30 11185 C 1073.04 -0.991665 1.25053 0
M  V30 11186 C 1073.24 -2.00928 0.151665 0
M  V30 11187 O 1072.29 -2.47925 -0.478507 0
M  V30 11188 C 1073.61 -1.50053 2.60585 0
M  V30 11189 C 1075.16 -1.61852 2.67905 0
M  V30 11190 C 1075.63 -2.16135 4.03794 0
M  V30 11191 N 1077.12 -2.23474 4.05726 0
M  V30 11192 C 1077.86 -2.66541 5.07685 0
M  V30 11193 N 1077.35 -3.09092 6.20028 0
M  V30 11194 N 1079.15 -2.66252 4.95042 0
M  V30 11195 H 1071.3 -0.00521851 2.12399 0
M  V30 11196 H 1073.56 -0.0648465 0.94578 0
M  V30 11197 H 1073.27 -0.82731 3.41831 0
M  V30 11198 H 1073.14 -2.47998 2.84213 0
M  V30 11199 H 1075.53 -2.28281 1.87008 0
M  V30 11200 H 1075.61 -0.624074 2.4807 0
M  V30 11201 H 1075.25 -1.50316 4.85147 0
M  V30 11202 H 1075.18 -3.16363 4.20978 0
M  V30 11203 H 1077.67 -1.93467 3.24621 0
M  V30 11204 H 1077.99 -3.40627 6.93681 0
M  V30 11205 H 1076.33 -3.06959 6.23539 0
M  V30 11206 H 1079.52 -2.32369 4.06352 0
M  V30 11207 H 1079.69 -2.99496 5.74636 0
M  V30 11208 N 1073.1 -1.28322 -0.914942 0
M  V30 11209 C 1074.35 -1.15578 -1.66642 0
M  V30 11210 C 1074.68 0.295209 -1.91943 0
M  V30 11211 O 1073.95 1.21482 -1.51896 0
M  V30 11212 C 1074.24 -1.9535 -3.02507 0
M  V30 11213 C 1074.09 -3.48504 -2.84367 0
M  V30 11214 C 1075.41 -1.76798 -4.03027 0
M  V30 11215 H 1072.53 -0.421234 -0.604757 0
M  V30 11216 H 1075.17 -1.57625 -1.06087 0
M  V30 11217 H 1073.32 -1.59619 -3.54195 0
M  V30 11218 H 1074.99 -3.94135 -2.39699 0
M  V30 11219 H 1073.24 -3.74198 -2.1945 0
M  V30 11220 H 1073.91 -3.99576 -3.80845 0
M  V30 11221 H 1076.38 -2.07977 -3.60395 0
M  V30 11222 H 1075.26 -2.34987 -4.96057 0
M  V30 11223 H 1075.52 -0.719162 -4.36211 0
M  V30 11224 N 1074.58 1.12322 -1.10551 0
M  V30 11225 C 1075.82 1.8413 -0.849932 0
M  V30 11226 C 1076.16 1.83938 0.622946 0
M  V30 11227 O 1075.43 1.28579 1.45937 0
M  V30 11228 C 1075.72 3.31751 -1.40048 0
M  V30 11229 C 1075.57 3.40391 -2.9403 0
M  V30 11230 C 1076.89 4.27543 -1.04379 0
M  V30 11231 H 1074.01 0.668533 -0.310213 0
M  V30 11232 H 1076.65 1.31766 -1.36886 0
M  V30 11233 H 1074.8 3.76475 -0.959102 0
M  V30 11234 H 1076.47 3.04294 -3.46703 0
M  V30 11235 H 1074.71 2.809 -3.30571 0
M  V30 11236 H 1075.38 4.44252 -3.27635 0
M  V30 11237 H 1077.86 3.90951 -1.42466 0
M  V30 11238 H 1076.74 5.2924 -1.4559 0
M  V30 11239 H 1077 4.42075 0.0466316 0
M  V30 11240 N 1076.06 0.894434 1.2976 0
M  V30 11241 C 1076.97 0.372622 2.31622 0
M  V30 11242 C 1077.98 -0.52996 1.65733 0
M  V30 11243 O 1079.16 -0.420807 1.96955 0
M  V30 11244 C 1076.22 -0.396076 3.4443 0
M  V30 11245 C 1075.28 0.537394 4.25923 0
M  V30 11246 C 1074.52 -0.194713 5.33345 0
M  V30 11247 O 1074.74 -1.41943 5.52457 0
M  V30 11248 O 1073.67 0.460055 6.00139 0
M  V30 11249 H 1077.5 1.21756 2.78225 0
M  V30 11250 H 1075.09 0.65858 1.34101 0
M  V30 11251 H 1076.97 -0.830962 4.13126 0
M  V30 11252 H 1075.64 -1.21716 2.99945 0
M  V30 11253 H 1074.55 1.02129 3.5989 0
M  V30 11254 H 1075.88 1.32475 4.74037 0
M  V30 11255 N 1077.53 -1.43282 0.656365 0
M  V30 11256 C 1078.44 -2.34576 -0.033864 0
M  V30 11257 C 1079.46 -1.5406 -0.808793 0
M  V30 11258 O 1080.64 -1.867 -0.755322 0
M  V30 11259 C 1077.7 -3.32378 -0.986197 0
M  V30 11260 C 1076.76 -4.28797 -0.207851 0
M  V30 11261 C 1076 -5.21927 -1.11482 0
M  V30 11262 O 1076.22 -5.19554 -2.35414 0
M  V30 11263 O 1075.15 -5.99045 -0.585536 0
M  V30 11264 H 1078.98 -2.95099 0.717668 0
M  V30 11265 H 1076.56 -1.43475 0.416556 0
M  V30 11266 H 1078.45 -3.9251 -1.53341 0
M  V30 11267 H 1077.12 -2.74354 -1.7179 0
M  V30 11268 H 1076.03 -3.72134 0.383022 0
M  V30 11269 H 1077.36 -4.89811 0.48435 0
M  V30 11270 N 1079.01 -0.398486 -1.52479 0
M  V30 11271 C 1080.26 0.181019 -2.0199 0
M  V30 11272 C 1080.59 1.45691 -1.28405 0
M  V30 11273 O 1079.87 1.90607 -0.387207 0
M  V30 11274 C 1080.15 0.439587 -3.57407 0
M  V30 11275 C 1080 -0.85223 -4.41653 0
M  V30 11276 C 1081.32 1.2263 -4.2267 0
M  V30 11277 H 1078.44 0.0643164 -0.734188 0
M  V30 11278 H 1081.08 -0.52986 -1.82462 0
M  V30 11279 H 1079.23 1.04516 -3.74177 0
M  V30 11280 H 1080.91 -1.48879 -4.36615 0
M  V30 11281 H 1079.15 -1.46555 -4.08294 0
M  V30 11282 H 1079.82 -0.625839 -5.48441 0
M  V30 11283 H 1082.3 0.713722 -4.09933 0
M  V30 11284 H 1081.17 1.37596 -5.31374 0
M  V30 11285 H 1081.43 2.24403 -3.80914 0
M  V30 11286 N 1080.49 1.57075 -0.12858 0
M  V30 11287 C 1081.91 1.57964 0.227961 0
M  V30 11288 C 1082.11 1.14186 1.66023 0
M  V30 11289 O 1081.16 0.833655 2.38341 0
M  V30 11290 C 1082.48 3.00697 -0.0140648 0
M  V30 11291 C 1084.02 3.12958 0.0510876 0
M  V30 11292 C 1084.5 4.57709 -0.163368 0
M  V30 11293 N 1085.99 4.6307 -0.109663 0
M  V30 11294 C 1086.73 5.72853 -0.250366 0
M  V30 11295 N 1086.22 6.91351 -0.447772 0
M  V30 11296 N 1088.01 5.61781 -0.189265 0
M  V30 11297 H 1080.17 1.83829 -1.06398 0
M  V30 11298 H 1082.43 0.850014 -0.419739 0
M  V30 11299 H 1082.13 3.37047 -1.00461 0
M  V30 11300 H 1082.01 3.70389 0.713571 0
M  V30 11301 H 1084.4 2.7646 1.03216 0
M  V30 11302 H 1084.48 2.4579 -0.708583 0
M  V30 11303 H 1084.12 4.94907 -1.14146 0
M  V30 11304 H 1084.05 5.2298 0.616405 0
M  V30 11305 H 1086.54 3.7788 0.0390086 0
M  V30 11306 H 1086.85 7.70871 -0.54574 0
M  V30 11307 H 1085.2 6.93314 -0.483866 0
M  V30 11308 H 1088.39 4.68086 -0.0359374 0
M  V30 11309 H 1088.56 6.47294 -0.302359 0
M  V30 11310 N 1081.97 -0.145205 1.5693 0
M  V30 11311 C 1082.92 -1.17923 1.98401 0
M  V30 11312 C 1083.89 -1.42591 0.851885 0
M  V30 11313 O 1085.07 -1.54896 1.11409 0
M  V30 11314 C 1082.21 -2.50727 2.37128 0
M  V30 11315 C 1081.32 -2.33218 3.63639 0
M  V30 11316 C 1080.46 -3.5907 3.91462 0
M  V30 11317 C 1079.5 -3.36605 5.11237 0
M  V30 11318 N 1078.64 -4.54592 5.35061 0
M  V30 11319 H 1083.48 -0.818573 2.86537 0
M  V30 11320 H 1081.01 -0.392739 1.4176 0
M  V30 11321 H 1082.97 -3.28165 2.57611 0
M  V30 11322 H 1081.6 -2.84736 1.52069 0
M  V30 11323 H 1080.65 -1.46826 3.50922 0
M  V30 11324 H 1081.96 -2.12579 4.51234 0
M  V30 11325 H 1081.12 -4.44936 4.12453 0
M  V30 11326 H 1079.86 -3.82715 3.02293 0
M  V30 11327 H 1078.86 -2.49127 4.90118 0
M  V30 11328 H 1080.09 -3.14357 6.01961 0
M  V30 11329 H 1078.03 -4.78406 4.48847 0
M  V30 11330 H 1077.95 -4.36962 6.16928 0
M  V30 11331 H 1079.22 -5.41666 5.60551 0
M  V30 11332 N 1083.45 -1.52049 -0.414609 0
M  V30 11333 C 1084.38 -1.69712 -1.52555 0
M  V30 11334 C 1085.36 -0.544681 -1.53206 0
M  V30 11335 O 1086.54 -0.771358 -1.71995 0
M  V30 11336 C 1083.67 -1.73145 -2.91099 0
M  V30 11337 C 1082.72 -2.94624 -3.08382 0
M  V30 11338 S 1083.55 -4.55062 -2.82274 0
M  V30 11339 C 1084.7 -4.61274 -4.23057 0
M  V30 11340 H 1084.94 -2.63675 -1.37342 0
M  V30 11341 H 1082.47 -1.42018 -0.605824 0
M  V30 11342 H 1084.43 -1.75808 -3.70947 0
M  V30 11343 H 1083.09 -0.803198 -3.03657 0
M  V30 11344 H 1082.28 -2.93492 -4.0973 0
M  V30 11345 H 1081.88 -2.8982 -2.36391 0
M  V30 11346 H 1084.18 -4.38313 -5.16612 0
M  V30 11347 H 1085.12 -5.63188 -4.29214 0
M  V30 11348 H 1085.53 -3.90361 -4.07773 0
M  V30 11349 N 1084.93 0.6715 -1.42579 0
M  V30 11350 C 1085.87 1.78496 -1.46314 0
M  V30 11351 C 1086.84 1.63091 -0.314743 0
M  V30 11352 O 1088.03 1.83597 -0.519292 0
M  V30 11353 C 1085.17 3.16548 -1.37447 0
M  V30 11354 C 1084.28 3.43216 -2.62348 0
M  V30 11355 C 1083.42 4.71014 -2.456 0
M  V30 11356 C 1082.45 4.90728 -3.65859 0
M  V30 11357 N 1081.59 6.09769 -3.48032 0
M  V30 11358 H 1086.43 1.74638 -2.41466 0
M  V30 11359 H 1083.97 0.852491 -1.19879 0
M  V30 11360 H 1085.93 3.96329 -1.30303 0
M  V30 11361 H 1084.56 3.19522 -0.458891 0
M  V30 11362 H 1083.61 2.57664 -2.79846 0
M  V30 11363 H 1084.92 3.53675 -3.51732 0
M  V30 11364 H 1084.07 5.58892 -2.3606 0
M  V30 11365 H 1082.81 4.62843 -1.53712 0
M  V30 11366 H 1081.82 4.01291 -3.75827 0
M  V30 11367 H 1083.04 5.00741 -4.58732 0
M  V30 11368 H 1080.99 6.02765 -2.58864 0
M  V30 11369 H 1080.91 6.21104 -4.31005 0
M  V30 11370 H 1082.17 7.00317 -3.42311 0
M  V30 11371 N 1086.4 1.28806 0.908124 0
M  V30 11372 C 1087.65 1.1646 1.66027 0
M  V30 11373 C 1087.98 -0.285025 1.92097 0
M  V30 11374 O 1087.26 -1.20675 1.52538 0
M  V30 11375 C 1087.54 1.96951 3.01467 0
M  V30 11376 C 1087.39 3.50007 2.82515 0
M  V30 11377 C 1088.71 1.78932 4.02084 0
M  V30 11378 H 1085.83 0.424435 0.602515 0
M  V30 11379 H 1088.47 1.58185 1.0525 0
M  V30 11380 H 1086.62 1.61495 3.53344 0
M  V30 11381 H 1088.3 3.95401 2.37605 0
M  V30 11382 H 1086.54 3.75356 2.17463 0
M  V30 11383 H 1087.21 4.01591 3.7872 0
M  V30 11384 H 1089.69 2.09885 3.59287 0
M  V30 11385 H 1088.56 2.37615 4.94803 0
M  V30 11386 H 1088.82 0.742286 4.35824 0
M  V30 11387 N 1087.88 -1.11734 1.11145 0
M  V30 11388 C 1089.13 -1.83043 0.856717 0
M  V30 11389 C 1089.45 -1.84901 -0.619407 0
M  V30 11390 O 1088.72 -1.31738 -1.44989 0
M  V30 11391 H 1087.3 -0.677823 0.31395 0
M  V30 11392 H 1089.96 -1.35262 1.40322 0
M  V30 11393 H 1089.06 -2.87005 1.22616 0
M  V30 11394 N 1089.36 -0.901303 -1.29284 0
M  V30 11395 C 1090.31 -0.370142 -2.29636 0
M  V30 11396 C 1091.3 0.53157 -1.60844 0
M  V30 11397 O 1092.51 0.414194 -1.7517 0
M  V30 11398 H 1088.88 -0.101072 -0.745177 0
M  V30 11399 H 1090.85 -1.22985 -2.71877 0
M  V30 11400 C 1089.6 0.385806 -3.45553 0
M  V30 11401 H 1088.93 -0.298818 -3.98682 0
M  V30 11402 H 1090.37 0.722299 -4.17802 0
M  V30 11403 C 1088.82 1.58907 -2.97069 0
M  V30 11404 O 1089.35 2.68835 -2.98481 0
M  V30 11405 N 1087.56 1.43178 -2.5288 0
M  V30 11406 H 1087.11 0.537467 -2.51931 0
M  V30 11407 H 1087.07 2.23819 -2.208 0
M  V30 11408 N 1090.84 1.42931 -0.663954 0
M  V30 11409 C 1092.25 1.84877 -0.260283 0
M  V30 11410 C 1092.6 1.5558 1.19538 0
M  V30 11411 O 1091.72 1.01015 1.91377 0
M  V30 11412 C 1092.32 3.35585 -0.465618 0
M  V30 11413 C 1090.88 3.76221 -0.116169 0
M  V30 11414 C 1090.03 2.66587 -0.763317 0
M  V30 11415 H 1092.98 1.32932 -0.866882 0
M  V30 11416 H 1093 3.79427 0.285608 0
M  V30 11417 H 1092.51 3.56877 -1.52515 0
M  V30 11418 H 1090.61 3.60539 0.940342 0
M  V30 11419 H 1090.72 4.75943 -0.549123 0
M  V30 11420 H 1089.09 2.53948 -0.19559 0
M  V30 11421 H 1089.87 2.90704 -1.82609 0
M  V30 11422 N 1092.32 0.406567 1.52266 0
M  V30 11423 C 1093.25 -0.411314 2.29849 0
M  V30 11424 C 1094.23 -1.04838 1.33952 0
M  V30 11425 O 1095.41 -1.05788 1.62857 0
M  V30 11426 C 1092.54 -1.52961 3.11802 0
M  V30 11427 C 1091.5 -1.01768 4.15725 0
M  V30 11428 C 1090.82 -2.22938 4.86007 0
M  V30 11429 C 1092.12 -0.073515 5.22248 0
M  V30 11430 H 1093.82 0.236054 2.98468 0
M  V30 11431 H 1091.36 0.114968 1.4354 0
M  V30 11432 H 1093.31 -2.10874 3.64843 0
M  V30 11433 H 1092.04 -2.20482 2.40947 0
M  V30 11434 H 1090.7 -0.46097 3.6369 0
M  V30 11435 H 1090.35 -2.89007 4.11684 0
M  V30 11436 H 1090.05 -1.89338 5.5626 0
M  V30 11437 H 1091.57 -2.81462 5.41859 0
M  V30 11438 H 1092.98 -0.561367 5.70545 0
M  V30 11439 H 1091.38 0.173551 5.99849 0
M  V30 11440 H 1092.45 0.872524 4.76985 0
M  V30 11441 N 1093.79 -1.57004 0.136909 0
M  V30 11442 C 1095.07 -1.87375 -0.561233 0
M  V30 11443 C 1095.45 -1.04117 -1.83638 0
M  V30 11444 O 1094.8 -0.125103 -2.28157 0
M  V30 11445 C 1095.01 -3.38829 -0.836426 0
M  V30 11446 C 1096.36 -4.07826 -1.18164 0
M  V30 11447 O 1097.38 -3.4395 -0.92611 0
M  V30 11448 O 1096.24 -5.20614 -1.66204 0
M  V30 11449 H 1093.33 -0.776287 -0.285145 0
M  V30 11450 H 1095.88 -1.68818 0.172761 0
M  V30 11451 H 1094.65 -3.91244 0.066442 0
M  V30 11452 H 1094.28 -3.62879 -1.62496 0
M  V30 11453 N 1095.27 0.136881 -1.57004 0
M  V30 11454 C 1096.69 0.489856 -1.51897 0
M  V30 11455 C 1096.89 1.82833 -0.847009 0
M  V30 11456 O 1095.94 2.48952 -0.421792 0
M  V30 11457 C 1097.26 0.490831 -2.96667 0
M  V30 11458 C 1098.81 0.575639 -3.07661 0
M  V30 11459 C 1099.28 0.607178 -4.53957 0
M  V30 11460 N 1100.77 0.66912 -4.58342 0
M  V30 11461 C 1101.51 0.714675 -5.68929 0
M  V30 11462 N 1101 0.718959 -6.89059 0
M  V30 11463 N 1102.8 0.756326 -5.56988 0
M  V30 11464 H 1094.95 -0.740347 -1.99079 0
M  V30 11465 H 1097.21 -0.271116 -0.908405 0
M  V30 11466 H 1096.92 -0.424648 -3.49127 0
M  V30 11467 H 1096.79 1.32512 -3.53158 0
M  V30 11468 H 1099.18 1.48154 -2.55215 0
M  V30 11469 H 1099.26 -0.285991 -2.54196 0
M  V30 11470 H 1098.9 -0.294604 -5.07045 0
M  V30 11471 H 1098.83 1.48544 -5.05215 0
M  V30 11472 H 1101.32 0.672697 -3.71864 0
M  V30 11473 H 1101.64 0.755848 -7.69095 0
M  V30 11474 H 1099.98 0.686671 -6.91599 0
M  V30 11475 H 1103.17 0.750219 -4.62049 0
M  V30 11476 H 1103.34 0.788363 -6.43186 0
M  V30 11477 N 1096.75 1.52266 0.40654 0
M  V30 11478 C 1098.03 1.57018 1.1664 0
M  V30 11479 C 1098.41 0.352752 2.08132 0
M  V30 11480 O 1097.76 -0.660208 2.18754 0
M  V30 11481 C 1097.97 2.90016 1.94143 0
M  V30 11482 C 1099.31 3.43112 2.50119 0
M  V30 11483 O 1100.34 2.91773 2.0432 0
M  V30 11484 O 1099.2 4.32765 3.33731 0
M  V30 11485 H 1096.29 0.632574 0.532709 0
M  V30 11486 H 1098.84 1.64595 0.413111 0
M  V30 11487 H 1097.61 3.70071 1.27134 0
M  V30 11488 H 1097.23 2.85744 2.76471 0
M  V30 11489 N 1098.23 -0.663929 1.42933 0
M  V30 11490 C 1099.46 -1.45192 1.474 0
M  V30 11491 C 1099.87 -1.88592 0.0886014 0
M  V30 11492 O 1099.23 -1.58824 -0.898962 0
M  V30 11493 C 1099.28 -2.69394 2.41059 0
M  V30 11494 O 1099 -2.27812 3.7421 0
M  V30 11495 C 1100.5 -3.62855 2.54659 0
M  V30 11496 H 1097.72 -0.446394 0.500973 0
M  V30 11497 H 1100.27 -0.814875 1.87563 0
M  V30 11498 H 1098.42 -3.29262 2.0412 0
M  V30 11499 H 1098.83 -3.08095 4.24474 0
M  V30 11500 H 1100.31 -4.46698 3.24291 0
M  V30 11501 H 1100.79 -4.09487 1.58799 0
M  V30 11502 H 1101.39 -3.08874 2.92364 0
M  V30 11503 N 1099.71 -1.29285 -0.901281 0
M  V30 11504 C 1100.98 -1.07847 -1.63182 0
M  V30 11505 C 1101.36 0.377927 -2.07689 0
M  V30 11506 O 1100.71 1.36642 -1.83143 0
M  V30 11507 C 1100.92 -2.06457 -2.81383 0
M  V30 11508 C 1102.27 -2.37289 -3.52107 0
M  V30 11509 O 1103.29 -2.0464 -2.91549 0
M  V30 11510 O 1102.15 -2.93067 -4.61274 0
M  V30 11511 H 1099.25 -0.413073 -0.71645 0
M  V30 11512 H 1101.79 -1.40651 -0.949488 0
M  V30 11513 H 1100.56 -3.04561 -2.4568 0
M  V30 11514 H 1100.19 -1.74374 -3.57323 0
M  V30 11515 N 1101.18 1.11143 -1.11736 0
M  V30 11516 C 1102.13 2.15396 -0.747566 0
M  V30 11517 C 1103.12 1.58948 0.249894 0
M  V30 11518 O 1104.31 1.7691 0.0565267 0
M  V30 11519 C 1101.44 3.42741 -0.195776 0
M  V30 11520 C 1100.53 4.06141 -1.22109 0
M  V30 11521 N 1100.92 4.44351 -2.41631 0
M  V30 11522 C 1099.21 4.33104 -1.06474 0
M  V30 11523 C 1099.92 4.94062 -3.07046 0
M  V30 11524 N 1098.89 4.90411 -2.34516 0
M  V30 11525 H 1102.69 2.42722 -1.6572 0
M  V30 11526 H 1100.21 1.28189 -0.997059 0
M  V30 11527 H 1102.2 4.16809 0.0872984 0
M  V30 11528 H 1100.86 3.16878 0.708406 0
M  V30 11529 H 1101.88 4.36283 -2.79065 0
M  V30 11530 H 1098.55 4.16934 -0.217246 0
M  V30 11531 H 1099.94 5.33234 -4.08792 0
M  V30 11532 N 1102.66 0.908147 1.28804 0
M  V30 11533 C 1103.91 0.53734 1.94826 0
M  V30 11534 C 1104.23 -0.920962 1.71882 0
M  V30 11535 O 1103.5 -1.65043 1.05534 0
M  V30 11536 H 1102.08 0.195729 0.720902 0
M  V30 11537 H 1104.74 1.15628 1.56895 0
M  V30 11538 H 1103.84 0.727052 3.03513 0
M  V30 11539 N 1104.14 -1.42577 0.671525 0
M  V30 11540 C 1105.55 -1.84736 0.270084 0
M  V30 11541 C 1105.9 -1.56212 -1.18711 0
M  V30 11542 O 1105.03 -1.02028 -1.90838 0
M  V30 11543 C 1105.62 -3.35334 0.483409 0
M  V30 11544 C 1104.18 -3.76154 0.136119 0
M  V30 11545 C 1103.33 -2.66179 0.777444 0
M  V30 11546 H 1106.28 -1.3247 0.873919 0
M  V30 11547 H 1106.3 -3.79573 -0.265483 0
M  V30 11548 H 1105.81 -3.56063 1.54405 0
M  V30 11549 H 1103.91 -3.61033 -0.921209 0
M  V30 11550 H 1104.03 -4.75645 0.574356 0
M  V30 11551 H 1102.39 -2.53841 0.209055 0
M  V30 11552 H 1103.17 -2.89732 1.84148 0
M  V30 11553 N 1105.62 -0.414636 -1.52048 0
M  V30 11554 C 1106.55 0.443601 -2.24866 0
M  V30 11555 C 1107.56 1.00556 -1.28032 0
M  V30 11556 O 1108.75 0.903566 -1.53941 0
M  V30 11557 C 1105.85 1.63004 -2.97124 0
M  V30 11558 C 1105.03 1.191 -4.20873 0
M  V30 11559 C 1104.08 2.24497 -4.75907 0
M  V30 11560 O 1103.11 1.84861 -5.38345 0
M  V30 11561 N 1104.31 3.56727 -4.57959 0
M  V30 11562 H 1107.08 -0.180393 -2.99157 0
M  V30 11563 H 1104.64 -0.242305 -1.60077 0
M  V30 11564 H 1106.63 2.33089 -3.30835 0
M  V30 11565 H 1105.2 2.15984 -2.25986 0
M  V30 11566 H 1104.42 0.318059 -3.92915 0
M  V30 11567 H 1105.71 0.874699 -5.01225 0
M  V30 11568 H 1105.11 3.91675 -4.08175 0
M  V30 11569 H 1103.66 4.22772 -4.96092 0
M  V30 11570 N 1107.1 1.56929 -0.145233 0
M  V30 11571 C 1108.04 2.17958 0.812237 0
M  V30 11572 C 1109.04 1.13608 1.25657 0
M  V30 11573 O 1110.24 1.31861 1.22526 0
M  V30 11574 H 1106.62 0.697876 0.28013 0
M  V30 11575 H 1108.59 2.97146 0.273297 0
M  V30 11576 C 1107.34 2.81418 2.04203 0
M  V30 11577 H 1106.66 3.61427 1.70911 0
M  V30 11578 H 1108.1 3.27624 2.69144 0
M  V30 11579 C 1106.56 1.79835 2.84888 0
M  V30 11580 O 1107.09 1.26773 3.81171 0
M  V30 11581 N 1105.3 1.49179 2.49387 0
M  V30 11582 H 1104.84 1.9252 1.71154 0
M  V30 11583 H 1104.8 0.81458 3.03664 0
M  V30 11584 N 1108.58 -0.128553 1.57075 0
M  V30 11585 C 1109.53 -1.16373 1.96065 0
M  V30 11586 C 1110.51 -1.37579 0.834323 0
M  V30 11587 O 1111.7 -1.38831 1.09795 0
M  V30 11588 C 1108.83 -2.49276 2.36043 0
M  V30 11589 C 1107.92 -2.31586 3.55287 0
M  V30 11590 N 1108.31 -1.83688 4.71267 0
M  V30 11591 C 1106.61 -2.62275 3.60732 0
M  V30 11592 C 1107.31 -1.79479 5.53319 0
M  V30 11593 N 1106.28 -2.23474 4.95541 0
M  V30 11594 H 1110.08 -0.785792 2.832 0
M  V30 11595 H 1107.6 -0.33641 1.58877 0
M  V30 11596 H 1109.6 -3.24134 2.62188 0
M  V30 11597 H 1108.26 -2.87837 1.50267 0
M  V30 11598 H 1109.27 -1.53376 4.94668 0
M  V30 11599 H 1105.94 -3.04586 2.85541 0
M  V30 11600 H 1107.33 -1.43781 6.56336 0
M  V30 11601 N 1110.05 -1.5248 -0.398459 0
M  V30 11602 C 1111 -1.72965 -1.4855 0
M  V30 11603 C 1111.99 -0.583628 -1.49942 0
M  V30 11604 O 1113.18 -0.841106 -1.55738 0
M  V30 11605 C 1110.31 -1.89339 -2.86366 0
M  V30 11606 C 1109.39 -3.09845 -2.8958 0
M  V30 11607 N 1109.79 -4.32365 -2.62477 0
M  V30 11608 C 1108.08 -3.09897 -3.20749 0
M  V30 11609 C 1108.78 -5.13908 -2.72532 0
M  V30 11610 N 1107.76 -4.49387 -3.05864 0
M  V30 11611 H 1111.56 -2.65327 -1.26406 0
M  V30 11612 H 1109.08 -1.50658 -0.606299 0
M  V30 11613 H 1111.07 -2.02134 -3.64619 0
M  V30 11614 H 1109.73 -0.981841 -3.095 0
M  V30 11615 H 1110.74 -4.60659 -2.36673 0
M  V30 11616 H 1107.42 -2.28518 -3.49408 0
M  V30 11617 H 1108.81 -6.21548 -2.55202 0
M  V30 11618 N 1111.53 0.65634 -1.43283 0
M  V30 11619 C 1112.49 1.75117 -1.47874 0
M  V30 11620 C 1113.49 1.56629 -0.363846 0
M  V30 11621 O 1114.68 1.62584 -0.625464 0
M  V30 11622 C 1111.82 3.13957 -1.32831 0
M  V30 11623 H 1113.01 1.72429 -2.45374 0
M  V30 11624 H 1110.56 0.867704 -1.30002 0
M  V30 11625 H 1111.3 3.22259 -0.36326 0
M  V30 11626 H 1111.08 3.28781 -2.13649 0
M  V30 11627 H 1112.57 3.93799 -1.38969 0
M  V30 11628 N 1113.01 1.29761 0.894412 0
M  V30 11629 C 1113.96 1.11962 1.98617 0
M  V30 11630 C 1114.94 0.0374952 1.60856 0
M  V30 11631 O 1116.14 0.259789 1.75083 0
M  V30 11632 C 1113.26 0.803708 3.3376 0
M  V30 11633 C 1112.35 1.92563 3.77863 0
M  V30 11634 N 1112.74 3.16983 3.94152 0
M  V30 11635 C 1111.04 1.81986 4.07182 0
M  V30 11636 C 1111.74 3.90212 4.31404 0
M  V30 11637 N 1110.72 3.18194 4.40742 0
M  V30 11638 H 1114.52 2.06339 2.09287 0
M  V30 11639 H 1112.03 1.20963 1.08359 0
M  V30 11640 H 1114.03 0.657223 4.11687 0
M  V30 11641 H 1112.69 -0.132098 3.24431 0
M  V30 11642 H 1113.7 3.52378 3.79539 0
M  V30 11643 H 1110.38 0.957112 4.06381 0
M  V30 11644 H 1111.77 4.97312 4.51808 0
M  V30 11645 N 1114.49 -1.10549 1.12324 0
M  V30 11646 C 1115.42 -2.18911 0.812416 0
M  V30 11647 C 1116.4 -1.68628 -0.22327 0
M  V30 11648 O 1117.58 -1.94015 -0.0847184 0
M  V30 11649 C 1114.71 -3.46288 0.264947 0
M  V30 11650 C 1113.67 -4.09838 1.23356 0
M  V30 11651 C 1112.99 -5.31901 0.546374 0
M  V30 11652 C 1114.29 -4.53686 2.58778 0
M  V30 11653 H 1115.99 -2.45169 1.71851 0
M  V30 11654 H 1113.53 -1.17834 0.827715 0
M  V30 11655 H 1115.49 -4.21385 0.0352364 0
M  V30 11656 H 1114.21 -3.19517 -0.676479 0
M  V30 11657 H 1112.87 -3.36746 1.44906 0
M  V30 11658 H 1112.52 -5.01406 -0.400157 0
M  V30 11659 H 1112.22 -5.75372 1.19249 0
M  V30 11660 H 1113.74 -6.09731 0.325673 0
M  V30 11661 H 1115.16 -5.20063 2.41263 0
M  V30 11662 H 1113.55 -5.08003 3.19457 0
M  V30 11663 H 1114.62 -3.66665 3.17309 0
M  V30 11664 N 1115.97 -0.914965 -1.28321 0
M  V30 11665 C 1117.21 -0.549562 -1.95212 0
M  V30 11666 C 1117.54 0.904658 -1.71842 0
M  V30 11667 O 1116.82 1.64354 -1.04009 0
M  V30 11668 C 1117.1 -0.860927 -3.49657 0
M  V30 11669 C 1116.96 -2.36797 -3.82423 0
M  V30 11670 C 1118.27 -0.357926 -4.38642 0
M  V30 11671 H 1115.39 -0.201136 -0.709023 0
M  V30 11672 H 1118.04 -1.14443 -1.51667 0
M  V30 11673 H 1116.19 -0.354665 -3.86878 0
M  V30 11674 H 1117.86 -2.94494 -3.55065 0
M  V30 11675 H 1116.1 -2.82245 -3.29424 0
M  V30 11676 H 1116.77 -2.53637 -4.90278 0
M  V30 11677 H 1119.25 -0.791636 -4.085 0
M  V30 11678 H 1118.12 -0.604855 -5.45557 0
M  V30 11679 H 1118.38 0.741775 -4.35833 0
M  V30 11680 N 1117.44 1.42219 -0.679077 0
M  V30 11681 C 1118.39 2.308 -0.00340316 0
M  V30 11682 C 1119.36 1.462 0.788334 0
M  V30 11683 O 1120.55 1.75023 0.759716 0
M  V30 11684 C 1117.69 3.32084 0.938854 0
M  V30 11685 C 1116.8 4.31772 0.140485 0
M  V30 11686 C 1115.93 5.20128 1.07888 0
M  V30 11687 C 1114.97 6.11493 0.27245 0
M  V30 11688 N 1114.11 6.92388 1.16378 0
M  V30 11689 H 1118.95 2.88024 -0.764587 0
M  V30 11690 H 1116.49 1.41869 -0.38878 0
M  V30 11691 H 1118.44 3.89339 1.49903 0
M  V30 11692 H 1117.07 2.76448 1.66662 0
M  V30 11693 H 1116.13 3.76599 -0.536376 0
M  V30 11694 H 1117.44 4.96432 -0.485433 0
M  V30 11695 H 1116.59 5.82137 1.70884 0
M  V30 11696 H 1115.33 4.55655 1.73868 0
M  V30 11697 H 1114.34 5.48549 -0.370693 0
M  V30 11698 H 1115.56 6.78017 -0.383315 0
M  V30 11699 H 1113.51 6.30538 1.8099 0
M  V30 11700 H 1113.42 7.5367 0.593043 0
M  V30 11701 H 1114.69 7.58879 1.78107 0
M  V30 11702 N 1118.92 0.422693 1.51826 0
M  V30 11703 C 1119.85 -0.386913 2.30272 0
M  V30 11704 C 1120.83 -1.03411 1.35056 0
M  V30 11705 O 1122.02 -1.04055 1.6397 0
M  V30 11706 C 1119.15 -1.49645 3.13407 0
M  V30 11707 C 1118.1 -0.973532 4.16781 0
M  V30 11708 C 1117.43 -2.1777 4.88344 0
M  V30 11709 C 1118.73 -0.0181194 5.22297 0
M  V30 11710 H 1120.42 0.267697 2.98201 0
M  V30 11711 H 1117.97 0.130186 1.4341 0
M  V30 11712 H 1119.92 -2.06993 3.67059 0
M  V30 11713 H 1118.64 -2.17914 2.43272 0
M  V30 11714 H 1117.3 -0.42237 3.64159 0
M  V30 11715 H 1116.95 -2.84625 4.14726 0
M  V30 11716 H 1116.65 -1.83427 5.58237 0
M  V30 11717 H 1118.18 -2.75699 5.44814 0
M  V30 11718 H 1119.59 -0.500822 5.71108 0
M  V30 11719 H 1117.99 0.237163 5.99631 0
M  V30 11720 H 1119.06 0.923065 4.76033 0
M  V30 11721 N 1120.4 -1.5685 0.153553 0
M  V30 11722 C 1121.33 -2.12888 -0.821829 0
M  V30 11723 C 1122.31 -1.05418 -1.23798 0
M  V30 11724 O 1123.49 -1.33288 -1.33292 0
M  V30 11725 C 1120.62 -2.65394 -2.10438 0
M  V30 11726 C 1119.67 -3.85071 -1.83364 0
M  V30 11727 S 1120.5 -5.2572 -1.01877 0
M  V30 11728 C 1121.66 -5.81619 -2.31236 0
M  V30 11729 H 1121.89 -2.95288 -0.345314 0
M  V30 11730 H 1119.42 -1.5428 -0.0608377 0
M  V30 11731 H 1121.38 -2.96294 -2.84113 0
M  V30 11732 H 1120.04 -1.83112 -2.55204 0
M  V30 11733 H 1119.23 -4.20076 -2.78482 0
M  V30 11734 H 1118.84 -3.54965 -1.17794 0
M  V30 11735 H 1121.13 -5.9345 -3.26838 0
M  V30 11736 H 1122.07 -6.79054 -2.00727 0
M  V30 11737 H 1122.48 -5.09909 -2.42184 0
M  V30 11738 N 1121.88 0.120221 -1.57141 0
M  V30 11739 C 1122.79 1.16641 -2.03549 0
M  V30 11740 C 1123.8 1.45407 -0.955656 0
M  V30 11741 O 1124.98 1.56547 -1.26708 0
M  V30 11742 C 1122.04 2.4734 -2.42948 0
M  V30 11743 C 1121.11 2.25982 -3.65008 0
M  V30 11744 C 1120.34 3.50449 -4.02518 0
M  V30 11745 O 1120.56 4.57706 -3.40384 0
M  V30 11746 O 1119.5 3.41524 -4.95626 0
M  V30 11747 H 1123.32 0.802323 -2.9291 0
M  V30 11748 H 1120.91 0.330927 -1.45689 0
M  V30 11749 H 1122.79 3.24348 -2.69029 0
M  V30 11750 H 1121.46 2.83225 -1.56733 0
M  V30 11751 H 1120.37 1.46837 -3.44078 0
M  V30 11752 H 1121.7 1.95002 -4.51924 0
M  V30 11753 N 1123.36 1.52689 0.390367 0
M  V30 11754 C 1124.59 1.71292 1.1551 0
M  V30 11755 C 1124.99 0.430405 1.84239 0
M  V30 11756 O 1124.34 -0.604823 1.73458 0
M  V30 11757 C 1124.4 2.80597 2.24735 0
M  V30 11758 C 1124.06 4.21757 1.75984 0
M  V30 11759 C 1125.06 5.04961 1.23733 0
M  V30 11760 C 1122.75 4.68071 1.82248 0
M  V30 11761 C 1124.74 6.32561 0.783926 0
M  V30 11762 C 1122.43 5.95656 1.36519 0
M  V30 11763 C 1123.42 6.7773 0.846786 0
M  V30 11764 O 1123.11 8.02923 0.396164 0
M  V30 11765 H 1122.84 0.576906 0.352356 0
M  V30 11766 H 1125.4 2.00117 0.462865 0
M  V30 11767 H 1123.63 2.4719 2.97378 0
M  V30 11768 H 1125.32 2.87616 2.86412 0
M  V30 11769 H 1126.08 4.70363 1.18251 0
M  V30 11770 H 1121.96 4.04278 2.21541 0
M  V30 11771 H 1125.51 6.96572 0.378612 0
M  V30 11772 H 1121.4 6.29758 1.41686 0
M  V30 11773 H 1122.17 8.16861 0.517766 0
M  V30 11774 N 1124.83 -0.648732 1.43629 0
M  V30 11775 C 1126.07 -1.42032 1.46991 0
M  V30 11776 C 1126.44 -1.91774 0.0931841 0
M  V30 11777 O 1127.64 -2.688 0.00148504 0
M  V30 11778 C 1125.91 -2.56693 2.48684 0
M  V30 11779 S 1127.47 -3.45149 2.70956 0
M  V30 11780 H 1124.29 -0.484772 0.520113 0
M  V30 11781 H 1126.89 -0.75274 1.80427 0
M  V30 11782 H 1125.59 -2.18431 3.47442 0
M  V30 11783 H 1125.12 -3.28296 2.1676 0
M  V30 11784 H 1127.14 -4.53569 2.01221 0
M  V30 11785 N 1126.31 -1.30234 -0.887518 0
M  V30 11786 C 1127.24 -1.12212 -1.99853 0
M  V30 11787 C 1128.26 -0.0660929 -1.62666 0
M  V30 11788 O 1129.45 -0.311853 -1.75755 0
M  V30 11789 C 1126.55 -0.688591 -3.31831 0
M  V30 11790 C 1125.72 -1.82581 -3.97471 0
M  V30 11791 C 1124.78 -1.38126 -5.07748 0
M  V30 11792 O 1123.8 -2.08805 -5.29518 0
M  V30 11793 N 1125.01 -0.258868 -5.79923 0
M  V30 11794 H 1127.77 -2.07901 -2.15864 0
M  V30 11795 H 1125.33 -1.22336 -1.06045 0
M  V30 11796 H 1127.32 -0.374252 -4.02966 0
M  V30 11797 H 1125.89 0.176185 -3.12103 0
M  V30 11798 H 1125.11 -2.3084 -3.19541 0
M  V30 11799 H 1126.4 -2.58798 -4.38065 0
M  V30 11800 H 1125.8 0.330131 -5.64736 0
M  V30 11801 H 1124.36 -0.00396813 -6.518 0
M  V30 11802 N 1127.79 1.09952 -1.12909 0
M  V30 11803 C 1128.74 2.14591 -0.77037 0
M  V30 11804 C 1129.72 1.59204 0.233021 0
M  V30 11805 O 1130.92 1.7696 0.0377599 0
M  V30 11806 C 1128.05 3.42514 -0.232117 0
M  V30 11807 C 1127.13 4.04823 -1.26409 0
M  V30 11808 N 1127.52 4.41763 -2.46331 0
M  V30 11809 C 1125.82 4.31951 -1.11062 0
M  V30 11810 C 1126.52 4.90778 -3.12269 0
M  V30 11811 N 1125.5 4.87896 -2.39704 0
M  V30 11812 H 1129.3 2.40951 -1.68285 0
M  V30 11813 H 1126.81 1.27125 -1.0106 0
M  V30 11814 H 1128.81 4.16878 0.0430853 0
M  V30 11815 H 1127.47 3.17612 0.674757 0
M  V30 11816 H 1128.48 4.33299 -2.83677 0
M  V30 11817 H 1125.16 4.16681 -0.261456 0
M  V30 11818 H 1126.55 5.28868 -4.14425 0
M  V30 11819 N 1129.27 0.921757 1.27833 0
M  V30 11820 C 1130.52 0.557974 1.94245 0
M  V30 11821 C 1130.84 -0.90268 1.72849 0
M  V30 11822 O 1130.11 -1.63915 1.07279 0
M  V30 11823 H 1128.69 0.203364 0.718785 0
M  V30 11824 H 1131.35 1.17286 1.5566 0
M  V30 11825 H 1130.45 0.759202 3.02725 0
M  V30 11826 N 1130.75 -1.41857 0.686609 0
M  V30 11827 C 1131.99 -2.01666 0.214118 0
M  V30 11828 C 1132.33 -1.5422 -1.18025 0
M  V30 11829 O 1131.6 -0.749482 -1.7948 0
M  V30 11830 C 1131.88 -3.59147 0.261841 0
M  V30 11831 C 1131.74 -4.16742 1.69251 0
M  V30 11832 C 1133.06 -4.38427 -0.383378 0
M  V30 11833 H 1130.17 -0.732724 0.0792785 0
M  V30 11834 H 1132.82 -1.68724 0.873633 0
M  V30 11835 H 1130.97 -3.87342 -0.29971 0
M  V30 11836 H 1132.64 -3.99456 2.30722 0
M  V30 11837 H 1130.88 -3.72124 2.2295 0
M  V30 11838 H 1131.55 -5.25894 1.6775 0
M  V30 11839 H 1134.03 -4.15992 0.0947701 0
M  V30 11840 H 1132.9 -5.4797 -0.319401 0
M  V30 11841 H 1133.17 -4.172 -1.46276 0
M  V30 11842 N 1132.22 -0.430739 -1.51599 0
M  V30 11843 C 1133.17 0.384024 -2.27583 0
M  V30 11844 C 1134.14 1.02254 -1.30895 0
M  V30 11845 O 1135.33 1.0427 -1.59789 0
M  V30 11846 C 1132.47 1.48291 -3.11615 0
M  V30 11847 C 1131.58 0.863187 -4.23288 0
M  V30 11848 C 1130.71 1.93657 -4.94642 0
M  V30 11849 C 1129.75 1.29493 -5.98246 0
M  V30 11850 N 1128.89 2.30939 -6.63032 0
M  V30 11851 H 1133.73 -0.270314 -2.96771 0
M  V30 11852 H 1131.27 -0.145148 -1.46382 0
M  V30 11853 H 1133.23 2.13124 -3.58656 0
M  V30 11854 H 1131.86 2.10697 -2.44554 0
M  V30 11855 H 1130.91 0.103326 -3.8026 0
M  V30 11856 H 1132.22 0.354676 -4.97537 0
M  V30 11857 H 1131.37 2.66167 -5.45197 0
M  V30 11858 H 1130.11 2.4788 -4.20008 0
M  V30 11859 H 1129.12 0.555262 -5.46989 0
M  V30 11860 H 1130.34 0.760122 -6.74833 0
M  V30 11861 H 1128.29 2.84254 -5.91216 0
M  V30 11862 H 1128.21 1.84961 -7.33025 0
M  V30 11863 H 1129.47 3.02953 -7.1822 0
M  V30 11864 N 1133.7 1.56767 -0.161869 0
M  V30 11865 C 1134.61 2.21083 0.784814 0
M  V30 11866 C 1135.63 1.19959 1.26039 0
M  V30 11867 O 1136.8 1.52588 1.31449 0
M  V30 11868 C 1133.87 2.83153 2.00063 0
M  V30 11869 C 1132.93 3.9945 1.57285 0
M  V30 11870 C 1132.16 4.5855 2.7307 0
M  V30 11871 O 1132.39 4.16534 3.89686 0
M  V30 11872 O 1131.32 5.48575 2.47688 0
M  V30 11873 H 1135.15 3.02522 0.267243 0
M  V30 11874 H 1132.73 1.49255 0.0658783 0
M  V30 11875 H 1134.61 3.22546 2.71186 0
M  V30 11876 H 1133.29 2.04718 2.50744 0
M  V30 11877 H 1132.2 3.64745 0.831393 0
M  V30 11878 H 1133.53 4.7945 1.11304 0
M  V30 11879 N 1135.18 -0.111886 1.57202 0
M  V30 11880 C 1136.43 -0.816794 1.84859 0
M  V30 11881 C 1136.75 -1.80079 0.748113 0
M  V30 11882 O 1136.02 -1.94578 -0.227235 0
M  V30 11883 H 1134.6 -0.304633 0.682061 0
M  V30 11884 H 1137.26 -0.097513 1.94656 0
M  V30 11885 H 1136.36 -1.35768 2.81022 0
M  V30 11886 N 1136.66 -1.52894 -0.382264 0
M  V30 11887 C 1137.62 -1.77497 -1.45008 0
M  V30 11888 C 1138.62 -0.64509 -1.47293 0
M  V30 11889 O 1139.81 -0.913192 -1.48346 0
M  V30 11890 C 1136.94 -1.88188 -2.8425 0
M  V30 11891 H 1138.14 -2.72849 -1.24473 0
M  V30 11892 H 1135.69 -1.43717 -0.61441 0
M  V30 11893 H 1136.42 -0.948451 -3.10121 0
M  V30 11894 H 1136.21 -2.70353 -2.83992 0
M  V30 11895 H 1137.7 -2.08873 -3.6161 0
M  V30 11896 N 1138.14 0.641106 -1.43971 0
M  V30 11897 C 1139.37 1.42829 -1.49692 0
M  V30 11898 C 1139.78 1.88427 -0.118594 0
M  V30 11899 O 1139.14 1.60234 0.873581 0
M  V30 11900 C 1139.19 2.65524 -2.45314 0
M  V30 11901 O 1138.91 2.2183 -3.77787 0
M  V30 11902 C 1140.41 3.58758 -2.60399 0
M  V30 11903 H 1137.63 0.438367 -0.508011 0
M  V30 11904 H 1140.17 0.784933 -1.88836 0
M  V30 11905 H 1138.33 3.25973 -2.09332 0
M  V30 11906 H 1138.74 3.01303 -4.29321 0
M  V30 11907 H 1140.22 4.41483 -3.31357 0
M  V30 11908 H 1140.69 4.06909 -1.65294 0
M  V30 11909 H 1141.3 3.04184 -2.97241 0
M  V30 11910 N 1139.62 1.30703 0.880598 0
M  V30 11911 C 1140.55 1.20033 2.00286 0
M  V30 11912 C 1141.53 0.0899614 1.69862 0
M  V30 11913 O 1142.71 0.272747 1.92275 0
M  V30 11914 C 1139.84 0.895902 3.35546 0
M  V30 11915 C 1138.8 1.96468 3.80242 0
M  V30 11916 C 1138.12 1.51316 5.12843 0
M  V30 11917 C 1139.42 3.37637 3.98496 0
M  V30 11918 H 1141.12 2.13922 2.0947 0
M  V30 11919 H 1138.66 1.02989 1.00644 0
M  V30 11920 H 1140.61 0.807899 4.13583 0
M  V30 11921 H 1139.34 -0.0786636 3.26505 0
M  V30 11922 H 1138 2.0424 3.04437 0
M  V30 11923 H 1137.65 0.52674 5.00234 0
M  V30 11924 H 1137.35 2.22807 5.43719 0
M  V30 11925 H 1138.87 1.43903 5.93401 0
M  V30 11926 H 1140.28 3.326 4.66959 0
M  V30 11927 H 1138.68 4.07253 4.40755 0
M  V30 11928 H 1139.75 3.79205 3.02211 0
M  V30 11929 N 1141.09 -1.09351 1.1349 0
M  V30 11930 C 1142.34 -1.81812 0.898452 0
M  V30 11931 C 1142.67 -1.85525 -0.573959 0
M  V30 11932 O 1141.95 -1.32403 -1.42477 0
M  V30 11933 C 1142.23 -3.27921 1.48794 0
M  V30 11934 C 1142.08 -3.32476 3.02952 0
M  V30 11935 C 1143.4 -4.24625 1.15678 0
M  V30 11936 H 1140.52 -0.660074 0.327829 0
M  V30 11937 H 1143.16 -1.28091 1.40331 0
M  V30 11938 H 1141.31 -3.738 1.05858 0
M  V30 11939 H 1142.99 -2.94994 3.54649 0
M  V30 11940 H 1141.23 -2.72037 3.37903 0
M  V30 11941 H 1141.9 -4.35409 3.39298 0
M  V30 11942 H 1144.38 -3.87036 1.52781 0
M  V30 11943 H 1143.25 -5.25194 1.59571 0
M  V30 11944 H 1143.51 -4.42044 0.0705933 0
M  V30 11945 N 1142.57 -0.928524 -1.27343 0
M  V30 11946 C 1143.81 -0.576696 -1.96096 0
M  V30 11947 C 1144.18 0.866074 -1.71357 0
M  V30 11948 O 1145.38 1.32621 -2.33805 0
M  V30 11949 C 1143.65 -0.894692 -3.4602 0
M  V30 11950 S 1145.21 -0.651503 -4.33936 0
M  V30 11951 H 1142.02 -0.212847 -0.678393 0
M  V30 11952 H 1144.63 -1.19714 -1.5456 0
M  V30 11953 H 1143.33 -1.94239 -3.61524 0
M  V30 11954 H 1142.86 -0.263478 -3.92517 0
M  V30 11955 H 1144.88 0.490314 -4.93772 0
M  V30 11956 N 1144.05 1.41491 -0.694123 0
M  V30 11957 C 1145.3 2.00854 -0.224033 0
M  V30 11958 C 1145.62 1.55246 1.17999 0
M  V30 11959 O 1144.89 0.782452 1.79595 0
M  V30 11960 H 1143.47 0.742721 -0.0798368 0
M  V30 11961 H 1146.13 1.73137 -0.894958 0
M  V30 11962 H 1145.23 3.11173 -0.240332 0
M  V30 11963 N 1145.53 0.438773 1.51369 0
M  V30 11964 C 1146.78 -0.126962 2.01701 0
M  V30 11965 C 1147.1 -1.43086 1.32481 0
M  V30 11966 O 1146.37 -1.90427 0.459823 0
M  V30 11967 H 1144.95 -0.0499092 0.745331 0
M  V30 11968 H 1147.61 0.581808 1.86013 0
M  V30 11969 H 1146.7 -0.301836 3.10637 0
M  V30 11970 N 1147.01 -1.56678 0.170181 0
M  V30 11971 C 1147.95 -2.19222 -0.777459 0
M  V30 11972 C 1148.95 -1.15592 -1.23834 0
M  V30 11973 O 1150.15 -1.33794 -1.20412 0
M  V30 11974 H 1146.53 -0.702244 -0.268992 0
M  V30 11975 H 1148.5 -2.97543 -0.225989 0
M  V30 11976 C 1147.25 -2.84631 -1.997 0
M  V30 11977 H 1146.57 -3.641 -1.65139 0
M  V30 11978 H 1148.01 -3.31864 -2.63898 0
M  V30 11979 C 1146.47 -1.84345 -2.81991 0
M  V30 11980 O 1147 -1.32821 -3.79106 0
M  V30 11981 N 1145.21 -1.53127 -2.46983 0
M  V30 11982 H 1144.75 -1.95219 -1.6807 0
M  V30 11983 H 1144.71 -0.862787 -3.0233 0
M  V30 11984 N 1148.48 0.103547 -1.57259 0
M  V30 11985 C 1149.42 1.15225 -1.98131 0
M  V30 11986 C 1150.43 1.36793 -0.882692 0
M  V30 11987 O 1151.62 1.35595 -1.16088 0
M  V30 11988 C 1148.72 2.50941 -2.27776 0
M  V30 11989 C 1147.89 2.49765 -3.59077 0
M  V30 11990 C 1146.95 3.67344 -3.76756 0
M  V30 11991 O 1145.98 3.50221 -4.48702 0
M  V30 11992 N 1147.18 4.86504 -3.16692 0
M  V30 11993 H 1149.94 0.804448 -2.88702 0
M  V30 11994 H 1147.5 0.292636 -1.59233 0
M  V30 11995 H 1149.5 3.28186 -2.36804 0
M  V30 11996 H 1148.07 2.77843 -1.43255 0
M  V30 11997 H 1147.29 1.58125 -3.61096 0
M  V30 11998 H 1148.57 2.4605 -4.4535 0
M  V30 11999 H 1147.97 5.03319 -2.58236 0
M  V30 12000 H 1146.53 5.61371 -3.31218 0
M  V30 12001 N 1149.96 1.53094 0.37415 0
M  V30 12002 C 1151.21 1.69111 1.11934 0
M  V30 12003 C 1151.54 0.437252 1.89213 0
M  V30 12004 O 1150.82 -0.565298 1.86104 0
M  V30 12005 C 1151.1 2.93559 2.08554 0
M  V30 12006 C 1150.95 4.29082 1.3494 0
M  V30 12007 C 1152.27 3.13586 3.08791 0
M  V30 12008 H 1149.39 0.615383 0.405553 0
M  V30 12009 H 1152.03 1.85719 0.401078 0
M  V30 12010 H 1150.18 2.79531 2.69805 0
M  V30 12011 H 1151.85 4.54906 0.765402 0
M  V30 12012 H 1150.1 4.28884 0.651238 0
M  V30 12013 H 1150.77 5.12275 2.05616 0
M  V30 12014 H 1153.24 3.26743 2.57639 0
M  V30 12015 H 1152.12 4.02112 3.73627 0
M  V30 12016 H 1152.38 2.28475 3.78486 0
M  V30 12017 N 1151.44 -0.633461 1.44309 0
M  V30 12018 C 1152.85 -1.21504 1.41752 0
M  V30 12019 C 1153.2 -1.95758 0.131667 0
M  V30 12020 O 1152.33 -2.02311 -0.768072 0
M  V30 12021 C 1152.92 -2.21005 2.56792 0
M  V30 12022 C 1151.48 -2.74596 2.57438 0
M  V30 12023 C 1150.63 -1.49555 2.33513 0
M  V30 12024 H 1153.58 -0.424277 1.52923 0
M  V30 12025 H 1153.6 -3.03563 2.29412 0
M  V30 12026 H 1153.11 -1.66934 3.50364 0
M  V30 12027 H 1151.21 -3.32676 1.67801 0
M  V30 12028 H 1151.33 -3.20794 3.55849 0
M  V30 12029 H 1149.69 -1.77605 1.82561 0
M  V30 12030 H 1150.47 -0.973899 3.29196 0
M  V30 12031 N 1152.92 -1.31168 -0.873655 0
M  V30 12032 C 1154.33 -1.09745 -1.1588 0
M  V30 12033 C 1154.53 0.134471 -2.01051 0
M  V30 12034 O 1153.59 0.824857 -2.38647 0
M  V30 12035 C 1154.9 -2.36704 -1.85451 0
M  V30 12036 C 1156.45 -2.42278 -1.98167 0
M  V30 12037 C 1156.93 -3.69108 -2.71152 0
M  V30 12038 N 1158.42 -3.69981 -2.7869 0
M  V30 12039 C 1159.15 -4.64811 -3.35765 0
M  V30 12040 N 1158.65 -5.69995 -3.938 0
M  V30 12041 N 1160.44 -4.52337 -3.33688 0
M  V30 12042 H 1152.59 -2.10184 -0.306021 0
M  V30 12043 H 1154.86 -0.927058 -0.198159 0
M  V30 12044 H 1154.56 -3.26666 -1.30316 0
M  V30 12045 H 1154.44 -2.46219 -2.85755 0
M  V30 12046 H 1156.82 -1.52787 -2.52468 0
M  V30 12047 H 1156.9 -2.3673 -0.969164 0
M  V30 12048 H 1156.55 -4.58963 -2.1752 0
M  V30 12049 H 1156.48 -3.71922 -3.72803 0
M  V30 12050 H 1158.97 -2.93944 -2.37498 0
M  V30 12051 H 1159.28 -6.38438 -4.3545 0
M  V30 12052 H 1157.63 -5.73773 -3.92186 0
M  V30 12053 H 1160.82 -3.69341 -2.87584 0
M  V30 12054 H 1160.99 -5.2642 -3.77871 0
M  V30 12055 N 1154.4 1.08748 -1.14068 0
M  V30 12056 C 1155.81 1.62551 -0.918379 0
M  V30 12057 C 1156.16 1.8852 0.543583 0
M  V30 12058 O 1155.28 1.64007 1.41176 0
M  V30 12059 C 1155.88 2.95309 -1.66066 0
M  V30 12060 C 1154.44 3.4591 -1.48403 0
M  V30 12061 C 1153.58 2.20204 -1.6854 0
M  V30 12062 H 1156.54 0.920196 -1.29298 0
M  V30 12063 H 1156.56 3.63587 -1.12181 0
M  V30 12064 H 1156.07 2.76377 -2.72465 0
M  V30 12065 H 1154.17 3.69953 -0.443353 0
M  V30 12066 H 1154.28 4.2289 -2.25169 0
M  V30 12067 H 1152.65 2.29203 -1.11077 0
M  V30 12068 H 1153.43 2.03783 -2.76274 0
M  V30 12069 N 1155.87 0.935264 1.26849 0
M  V30 12070 C 1157.12 0.578545 1.93642 0
M  V30 12071 C 1157.44 -0.884296 1.73796 0
M  V30 12072 O 1156.71 -1.62768 1.09011 0
M  V30 12073 H 1155.29 0.210976 0.716588 0
M  V30 12074 H 1157.96 1.1893 1.54407 0
M  V30 12075 H 1157.05 0.791268 3.01903 0
M  V30 12076 N 1157.35 -1.41121 0.701616 0
M  V30 12077 C 1158.6 -2.0113 0.235147 0
M  V30 12078 C 1158.93 -1.55587 -1.16718 0
M  V30 12079 O 1158.18 -0.760615 -1.80314 0
M  V30 12080 C 1158.48 -3.5654 0.247781 0
M  V30 12081 C 1158.15 -4.21616 1.59846 0
M  V30 12082 C 1156.81 -4.39106 1.96822 0
M  V30 12083 C 1159.16 -4.58048 2.48679 0
M  V30 12084 C 1156.49 -4.90307 3.22205 0
M  V30 12085 C 1158.84 -5.10642 3.734 0
M  V30 12086 C 1157.51 -5.26343 4.10512 0
M  V30 12087 H 1156.78 -0.735987 0.0860462 0
M  V30 12088 H 1159.42 -1.68932 0.901898 0
M  V30 12089 H 1157.73 -3.88564 -0.502528 0
M  V30 12090 H 1159.42 -4.00787 -0.130766 0
M  V30 12091 H 1156.01 -4.08381 1.30088 0
M  V30 12092 H 1160.2 -4.44184 2.21391 0
M  V30 12093 H 1155.45 -5.00647 3.50945 0
M  V30 12094 H 1159.63 -5.37811 4.42416 0
M  V30 12095 H 1157.26 -5.65779 5.07738 0
M  V30 12096 N 1158.83 -0.446794 -1.51134 0
M  V30 12097 C 1160.08 0.116493 -2.02165 0
M  V30 12098 C 1160.41 1.41884 -1.33039 0
M  V30 12099 O 1159.66 1.90757 -0.437071 0
M  V30 12100 C 1159.96 0.373015 -3.55448 0
M  V30 12101 C 1159.63 -0.844659 -4.42918 0
M  V30 12102 C 1158.29 -1.17857 -4.66544 0
M  V30 12103 C 1160.64 -1.65653 -4.94174 0
M  V30 12104 C 1157.97 -2.32486 -5.38672 0
M  V30 12105 C 1160.32 -2.7939 -5.6756 0
M  V30 12106 C 1158.98 -3.13224 -5.89446 0
M  V30 12107 H 1158.25 0.0426279 -0.739773 0
M  V30 12108 H 1160.9 -0.595921 -1.81992 0
M  V30 12109 H 1159.21 1.16742 -3.74003 0
M  V30 12110 H 1160.9 0.822425 -3.92476 0
M  V30 12111 H 1157.49 -0.574478 -4.24733 0
M  V30 12112 H 1161.68 -1.41176 -4.75797 0
M  V30 12113 H 1156.93 -2.59003 -5.5383 0
M  V30 12114 H 1161.11 -3.42662 -6.06264 0
M  V30 12115 H 1158.73 -4.02158 -6.45115 0
M  V30 12116 N 1160.31 1.56586 -0.178487 0
M  V30 12117 C 1161.56 1.97098 0.464617 0
M  V30 12118 C 1161.88 1.06476 1.62767 0
M  V30 12119 O 1161.14 0.100337 1.95443 0
M  V30 12120 C 1161.44 3.43629 0.982552 0
M  V30 12121 C 1161.1 4.50853 -0.0653645 0
M  V30 12122 C 1159.77 4.79901 -0.353349 0
M  V30 12123 C 1162.12 5.15387 -0.776279 0
M  V30 12124 C 1159.45 5.70779 -1.35751 0
M  V30 12125 C 1161.8 6.07349 -1.76948 0
M  V30 12126 C 1160.46 6.34761 -2.06483 0
M  V30 12127 H 1159.73 0.721232 0.170016 0
M  V30 12128 H 1162.38 1.89559 -0.271959 0
M  V30 12129 H 1160.68 3.48155 1.79709 0
M  V30 12130 H 1162.38 3.7232 1.48926 0
M  V30 12131 H 1158.97 4.28266 0.169266 0
M  V30 12132 H 1163.15 4.9305 -0.567008 0
M  V30 12133 H 1158.41 5.90298 -1.59244 0
M  V30 12134 H 1162.58 6.56419 -2.32567 0
M  V30 12135 H 1160.21 7.0498 -2.84441 0
M  V30 12136 N 1161.79 -0.095206 1.57312 0
M  V30 12137 C 1162.7 -1.13388 2.05379 0
M  V30 12138 C 1163.71 -1.43868 0.978668 0
M  V30 12139 O 1164.89 -1.54512 1.29182 0
M  V30 12140 C 1161.95 -2.43444 2.46852 0
M  V30 12141 C 1161.01 -2.20146 3.68557 0
M  V30 12142 C 1160.25 -3.44001 4.08043 0
M  V30 12143 O 1160.47 -4.52233 3.47623 0
M  V30 12144 O 1159.4 -3.33596 5.00997 0
M  V30 12145 H 1163.23 -0.755622 2.9415 0
M  V30 12146 H 1160.82 -0.307707 1.46197 0
M  V30 12147 H 1162.7 -3.20027 2.74155 0
M  V30 12148 H 1161.37 -2.80696 1.61219 0
M  V30 12149 H 1160.28 -1.41345 3.46371 0
M  V30 12150 H 1161.61 -1.87787 4.54969 0
M  V30 12151 N 1163.26 -1.53291 -0.366026 0
M  V30 12152 C 1164.68 -1.61144 -0.942849 0
M  V30 12153 C 1165.03 -0.478571 -1.90274 0
M  V30 12154 O 1164.15 0.395069 -2.12763 0
M  V30 12155 C 1164.75 -2.92081 -1.71681 0
M  V30 12156 C 1163.31 -3.0227 -2.24298 0
M  V30 12157 C 1162.45 -2.56436 -1.05526 0
M  V30 12158 H 1165.4 -1.58038 -0.144835 0
M  V30 12159 H 1165.42 -2.79858 -2.57798 0
M  V30 12160 H 1164.94 -3.74513 -1.01793 0
M  V30 12161 H 1163.04 -2.24425 -2.97429 0
M  V30 12162 H 1163.15 -4.07341 -2.5221 0
M  V30 12163 H 1161.51 -2.11301 -1.42211 0
M  V30 12164 H 1162.3 -3.41285 -0.371376 0
M  V30 12165 N 1164.74 0.6258 -1.44643 0
M  V30 12166 C 1165.97 1.41233 -1.51198 0
M  V30 12167 C 1166.39 1.88291 -0.138572 0
M  V30 12168 O 1165.74 1.61151 0.856537 0
M  V30 12169 C 1165.79 2.62908 -2.48117 0
M  V30 12170 O 1165.51 2.1781 -3.80119 0
M  V30 12171 C 1167.02 3.55976 -2.6419 0
M  V30 12172 H 1164.24 0.432954 -0.512632 0
M  V30 12173 H 1166.78 0.76486 -1.89658 0
M  V30 12174 H 1164.93 3.23735 -2.12778 0
M  V30 12175 H 1165.35 2.96732 -4.32493 0
M  V30 12176 H 1166.82 4.37943 -3.3602 0
M  V30 12177 H 1167.3 4.05133 -1.696 0
M  V30 12178 H 1167.91 3.01014 -3.00451 0
M  V30 12179 N 1166.22 1.31629 0.866686 0
M  V30 12180 C 1167.47 1.21683 1.62238 0
M  V30 12181 C 1167.8 -0.223767 1.92907 0
M  V30 12182 O 1167.07 -1.15761 1.563 0
M  V30 12183 C 1167.36 2.06443 2.95048 0
M  V30 12184 C 1167.21 3.58818 2.71237 0
M  V30 12185 C 1168.53 1.91634 3.96187 0
M  V30 12186 H 1165.65 0.443389 0.588707 0
M  V30 12187 H 1168.29 1.61453 1.00164 0
M  V30 12188 H 1166.44 1.72654 3.48027 0
M  V30 12189 H 1168.11 4.0276 2.24905 0
M  V30 12190 H 1166.36 3.82085 2.05411 0
M  V30 12191 H 1167.03 4.13436 3.65752 0
M  V30 12192 H 1169.5 2.21209 3.52428 0
M  V30 12193 H 1168.38 2.53236 4.86993 0
M  V30 12194 H 1168.64 0.880564 4.33242 0
M  V30 12195 N 1167.7 -1.08142 1.14644 0
M  V30 12196 C 1168.95 -1.80582 0.916327 0
M  V30 12197 C 1169.27 -1.86355 -0.556969 0
M  V30 12198 O 1168.53 -1.33736 -1.42875 0
M  V30 12199 C 1168.83 -3.25962 1.46573 0
M  V30 12200 C 1168.49 -3.40302 2.95814 0
M  V30 12201 C 1167.16 -3.43922 3.36557 0
M  V30 12202 C 1169.51 -3.43758 3.91765 0
M  V30 12203 C 1166.84 -3.48594 4.7191 0
M  V30 12204 C 1169.19 -3.49965 5.26979 0
M  V30 12205 C 1167.85 -3.5186 5.67231 0
M  V30 12206 H 1167.12 -0.660795 0.335308 0
M  V30 12207 H 1169.77 -1.27309 1.43055 0
M  V30 12208 H 1168.07 -3.81961 0.872507 0
M  V30 12209 H 1169.77 -3.80571 1.2636 0
M  V30 12210 H 1166.36 -3.38176 2.63315 0
M  V30 12211 H 1170.55 -3.40189 3.61366 0
M  V30 12212 H 1165.8 -3.48355 5.02453 0
M  V30 12213 H 1169.98 -3.51585 6.01133 0
M  V30 12214 H 1167.6 -3.55233 6.72097 0
M  V30 12215 N 1169.18 -0.941978 -1.26351 0
M  V30 12216 C 1170.41 -0.606748 -1.97803 0
M  V30 12217 C 1170.82 0.818441 -1.70138 0
M  V30 12218 O 1170.18 1.54583 -0.970076 0
M  V30 12219 C 1170.23 -0.840431 -3.51595 0
M  V30 12220 O 1169.95 -2.20957 -3.78299 0
M  V30 12221 C 1171.45 -0.515855 -4.40288 0
M  V30 12222 H 1168.67 -0.228591 -0.630862 0
M  V30 12223 H 1171.21 -1.2629 -1.60845 0
M  V30 12224 H 1169.37 -0.230875 -3.86711 0
M  V30 12225 H 1169.78 -2.2702 -4.72824 0
M  V30 12226 H 1171.26 -0.72998 -5.47152 0
M  V30 12227 H 1171.73 0.549178 -4.35753 0
M  V30 12228 H 1172.34 -1.10417 -4.10717 0
M  V30 12229 N 1170.66 1.40747 -0.709091 0
M  V30 12230 C 1171.93 1.94831 -0.173246 0
M  V30 12231 C 1172.31 1.64766 1.31967 0
M  V30 12232 O 1171.66 0.961853 2.07269 0
M  V30 12233 C 1171.87 3.45697 -0.479013 0
M  V30 12234 C 1173.22 4.22576 -0.414122 0
M  V30 12235 O 1174.24 3.53778 -0.414699 0
M  V30 12236 O 1173.1 5.45135 -0.385986 0
M  V30 12237 H 1170.2 0.826683 -0.0228947 0
M  V30 12238 H 1172.74 1.50391 -0.786178 0
M  V30 12239 H 1171.51 3.60914 -1.51185 0
M  V30 12240 H 1171.14 3.97261 0.164211 0
M  V30 12241 N 1172.13 0.454803 1.50895 0
M  V30 12242 C 1173.38 -0.105927 2.02523 0
M  V30 12243 C 1173.71 -1.40825 1.33724 0
M  V30 12244 O 1172.99 -1.89038 0.457683 0
M  V30 12245 C 1173.27 -0.306635 3.58792 0
M  V30 12246 C 1173.12 1.01556 4.38185 0
M  V30 12247 C 1174.44 -1.06858 4.2693 0
M  V30 12248 H 1171.56 -0.0370232 0.736069 0
M  V30 12249 H 1174.2 0.597215 1.8037 0
M  V30 12250 H 1172.35 -0.905563 3.77799 0
M  V30 12251 H 1174.03 1.64981 4.30789 0
M  V30 12252 H 1172.27 1.61608 4.02574 0
M  V30 12253 H 1172.94 0.828959 5.4574 0
M  V30 12254 H 1175.42 -0.561086 4.123 0
M  V30 12255 H 1174.29 -1.1778 5.36115 0
M  V30 12256 H 1174.55 -2.10111 3.8898 0
M  V30 12257 N 1173.61 -1.56489 0.186789 0
M  V30 12258 C 1174.52 -2.22304 -0.749543 0
M  V30 12259 C 1175.54 -1.21949 -1.24115 0
M  V30 12260 O 1176.71 -1.5466 -1.29005 0
M  V30 12261 C 1173.78 -2.863 -1.95533 0
M  V30 12262 C 1172.84 -4.01901 -1.5091 0
M  V30 12263 C 1172.07 -4.62837 -2.6574 0
M  V30 12264 O 1172.3 -4.22681 -3.8301 0
M  V30 12265 O 1171.23 -5.52446 -2.38929 0
M  V30 12266 H 1175.06 -3.02909 -0.21908 0
M  V30 12267 H 1172.64 -1.49341 -0.0421249 0
M  V30 12268 H 1174.52 -3.2682 -2.6602 0
M  V30 12269 H 1173.2 -2.08681 -2.47455 0
M  V30 12270 H 1172.1 -3.66021 -0.773261 0
M  V30 12271 H 1173.44 -4.8116 -1.03663 0
M  V30 12272 N 1175.09 0.086862 -1.5736 0
M  V30 12273 C 1176.37 0.820984 -1.77537 0
M  V30 12274 C 1176.75 1.96534 -0.770554 0
M  V30 12275 O 1176.09 2.27629 0.199334 0
M  V30 12276 C 1176.3 1.30793 -3.23565 0
M  V30 12277 C 1177.65 1.7474 -3.86977 0
M  V30 12278 O 1178.68 1.40396 -3.27364 0
M  V30 12279 O 1177.54 2.38271 -4.91822 0
M  V30 12280 H 1174.63 0.392228 -0.72807 0
M  V30 12281 H 1177.18 0.0681051 -1.69563 0
M  V30 12282 H 1175.95 0.488409 -3.8824 0
M  V30 12283 H 1175.57 2.12258 -3.36203 0
M  V30 12284 N 1176.57 1.53483 0.357892 0
M  V30 12285 C 1177.52 1.76843 1.43911 0
M  V30 12286 C 1178.5 0.623178 1.48342 0
M  V30 12287 O 1179.69 0.882102 1.53453 0
M  V30 12288 C 1176.82 1.96865 2.81246 0
M  V30 12289 C 1175.91 3.17414 2.81263 0
M  V30 12290 N 1176.3 4.39172 2.50921 0
M  V30 12291 C 1174.6 3.18292 3.1242 0
M  V30 12292 C 1175.3 5.20953 2.58811 0
M  V30 12293 N 1174.27 4.57338 2.93841 0
M  V30 12294 H 1178.08 2.68586 1.19327 0
M  V30 12295 H 1175.59 1.52212 0.566142 0
M  V30 12296 H 1177.59 2.11731 3.59132 0
M  V30 12297 H 1176.25 1.06355 3.06788 0
M  V30 12298 H 1177.26 4.66772 2.24376 0
M  V30 12299 H 1173.94 2.37702 3.43226 0
M  V30 12300 H 1175.33 6.28095 2.38633 0
M  V30 12301 N 1178.05 -0.61812 1.44973 0
M  V30 12302 C 1178.98 -1.74277 1.47318 0
M  V30 12303 C 1179.96 -1.59203 0.330627 0
M  V30 12304 O 1181.14 -1.80909 0.529558 0
M  V30 12305 C 1178.27 -3.11994 1.31823 0
M  V30 12306 C 1177.31 -3.45685 2.49809 0
M  V30 12307 S 1178.15 -3.41704 4.12309 0
M  V30 12308 C 1179.3 -4.82019 3.9926 0
M  V30 12309 H 1179.54 -1.72023 2.42478 0
M  V30 12310 H 1177.07 -0.793867 1.32428 0
M  V30 12311 H 1179.03 -3.9146 1.2357 0
M  V30 12312 H 1177.69 -3.11774 0.381521 0
M  V30 12313 H 1176.88 -4.45931 2.34864 0
M  V30 12314 H 1176.48 -2.73711 2.54869 0
M  V30 12315 H 1178.77 -5.71567 3.63754 0
M  V30 12316 H 1179.72 -5.02019 4.99382 0
M  V30 12317 H 1180.13 -4.57205 3.31095 0
M  V30 12318 N 1179.52 -1.32087 -0.859693 0
M  V30 12319 C 1180.77 -1.2236 -1.61351 0
M  V30 12320 C 1181.1 0.215796 -1.93299 0
M  V30 12321 O 1180.35 1.16742 -1.57066 0
M  V30 12322 C 1180.65 -2.0234 -2.94607 0
M  V30 12323 C 1180.32 -3.51746 -2.82109 0
M  V30 12324 C 1178.98 -3.92482 -2.78408 0
M  V30 12325 C 1181.33 -4.46776 -2.68403 0
M  V30 12326 C 1178.66 -5.265 -2.58873 0
M  V30 12327 C 1181.01 -5.80931 -2.50404 0
M  V30 12328 C 1179.68 -6.20875 -2.45092 0
M  V30 12329 H 1178.95 -0.447748 -0.590426 0
M  V30 12330 H 1181.59 -1.63461 -0.997637 0
M  V30 12331 H 1179.9 -1.53952 -3.60286 0
M  V30 12332 H 1181.6 -1.92187 -3.51945 0
M  V30 12333 H 1178.19 -3.19389 -2.85812 0
M  V30 12334 H 1182.37 -4.16228 -2.70311 0
M  V30 12335 H 1177.63 -5.5651 -2.53192 0
M  V30 12336 H 1181.8 -6.54185 -2.38777 0
M  V30 12337 H 1179.43 -7.24662 -2.29714 0
M  V30 12338 N 1181 1.07532 -1.15215 0
M  V30 12339 C 1182.25 1.79474 -0.920439 0
M  V30 12340 C 1182.56 1.87593 0.553926 0
M  V30 12341 O 1183.77 2.56037 0.903169 0
M  V30 12342 C 1182.23 3.22509 -1.59738 0
M  V30 12343 C 1181.83 3.22596 -3.10863 0
M  V30 12344 C 1183.58 3.99072 -1.44714 0
M  V30 12345 C 1181.48 4.60273 -3.71352 0
M  V30 12346 H 1180.41 0.672625 -0.340722 0
M  V30 12347 H 1183.07 1.2071 -1.38208 0
M  V30 12348 H 1181.45 3.81454 -1.06342 0
M  V30 12349 H 1182.62 2.73306 -3.70999 0
M  V30 12350 H 1180.94 2.5953 -3.25627 0
M  V30 12351 H 1183.53 5.00823 -1.87299 0
M  V30 12352 H 1183.88 4.14428 -0.394386 0
M  V30 12353 H 1184.41 3.46617 -1.95195 0
M  V30 12354 H 1181.15 4.50122 -4.76519 0
M  V30 12355 H 1180.67 5.09809 -3.15998 0
M  V30 12356 H 1182.35 5.29243 -3.7217 0
M  V30 12357 N 1182.48 0.948665 1.2585 0
M  V30 12358 C 1183.44 0.468673 2.24357 0
M  V30 12359 C 1184.44 -0.424355 1.551 0
M  V30 12360 O 1185.63 -0.222481 1.72773 0
M  V30 12361 C 1182.77 -0.32359 3.39361 0
M  V30 12362 H 1183.96 1.33928 2.68334 0
M  V30 12363 H 1181.51 0.731357 1.38133 0
M  V30 12364 H 1182.25 -1.21212 3.00796 0
M  V30 12365 H 1182.03 0.316998 3.90816 0
M  V30 12366 H 1183.52 -0.649087 4.12525 0
M  V30 12367 N 1183.96 -1.40369 0.716545 0
M  V30 12368 C 1184.91 -2.3071 0.0645944 0
M  V30 12369 C 1185.88 -1.48239 -0.749294 0
M  V30 12370 O 1187.06 -1.76975 -0.713045 0
M  V30 12371 C 1184.2 -3.34456 -0.850478 0
M  V30 12372 C 1183.31 -4.31992 -0.0259594 0
M  V30 12373 C 1182.45 -5.22806 -0.940599 0
M  V30 12374 C 1181.49 -6.12001 -0.110228 0
M  V30 12375 N 1180.62 -6.9523 -0.979796 0
M  V30 12376 H 1185.46 -2.85896 0.840682 0
M  V30 12377 H 1183 -1.40789 0.426258 0
M  V30 12378 H 1184.96 -3.93177 -1.39528 0
M  V30 12379 H 1183.59 -2.8077 -1.59274 0
M  V30 12380 H 1182.64 -3.75045 0.636036 0
M  V30 12381 H 1183.95 -4.94971 0.616883 0
M  V30 12382 H 1183.11 -5.86463 -1.5539 0
M  V30 12383 H 1181.85 -4.60104 -1.61726 0
M  V30 12384 H 1180.85 -5.47373 0.516001 0
M  V30 12385 H 1182.08 -6.76763 0.562944 0
M  V30 12386 H 1180.02 -6.35115 -1.64209 0
M  V30 12387 H 1179.94 -7.54978 -0.393012 0
M  V30 12388 H 1181.21 -7.63335 -1.57924 0
M  V30 12389 N 1185.44 -0.462799 -1.50652 0
M  V30 12390 C 1186.35 0.341191 -2.32106 0
M  V30 12391 C 1187.36 1.00384 -1.42123 0
M  V30 12392 O 1188.54 0.993635 -1.75182 0
M  V30 12393 C 1185.6 1.41356 -3.16575 0
M  V30 12394 C 1184.66 0.768375 -4.22368 0
M  V30 12395 C 1183.9 1.78964 -5.028 0
M  V30 12396 O 1184.12 3.01515 -4.84195 0
M  V30 12397 O 1183.05 1.36606 -5.86193 0
M  V30 12398 H 1186.88 -0.324482 -3.01962 0
M  V30 12399 H 1184.47 -0.224807 -1.47699 0
M  V30 12400 H 1186.35 2.0349 -3.69012 0
M  V30 12401 H 1185.02 2.06285 -2.49456 0
M  V30 12402 H 1183.93 0.108297 -3.73943 0
M  V30 12403 H 1185.26 0.162164 -4.91933 0
M  V30 12404 N 1186.91 1.56388 -0.195085 0
M  V30 12405 C 1187.82 2.22698 0.737743 0
M  V30 12406 C 1188.84 1.22605 1.23466 0
M  V30 12407 O 1190.02 1.55342 1.28183 0
M  V30 12408 C 1187.08 2.87333 1.94011 0
M  V30 12409 C 1186.14 4.02696 1.48776 0
M  V30 12410 C 1185.38 4.64239 2.63282 0
M  V30 12411 O 1185.6 4.24706 3.80763 0
M  V30 12412 O 1184.53 5.53705 2.35996 0
M  V30 12413 H 1188.36 3.03021 0.203013 0
M  V30 12414 H 1185.94 1.49361 0.0342044 0
M  V30 12415 H 1187.83 3.28226 2.64284 0
M  V30 12416 H 1186.5 2.0999 2.46345 0
M  V30 12417 H 1185.41 3.66426 0.753839 0
M  V30 12418 H 1186.74 4.81703 1.01109 0
M  V30 12419 N 1188.39 -0.0785156 1.57404 0
M  V30 12420 C 1189.62 -0.795871 1.91522 0
M  V30 12421 C 1190.04 -1.70665 0.790892 0
M  V30 12422 O 1189.4 -1.79474 -0.25666 0
M  V30 12423 C 1189.45 -1.57121 3.24569 0
M  V30 12424 O 1188.55 -2.6814 3.13328 0
M  V30 12425 H 1187.89 -0.217575 0.627341 0
M  V30 12426 H 1190.42 -0.0487724 2.04542 0
M  V30 12427 H 1190.43 -1.9519 3.5828 0
M  V30 12428 H 1189.11 -0.902909 4.05981 0
M  V30 12429 H 1187.69 -2.32978 2.91163 0
M  V30 12430 N 1189.87 -1.5367 -0.349747 0
M  V30 12431 C 1191.12 -1.70618 -1.09068 0
M  V30 12432 C 1191.45 -0.466133 -1.88832 0
M  V30 12433 O 1190.7 0.552079 -1.87751 0
M  V30 12434 C 1191 -2.91753 -2.06434 0
M  V30 12435 C 1190.67 -4.27614 -1.43029 0
M  V30 12436 C 1189.33 -4.64555 -1.25466 0
M  V30 12437 C 1191.68 -5.12037 -0.972987 0
M  V30 12438 C 1189.01 -5.83543 -0.607807 0
M  V30 12439 C 1191.36 -6.31685 -0.340073 0
M  V30 12440 C 1190.02 -6.67327 -0.152069 0
M  V30 12441 H 1189.29 -0.624334 -0.399108 0
M  V30 12442 H 1191.94 -1.87879 -0.370657 0
M  V30 12443 H 1190.25 -2.6907 -2.84796 0
M  V30 12444 H 1191.94 -3.02059 -2.63744 0
M  V30 12445 H 1188.53 -3.98535 -1.57696 0
M  V30 12446 H 1192.72 -4.84035 -1.09655 0
M  V30 12447 H 1187.97 -6.09737 -0.450705 0
M  V30 12448 H 1192.15 -6.96396 0.0223973 0
M  V30 12449 H 1189.77 -7.59388 0.35121 0
M  V30 12450 N 1191.35 0.610423 -1.45298 0
M  V30 12451 C 1192.6 1.3668 -1.48872 0
M  V30 12452 C 1192.92 1.94562 -0.130686 0
M  V30 12453 O 1192.19 1.76996 0.839607 0
M  V30 12454 H 1190.77 0.507393 -0.548235 0
M  V30 12455 H 1193.43 0.716997 -1.81232 0
M  V30 12456 H 1192.53 2.18766 -2.22593 0
M  V30 12457 N 1192.83 1.32541 0.852676 0
M  V30 12458 C 1194.24 1.20863 1.42299 0
M  V30 12459 C 1194.59 -0.178051 1.9539 0
M  V30 12460 O 1193.71 -1.07689 1.87702 0
M  V30 12461 C 1194.31 2.18811 2.58664 0
M  V30 12462 C 1192.87 2.11015 3.11689 0
M  V30 12463 C 1192.01 2.07067 1.84441 0
M  V30 12464 H 1194.97 1.44341 0.659657 0
M  V30 12465 H 1194.99 1.78779 3.35884 0
M  V30 12466 H 1194.5 3.19726 2.19993 0
M  V30 12467 H 1192.6 1.13354 3.54939 0
M  V30 12468 H 1192.71 3.00929 3.72799 0
M  V30 12469 H 1191.08 1.52335 2.04123 0
M  V30 12470 H 1191.86 3.09767 1.47984 0
M  V30 12471 N 1194.3 -1.0692 1.15784 0
M  V30 12472 C 1195.55 -1.79866 0.936815 0
M  V30 12473 C 1195.88 -1.867 -0.534477 0
M  V30 12474 O 1195.16 -1.35395 -1.39637 0
M  V30 12475 C 1195.44 -3.24691 1.55717 0
M  V30 12476 C 1195.29 -3.25975 3.09936 0
M  V30 12477 C 1196.61 -4.22076 1.24658 0
M  V30 12478 H 1193.73 -0.652971 0.341756 0
M  V30 12479 H 1196.37 -1.25085 1.43016 0
M  V30 12480 H 1194.52 -3.7147 1.13763 0
M  V30 12481 H 1196.2 -2.87405 3.60827 0
M  V30 12482 H 1194.44 -2.64808 3.43597 0
M  V30 12483 H 1195.11 -4.28114 3.48458 0
M  V30 12484 H 1197.59 -3.83709 1.60956 0
M  V30 12485 H 1196.46 -5.21691 1.70675 0
M  V30 12486 H 1196.72 -4.41794 0.164341 0
M  V30 12487 N 1195.78 -0.955326 -1.25345 0
M  V30 12488 C 1196.72 -0.420299 -2.24296 0
M  V30 12489 C 1197.69 0.498753 -1.54762 0
M  V30 12490 O 1198.88 0.432971 -1.8346 0
M  V30 12491 C 1196 0.394576 -3.36394 0
M  V30 12492 C 1195.05 -0.464973 -4.23958 0
M  V30 12493 S 1195.88 -1.89764 -5.00749 0
M  V30 12494 C 1197.04 -1.09121 -6.16314 0
M  V30 12495 H 1197.27 -1.25888 -2.69331 0
M  V30 12496 H 1194.81 -0.759449 -1.34431 0
M  V30 12497 H 1196.76 0.858788 -4.01416 0
M  V30 12498 H 1195.42 1.20799 -2.89942 0
M  V30 12499 H 1194.62 0.160055 -5.03746 0
M  V30 12500 H 1194.22 -0.864422 -3.63873 0
M  V30 12501 H 1196.51 -0.340218 -6.76645 0
M  V30 12502 H 1197.45 -1.86304 -6.83152 0
M  V30 12503 H 1197.86 -0.621033 -5.61073 0
M  V30 12504 N 1197.26 1.39987 -0.723979 0
M  V30 12505 C 1198.51 1.99964 -0.26406 0
M  V30 12506 C 1198.82 1.58084 1.1519 0
M  V30 12507 O 1200.03 2.10819 1.71077 0
M  V30 12508 C 1198.49 3.57427 -0.421174 0
M  V30 12509 C 1198.09 4.08276 -1.84432 0
M  V30 12510 C 1199.84 4.24494 -0.0224734 0
M  V30 12511 C 1197.74 5.58272 -1.95157 0
M  V30 12512 H 1196.67 0.747995 -0.0949728 0
M  V30 12513 H 1199.33 1.60122 -0.896276 0
M  V30 12514 H 1197.71 3.95011 0.279762 0
M  V30 12515 H 1198.88 3.82051 -2.57631 0
M  V30 12516 H 1197.2 3.53834 -2.19523 0
M  V30 12517 H 1199.79 5.34637 -0.0817744 0
M  V30 12518 H 1200.14 4.03593 1.02069 0
M  V30 12519 H 1200.67 3.92046 -0.67416 0
M  V30 12520 H 1197.41 5.84038 -2.97623 0
M  V30 12521 H 1196.93 5.86335 -1.2638 0
M  V30 12522 H 1198.61 6.23509 -1.72759 0
M  V30 12523 N 1198.74 0.470782 1.50404 0
M  V30 12524 C 1199.99 -0.0859981 2.01517 0
M  V30 12525 C 1200.3 -1.40811 1.35763 0
M  V30 12526 O 1201.51 -2.04982 1.7803 0
M  V30 12527 C 1199.96 -0.203773 3.59323 0
M  V30 12528 C 1199.57 1.10989 4.34034 0
M  V30 12529 C 1201.32 -0.712528 4.18477 0
M  V30 12530 C 1199.22 0.955928 5.83623 0
M  V30 12531 H 1198.15 -0.0359142 0.753144 0
M  V30 12532 H 1200.8 0.605631 1.73218 0
M  V30 12533 H 1199.19 -0.959177 3.84208 0
M  V30 12534 H 1200.36 1.87623 4.20873 0
M  V30 12535 H 1198.67 1.54973 3.86487 0
M  V30 12536 H 1201.27 -0.844745 5.27985 0
M  V30 12537 H 1201.61 -1.70377 3.79838 0
M  V30 12538 H 1202.15 -0.0145179 3.97797 0
M  V30 12539 H 1198.89 1.92054 6.26734 0
M  V30 12540 H 1198.41 0.22997 5.99359 0
M  V30 12541 H 1200.09 0.622423 6.43999 0
M  V30 12542 N 1200.22 -1.56282 0.203376 0
M  V30 12543 C 1201.44 -2.02643 -0.441658 0
M  V30 12544 C 1201.87 -1.0825 -1.5383 0
M  V30 12545 O 1201.23 -0.0674337 -1.81175 0
M  V30 12546 C 1201.27 -3.47382 -0.967369 0
M  V30 12547 O 1200.38 -3.56115 -2.07981 0
M  V30 12548 H 1199.72 -0.656081 -0.102242 0
M  V30 12549 H 1202.25 -2.02134 0.316684 0
M  V30 12550 H 1202.26 -3.8734 -1.28186 0
M  V30 12551 H 1200.93 -4.15574 -0.164625 0
M  V30 12552 H 1199.51 -3.28035 -1.77334 0
M  V30 12553 N 1201.7 0.070167 -1.57444 0
M  V30 12554 C 1203.11 0.424991 -1.53838 0
M  V30 12555 C 1203.31 1.79076 -0.923793 0
M  V30 12556 O 1202.37 2.46939 -0.527002 0
M  V30 12557 C 1203.68 0.364562 -2.98482 0
M  V30 12558 C 1205.23 0.444631 -3.09826 0
M  V30 12559 C 1205.7 0.414093 -4.56124 0
M  V30 12560 N 1207.19 0.474119 -4.60767 0
M  V30 12561 C 1207.93 0.472729 -5.71448 0
M  V30 12562 N 1207.43 0.426059 -6.91489 0
M  V30 12563 N 1209.22 0.519408 -5.59695 0
M  V30 12564 H 1201.37 -0.824117 -1.9576 0
M  V30 12565 H 1203.63 -0.309401 -0.896089 0
M  V30 12566 H 1203.34 -0.572343 -3.47012 0
M  V30 12567 H 1203.21 1.17414 -3.5846 0
M  V30 12568 H 1205.6 1.37196 -2.61269 0
M  V30 12569 H 1205.68 -0.393547 -2.52755 0
M  V30 12570 H 1205.32 -0.509394 -5.05339 0
M  V30 12571 H 1205.25 1.26983 -5.11061 0
M  V30 12572 H 1207.75 0.514371 -3.74383 0
M  V30 12573 H 1208.06 0.428969 -7.71609 0
M  V30 12574 H 1206.4 0.392722 -6.9389 0
M  V30 12575 H 1209.59 0.553573 -4.64815 0
M  V30 12576 H 1209.77 0.514856 -6.45951 0
M  V30 12577 N 1203.17 1.53854 0.341593 0
M  V30 12578 C 1204.42 1.71194 1.08162 0
M  V30 12579 C 1204.75 0.47614 1.88582 0
M  V30 12580 O 1204 -0.542115 1.88041 0
M  V30 12581 C 1204.3 2.92844 2.04884 0
M  V30 12582 C 1203.97 4.28366 1.40759 0
M  V30 12583 C 1202.63 4.65214 1.23 0
M  V30 12584 C 1204.98 5.12546 0.945819 0
M  V30 12585 C 1202.31 5.83857 0.576852 0
M  V30 12586 C 1204.66 6.31857 0.306568 0
M  V30 12587 C 1203.33 6.67398 0.116677 0
M  V30 12588 H 1202.6 0.626442 0.395792 0
M  V30 12589 H 1205.24 1.88073 0.360688 0
M  V30 12590 H 1203.55 2.70576 2.83365 0
M  V30 12591 H 1205.25 3.03454 2.62139 0
M  V30 12592 H 1201.84 3.99366 1.5558 0
M  V30 12593 H 1206.02 4.84609 1.07087 0
M  V30 12594 H 1201.28 6.09967 0.418363 0
M  V30 12595 H 1205.45 6.96375 -0.0593285 0
M  V30 12596 H 1203.08 7.59191 -0.391477 0
M  V30 12597 N 1204.65 -0.602709 1.4562 0
M  V30 12598 C 1205.61 -1.69508 1.54271 0
M  V30 12599 C 1206.61 -1.55171 0.421727 0
M  V30 12600 O 1207.8 -1.60151 0.685375 0
M  V30 12601 C 1204.94 -3.0881 1.44392 0
M  V30 12602 H 1206.13 -1.63203 2.51605 0
M  V30 12603 H 1203.68 -0.818857 1.33133 0
M  V30 12604 H 1204.42 -3.20689 0.482614 0
M  V30 12605 H 1204.2 -3.20625 2.25704 0
M  V30 12606 H 1205.69 -3.8837 1.53488 0
M  V30 12607 N 1206.13 -1.32992 -0.845635 0
M  V30 12608 C 1207.41 -1.14671 -1.58461 0
M  V30 12609 C 1207.79 0.289498 -2.09106 0
M  V30 12610 O 1207.13 1.28751 -1.88773 0
M  V30 12611 C 1207.34 -2.18206 -2.72373 0
M  V30 12612 C 1208.69 -2.5201 -3.41726 0
M  V30 12613 O 1209.72 -2.16821 -2.82608 0
M  V30 12614 O 1208.58 -3.12368 -4.48429 0
M  V30 12615 H 1205.67 -0.443088 -0.698285 0
M  V30 12616 H 1208.22 -1.44552 -0.888978 0
M  V30 12617 H 1206.99 -3.14707 -2.32541 0
M  V30 12618 H 1206.61 -1.89372 -3.49605 0
M  V30 12619 N 1207.61 1.06304 -1.1635 0
M  V30 12620 C 1208.86 1.78747 -0.943074 0
M  V30 12621 C 1209.18 1.87646 0.530483 0
M  V30 12622 O 1208.45 1.38506 1.38538 0
M  V30 12623 H 1207.03 0.662072 -0.345932 0
M  V30 12624 H 1209.69 1.28413 -1.46615 0
M  V30 12625 H 1208.78 2.80828 -1.3617 0
M  V30 12626 N 1209.09 0.96196 1.24836 0
M  V30 12627 C 1210.36 0.537809 1.88061 0
M  V30 12628 C 1210.74 -0.985023 1.8671 0
M  V30 12629 O 1210.09 -1.85394 1.33572 0
M  V30 12630 C 1210.3 1.12279 3.30446 0
M  V30 12631 C 1211.65 1.20414 4.07168 0
M  V30 12632 O 1212.67 1.07488 3.39595 0
M  V30 12633 O 1211.53 1.4078 5.28056 0
M  V30 12634 H 1208.63 0.178491 0.807509 0
M  V30 12635 H 1211.17 1.05586 1.32852 0
M  V30 12636 H 1209.94 2.16578 3.25898 0
M  V30 12637 H 1209.57 0.58843 3.93222 0
M  V30 12638 N 1210.56 -1.39601 0.731392 0
M  V30 12639 C 1211.49 -2.33268 0.1041 0
M  V30 12640 C 1212.47 -1.53724 -0.728219 0
M  V30 12641 O 1213.66 -1.82131 -0.673933 0
M  V30 12642 C 1210.79 -3.37802 -0.806646 0
M  V30 12643 C 1209.74 -4.27928 -0.0787588 0
M  V30 12644 C 1209.07 -5.23131 -1.10628 0
M  V30 12645 C 1210.37 -5.11086 1.07651 0
M  V30 12646 H 1212.06 -2.85975 0.886496 0
M  V30 12647 H 1209.61 -1.375 0.427746 0
M  V30 12648 H 1211.56 -4.02278 -1.25499 0
M  V30 12649 H 1210.29 -2.83527 -1.62112 0
M  V30 12650 H 1208.95 -3.64926 0.349926 0
M  V30 12651 H 1208.59 -4.65152 -1.91422 0
M  V30 12652 H 1208.29 -5.84277 -0.624043 0
M  V30 12653 H 1209.82 -5.90483 -1.5544 0
M  V30 12654 H 1211.23 -5.68927 0.706781 0
M  V30 12655 H 1209.63 -5.81356 1.48814 0
M  V30 12656 H 1210.7 -4.46131 1.89988 0
M  V30 12657 N 1212.04 -0.478751 -1.50152 0
M  V30 12658 C 1213.32 0.135533 -1.9513 0
M  V30 12659 C 1213.7 1.56253 -1.41944 0
M  V30 12660 O 1213.05 2.19824 -0.623673 0
M  V30 12661 C 1213.26 0.0710037 -3.48928 0
M  V30 12662 C 1214.61 0.256075 -4.23827 0
M  V30 12663 O 1215.63 0.147234 -3.55896 0
M  V30 12664 O 1214.49 0.476741 -5.44417 0
M  V30 12665 H 1211.58 0.107491 -0.819985 0
M  V30 12666 H 1214.13 -0.539701 -1.60889 0
M  V30 12667 H 1212.9 -0.925012 -3.80209 0
M  V30 12668 H 1212.52 0.787362 -3.89726 0
M  V30 12669 N 1213.52 1.56172 -0.211661 0
M  V30 12670 C 1214.48 2.18602 0.688906 0
M  V30 12671 C 1215.48 1.14508 1.12892 0
M  V30 12672 O 1216.67 1.39799 1.03932 0
M  V30 12673 C 1213.81 2.80141 1.94253 0
M  V30 12674 H 1215 2.9955 0.144765 0
M  V30 12675 H 1212.55 1.56254 0.0379615 0
M  V30 12676 H 1213.29 2.03035 2.52878 0
M  V30 12677 H 1213.07 3.56358 1.63558 0
M  V30 12678 H 1214.56 3.28026 2.58436 0
M  V30 12679 N 1215 -0.0618163 1.57479 0
M  V30 12680 C 1216.24 -0.760193 1.88013 0
M  V30 12681 C 1216.58 -1.76718 0.805258 0
M  V30 12682 O 1215.85 -1.93633 -0.183408 0
M  V30 12683 C 1216.14 -1.45924 3.29208 0
M  V30 12684 C 1215.99 -0.467994 4.47359 0
M  V30 12685 C 1217.31 -2.40166 3.68793 0
M  V30 12686 H 1214.43 -0.274896 0.683814 0
M  V30 12687 H 1217.07 -0.0232433 1.89986 0
M  V30 12688 H 1215.22 -2.08741 3.27657 0
M  V30 12689 H 1216.89 0.155735 4.61037 0
M  V30 12690 H 1215.13 0.215797 4.33263 0
M  V30 12691 H 1215.8 -0.994942 5.42959 0
M  V30 12692 H 1218.28 -1.87419 3.71501 0
M  V30 12693 H 1217.16 -2.86076 4.68457 0
M  V30 12694 H 1217.42 -3.25413 2.99264 0
M  V30 12695 N 1216.48 -1.54033 -0.333429 0
M  V30 12696 C 1217.41 -1.85719 -1.4153 0
M  V30 12697 C 1218.39 -0.713144 -1.54429 0
M  V30 12698 O 1219.57 -0.965984 -1.68471 0
M  V30 12699 C 1216.7 -2.07578 -2.78439 0
M  V30 12700 C 1215.66 -3.23411 -2.80338 0
M  V30 12701 C 1214.98 -3.30622 -4.2023 0
M  V30 12702 C 1216.28 -4.6129 -2.44968 0
M  V30 12703 H 1217.98 -2.76325 -1.15261 0
M  V30 12704 H 1215.52 -1.32957 -0.55303 0
M  V30 12705 H 1217.48 -2.28329 -3.5418 0
M  V30 12706 H 1216.2 -1.13713 -3.06165 0
M  V30 12707 H 1214.86 -3.02531 -2.07052 0
M  V30 12708 H 1214.51 -2.34333 -4.45081 0
M  V30 12709 H 1214.21 -4.08466 -4.22409 0
M  V30 12710 H 1215.73 -3.53596 -4.97798 0
M  V30 12711 H 1217.14 -4.81987 -3.10421 0
M  V30 12712 H 1215.54 -5.41611 -2.58414 0
M  V30 12713 H 1216.61 -4.6421 -1.40134 0
M  V30 12714 N 1217.95 0.594978 -1.45938 0
M  V30 12715 C 1219.18 1.38482 -1.54394 0
M  V30 12716 C 1219.6 1.87222 -0.181563 0
M  V30 12717 O 1218.96 1.60869 0.836119 0
M  V30 12718 C 1219.01 2.55676 -2.54287 0
M  V30 12719 O 1218.11 3.5672 -2.06941 0
M  V30 12720 H 1217.46 0.412918 -0.519995 0
M  V30 12721 H 1219.99 0.722899 -1.91404 0
M  V30 12722 H 1220 3.02756 -2.73501 0
M  V30 12723 H 1218.67 2.19552 -3.53228 0
M  V30 12724 H 1217.25 3.16204 -1.97661 0
M  V30 12725 N 1219.43 1.33438 0.838571 0
M  V30 12726 C 1220.85 1.12779 1.12929 0
M  V30 12727 C 1221.05 -0.0811188 2.01337 0
M  V30 12728 O 1220.1 -0.761294 2.4075 0
M  V30 12729 C 1221.42 2.41537 1.7911 0
M  V30 12730 C 1222.97 2.47447 1.91674 0
M  V30 12731 C 1223.44 3.76167 2.6127 0
M  V30 12732 N 1224.93 3.7724 2.68783 0
M  V30 12733 C 1225.67 4.7355 3.23323 0
M  V30 12734 N 1225.16 5.80235 3.78549 0
M  V30 12735 N 1226.96 4.61025 3.21578 0
M  V30 12736 H 1219.11 2.10921 0.250187 0
M  V30 12737 H 1221.37 0.931986 0.17351 0
M  V30 12738 H 1221.08 3.30006 1.21609 0
M  V30 12739 H 1220.95 2.53709 2.79127 0
M  V30 12740 H 1223.34 1.59427 2.48328 0
M  V30 12741 H 1223.42 2.39216 0.906058 0
M  V30 12742 H 1223.06 4.64569 2.05275 0
M  V30 12743 H 1222.99 3.81675 3.62811 0
M  V30 12744 H 1225.48 3.00138 2.29621 0
M  V30 12745 H 1225.8 6.49759 4.1837 0
M  V30 12746 H 1224.14 5.83969 3.76836 0
M  V30 12747 H 1227.33 3.76836 2.77691 0
M  V30 12748 H 1227.5 5.36253 3.63781 0
M  V30 12749 N 1220.91 -1.05686 1.16912 0
M  V30 12750 C 1221.87 -2.11481 0.883647 0
M  V30 12751 C 1222.87 -1.60321 -0.124034 0
M  V30 12752 O 1224.06 -1.73868 0.107566 0
M  V30 12753 C 1221.2 -3.3937 0.322649 0
M  V30 12754 H 1222.39 -2.38239 1.8216 0
M  V30 12755 H 1219.94 -1.2185 0.978895 0
M  V30 12756 H 1220.68 -3.18266 -0.622695 0
M  V30 12757 H 1220.46 -3.77812 1.04883 0
M  V30 12758 H 1221.95 -4.17362 0.141072 0
M  V30 12759 N 1222.39 -0.968567 -1.24324 0
M  V30 12760 C 1223.34 -0.491346 -2.27351 0
M  V30 12761 C 1224.33 0.445563 -1.63435 0
M  V30 12762 O 1225.54 0.320758 -1.77119 0
M  V30 12763 H 1221.91 -0.14043 -0.738772 0
M  V30 12764 H 1223.88 -1.37224 -2.64976 0
M  V30 12765 C 1222.63 0.202093 -3.47112 0
M  V30 12766 H 1221.95 -0.50973 -3.96537 0
M  V30 12767 H 1223.39 0.499815 -4.21044 0
M  V30 12768 C 1221.85 1.42937 -3.05075 0
M  V30 12769 O 1222.38 2.52635 -3.12312 0
M  V30 12770 N 1220.59 1.29572 -2.60114 0
M  V30 12771 H 1220.14 0.403169 -2.54425 0
M  V30 12772 H 1220.09 2.118 -2.32353 0
M  V30 12773 N 1223.87 1.39211 -0.738786 0
M  V30 12774 C 1224.83 2.28937 -0.109746 0
M  V30 12775 C 1225.83 1.46488 0.663157 0
M  V30 12776 O 1227.02 1.67119 0.491614 0
M  V30 12777 C 1224.15 3.30039 0.853633 0
M  V30 12778 H 1225.34 2.86068 -0.900295 0
M  V30 12779 H 1222.9 1.47922 -0.504853 0
M  V30 12780 H 1223.63 2.77971 1.6704 0
M  V30 12781 H 1223.42 3.90935 0.302007 0
M  V30 12782 H 1224.91 3.97169 1.29022 0
M  V30 12783 N 1225.34 0.486708 1.49896 0
M  V30 12784 C 1226.57 -0.0600816 2.06813 0
M  V30 12785 C 1226.99 -1.32112 1.34877 0
M  V30 12786 O 1226.34 -1.77537 0.422725 0
M  V30 12787 C 1226.4 -0.332266 3.5997 0
M  V30 12788 O 1226.12 0.878771 4.29196 0
M  V30 12789 C 1227.62 -0.924289 4.33557 0
M  V30 12790 H 1224.84 0.0140611 0.670853 0
M  V30 12791 H 1227.38 0.67997 1.92864 0
M  V30 12792 H 1225.54 -1.02227 3.73669 0
M  V30 12793 H 1225.95 0.632873 5.20668 0
M  V30 12794 H 1227.42 -1.06441 5.4164 0
M  V30 12795 H 1227.9 -1.91844 3.95085 0
M  V30 12796 H 1228.51 -0.272189 4.24428 0
M  V30 12797 N 1226.82 -1.56058 0.219941 0
M  V30 12798 C 1227.73 -2.23844 -0.70222 0
M  V30 12799 C 1228.75 -1.24554 -1.215 0
M  V30 12800 O 1229.93 -1.57362 -1.25695 0
M  V30 12801 C 1226.99 -2.90384 -1.89416 0
M  V30 12802 C 1226.05 -4.05012 -1.42351 0
M  V30 12803 C 1225.28 -4.68369 -2.55863 0
M  V30 12804 O 1225.51 -4.3071 -3.73958 0
M  V30 12805 O 1224.44 -5.5739 -2.27157 0
M  V30 12806 H 1228.27 -3.03305 -0.15478 0
M  V30 12807 H 1225.85 -1.49396 -0.010438 0
M  V30 12808 H 1227.73 -3.32389 -2.59028 0
M  V30 12809 H 1226.41 -2.13883 -2.42973 0
M  V30 12810 H 1225.32 -3.67579 -0.695448 0
M  V30 12811 H 1226.65 -4.83251 -0.934332 0
M  V30 12812 N 1228.3 0.053464 -1.57509 0
M  V30 12813 C 1229.55 0.749102 -1.88135 0
M  V30 12814 C 1229.88 1.76642 -0.814111 0
M  V30 12815 O 1229.13 1.94796 0.187845 0
M  V30 12816 C 1229.43 1.47666 -3.25468 0
M  V30 12817 C 1229.1 0.597619 -4.46922 0
M  V30 12818 C 1227.76 0.355429 -4.79886 0
M  V30 12819 C 1230.11 -0.0107869 -5.21199 0
M  V30 12820 C 1227.44 -0.504347 -5.84528 0
M  V30 12821 C 1229.79 -0.858123 -6.26753 0
M  V30 12822 C 1228.45 -1.11001 -6.58206 0
M  V30 12823 H 1227.72 0.274116 -0.688434 0
M  V30 12824 H 1230.37 0.00944162 -1.91498 0
M  V30 12825 H 1228.68 2.28901 -3.1798 0
M  V30 12826 H 1230.37 2.02002 -3.46404 0
M  V30 12827 H 1226.96 0.796526 -4.21134 0
M  V30 12828 H 1231.15 0.163404 -4.96031 0
M  V30 12829 H 1226.4 -0.708057 -6.07286 0
M  V30 12830 H 1230.58 -1.3362 -6.83461 0
M  V30 12831 H 1228.2 -1.77798 -7.39116 0
M  V30 12832 N 1229.78 1.54207 0.325255 0
M  V30 12833 C 1231.03 1.71991 1.0613 0
M  V30 12834 C 1231.35 0.495505 1.88599 0
M  V30 12835 O 1230.62 -0.490504 1.8966 0
M  V30 12836 H 1229.2 0.634137 0.394816 0
M  V30 12837 H 1231.86 1.91507 0.362101 0
M  V30 12838 H 1230.96 2.59878 1.72829 0
M  V30 12839 N 1231.26 -0.58723 1.46251 0
M  V30 12840 C 1232.19 -1.70694 1.5933 0
M  V30 12841 C 1233.17 -1.64208 0.443831 0
M  V30 12842 O 1234.35 -1.82294 0.669516 0
M  V30 12843 C 1231.48 -3.0933 1.579 0
M  V30 12844 C 1230.44 -3.30643 2.7177 0
M  V30 12845 C 1229.76 -4.69761 2.554 0
M  V30 12846 C 1231.06 -3.18916 4.1363 0
M  V30 12847 H 1232.76 -1.60004 2.53059 0
M  V30 12848 H 1230.3 -0.768343 1.21789 0
M  V30 12849 H 1232.26 -3.87479 1.65644 0
M  V30 12850 H 1230.98 -3.20907 0.60712 0
M  V30 12851 H 1229.64 -2.54892 2.63488 0
M  V30 12852 H 1229.29 -4.78098 1.56306 0
M  V30 12853 H 1228.99 -4.84974 3.31774 0
M  V30 12854 H 1230.51 -5.50084 2.65028 0
M  V30 12855 H 1231.93 -3.86915 4.23048 0
M  V30 12856 H 1230.32 -3.45653 4.90555 0
M  V30 12857 H 1231.39 -2.1606 4.34104 0
M  V30 12858 N 1232.74 -1.33881 -0.831482 0
M  V30 12859 C 1233.7 -1.24654 -1.92339 0
M  V30 12860 C 1234.7 -0.163788 -1.59964 0
M  V30 12861 O 1235.89 -0.415829 -1.69164 0
M  V30 12862 C 1233.02 -0.922537 -3.2818 0
M  V30 12863 H 1234.21 -2.21717 -2.01944 0
M  V30 12864 H 1231.77 -1.18046 -1.02445 0
M  V30 12865 H 1232.5 0.0452872 -3.24268 0
M  V30 12866 H 1232.29 -1.70562 -3.53059 0
M  V30 12867 H 1233.78 -0.88292 -4.0816 0
M  V30 12868 N 1234.21 1.05064 -1.1747 0
M  V30 12869 C 1235.44 1.82299 -0.98903 0
M  V30 12870 C 1235.86 1.82441 0.457907 0
M  V30 12871 O 1235.22 1.23433 1.32793 0
M  V30 12872 C 1235.27 3.26239 -1.53624 0
M  V30 12873 O 1234.37 4.05507 -0.750857 0
M  V30 12874 H 1233.71 0.563601 -0.35107 0
M  V30 12875 H 1236.24 1.32386 -1.55997 0
M  V30 12876 H 1236.25 3.77038 -1.55906 0
M  V30 12877 H 1234.93 3.25451 -2.58949 0
M  V30 12878 H 1233.51 3.64227 -0.799548 0
M  V30 12879 N 1235.69 0.975146 1.23809 0
M  V30 12880 C 1236.94 0.639858 1.91704 0
M  V30 12881 C 1237.26 -0.828557 1.76522 0
M  V30 12882 O 1236.53 -1.59217 1.14135 0
M  V30 12883 H 1235.11 0.233667 0.709513 0
M  V30 12884 H 1237.77 1.23782 1.50545 0
M  V30 12885 H 1236.87 0.886915 2.99233 0
M  V30 12886 N 1237.17 -1.38817 0.746158 0
M  V30 12887 C 1238.42 -2.00577 0.299458 0
M  V30 12888 C 1238.75 -1.59087 -1.11378 0
M  V30 12889 O 1238.02 -0.824932 -1.7614 0
M  V30 12890 C 1238.31 -3.57713 0.413932 0
M  V30 12891 C 1238.16 -4.09189 1.86774 0
M  V30 12892 C 1239.48 -4.39659 -0.197082 0
M  V30 12893 H 1236.6 -0.728702 0.110285 0
M  V30 12894 H 1239.24 -1.64866 0.944408 0
M  V30 12895 H 1237.39 -3.88265 -0.135155 0
M  V30 12896 H 1239.06 -3.89311 2.47456 0
M  V30 12897 H 1237.3 -3.62333 2.38532 0
M  V30 12898 H 1237.98 -5.18305 1.89904 0
M  V30 12899 H 1240.45 -4.15216 0.271121 0
M  V30 12900 H 1239.33 -5.48832 -0.0867011 0
M  V30 12901 H 1239.59 -4.23028 -1.2845 0
M  V30 12902 N 1238.65 -0.49465 -1.49636 0
M  V30 12903 C 1239.89 0.0521172 -2.02433 0
M  V30 12904 C 1240.22 1.37579 -1.37485 0
M  V30 12905 O 1239.48 1.8927 -0.497538 0
M  V30 12906 C 1239.78 0.259743 -3.56455 0
M  V30 12907 C 1239.44 -0.985143 -4.40007 0
M  V30 12908 C 1238.1 -1.3264 -4.62558 0
M  V30 12909 C 1240.46 -1.81291 -4.88654 0
M  V30 12910 C 1237.78 -2.49506 -5.31003 0
M  V30 12911 C 1240.14 -2.97305 -5.58384 0
M  V30 12912 C 1238.8 -3.31818 -5.79183 0
M  V30 12913 H 1238.07 0.0190711 -0.740755 0
M  V30 12914 H 1240.72 -0.653519 -1.80004 0
M  V30 12915 H 1239.02 1.04785 -3.77528 0
M  V30 12916 H 1240.72 0.697146 -3.94893 0
M  V30 12917 H 1237.31 -0.709313 -4.2269 0
M  V30 12918 H 1241.49 -1.56242 -4.71065 0
M  V30 12919 H 1236.75 -2.76491 -5.4531 0
M  V30 12920 H 1240.92 -3.61777 -5.95055 0
M  V30 12921 H 1238.55 -4.22478 -6.31994 0
M  V30 12922 N 1240.13 1.55939 -0.228214 0
M  V30 12923 C 1241.35 2.0287 0.406348 0
M  V30 12924 C 1241.77 1.1079 1.52876 0
M  V30 12925 O 1241.13 0.118747 1.82113 0
M  V30 12926 C 1241.18 3.49286 0.931734 0
M  V30 12927 O 1240.9 4.37857 -0.145933 0
M  V30 12928 C 1242.4 4.11893 1.63887 0
M  V30 12929 H 1239.62 0.663696 0.0987358 0
M  V30 12930 H 1242.16 2.01541 -0.346616 0
M  V30 12931 H 1240.32 3.5121 1.63494 0
M  V30 12932 H 1240.73 5.23904 0.250005 0
M  V30 12933 H 1242.21 5.16091 1.95841 0
M  V30 12934 H 1242.68 3.57281 2.55435 0
M  V30 12935 H 1243.29 4.13839 0.980697 0
M  V30 12936 N 1241.6 -0.0451101 1.57535 0
M  V30 12937 C 1243.02 -0.400463 1.54494 0
M  V30 12938 C 1243.22 -1.77584 0.952166 0
M  V30 12939 O 1242.28 -2.46069 0.566221 0
M  V30 12940 C 1243.59 -0.31703 2.99024 0
M  V30 12941 C 1245.14 -0.395284 3.10494 0
M  V30 12942 C 1245.61 -0.341475 4.56725 0
M  V30 12943 N 1247.1 -0.400755 4.61463 0
M  V30 12944 C 1247.84 -0.381757 5.72128 0
M  V30 12945 N 1247.33 -0.315995 6.92079 0
M  V30 12946 N 1249.13 -0.4303 5.60451 0
M  V30 12947 H 1241.28 0.855156 1.94424 0
M  V30 12948 H 1243.54 0.323618 0.891053 0
M  V30 12949 H 1243.25 0.627477 3.46057 0
M  V30 12950 H 1243.12 -1.11696 3.60283 0
M  V30 12951 H 1245.51 -1.33022 2.63418 0
M  V30 12952 H 1245.59 0.433709 2.52096 0
M  V30 12953 H 1245.23 0.589725 5.04465 0
M  V30 12954 H 1245.16 -1.18836 5.13016 0
M  V30 12955 H 1247.65 -0.454745 3.75154 0
M  V30 12956 H 1247.97 -0.306158 7.72193 0
M  V30 12957 H 1246.31 -0.282281 6.94427 0
M  V30 12958 H 1249.5 -0.479555 4.65637 0
M  V30 12959 H 1249.68 -0.412025 6.46689 0
M  V30 12960 N 1243.08 -1.54377 -0.317073 0
M  V30 12961 C 1244.36 -1.63551 -1.07287 0
M  V30 12962 C 1244.74 -0.473499 -2.05721 0
M  V30 12963 O 1244.09 0.531545 -2.22232 0
M  V30 12964 C 1244.3 -3.00842 -1.76904 0
M  V30 12965 C 1245.65 -3.57111 -2.29689 0
M  V30 12966 O 1246.67 -3.0319 -1.86961 0
M  V30 12967 O 1245.53 -4.51486 -3.07932 0
M  V30 12968 H 1242.62 -0.662557 -0.494922 0
M  V30 12969 H 1245.17 -1.66723 -0.316444 0
M  V30 12970 H 1243.94 -3.76854 -1.05341 0
M  V30 12971 H 1243.56 -3.01377 -2.59341 0
M  V30 12972 N 1244.56 0.579466 -1.4656 0
M  V30 12973 C 1245.81 1.33379 -1.51304 0
M  V30 12974 C 1246.12 1.94855 -0.170507 0
M  V30 12975 O 1247.33 2.71331 -0.0957704 0
M  V30 12976 C 1245.78 2.41748 -2.66619 0
M  V30 12977 C 1245.39 1.8656 -4.07307 0
M  V30 12978 C 1247.14 3.18502 -2.80636 0
M  V30 12979 C 1245.04 2.92578 -5.13957 0
M  V30 12980 H 1243.97 0.501422 -0.56311 0
M  V30 12981 H 1246.62 0.618025 -1.72779 0
M  V30 12982 H 1245.01 3.16138 -2.3848 0
M  V30 12983 H 1246.18 1.18692 -4.45252 0
M  V30 12984 H 1244.5 1.22464 -3.97984 0
M  V30 12985 H 1247.09 3.9763 -3.57483 0
M  V30 12986 H 1247.44 3.71295 -1.8827 0
M  V30 12987 H 1247.97 2.51219 -3.08437 0
M  V30 12988 H 1244.71 2.44668 -6.08126 0
M  V30 12989 H 1244.23 3.58926 -4.80554 0
M  V30 12990 H 1245.91 3.56471 -5.39942 0
M  V30 12991 N 1246.04 1.3432 0.824371 0
M  V30 12992 C 1246.99 1.2578 1.95658 0
M  V30 12993 C 1247.98 0.156199 1.68678 0
M  V30 12994 O 1249.19 0.321081 1.77113 0
M  V30 12995 H 1245.56 0.390711 0.642533 0
M  V30 12996 H 1247.53 2.21471 1.99983 0
M  V30 12997 C 1246.28 1.02865 3.32136 0
M  V30 12998 H 1245.6 1.86863 3.53443 0
M  V30 12999 H 1247.04 1.00925 4.11813 0
M  V30 13000 C 1245.5 -0.268097 3.35832 0
M  V30 13001 O 1246.03 -1.26995 3.81097 0
M  V30 13002 N 1244.24 -0.300702 2.8904 0
M  V30 13003 H 1243.79 0.51515 2.52396 0
M  V30 13004 H 1243.74 -1.16811 2.91895 0
M  V30 13005 N 1247.52 -1.0444 1.18026 0
M  V30 13006 C 1248.46 -2.12365 0.903865 0
M  V30 13007 C 1249.43 -1.65373 -0.155252 0
M  V30 13008 O 1250.62 -1.90793 -0.016419 0
M  V30 13009 C 1247.76 -3.4239 0.431603 0
M  V30 13010 C 1246.87 -4.03016 1.55571 0
M  V30 13011 C 1246.01 -5.20988 1.03655 0
M  V30 13012 C 1245.05 -5.73636 2.1356 0
M  V30 13013 N 1244.18 -6.82901 1.63066 0
M  V30 13014 H 1249.02 -2.35346 1.82802 0
M  V30 13015 H 1246.56 -1.15447 0.911618 0
M  V30 13016 H 1248.52 -4.16967 0.139296 0
M  V30 13017 H 1247.15 -3.19569 -0.455576 0
M  V30 13018 H 1246.2 -3.25803 1.96358 0
M  V30 13019 H 1247.51 -4.38122 2.38434 0
M  V30 13020 H 1246.67 -6.02665 0.698546 0
M  V30 13021 H 1245.4 -4.87377 0.177457 0
M  V30 13022 H 1244.41 -4.90583 2.4821 0
M  V30 13023 H 1245.63 -6.09293 2.99899 0
M  V30 13024 H 1243.58 -6.51172 0.794394 0
M  V30 13025 H 1243.5 -7.1705 2.3953 0
M  V30 13026 H 1244.77 -7.68211 1.32181 0
M  V30 13027 N 1248.99 -0.981699 -1.2329 0
M  V30 13028 C 1249.96 -0.527992 -2.23036 0
M  V30 13029 C 1250.96 0.383083 -1.5617 0
M  V30 13030 O 1252.15 0.176595 -1.73303 0
M  V30 13031 C 1249.28 0.233501 -3.40099 0
M  V30 13032 H 1250.47 -1.40995 -2.64689 0
M  V30 13033 H 1248.03 -0.767724 -1.36146 0
M  V30 13034 H 1248.76 1.13194 -3.03904 0
M  V30 13035 H 1248.55 -0.420505 -3.89839 0
M  V30 13036 H 1250.04 0.539485 -4.14101 0
M  V30 13037 N 1250.47 1.3842 -0.753509 0
M  V30 13038 C 1251.4 2.33073 -0.141198 0
M  V30 13039 C 1252.38 1.54863 0.70367 0
M  V30 13040 O 1253.57 1.8318 0.644872 0
M  V30 13041 C 1250.7 3.39043 0.752802 0
M  V30 13042 C 1249.65 4.27999 0.0106692 0
M  V30 13043 C 1248.98 5.24824 1.02291 0
M  V30 13044 C 1250.28 5.09308 -1.15768 0
M  V30 13045 H 1251.97 2.84528 -0.93188 0
M  V30 13046 H 1249.52 1.36802 -0.449567 0
M  V30 13047 H 1251.47 4.04224 1.19083 0
M  V30 13048 H 1250.2 2.8607 1.57581 0
M  V30 13049 H 1248.85 3.64323 -0.407939 0
M  V30 13050 H 1248.5 4.68139 1.83998 0
M  V30 13051 H 1248.2 5.85196 0.53101 0
M  V30 13052 H 1249.73 5.92882 1.46026 0
M  V30 13053 H 1251.14 5.6773 -0.797203 0
M  V30 13054 H 1249.54 5.78914 -1.58044 0
M  V30 13055 H 1250.61 4.43051 -1.97062 0
M  V30 13056 N 1251.95 0.502579 1.49372 0
M  V30 13057 C 1253.18 -0.0380876 2.06565 0
M  V30 13058 C 1253.59 -1.31224 1.36297 0
M  V30 13059 O 1252.93 -1.78463 0.435517 0
M  V30 13060 C 1252.99 -0.360462 3.57688 0
M  V30 13061 C 1252.66 0.816203 4.49652 0
M  V30 13062 C 1253.65 1.70713 4.91073 0
M  V30 13063 C 1251.34 1.01545 4.91929 0
M  V30 13064 C 1253.33 2.78144 5.73511 0
M  V30 13065 C 1251.02 2.09294 5.74142 0
M  V30 13066 C 1252.02 2.97428 6.14838 0
M  V30 13067 O 1251.71 4.03317 6.95407 0
M  V30 13068 H 1251.44 0.0179548 0.675762 0
M  V30 13069 H 1253.99 0.699609 1.93118 0
M  V30 13070 H 1252.22 -1.15177 3.69149 0
M  V30 13071 H 1253.91 -0.839931 3.97115 0
M  V30 13072 H 1254.68 1.56502 4.59056 0
M  V30 13073 H 1250.56 0.338822 4.59753 0
M  V30 13074 H 1254.1 3.46965 6.05195 0
M  V30 13075 H 1250 2.235 6.05572 0
M  V30 13076 H 1250.77 4.00689 7.13716 0
M  V30 13077 N 1253.43 -1.55816 0.23648 0
M  V30 13078 C 1254.67 -1.98981 -0.391725 0
M  V30 13079 C 1255.01 -1.12428 -1.58346 0
M  V30 13080 O 1254.28 -0.185303 -1.93615 0
M  V30 13081 C 1254.57 -3.50831 -0.811759 0
M  V30 13082 C 1254.42 -4.48152 0.384648 0
M  V30 13083 C 1255.74 -4.07489 -1.66254 0
M  V30 13084 H 1252.86 -0.723404 -0.140911 0
M  V30 13085 H 1255.5 -1.87011 0.335706 0
M  V30 13086 H 1253.65 -3.61162 -1.43157 0
M  V30 13087 H 1255.32 -4.49814 1.02298 0
M  V30 13088 H 1253.56 -4.21406 1.02955 0
M  V30 13089 H 1254.23 -5.51979 0.0475809 0
M  V30 13090 H 1256.71 -4.00195 -1.13944 0
M  V30 13091 H 1255.59 -5.14026 -1.92531 0
M  V30 13092 H 1255.85 -3.55297 -2.6309 0
M  V30 13093 N 1254.91 0.036755 -1.57557 0
M  V30 13094 C 1256.13 0.744813 -1.93565 0
M  V30 13095 C 1256.56 1.68508 -0.835863 0
M  V30 13096 O 1255.91 1.80091 0.208986 0
M  V30 13097 C 1255.96 1.48461 -3.28621 0
M  V30 13098 O 1255.07 2.59739 -3.20327 0
M  V30 13099 H 1254.41 0.200866 -0.632889 0
M  V30 13100 H 1256.94 -0.00547543 -2.04599 0
M  V30 13101 H 1256.95 1.85622 -3.63329 0
M  V30 13102 H 1255.62 0.794953 -4.08232 0
M  V30 13103 H 1254.2 2.25176 -2.97237 0
M  V30 13104 N 1256.39 1.54543 0.308881 0
M  V30 13105 C 1257.66 1.64118 1.06418 0
M  V30 13106 C 1258.04 0.484402 2.05467 0
M  V30 13107 O 1257.39 -0.519752 2.2251 0
M  V30 13108 C 1257.6 3.01776 1.75306 0
M  V30 13109 C 1258.95 3.58324 2.27792 0
M  V30 13110 O 1259.97 3.04177 1.85351 0
M  V30 13111 O 1258.83 4.53113 3.05533 0
M  V30 13112 H 1255.93 0.665172 0.491401 0
M  V30 13113 H 1258.47 1.66889 0.307598 0
M  V30 13114 H 1257.24 3.77407 1.03341 0
M  V30 13115 H 1256.87 3.02748 2.57739 0
M  V30 13116 N 1257.86 -0.571685 1.46866 0
M  V30 13117 C 1258.81 -1.67992 1.58263 0
M  V30 13118 C 1259.78 -1.60535 0.426345 0
M  V30 13119 O 1260.97 -1.79584 0.644534 0
M  V30 13120 C 1258.11 -3.06327 1.58927 0
M  V30 13121 C 1257.22 -3.24328 2.85369 0
M  V30 13122 C 1256.35 -4.52976 2.77464 0
M  V30 13123 C 1255.39 -4.64359 3.98795 0
M  V30 13124 N 1254.53 -5.84345 3.89211 0
M  V30 13125 H 1259.37 -1.57589 2.52922 0
M  V30 13126 H 1256.91 -0.767883 1.25467 0
M  V30 13127 H 1258.86 -3.86411 1.57296 0
M  V30 13128 H 1257.49 -3.15601 0.677912 0
M  V30 13129 H 1256.55 -2.37774 2.96931 0
M  V30 13130 H 1257.86 -3.28605 3.7526 0
M  V30 13131 H 1257.01 -5.41303 2.74001 0
M  V30 13132 H 1255.75 -4.51155 1.85231 0
M  V30 13133 H 1254.76 -3.74448 4.02578 0
M  V30 13134 H 1255.98 -4.6795 4.92137 0
M  V30 13135 H 1253.93 -5.835 2.99772 0
M  V30 13136 H 1253.84 -5.89938 4.72768 0
M  V30 13137 H 1255.11 -6.75072 3.89741 0
M  V30 13138 N 1259.34 -1.34755 -0.817236 0
M  V30 13139 C 1260.27 -1.29452 -1.94331 0
M  V30 13140 C 1261.25 -0.170902 -1.69239 0
M  V30 13141 O 1262.44 -0.364173 -1.90755 0
M  V30 13142 C 1259.57 -1.05497 -3.30889 0
M  V30 13143 C 1258.52 -2.14386 -3.70436 0
M  V30 13144 C 1257.85 -1.75612 -5.05039 0
M  V30 13145 C 1259.15 -3.56265 -3.81933 0
M  V30 13146 H 1260.84 -2.23672 -1.99025 0
M  V30 13147 H 1258.39 -1.07674 -0.956159 0
M  V30 13148 H 1260.34 -1.0043 -4.09257 0
M  V30 13149 H 1259.06 -0.0772059 -3.26509 0
M  V30 13150 H 1257.72 -2.18532 -2.94345 0
M  V30 13151 H 1257.37 -0.764809 -4.97152 0
M  V30 13152 H 1257.07 -2.48495 -5.3247 0
M  V30 13153 H 1258.6 -1.72051 -5.85859 0
M  V30 13154 H 1260.01 -3.545 -4.50558 0
M  V30 13155 H 1258.41 -4.27818 -4.20822 0
M  V30 13156 H 1259.48 -3.93192 -2.83775 0
M  V30 13157 N 1260.82 1.03812 -1.18578 0
M  V30 13158 C 1261.75 2.11928 -0.872871 0
M  V30 13159 C 1262.76 1.62275 0.130592 0
M  V30 13160 O 1263.95 1.78233 -0.0975869 0
M  V30 13161 C 1261.05 3.37714 -0.283321 0
M  V30 13162 C 1260.23 4.16591 -1.33307 0
M  V30 13163 C 1259.29 5.20701 -0.758746 0
M  V30 13164 O 1258.31 5.50837 -1.43412 0
M  V30 13165 N 1259.51 5.78811 0.442505 0
M  V30 13166 H 1262.28 2.39364 -1.80346 0
M  V30 13167 H 1259.84 1.20027 -1.08652 0
M  V30 13168 H 1261.83 4.04538 0.114524 0
M  V30 13169 H 1260.4 3.07699 0.551347 0
M  V30 13170 H 1259.62 3.45051 -1.90613 0
M  V30 13171 H 1260.91 4.66082 -2.04071 0
M  V30 13172 H 1260.31 5.56631 1.00889 0
M  V30 13173 H 1258.86 6.47089 0.78224 0
M  V30 13174 N 1262.3 0.988223 1.22768 0
M  V30 13175 C 1263.26 0.539813 2.22752 0
M  V30 13176 C 1264.26 -0.374796 1.56371 0
M  V30 13177 O 1265.45 -0.167402 1.73394 0
M  V30 13178 C 1262.58 -0.215461 3.40218 0
M  V30 13179 H 1263.78 1.42397 2.63938 0
M  V30 13180 H 1261.33 0.774933 1.35737 0
M  V30 13181 H 1262.06 -1.11581 3.045 0
M  V30 13182 H 1261.85 0.441173 3.8961 0
M  V30 13183 H 1263.34 -0.517517 4.14381 0
M  V30 13184 N 1263.78 -1.38018 0.760839 0
M  V30 13185 C 1265.02 -1.99557 0.319609 0
M  V30 13186 C 1265.34 -1.60699 -1.10457 0
M  V30 13187 O 1264.61 -0.867248 -1.75658 0
M  V30 13188 H 1263.19 -0.738066 0.115182 0
M  V30 13189 H 1265.86 -1.6867 0.976544 0
M  V30 13190 H 1264.95 -3.09672 0.388523 0
M  V30 13191 N 1265.25 -0.510493 -1.49103 0
M  V30 13192 C 1266.48 0.0271718 -2.06882 0
M  V30 13193 C 1266.9 1.2995 -1.36962 0
M  V30 13194 O 1266.25 1.76842 -0.450916 0
M  V30 13195 C 1266.3 0.274956 -3.60453 0
M  V30 13196 O 1266.03 -0.946941 -4.27744 0
M  V30 13197 C 1267.53 0.855197 -4.34973 0
M  V30 13198 H 1264.75 -0.024732 -0.670544 0
M  V30 13199 H 1267.29 -0.710567 -1.91758 0
M  V30 13200 H 1265.45 0.962696 -3.75248 0
M  V30 13201 H 1265.86 -0.715627 -5.19595 0
M  V30 13202 H 1267.33 0.978103 -5.43265 0
M  V30 13203 H 1267.81 1.85535 -3.98087 0
M  V30 13204 H 1268.42 0.204632 -4.24807 0
M  V30 13205 N 1266.73 1.55688 -0.24474 0
M  V30 13206 C 1267.98 1.99186 0.381167 0
M  V30 13207 C 1268.31 1.13266 1.57748 0
M  V30 13208 O 1267.59 0.195568 1.93514 0
M  V30 13209 C 1267.87 3.51257 0.793142 0
M  V30 13210 C 1267.72 4.47942 -0.408409 0
M  V30 13211 C 1269.04 4.08365 1.64091 0
M  V30 13212 H 1266.16 0.724141 0.137073 0
M  V30 13213 H 1268.8 1.8683 -0.345619 0
M  V30 13214 H 1266.95 3.61917 1.4124 0
M  V30 13215 H 1268.62 4.49265 -1.04682 0
M  V30 13216 H 1266.87 4.20854 -1.05189 0
M  V30 13217 H 1267.54 5.51946 -0.0768531 0
M  V30 13218 H 1270.01 4.00794 1.1182 0
M  V30 13219 H 1268.89 5.1504 1.89802 0
M  V30 13220 H 1269.15 3.56687 2.61202 0
M  V30 13221 N 1268.21 -0.0283989 1.57574 0
M  V30 13222 C 1269.46 -0.719077 1.89303 0
M  V30 13223 C 1269.78 -1.75325 0.84211 0
M  V30 13224 O 1269.04 -1.95071 -0.15683 0
M  V30 13225 C 1269.34 -1.4247 3.27776 0
M  V30 13226 C 1269 -0.526442 4.47816 0
M  V30 13227 C 1267.67 -0.279038 4.8039 0
M  V30 13228 C 1270.02 0.0937038 5.21116 0
M  V30 13229 C 1267.35 0.597277 5.83652 0
M  V30 13230 C 1269.7 0.957725 6.25308 0
M  V30 13231 C 1268.36 1.21458 6.56357 0
M  V30 13232 H 1267.63 -0.263129 0.692708 0
M  V30 13233 H 1270.28 0.0210252 1.91488 0
M  V30 13234 H 1268.58 -2.23813 3.21582 0
M  V30 13235 H 1270.28 -1.96466 3.49574 0
M  V30 13236 H 1266.87 -0.729426 4.22347 0
M  V30 13237 H 1271.06 -0.084469 4.96228 0
M  V30 13238 H 1266.31 0.804582 6.06083 0
M  V30 13239 H 1270.49 1.44476 6.81249 0
M  V30 13240 H 1268.11 1.89534 7.36193 0
M  V30 13241 N 1269.69 -1.54705 -0.300681 0
M  V30 13242 C 1270.93 -1.74259 -1.03738 0
M  V30 13243 C 1271.27 -0.52703 -1.86912 0
M  V30 13244 O 1270.54 0.475862 -1.88589 0
M  V30 13245 C 1270.82 -3.03175 -1.94311 0
M  V30 13246 C 1270.68 -4.35031 -1.14315 0
M  V30 13247 C 1272 -3.27962 -2.93478 0
M  V30 13248 H 1269.12 -0.634031 -0.37573 0
M  V30 13249 H 1271.76 -1.87421 -0.312012 0
M  V30 13250 H 1269.91 -2.92086 -2.5616 0
M  V30 13251 H 1271.58 -4.5804 -0.547489 0
M  V30 13252 H 1269.82 -4.31503 -0.44587 0
M  V30 13253 H 1270.49 -5.21502 -1.80941 0
M  V30 13254 H 1272.97 -3.38663 -2.41757 0
M  V30 13255 H 1271.85 -4.19481 -3.54016 0
M  V30 13256 H 1272.11 -2.46273 -3.67154 0
M  V30 13257 N 1271.17 0.563888 -1.47167 0
M  V30 13258 C 1272.11 1.69254 -1.59549 0
M  V30 13259 C 1273.11 1.62948 -0.463078 0
M  V30 13260 O 1274.31 1.68214 -0.640639 0
M  V30 13261 H 1270.69 0.559925 -0.501984 0
M  V30 13262 H 1272.66 1.55946 -2.54408 0
M  V30 13263 C 1271.41 3.0762 -1.62066 0
M  V30 13264 H 1270.73 3.13151 -2.48549 0
M  V30 13265 H 1272.17 3.863 -1.74781 0
M  V30 13266 C 1270.63 3.35048 -0.352721 0
M  V30 13267 O 1271.16 3.9793 0.549053 0
M  V30 13268 N 1269.37 2.8965 -0.234805 0
M  V30 13269 H 1268.91 2.38657 -0.969561 0
M  V30 13270 H 1268.87 3.08373 0.61263 0
M  V30 13271 N 1272.64 1.35187 0.810078 0
M  V30 13272 C 1273.87 1.31371 1.59841 0
M  V30 13273 C 1274.29 -0.109547 1.88482 0
M  V30 13274 O 1273.64 -1.06047 1.48527 0
M  V30 13275 C 1273.7 2.11496 2.93175 0
M  V30 13276 O 1273.42 3.48273 2.65777 0
M  V30 13277 C 1274.92 2.15226 3.87547 0
M  V30 13278 H 1272.14 0.451428 0.496441 0
M  V30 13279 H 1274.68 1.7799 1.00697 0
M  V30 13280 H 1272.84 1.68486 3.48843 0
M  V30 13281 H 1273.25 3.89845 3.50886 0
M  V30 13282 H 1274.72 2.75687 4.78226 0
M  V30 13283 H 1275.2 1.15007 4.23875 0
M  V30 13284 H 1275.81 2.58382 3.37815 0
M  V30 13285 N 1274.12 -1.03182 1.19127 0
M  V30 13286 C 1275.35 -1.79904 1.01578 0
M  V30 13287 C 1275.76 -1.84044 -0.438697 0
M  V30 13288 O 1275.1 -1.28117 -1.3165 0
M  V30 13289 C 1275.17 -3.26473 1.50519 0
M  V30 13290 C 1274.83 -3.45975 2.98581 0
M  V30 13291 C 1275.83 -3.36436 3.96367 0
M  V30 13292 C 1273.51 -3.72284 3.37209 0
M  V30 13293 C 1275.51 -3.52925 5.30775 0
M  V30 13294 C 1273.19 -3.8842 4.71777 0
M  V30 13295 C 1274.19 -3.78742 5.68369 0
M  V30 13296 O 1273.88 -3.94405 7.005 0
M  V30 13297 H 1273.61 -0.573103 0.35851 0
M  V30 13298 H 1276.16 -1.30871 1.5831 0
M  V30 13299 H 1274.39 -3.76517 0.881593 0
M  V30 13300 H 1276.08 -3.84781 1.29223 0
M  V30 13301 H 1276.85 -3.16064 3.6787 0
M  V30 13302 H 1272.73 -3.78911 2.62579 0
M  V30 13303 H 1276.27 -3.45288 6.06153 0
M  V30 13304 H 1272.17 -4.08288 4.99971 0
M  V30 13305 H 1272.94 -4.11514 7.0753 0
M  V30 13306 N 1275.6 -0.99472 -1.22242 0
M  V30 13307 C 1276.55 -0.53946 -2.26258 0
M  V30 13308 C 1277.54 0.410796 -1.64344 0
M  V30 13309 O 1278.75 0.283116 -1.7776 0
M  V30 13310 H 1275.12 -0.156069 -0.735627 0
M  V30 13311 H 1277.09 -1.42814 -2.62005 0
M  V30 13312 C 1275.84 0.12842 -3.47463 0
M  V30 13313 H 1275.17 -0.593727 -3.95367 0
M  V30 13314 H 1276.61 0.410393 -4.22009 0
M  V30 13315 C 1275.07 1.36433 -3.08038 0
M  V30 13316 O 1275.6 2.45953 -3.176 0
M  V30 13317 N 1273.8 1.24026 -2.62804 0
M  V30 13318 H 1273.35 0.349111 -2.55223 0
M  V30 13319 H 1273.31 2.06824 -2.36794 0
M  V30 13320 N 1277.08 1.37613 -0.768148 0
M  V30 13321 C 1278.03 2.30311 -0.150176 0
M  V30 13322 C 1279 1.50918 0.69376 0
M  V30 13323 O 1280.18 1.795 0.64687 0
M  V30 13324 C 1277.32 3.37382 0.72576 0
M  V30 13325 C 1276.43 4.31791 -0.13439 0
M  V30 13326 C 1275.57 5.25937 0.745915 0
M  V30 13327 C 1274.61 6.11988 -0.116988 0
M  V30 13328 N 1273.74 6.98387 0.721091 0
M  V30 13329 H 1278.58 2.82579 -0.946212 0
M  V30 13330 H 1276.12 1.3911 -0.478217 0
M  V30 13331 H 1278.08 3.98084 1.24839 0
M  V30 13332 H 1276.71 2.86488 1.48743 0
M  V30 13333 H 1275.76 3.72426 -0.774793 0
M  V30 13334 H 1277.07 4.9234 -0.800163 0
M  V30 13335 H 1276.23 5.91826 1.33516 0
M  V30 13336 H 1274.97 4.6579 1.44538 0
M  V30 13337 H 1273.97 5.45081 -0.7188 0
M  V30 13338 H 1275.2 6.74207 -0.813732 0
M  V30 13339 H 1273.14 6.40772 1.40524 0
M  V30 13340 H 1273.06 7.55916 0.112536 0
M  V30 13341 H 1274.33 7.6867 1.29485 0
M  V30 13342 N 1278.56 0.518393 1.4883 0
M  V30 13343 C 1279.78 -0.0162 2.06894 0
M  V30 13344 C 1280.2 -1.29222 1.37649 0
M  V30 13345 O 1279.56 -1.766 0.460288 0
M  V30 13346 C 1279.61 -0.255836 3.60594 0
M  V30 13347 O 1279.33 0.969612 4.27235 0
M  V30 13348 C 1280.83 -0.832117 4.3542 0
M  V30 13349 H 1278.05 0.0282877 0.670403 0
M  V30 13350 H 1280.59 0.720726 1.91379 0
M  V30 13351 H 1278.75 -0.942782 3.75753 0
M  V30 13352 H 1279.16 0.743172 5.19208 0
M  V30 13353 H 1280.64 -0.949279 5.43776 0
M  V30 13354 H 1281.11 -1.83421 3.99066 0
M  V30 13355 H 1281.72 -0.1821 4.2491 0
M  V30 13356 N 1280.03 -1.55556 0.252993 0
M  V30 13357 C 1281.31 -1.91022 -0.420696 0
M  V30 13358 C 1281.69 -1.17452 -1.75409 0
M  V30 13359 O 1281.04 -0.294 -2.26601 0
M  V30 13360 C 1281.25 -3.441 -0.582787 0
M  V30 13361 C 1282.6 -4.15468 -0.875873 0
M  V30 13362 O 1283.62 -3.49872 -0.668425 0
M  V30 13363 O 1282.48 -5.31508 -1.27128 0
M  V30 13364 H 1279.57 -0.7953 -0.226776 0
M  V30 13365 H 1282.12 -1.67072 0.297511 0
M  V30 13366 H 1280.89 -3.89673 0.356474 0
M  V30 13367 H 1280.52 -3.73933 -1.3513 0
M  V30 13368 N 1281.51 0.0200419 -1.57587 0
M  V30 13369 C 1282.76 0.710078 -1.89962 0
M  V30 13370 C 1283.09 1.74521 -0.851829 0
M  V30 13371 O 1282.37 1.94052 0.132005 0
M  V30 13372 C 1282.65 1.37145 -3.32961 0
M  V30 13373 C 1282.5 0.349221 -4.48442 0
M  V30 13374 C 1283.82 2.30304 -3.75031 0
M  V30 13375 H 1280.94 0.25667 -0.690862 0
M  V30 13376 H 1283.58 -0.0271362 -1.89981 0
M  V30 13377 H 1281.73 1.99981 -3.33076 0
M  V30 13378 H 1283.4 -0.277916 -4.60462 0
M  V30 13379 H 1281.65 -0.330594 -4.32538 0
M  V30 13380 H 1282.32 0.850636 -5.45406 0
M  V30 13381 H 1284.79 1.77503 -3.7634 0
M  V30 13382 H 1283.67 2.73555 -4.75877 0
M  V30 13383 H 1283.93 3.17364 -3.07786 0
M  V30 13384 N 1282.99 1.54862 0.292472 0
M  V30 13385 C 1283.95 1.8565 1.34413 0
M  V30 13386 C 1284.95 0.729868 1.43281 0
M  V30 13387 O 1286.14 0.998128 1.42769 0
M  V30 13388 C 1283.28 2.0444 2.72795 0
M  V30 13389 H 1284.47 2.79642 1.08354 0
M  V30 13390 H 1282.02 1.47055 0.529574 0
M  V30 13391 H 1282.76 1.12765 3.04063 0
M  V30 13392 H 1282.54 2.86451 2.67747 0
M  V30 13393 H 1284.03 2.296 3.48817 0
M  V30 13394 N 1284.47 -0.556076 1.47464 0
M  V30 13395 C 1285.43 -1.64515 1.59586 0
M  V30 13396 C 1286.43 -1.53751 0.470881 0
M  V30 13397 O 1287.62 -1.57889 0.735979 0
M  V30 13398 C 1284.75 -3.0406 1.54143 0
M  V30 13399 H 1285.95 -1.55116 2.56669 0
M  V30 13400 H 1283.5 -0.776087 1.35671 0
M  V30 13401 H 1284.23 -3.18991 0.584395 0
M  V30 13402 H 1284.02 -3.13282 2.3579 0
M  V30 13403 H 1285.51 -3.8329 1.65766 0
M  V30 13404 N 1285.95 -1.35615 -0.802897 0
M  V30 13405 C 1287.36 -1.26062 -1.37715 0
M  V30 13406 C 1287.71 0.105411 -1.95917 0
M  V30 13407 O 1286.83 1.00648 -1.91569 0
M  V30 13408 C 1287.43 -2.28261 -2.50365 0
M  V30 13409 C 1285.99 -2.22437 -3.03642 0
M  V30 13410 C 1285.14 -2.1377 -1.76629 0
M  V30 13411 H 1288.09 -1.46689 -0.605631 0
M  V30 13412 H 1288.11 -1.91122 -3.29017 0
M  V30 13413 H 1287.62 -3.27671 -2.07975 0
M  V30 13414 H 1285.72 -1.2645 -3.50487 0
M  V30 13415 H 1285.83 -3.14558 -3.61373 0
M  V30 13416 H 1284.2 -1.59806 -1.98328 0
M  V30 13417 H 1284.98 -3.15046 -1.36385 0
M  V30 13418 N 1287.43 1.02549 -1.19673 0
M  V30 13419 C 1288.67 1.76004 -1.00144 0
M  V30 13420 C 1289 1.888 0.467423 0
M  V30 13421 O 1288.26 1.404 1.36331 0
M  V30 13422 C 1288.55 3.18597 -1.61959 0
M  V30 13423 C 1288.22 3.258 -3.11713 0
M  V30 13424 C 1286.88 3.27473 -3.52583 0
M  V30 13425 C 1289.23 3.24675 -4.0772 0
M  V30 13426 C 1286.56 3.25681 -4.88005 0
M  V30 13427 C 1288.91 3.24424 -5.43076 0
M  V30 13428 C 1287.58 3.24396 -5.83372 0
M  V30 13429 H 1286.85 0.644044 -0.366453 0
M  V30 13430 H 1289.5 1.20338 -1.48966 0
M  V30 13431 H 1287.8 3.77364 -1.05375 0
M  V30 13432 H 1289.5 3.74109 -1.44374 0
M  V30 13433 H 1286.09 3.25228 -2.7915 0
M  V30 13434 H 1290.27 3.2256 -3.77185 0
M  V30 13435 H 1285.53 3.23986 -5.18501 0
M  V30 13436 H 1289.7 3.22504 -6.17223 0
M  V30 13437 H 1287.33 3.22762 -6.8828 0
M  V30 13438 N 1288.9 1.00119 1.21713 0
M  V30 13439 C 1290.15 0.680377 1.90303 0
M  V30 13440 C 1290.47 -0.790927 1.7824 0
M  V30 13441 O 1289.74 -1.5676 1.17486 0
M  V30 13442 H 1288.32 0.248665 0.704397 0
M  V30 13443 H 1290.98 1.26948 1.47886 0
M  V30 13444 H 1290.08 0.950188 2.97284 0
M  V30 13445 N 1290.38 -1.37203 0.775435 0
M  V30 13446 C 1291.63 -1.99207 0.340756 0
M  V30 13447 C 1291.95 -1.61861 -1.08747 0
M  V30 13448 O 1291.22 -0.88583 -1.74728 0
M  V30 13449 H 1289.8 -0.736803 0.123004 0
M  V30 13450 H 1292.46 -1.67625 0.994379 0
M  V30 13451 H 1291.56 -3.09243 0.421346 0
M  V30 13452 N 1291.86 -0.526279 -1.48553 0
M  V30 13453 C 1293.11 0.0091665 -2.02498 0
M  V30 13454 C 1293.43 1.34632 -1.40373 0
M  V30 13455 O 1292.69 1.88172 -0.537573 0
M  V30 13456 C 1292.99 0.184075 -3.56926 0
M  V30 13457 C 1292.65 -1.07825 -4.37818 0
M  V30 13458 C 1291.32 -1.42422 -4.59641 0
M  V30 13459 C 1293.67 -1.91616 -4.84699 0
M  V30 13460 C 1291 -2.60713 -5.25591 0
M  V30 13461 C 1293.35 -3.09082 -5.51952 0
M  V30 13462 C 1292.01 -3.44029 -5.72014 0
M  V30 13463 H 1291.28 0.00335426 -0.740992 0
M  V30 13464 H 1293.93 -0.691553 -1.78577 0
M  V30 13465 H 1292.23 0.967532 -3.79666 0
M  V30 13466 H 1293.93 0.613226 -3.96283 0
M  V30 13467 H 1290.52 -0.798812 -4.2109 0
M  V30 13468 H 1294.71 -1.66199 -4.67645 0
M  V30 13469 H 1289.96 -2.87996 -5.39322 0
M  V30 13470 H 1294.14 -3.74317 -5.87247 0
M  V30 13471 H 1291.76 -4.35789 -6.2289 0
M  V30 13472 N 1293.34 1.5542 -0.261239 0
M  V30 13473 C 1294.28 2.21972 0.632216 0
M  V30 13474 C 1295.25 1.18843 1.16041 0
M  V30 13475 O 1296.44 1.47339 1.21226 0
M  V30 13476 C 1293.58 2.93397 1.81693 0
M  V30 13477 C 1292.69 4.11214 1.3239 0
M  V30 13478 C 1291.83 4.70318 2.46931 0
M  V30 13479 C 1290.87 5.80355 1.94561 0
M  V30 13480 N 1290 6.33581 3.02523 0
M  V30 13481 H 1294.84 2.97944 0.058018 0
M  V30 13482 H 1292.38 1.4709 0.0168725 0
M  V30 13483 H 1294.34 3.33015 2.5131 0
M  V30 13484 H 1292.97 2.19874 2.36337 0
M  V30 13485 H 1292.02 3.76811 0.521292 0
M  V30 13486 H 1293.33 4.90609 0.900214 0
M  V30 13487 H 1292.49 5.12584 3.24565 0
M  V30 13488 H 1291.23 3.90169 2.92608 0
M  V30 13489 H 1290.23 5.37552 1.15402 0
M  V30 13490 H 1291.46 6.62364 1.49836 0
M  V30 13491 H 1289.4 5.56332 3.47608 0
M  V30 13492 H 1289.32 7.08209 2.64529 0
M  V30 13493 H 1290.59 6.80506 3.80174 0
M  V30 13494 N 1294.82 -0.0116844 1.57596 0
M  V30 13495 C 1295.75 -1.03477 2.04512 0
M  V30 13496 C 1296.76 -1.31414 0.960945 0
M  V30 13497 O 1297.95 -1.28596 1.23796 0
M  V30 13498 C 1295.05 -2.37234 2.42019 0
M  V30 13499 C 1294.22 -2.28405 3.73028 0
M  V30 13500 C 1293.28 -3.44753 3.97532 0
M  V30 13501 O 1292.31 -3.23465 4.68358 0
M  V30 13502 N 1293.51 -4.67212 3.44518 0
M  V30 13503 H 1296.27 -0.634758 2.92901 0
M  V30 13504 H 1293.84 -0.1993 1.60669 0
M  V30 13505 H 1295.83 -3.13821 2.55535 0
M  V30 13506 H 1294.4 -2.69018 1.5921 0
M  V30 13507 H 1293.62 -1.36804 3.697 0
M  V30 13508 H 1294.91 -2.19666 4.58938 0
M  V30 13509 H 1294.3 -4.87407 2.87142 0
M  V30 13510 H 1292.86 -5.41105 3.63384 0
M  V30 13511 N 1296.29 -1.55015 -0.284256 0
M  V30 13512 C 1297.52 -1.79431 -1.04016 0
M  V30 13513 C 1297.94 -0.560254 -1.79563 0
M  V30 13514 O 1297.3 0.489804 -1.74558 0
M  V30 13515 C 1297.35 -3.01162 -1.98328 0
M  V30 13516 O 1296.45 -2.75459 -3.06914 0
M  V30 13517 H 1295.79 -0.593391 -0.297965 0
M  V30 13518 H 1298.32 -2.02136 -0.316585 0
M  V30 13519 H 1298.33 -3.29589 -2.40489 0
M  V30 13520 H 1297.01 -3.90634 -1.42751 0
M  V30 13521 H 1295.59 -2.58096 -2.69148 0
M  V30 13522 N 1297.77 0.548248 -1.47757 0
M  V30 13523 C 1299.02 1.30243 -1.54535 0
M  V30 13524 C 1299.34 1.93832 -0.213089 0
M  V30 13525 O 1298.61 1.80397 0.763782 0
M  V30 13526 H 1297.19 0.483684 -0.569262 0
M  V30 13527 H 1299.85 0.639485 -1.8411 0
M  V30 13528 H 1298.95 2.09128 -2.31672 0
M  V30 13529 N 1299.25 1.36039 0.795694 0
M  V30 13530 C 1300.5 1.29919 1.5533 0
M  V30 13531 C 1300.82 -0.123325 1.94109 0
M  V30 13532 O 1300.08 -1.09115 1.62457 0
M  V30 13533 C 1300.38 2.16166 2.84617 0
M  V30 13534 C 1300.04 3.64805 2.65006 0
M  V30 13535 C 1298.71 4.05319 2.59365 0
M  V30 13536 C 1301.06 4.59073 2.46781 0
M  V30 13537 C 1298.39 5.38251 2.33458 0
M  V30 13538 C 1300.74 5.92216 2.22402 0
M  V30 13539 C 1299.4 6.31862 2.1519 0
M  V30 13540 H 1298.67 0.475408 0.568391 0
M  V30 13541 H 1301.32 1.68035 0.918512 0
M  V30 13542 H 1299.62 1.70967 3.5253 0
M  V30 13543 H 1301.32 2.0876 3.42375 0
M  V30 13544 H 1297.91 3.32662 2.70248 0
M  V30 13545 H 1302.1 4.28651 2.50144 0
M  V30 13546 H 1297.35 5.67957 2.26352 0
M  V30 13547 H 1301.53 6.64833 2.07293 0
M  V30 13548 H 1299.15 7.34797 1.94878 0
M  V30 13549 N 1300.73 -1.01913 1.20215 0
M  V30 13550 C 1301.98 -1.75124 1.00876 0
M  V30 13551 C 1302.3 -1.89485 -0.460475 0
M  V30 13552 O 1301.57 -1.43552 -1.33302 0
M  V30 13553 H 1300.15 -0.648777 0.370266 0
M  V30 13554 H 1302.81 -1.22883 1.5128 0
M  V30 13555 H 1301.91 -2.7558 1.46499 0
M  V30 13556 N 1302.21 -1.00763 -1.2118 0
M  V30 13557 C 1303.15 -0.570257 -2.23644 0
M  V30 13558 C 1304.12 0.405039 -1.61086 0
M  V30 13559 O 1305.31 0.306496 -1.88322 0
M  V30 13560 C 1302.45 0.094325 -3.44971 0
M  V30 13561 C 1301.56 -0.924463 -4.21993 0
M  V30 13562 C 1300.7 -0.231869 -5.30694 0
M  V30 13563 C 1299.74 -1.23803 -5.99449 0
M  V30 13564 N 1298.87 -0.572725 -6.9976 0
M  V30 13565 H 1303.71 -1.44869 -2.60417 0
M  V30 13566 H 1301.25 -0.725369 -1.27972 0
M  V30 13567 H 1303.21 0.496689 -4.14233 0
M  V30 13568 H 1301.84 0.936457 -3.08918 0
M  V30 13569 H 1300.89 -1.44505 -3.51884 0
M  V30 13570 H 1302.2 -1.69004 -4.69296 0
M  V30 13571 H 1301.36 0.226465 -6.06277 0
M  V30 13572 H 1300.09 0.566092 -4.84403 0
M  V30 13573 H 1299.1 -1.70684 -5.22635 0
M  V30 13574 H 1300.32 -2.03711 -6.47826 0
M  V30 13575 H 1298.27 0.205531 -6.55678 0
M  V30 13576 H 1298.19 -1.27651 -7.45145 0
M  V30 13577 H 1299.46 -0.137683 -7.79378 0
M  V30 13578 N 1303.68 1.3679 -0.7827 0
M  V30 13579 C 1304.96 1.93639 -0.276278 0
M  V30 13580 C 1305.34 1.7153 1.23048 0
M  V30 13581 O 1304.69 1.07037 2.01879 0
M  V30 13582 C 1304.9 3.42672 -0.661586 0
M  V30 13583 C 1306.25 4.19786 -0.637538 0
M  V30 13584 O 1307.27 3.51082 -0.601645 0
M  V30 13585 O 1306.13 5.42323 -0.674408 0
M  V30 13586 H 1303.22 0.824307 -0.0666832 0
M  V30 13587 H 1305.77 1.46012 -0.864792 0
M  V30 13588 H 1304.54 3.52393 -1.70103 0
M  V30 13589 H 1304.17 3.97573 -0.0465987 0
M  V30 13590 N 1305.16 0.53415 1.48272 0
M  V30 13591 C 1306.09 -0.215037 2.32508 0
M  V30 13592 C 1307.07 -0.931083 1.42355 0
M  V30 13593 O 1308.26 -0.916051 1.71237 0
M  V30 13594 C 1305.39 -1.25985 3.23643 0
M  V30 13595 C 1304.34 -0.661692 4.22854 0
M  V30 13596 C 1303.67 -1.80946 5.03153 0
M  V30 13597 C 1304.97 0.369358 5.20992 0
M  V30 13598 H 1306.66 0.488158 2.95394 0
M  V30 13599 H 1304.21 0.236206 1.4205 0
M  V30 13600 H 1306.16 -1.79195 3.81402 0
M  V30 13601 H 1304.89 -1.99268 2.58766 0
M  V30 13602 H 1303.54 -0.151082 3.66289 0
M  V30 13603 H 1303.19 -2.53077 4.34696 0
M  V30 13604 H 1302.89 -1.41513 5.70305 0
M  V30 13605 H 1304.42 -2.34526 5.63764 0
M  V30 13606 H 1305.83 -0.0758076 5.7325 0
M  V30 13607 H 1304.23 0.681301 5.9622 0
M  V30 13608 H 1305.3 1.27363 4.67875 0
M  V30 13609 N 1306.64 -1.55279 0.269478 0
M  V30 13610 C 1307.89 -1.99077 -0.348224 0
M  V30 13611 C 1308.21 -1.15925 -1.568 0
M  V30 13612 O 1307.48 -0.247404 -1.94331 0
M  V30 13613 H 1306.06 -0.735307 -0.131653 0
M  V30 13614 H 1308.72 -1.91288 0.373506 0
M  V30 13615 H 1307.82 -3.05427 -0.641953 0
M  V30 13616 N 1308.12 0.00332656 -1.576 0
M  V30 13617 C 1309.03 1.01221 -2.1164 0
M  V30 13618 C 1310.04 1.37918 -1.06088 0
M  V30 13619 O 1311.22 1.46717 -1.37971 0
M  V30 13620 C 1308.29 2.28638 -2.60626 0
M  V30 13621 C 1307.35 1.98284 -3.80765 0
M  V30 13622 C 1306.58 3.19626 -4.27405 0
M  V30 13623 O 1306.8 4.31196 -3.73398 0
M  V30 13624 O 1305.74 3.03819 -5.19594 0
M  V30 13625 H 1309.56 0.582839 -2.98055 0
M  V30 13626 H 1307.15 0.221947 -1.47742 0
M  V30 13627 H 1309.03 3.03498 -2.92347 0
M  V30 13628 H 1307.7 2.70819 -1.7731 0
M  V30 13629 H 1306.61 1.2091 -3.54022 0
M  V30 13630 H 1307.94 1.60942 -4.65144 0
M  V30 13631 N 1309.6 1.55164 0.276031 0
M  V30 13632 C 1310.56 1.87065 1.32436 0
M  V30 13633 C 1311.56 0.745024 1.42499 0
M  V30 13634 O 1312.75 1.01321 1.41702 0
M  V30 13635 C 1309.88 2.07322 2.70611 0
M  V30 13636 H 1311.07 2.80775 1.05382 0
M  V30 13637 H 1308.63 1.47609 0.513947 0
M  V30 13638 H 1309.36 1.15983 3.0285 0
M  V30 13639 H 1309.15 2.89275 2.64693 0
M  V30 13640 H 1310.64 2.33287 3.46362 0
M  V30 13641 N 1311.07 -0.540404 1.48045 0
M  V30 13642 C 1312.04 -1.62813 1.61322 0
M  V30 13643 C 1313.04 -1.53243 0.487161 0
M  V30 13644 O 1314.23 -1.571 0.752684 0
M  V30 13645 C 1311.36 -3.02408 1.5736 0
M  V30 13646 H 1312.55 -1.52385 2.583 0
M  V30 13647 H 1310.11 -0.761654 1.36486 0
M  V30 13648 H 1310.84 -3.18353 0.618195 0
M  V30 13649 H 1310.63 -3.10763 2.39099 0
M  V30 13650 H 1312.12 -3.8151 1.69822 0
M  V30 13651 N 1312.55 -1.36459 -0.788468 0
M  V30 13652 C 1313.48 -1.33545 -1.91541 0
M  V30 13653 C 1314.46 -0.206762 -1.68839 0
M  V30 13654 O 1315.65 -0.404553 -1.89939 0
M  V30 13655 C 1312.78 -1.12492 -3.28577 0
M  V30 13656 C 1311.73 -2.22196 -3.65805 0
M  V30 13657 C 1311.06 -1.86285 -5.01201 0
M  V30 13658 C 1312.36 -3.64286 -3.7429 0
M  V30 13659 H 1314.05 -2.27844 -1.94236 0
M  V30 13660 H 1311.6 -1.09677 -0.933105 0
M  V30 13661 H 1313.55 -1.09089 -4.07035 0
M  V30 13662 H 1312.28 -0.146446 -3.26272 0
M  V30 13663 H 1310.93 -2.24727 -2.89644 0
M  V30 13664 H 1310.58 -0.87009 -4.95417 0
M  V30 13665 H 1310.28 -2.59734 -5.27079 0
M  V30 13666 H 1311.81 -1.84439 -5.82078 0
M  V30 13667 H 1313.22 -3.63977 -4.42937 0
M  V30 13668 H 1311.62 -4.36648 -4.11653 0
M  V30 13669 H 1312.69 -3.99123 -2.75371 0
M  V30 13670 N 1314.03 1.01274 -1.20754 0
M  V30 13671 C 1314.98 2.12012 -0.95675 0
M  V30 13672 C 1315.97 1.69143 0.0932738 0
M  V30 13673 O 1317.18 1.79908 -0.0574298 0
M  V30 13674 H 1313.55 0.692956 -0.292088 0
M  V30 13675 H 1315.52 2.30347 -1.89692 0
M  V30 13676 C 1314.27 3.43643 -0.529602 0
M  V30 13677 H 1313.6 3.77058 -1.32918 0
M  V30 13678 H 1315.04 4.22171 -0.393376 0
M  V30 13679 C 1313.5 3.2825 0.758505 0
M  V30 13680 O 1314.03 3.58309 1.81598 0
M  V30 13681 N 1312.23 2.81487 0.722022 0
M  V30 13682 H 1311.78 2.57226 -0.138807 0
M  V30 13683 H 1311.74 2.7157 1.58421 0
M  V30 13684 N 1315.51 1.01404 1.20644 0
M  V30 13685 C 1316.42 0.591693 2.27016 0
M  V30 13686 C 1317.44 -0.36958 1.7003 0
M  V30 13687 O 1318.61 -0.231165 2.00069 0
M  V30 13688 C 1315.68 -0.0659827 3.46637 0
M  V30 13689 C 1314.74 0.940911 4.18862 0
M  V30 13690 C 1313.97 0.314526 5.32772 0
M  V30 13691 O 1314.19 -0.886404 5.63471 0
M  V30 13692 O 1313.13 1.02998 5.93022 0
M  V30 13693 H 1316.95 1.4772 2.65353 0
M  V30 13694 H 1314.54 0.783399 1.27213 0
M  V30 13695 H 1316.42 -0.433412 4.19165 0
M  V30 13696 H 1315.1 -0.925729 3.10181 0
M  V30 13697 H 1314 1.35966 3.48517 0
M  V30 13698 H 1315.34 1.77054 4.59252 0
M  V30 13699 N 1316.99 -1.36373 0.789944 0
M  V30 13700 C 1318.22 -2.03187 0.373987 0
M  V30 13701 C 1318.63 -1.59697 -1.01457 0
M  V30 13702 O 1317.97 -0.782151 -1.66217 0
M  V30 13703 C 1318.03 -3.57703 0.358985 0
M  V30 13704 C 1317.69 -4.24396 1.69521 0
M  V30 13705 C 1318.69 -4.47247 2.65077 0
M  V30 13706 C 1316.38 -4.61858 1.97465 0
M  V30 13707 C 1318.37 -5.06642 3.86772 0
M  V30 13708 C 1316.06 -5.2097 3.19426 0
M  V30 13709 C 1317.06 -5.43302 4.13899 0
M  V30 13710 O 1316.74 -6.01173 5.3371 0
M  V30 13711 H 1316.48 -0.658654 0.152153 0
M  V30 13712 H 1319.03 -1.7532 1.07014 0
M  V30 13713 H 1317.26 -3.84691 -0.39366 0
M  V30 13714 H 1318.95 -4.05887 -0.0323762 0
M  V30 13715 H 1319.71 -4.18701 2.44775 0
M  V30 13716 H 1315.59 -4.438 1.2475 0
M  V30 13717 H 1319.14 -5.23989 4.60523 0
M  V30 13718 H 1315.03 -5.48943 3.39606 0
M  V30 13719 H 1315.8 -6.19638 5.34781 0
M  V30 13720 N 1318.47 -0.542005 -1.47987 0
M  V30 13721 C 1319.4 0.202703 -2.32618 0
M  V30 13722 C 1320.38 0.923521 -1.42846 0
M  V30 13723 O 1321.56 0.906957 -1.7172 0
M  V30 13724 C 1318.69 1.24267 -3.24307 0
M  V30 13725 C 1317.65 0.639257 -4.23199 0
M  V30 13726 C 1316.97 1.78275 -5.04105 0
M  V30 13727 C 1318.27 -0.396982 -5.20789 0
M  V30 13728 H 1319.97 -0.503817 -2.95131 0
M  V30 13729 H 1317.51 -0.243736 -1.41922 0
M  V30 13730 H 1319.46 1.7717 -3.82347 0
M  V30 13731 H 1318.19 1.97893 -2.59819 0
M  V30 13732 H 1316.85 0.131655 -3.66364 0
M  V30 13733 H 1316.5 2.50768 -4.36032 0
M  V30 13734 H 1316.2 1.38487 -5.71047 0
M  V30 13735 H 1317.72 2.31533 -5.65 0
M  V30 13736 H 1319.13 0.0454057 -5.73282 0
M  V30 13737 H 1317.53 -0.712911 -5.9585 0
M  V30 13738 H 1318.6 -1.29843 -4.67193 0
M  V30 13739 N 1319.94 1.55134 -0.277709 0
M  V30 13740 C 1321.36 1.59417 0.0763615 0
M  V30 13741 C 1321.56 1.29491 1.54384 0
M  V30 13742 O 1320.62 1.05703 2.2931 0
M  V30 13743 C 1321.93 2.99194 -0.300607 0
M  V30 13744 C 1323.48 3.1202 -0.247438 0
M  V30 13745 C 1323.95 4.54068 -0.598884 0
M  V30 13746 N 1325.44 4.59917 -0.550534 0
M  V30 13747 C 1326.18 5.67859 -0.795235 0
M  V30 13748 N 1325.67 6.83936 -1.10469 0
M  V30 13749 N 1327.47 5.5742 -0.723859 0
M  V30 13750 H 1319.62 1.72851 -1.23435 0
M  V30 13751 H 1321.88 0.806137 -0.498846 0
M  V30 13752 H 1321.59 3.25937 -1.32129 0
M  V30 13753 H 1321.46 3.75504 0.35729 0
M  V30 13754 H 1323.85 2.8504 0.763959 0
M  V30 13755 H 1323.93 2.37917 -0.939629 0
M  V30 13756 H 1323.57 4.81774 -1.60798 0
M  V30 13757 H 1323.5 5.26474 0.115126 0
M  V30 13758 H 1325.99 3.76531 -0.321341 0
M  V30 13759 H 1326.31 7.62159 -1.278 0
M  V30 13760 H 1324.65 6.85545 -1.14249 0
M  V30 13761 H 1327.84 4.65613 -0.481925 0
M  V30 13762 H 1328.02 6.41465 -0.917944 0
M  V30 13763 N 1321.42 0.00503138 1.57599 0
M  V30 13764 C 1322.67 -0.679766 1.91068 0
M  V30 13765 C 1323 -1.73144 0.879486 0
M  V30 13766 O 1322.28 -1.94237 -0.101116 0
M  V30 13767 C 1322.56 -1.3183 3.35101 0
M  V30 13768 C 1322.41 -0.277833 4.48941 0
M  V30 13769 C 1323.73 -2.24308 3.78647 0
M  V30 13770 H 1320.85 -0.245646 0.694857 0
M  V30 13771 H 1323.49 0.057357 1.89913 0
M  V30 13772 H 1321.64 -1.94657 3.36216 0
M  V30 13773 H 1323.31 0.351136 4.59962 0
M  V30 13774 H 1321.56 0.399365 4.31958 0
M  V30 13775 H 1322.23 -0.763759 5.46691 0
M  V30 13776 H 1324.7 -1.71494 3.79116 0
M  V30 13777 H 1323.58 -2.6595 4.80169 0
M  V30 13778 H 1323.84 -3.12427 3.12797 0
M  V30 13779 N 1322.9 -1.55308 -0.267798 0
M  V30 13780 C 1323.85 -1.88544 -1.33115 0
M  V30 13781 C 1324.82 -0.737465 -1.48831 0
M  V30 13782 O 1326 -0.989215 -1.63154 0
M  V30 13783 C 1323.14 -2.1674 -2.68547 0
M  V30 13784 C 1322.25 -3.44234 -2.61011 0
M  V30 13785 C 1321.39 -3.62104 -3.88657 0
M  V30 13786 C 1320.43 -4.83272 -3.75652 0
M  V30 13787 N 1319.57 -4.97772 -4.95144 0
M  V30 13788 H 1324.41 -2.79237 -1.04071 0
M  V30 13789 H 1321.94 -1.38245 -0.502677 0
M  V30 13790 H 1323.9 -2.31088 -3.47353 0
M  V30 13791 H 1322.53 -1.29276 -2.95783 0
M  V30 13792 H 1321.58 -3.3833 -1.73887 0
M  V30 13793 H 1322.89 -4.33177 -2.47303 0
M  V30 13794 H 1322.05 -3.76298 -4.75904 0
M  V30 13795 H 1320.79 -2.71356 -4.05238 0
M  V30 13796 H 1319.79 -4.69076 -2.86788 0
M  V30 13797 H 1321.02 -5.75461 -3.60585 0
M  V30 13798 H 1318.96 -4.09956 -5.12125 0
M  V30 13799 H 1318.88 -5.80769 -4.83987 0
M  V30 13800 H 1320.15 -5.16357 -5.83949 0
M  V30 13801 N 1324.38 0.532545 -1.4833 0
M  V30 13802 C 1325.61 1.31331 -1.59874 0
M  V30 13803 C 1326.02 1.87028 -0.258037 0
M  V30 13804 O 1325.38 1.66272 0.752317 0
M  V30 13805 C 1325.43 2.46596 -2.64334 0
M  V30 13806 O 1325.15 1.93195 -3.93201 0
M  V30 13807 C 1326.65 3.38454 -2.86294 0
M  V30 13808 H 1323.87 0.399476 -0.539129 0
M  V30 13809 H 1326.41 0.642696 -1.94138 0
M  V30 13810 H 1324.57 3.09548 -2.32936 0
M  V30 13811 H 1324.98 2.68627 -4.50489 0
M  V30 13812 H 1326.46 4.15687 -3.63192 0
M  V30 13813 H 1326.93 3.93526 -1.95022 0
M  V30 13814 H 1327.54 2.81297 -3.18986 0
M  V30 13815 N 1325.86 1.36875 0.78122 0
M  V30 13816 C 1327.1 1.31754 1.54171 0
M  V30 13817 C 1327.43 -0.100632 1.93939 0
M  V30 13818 O 1326.71 -1.05587 1.63345 0
M  V30 13819 C 1326.99 2.24789 2.81322 0
M  V30 13820 C 1326.85 3.75342 2.47868 0
M  V30 13821 C 1328.16 2.16442 3.83198 0
M  V30 13822 H 1325.28 0.479931 0.559317 0
M  V30 13823 H 1327.93 1.67497 0.896935 0
M  V30 13824 H 1326.08 1.94438 3.36342 0
M  V30 13825 H 1327.75 4.16247 1.98836 0
M  V30 13826 H 1325.99 3.94375 1.80696 0
M  V30 13827 H 1326.66 4.3586 3.38719 0
M  V30 13828 H 1329.14 2.43175 3.37647 0
M  V30 13829 H 1328.01 2.83695 4.69903 0
M  V30 13830 H 1328.27 1.15431 4.26765 0
M  V30 13831 N 1327.33 -1.00632 1.21289 0
M  V30 13832 C 1328.56 -1.77967 1.05524 0
M  V30 13833 C 1328.98 -1.84621 -0.395023 0
M  V30 13834 O 1328.33 -1.30664 -1.27409 0
M  V30 13835 C 1328.38 -3.21939 1.64432 0
M  V30 13836 O 1328.11 -3.15669 3.03784 0
M  V30 13837 C 1329.61 -4.1578 1.5376 0
M  V30 13838 H 1326.83 -0.559341 0.370646 0
M  V30 13839 H 1329.37 -1.26604 1.60598 0
M  V30 13840 H 1327.53 -3.70415 1.13453 0
M  V30 13841 H 1327.94 -4.06112 3.31924 0
M  V30 13842 H 1329.41 -5.14602 1.99722 0
M  V30 13843 H 1329.89 -4.36438 0.491811 0
M  V30 13844 H 1330.5 -3.73192 2.0398 0
M  V30 13845 N 1328.81 -1.02043 -1.20104 0
M  V30 13846 C 1330.06 -0.711973 -1.89571 0
M  V30 13847 C 1330.39 0.758725 -1.79091 0
M  V30 13848 O 1329.64 1.56728 -1.17195 0
M  V30 13849 C 1329.94 -1.098 -3.40116 0
M  V30 13850 C 1329.61 -2.56555 -3.70797 0
M  V30 13851 C 1328.27 -2.96653 -3.78881 0
M  V30 13852 C 1330.62 -3.51543 -3.84795 0
M  V30 13853 C 1327.95 -4.30669 -3.98424 0
M  V30 13854 C 1330.3 -4.85252 -4.05849 0
M  V30 13855 C 1328.96 -5.2505 -4.12163 0
M  V30 13856 H 1328.23 -0.260529 -0.69369 0
M  V30 13857 H 1330.88 -1.28172 -1.42282 0
M  V30 13858 H 1329.19 -0.446738 -3.89245 0
M  V30 13859 H 1330.88 -0.836985 -3.92168 0
M  V30 13860 H 1327.47 -2.24488 -3.65107 0
M  V30 13861 H 1331.66 -3.21721 -3.77901 0
M  V30 13862 H 1326.91 -4.61052 -4.01548 0
M  V30 13863 H 1331.09 -5.58777 -4.15622 0
M  V30 13864 H 1328.71 -6.28908 -4.27059 0
M  V30 13865 N 1330.29 1.35952 -0.797165 0
M  V30 13866 C 1331.2 2.33726 -0.202271 0
M  V30 13867 C 1332.22 1.61415 0.649719 0
M  V30 13868 O 1333.39 1.93351 0.563686 0
M  V30 13869 C 1330.46 3.40612 0.64685 0
M  V30 13870 C 1329.52 4.28712 -0.224536 0
M  V30 13871 C 1328.75 5.30493 0.584153 0
M  V30 13872 O 1328.97 5.40599 1.81957 0
M  V30 13873 O 1327.91 6.01897 -0.0200239 0
M  V30 13874 H 1331.73 2.86383 -1.01087 0
M  V30 13875 H 1329.32 1.38557 -0.558768 0
M  V30 13876 H 1331.2 4.05944 1.1308 0
M  V30 13877 H 1329.88 2.90243 1.43321 0
M  V30 13878 H 1328.78 3.66394 -0.755415 0
M  V30 13879 H 1330.12 4.82454 -0.974603 0
M  V30 13880 N 1331.77 0.549846 1.47697 0
M  V30 13881 C 1333 0.0276487 2.06581 0
M  V30 13882 C 1333.41 -1.26821 1.40403 0
M  V30 13883 O 1332.75 -1.76987 0.492073 0
M  V30 13884 C 1332.81 -0.246484 3.58654 0
M  V30 13885 C 1332.48 0.958843 4.46828 0
M  V30 13886 C 1333.47 1.86249 4.85394 0
M  V30 13887 C 1331.16 1.17144 4.88449 0
M  V30 13888 C 1333.15 2.96249 5.64372 0
M  V30 13889 C 1330.84 2.27454 5.67193 0
M  V30 13890 C 1331.84 3.16838 6.05064 0
M  V30 13891 O 1331.52 4.25237 6.82224 0
M  V30 13892 H 1331.26 0.0394446 0.674848 0
M  V30 13893 H 1333.81 0.760694 1.90795 0
M  V30 13894 H 1332.04 -1.03375 3.72627 0
M  V30 13895 H 1333.73 -0.713167 3.99586 0
M  V30 13896 H 1334.5 1.71027 4.53844 0
M  V30 13897 H 1330.37 0.484917 4.58443 0
M  V30 13898 H 1333.92 3.66043 5.9385 0
M  V30 13899 H 1329.82 2.42653 5.98155 0
M  V30 13900 H 1330.58 4.23193 7.00607 0
M  V30 13901 O 1333.29 -1.55727 0.427937 0
M  V30 13902 H 1333.98 -1.93398 -0.108068 0
M  V30 END ATOM
M  V30 BEGIN BOND
M  V30 END BOND
M  V30 END CTAB
M  END
$$$$
