drugbank_drug|DB11626  Tasonermin homotrimer subunit, 157 amino acid sequence
 OpenBabel12092119123D

  0  0  0     0  0            999 V3000
M  V30 BEGIN CTAB
M  V30 COUNTS 2453 2480 0 0 0
M  V30 BEGIN ATOM
M  V30 1 H -0.908 1.98254 -0.117106 0
M  V30 2 N 0 1.576 0 0
M  V30 3 C 1.246 1.9085 0.685863 0
M  V30 4 C 1.579 0.873954 1.73423 0
M  V30 5 O 0.854 -0.107317 1.94204 0
M  V30 6 C 1.137 3.34679 1.32899 0
M  V30 7 C 0.99 4.4885 0.292164 0
M  V30 8 C 2.309 3.77929 2.25516 0
M  V30 9 H -0.572 0.69407 0.247863 0
M  V30 10 H 2.07 1.89931 -0.0512938 0
M  V30 11 H 0.22 3.35593 1.95729 0
M  V30 12 H 1.892 4.60071 -0.33645 0
M  V30 13 H 0.135 4.32083 -0.385573 0
M  V30 14 H 0.806 5.46444 0.781208 0
M  V30 15 H 3.282 3.78567 1.72703 0
M  V30 16 H 2.158 4.79317 2.67481 0
M  V30 17 H 2.419 3.11797 3.13424 0
M  V30 18 N 1.4781 -0.272755 1.55222 0
M  V30 19 C 2.8941 -0.619959 1.47067 0
M  V30 20 C 3.0941 -1.895 0.684978 0
M  V30 21 O 2.1501 -2.51675 0.203931 0
M  V30 22 C 3.4631 -0.746693 2.91282 0
M  V30 23 C 5.0111 -0.840731 3.01497 0
M  V30 24 C 5.4861 -0.99924 4.46967 0
M  V30 25 N 6.9771 -1.06476 4.50796 0
M  V30 26 C 7.7121 -1.20621 5.6057 0
M  V30 27 N 7.2081 -1.31483 6.80209 0
M  V30 28 N 9.0011 -1.23733 5.48312 0
M  V30 29 H 1.1521 0.564606 2.04758 0
M  V30 30 H 3.4151 0.191177 0.928523 0
M  V30 31 H 3.1211 0.119753 3.51496 0
M  V30 32 H 2.9951 -1.6269 3.40311 0
M  V30 33 H 5.3821 -1.69764 2.41379 0
M  V30 34 H 5.4631 0.0640874 2.5572 0
M  V30 35 H 5.1071 -0.146984 5.07687 0
M  V30 36 H 5.0371 -1.91871 4.90401 0
M  V30 37 H 7.5281 -0.993196 3.64615 0
M  V30 38 H 7.8411 -1.42111 7.59621 0
M  V30 39 H 6.1861 -1.28487 6.8302 0
M  V30 40 H 9.3771 -1.14877 4.53785 0
M  V30 41 H 9.5501 -1.34412 6.33906 0
M  V30 42 N 2.9562 -1.48159 -0.537278 0
M  V30 43 C 4.1812 -1.59707 -1.32319 0
M  V30 44 C 4.6062 -0.254859 -1.86365 0
M  V30 45 O 3.9642 0.772378 -1.64024 0
M  V30 46 C 4.0122 -2.6412 -2.45505 0
M  V30 47 O 3.1162 -2.20774 -3.48328 0
M  V30 48 H 2.4572 -0.535791 -0.392204 0
M  V30 49 H 4.9872 -1.94092 -0.647268 0
M  V30 50 H 4.9972 -2.85166 -2.91795 0
M  V30 51 H 3.6722 -3.61567 -2.05528 0
M  V30 52 H 2.2492 -2.09911 -3.08207 0
M  V30 53 N 4.4343 0.785586 -1.36625 0
M  V30 54 C 5.6593 1.57963 -1.34397 0
M  V30 55 C 6.0843 1.87964 0.071526 0
M  V30 56 O 5.4423 1.48182 1.0446 0
M  V30 57 C 5.4903 2.87511 -2.17646 0
M  V30 58 O 4.5943 3.81281 -1.57158 0
M  V30 59 H 3.9353 0.479014 -0.459828 0
M  V30 60 H 6.4653 0.973411 -1.79961 0
M  V30 61 H 6.4753 3.36745 -2.30362 0
M  V30 62 H 5.1503 2.65002 -3.20541 0
M  V30 63 H 3.7273 3.39885 -1.53403 0
M  V30 64 N 5.9124 1.20967 1.01018 0
M  V30 65 C 7.1374 1.0503 1.78839 0
M  V30 66 C 7.5624 -0.395752 1.8389 0
M  V30 67 O 6.9204 -1.28529 1.27867 0
M  V30 68 C 6.9684 1.64602 3.2084 0
M  V30 69 O 6.0724 0.887988 4.02726 0
M  V30 70 H 5.4134 0.369987 0.551367 0
M  V30 71 H 7.9434 1.60399 1.27018 0
M  V30 72 H 7.9534 1.68607 3.71532 0
M  V30 73 H 6.6284 2.69841 3.16479 0
M  V30 74 H 5.2054 0.922648 3.61305 0
M  V30 75 N 7.3905 -1.2043 1.01659 0
M  V30 76 C 8.8065 -1.41852 0.731442 0
M  V30 77 C 9.0065 -1.89358 -0.688898 0
M  V30 78 O 8.0625 -2.06247 -1.45666 0
M  V30 79 C 9.3755 -2.44019 1.75714 0
M  V30 80 C 10.9235 -2.57785 1.77527 0
M  V30 81 C 11.3985 -3.63194 2.79023 0
M  V30 82 N 12.8895 -3.70678 2.77763 0
M  V30 83 C 13.6245 -4.51897 3.52954 0
M  V30 84 N 13.1205 -5.36921 4.37821 0
M  V30 85 N 14.9135 -4.4643 3.41551 0
M  V30 86 H 7.0645 -0.879093 1.93354 0
M  V30 87 H 9.3275 -0.448425 0.835236 0
M  V30 88 H 9.0335 -2.1611 2.77469 0
M  V30 89 H 8.9075 -3.43007 1.56927 0
M  V30 90 H 11.2945 -2.85023 0.764569 0
M  V30 91 H 11.3755 -1.58992 2.00387 0
M  V30 92 H 11.0195 -3.36699 3.80258 0
M  V30 93 H 10.9495 -4.61609 2.53425 0
M  V30 94 H 13.4405 -3.09944 2.16201 0
M  V30 95 H 13.7535 -5.95981 4.91962 0
M  V30 96 H 12.0985 -5.36424 4.41899 0
M  V30 97 H 15.2895 -3.79042 2.74672 0
M  V30 98 H 15.4625 -5.09491 4.00404 0
M  V30 99 N 8.8686 -0.792821 -1.36206 0
M  V30 100 C 10.0966 -0.378825 -2.03402 0
M  V30 101 C 10.5116 1.00586 -1.59774 0
M  V30 102 O 9.8686 1.64574 -0.788764 0
M  V30 103 C 9.9196 -0.43683 -3.58851 0
M  V30 104 O 9.6406 -1.76691 -4.00889 0
M  V30 105 C 11.1416 -0.0138943 -4.43298 0
M  V30 106 H 8.3616 -0.155673 -0.652692 0
M  V30 107 H 10.9056 -1.07261 -1.74113 0
M  V30 108 H 9.0606 0.208575 -3.86838 0
M  V30 109 H 9.4746 -1.72011 -4.95492 0
M  V30 110 H 10.9486 -0.105615 -5.51899 0
M  V30 111 H 11.4256 1.03915 -4.2673 0
M  V30 112 H 12.0316 -0.63192 -4.20579 0
M  V30 113 N 10.3467 1.47872 -0.545128 0
M  V30 114 C 11.7577 1.86384 -0.108581 0
M  V30 115 C 12.1087 1.45309 1.31832 0
M  V30 116 O 11.2337 0.850641 1.9898 0
M  V30 117 C 11.8287 3.38265 -0.190274 0
M  V30 118 C 10.3877 3.75914 0.191164 0
M  V30 119 C 9.5347 2.71926 -0.543273 0
M  V30 120 H 12.4857 1.39561 -0.755537 0
M  V30 121 H 12.5067 3.75831 0.594217 0
M  V30 122 H 12.0187 3.6813 -1.2289 0
M  V30 123 H 10.1197 3.51665 1.23136 0
M  V30 124 H 10.2327 4.78836 -0.158987 0
M  V30 125 H 8.5967 2.54697 0.0122495 0
M  V30 126 H 9.3797 3.04634 -1.58282 0
M  V30 127 N 11.8248 0.280983 1.55075 0
M  V30 128 C 13.0498 -0.340154 2.04592 0
M  V30 129 C 13.4748 -1.48246 1.15779 0
M  V30 130 O 12.8328 -1.80614 0.15761 0
M  V30 131 C 12.8808 -0.793104 3.5177 0
M  V30 132 O 11.9848 -1.89981 3.66034 0
M  V30 133 H 11.3258 -0.0694289 0.66036 0
M  V30 134 H 13.8558 0.416993 2.00306 0
M  V30 135 H 13.8658 -1.08729 3.93245 0
M  V30 136 H 12.5408 0.0426163 4.15878 0
M  V30 137 H 11.1178 -1.60771 3.36463 0
M  V30 138 N 13.3029 -1.57598 0.00835791 0
M  V30 139 C 14.5799 -1.82172 -0.712235 0
M  V30 140 C 14.9599 -0.887873 -1.9152 0
M  V30 141 O 14.3079 0.06146 -2.28417 0
M  V30 142 C 14.5179 -3.30875 -1.11008 0
M  V30 143 C 15.8659 -3.96826 -1.51044 0
M  V30 144 O 16.8899 -3.35248 -1.20364 0
M  V30 145 O 15.7489 -5.05318 -2.08125 0
M  V30 146 H 12.8429 -0.750435 -0.347529 0
M  V30 147 H 15.3889 -1.69665 0.0344523 0
M  V30 148 H 14.1609 -3.90481 -0.252982 0
M  V30 149 H 13.7839 -3.48412 -1.9156 0
M  V30 150 N 14.781 0.264519 -1.55364 0
M  V30 151 C 15.728 1.32717 -1.88825 0
M  V30 152 C 16.698 1.48675 -0.740605 0
M  V30 153 O 17.883 1.62945 -0.992657 0
M  V30 154 C 15.023 2.68089 -2.17307 0
M  V30 155 C 14.136 2.60284 -3.44785 0
M  V30 156 C 13.271 3.87892 -3.62924 0
M  V30 157 C 12.31 3.74631 -4.84064 0
M  V30 158 N 11.447 4.94092 -4.98816 0
M  V30 159 H 16.287 1.03481 -2.79456 0
M  V30 160 H 13.824 0.499757 -1.3835 0
M  V30 161 H 15.782 3.46864 -2.31821 0
M  V30 162 H 14.412 2.95509 -1.299 0
M  V30 163 H 13.464 1.73173 -3.38697 0
M  V30 164 H 14.776 2.46388 -4.33698 0
M  V30 165 H 13.93 4.75109 -3.77302 0
M  V30 166 H 12.669 4.04664 -2.7221 0
M  V30 167 H 11.674 2.85797 -4.69681 0
M  V30 168 H 12.899 3.5937 -5.76221 0
M  V30 169 H 10.845 5.11259 -4.11036 0
M  V30 170 H 10.762 4.8276 -5.81789 0
M  V30 171 H 12.03 5.82857 -5.17588 0
M  V30 172 N 16.2591 1.48442 0.529413 0
M  V30 173 C 17.6701 1.5002 1.11134 0
M  V30 174 C 18.0211 0.27031 1.94329 0
M  V30 175 O 17.1461 -0.622507 2.07253 0
M  V30 176 C 17.7411 2.71834 2.02217 0
M  V30 177 C 16.3001 2.76283 2.55627 0
M  V30 178 C 15.4471 2.43542 1.326 0
M  V30 179 H 18.3981 1.5555 0.314641 0
M  V30 180 H 18.4191 2.50384 2.8651 0
M  V30 181 H 17.9311 3.61331 1.41639 0
M  V30 182 H 16.0321 1.90995 3.19924 0
M  V30 183 H 16.1451 3.77725 2.94721 0
M  V30 184 H 14.5091 1.94709 1.64196 0
M  V30 185 H 15.2921 3.3528 0.737734 0
M  V30 186 N 17.7372 -0.778329 1.37039 0
M  V30 187 C 18.9832 -1.53892 1.32079 0
M  V30 188 C 19.3162 -1.9396 -0.0965386 0
M  V30 189 O 18.5912 -1.63568 -1.05242 0
M  V30 190 C 18.8742 -2.80847 2.25382 0
M  V30 191 C 18.7272 -2.47076 3.75864 0
M  V30 192 C 20.0462 -3.82741 2.1725 0
M  V30 193 H 17.1652 -0.558303 0.48111 0
M  V30 194 H 19.8072 -0.893397 1.67685 0
M  V30 195 H 17.9572 -3.35931 1.95148 0
M  V30 196 H 19.6292 -1.97957 4.16666 0
M  V30 197 H 17.8722 -1.79863 3.94755 0
M  V30 198 H 18.5432 -3.37798 4.36574 0
M  V30 199 H 21.0192 -3.37133 2.43887 0
M  V30 200 H 19.8952 -4.69303 2.84686 0
M  V30 201 H 20.1562 -4.2652 1.16331 0
M  V30 202 N 19.2153 -1.21501 -1.00376 0
M  V30 203 C 20.1783 -0.976927 -2.07337 0
M  V30 204 C 21.1783 0.0525322 -1.60714 0
M  V30 205 O 22.3683 -0.184869 -1.73216 0
M  V30 206 C 19.5003 -0.473423 -3.37597 0
M  V30 207 H 20.6933 -1.92587 -2.29892 0
M  V30 208 H 18.2463 -1.03217 -1.17371 0
M  V30 209 H 18.9813 0.480379 -3.20722 0
M  V30 210 H 18.7663 -1.216 -3.72768 0
M  V30 211 H 20.2563 -0.32675 -4.1632 0
M  V30 212 N 20.6934 1.19889 -1.02296 0
M  V30 213 C 21.6434 2.20777 -0.56934 0
M  V30 214 C 22.6274 1.56379 0.378741 0
M  V30 215 O 23.8194 1.75859 0.200673 0
M  V30 216 C 20.9484 3.43196 0.0845077 0
M  V30 217 C 20.0344 4.14749 -0.88566 0
M  V30 218 N 20.4254 4.62584 -2.04573 0
M  V30 219 C 18.7234 4.40347 -0.707835 0
M  V30 220 C 19.4244 5.17466 -2.65714 0
M  V30 221 N 18.4004 5.0791 -1.93723 0
M  V30 222 H 22.2024 2.55434 -1.45365 0
M  V30 223 H 19.7164 1.35897 -0.88915 0
M  V30 224 H 21.7134 4.14707 0.427067 0
M  V30 225 H 20.3734 3.10042 0.964574 0
M  V30 226 H 21.3844 4.57597 -2.4254 0
M  V30 227 H 18.0614 4.17317 0.12364 0
M  V30 228 H 19.4514 5.64808 -3.63925 0
M  V30 229 N 22.1715 0.800033 1.35784 0
M  V30 230 C 23.4175 0.377901 1.99248 0
M  V30 231 C 23.7505 -1.05052 1.63333 0
M  V30 232 O 23.0255 -1.72768 0.893385 0
M  V30 233 C 23.3085 0.553922 3.55814 0
M  V30 234 C 23.1615 2.0268 4.01548 0
M  V30 235 C 24.4805 -0.0244802 4.40093 0
M  V30 236 H 21.5995 0.138782 0.723815 0
M  V30 237 H 24.2415 1.00835 1.61035 0
M  V30 238 H 22.3915 0.0172398 3.88496 0
M  V30 239 H 24.0635 2.62536 3.79305 0
M  V30 240 H 22.3065 2.5256 3.52698 0
M  V30 241 H 22.9775 2.10087 5.10458 0
M  V30 242 H 25.4535 0.433775 4.13833 0
M  V30 243 H 24.3295 0.128637 5.48749 0
M  V30 244 H 24.5905 -1.11758 4.27741 0
M  V30 245 N 23.6496 -1.47581 0.552962 0
M  V30 246 C 24.8956 -2.02782 0.0273648 0
M  V30 247 C 25.2286 -1.42687 -1.31734 0
M  V30 248 O 24.5036 -0.580897 -1.85623 0
M  V30 249 C 24.7866 -3.60031 -0.0702371 0
M  V30 250 C 24.6396 -4.30566 1.30126 0
M  V30 251 C 25.9586 -4.33028 -0.785771 0
M  V30 252 H 23.0776 -0.736912 0.0114185 0
M  V30 253 H 25.7196 -1.76056 0.714432 0
M  V30 254 H 23.8696 -3.82932 -0.655382 0
M  V30 255 H 25.5416 -4.19018 1.92929 0
M  V30 256 H 23.7846 -3.91086 1.87709 0
M  V30 257 H 24.4556 -5.39114 1.18573 0
M  V30 258 H 26.9316 -4.15095 -0.288982 0
M  V30 259 H 25.8076 -5.42695 -0.823013 0
M  V30 260 H 26.0686 -4.01945 -1.841 0
M  V30 261 N 25.1277 -0.289203 -1.54924 0
M  V30 262 C 26.0907 0.579144 -2.21762 0
M  V30 263 C 27.0907 1.07047 -1.1999 0
M  V30 264 O 28.2807 0.968384 -1.44803 0
M  V30 265 C 25.4127 1.80055 -2.8947 0
M  V30 266 H 26.6057 -0.00464908 -2.999 0
M  V30 267 H 24.1587 -0.0399306 -1.56249 0
M  V30 268 H 24.8937 2.42449 -2.15381 0
M  V30 269 H 24.6787 1.45602 -3.64064 0
M  V30 270 H 26.1687 2.41773 -3.40493 0
M  V30 271 N 26.6058 1.57591 -0.0167156 0
M  V30 272 C 27.5538 2.10604 0.987353 0
M  V30 273 C 28.5478 1.02977 1.34507 0
M  V30 274 O 29.7538 1.21425 1.32875 0
M  V30 275 H 26.1288 0.672695 0.336134 0
M  V30 276 H 28.0998 2.93925 0.514817 0
M  V30 277 C 26.8488 2.6382 2.26483 0
M  V30 278 H 26.1718 3.46278 1.99829 0
M  V30 279 H 27.6118 3.04573 2.94977 0
M  V30 280 C 26.0708 1.55992 2.9861 0
M  V30 281 O 26.6008 0.952521 3.90243 0
M  V30 282 N 24.8068 1.28335 2.60727 0
M  V30 283 H 24.3538 1.77914 1.86291 0
M  V30 284 H 24.3118 0.564115 3.09298 0
M  V30 285 N 28.0839 -0.256276 1.55502 0
M  V30 286 C 29.4949 -0.826068 1.67431 0
M  V30 287 C 29.8459 -1.86396 0.612446 0
M  V30 288 O 28.9709 -2.15031 -0.243025 0
M  V30 289 C 29.5659 -1.50512 3.03532 0
M  V30 290 C 28.1249 -2.02273 3.17431 0
M  V30 291 C 27.2719 -0.870548 2.63281 0
M  V30 292 H 30.2229 -0.0322728 1.58667 0
M  V30 293 H 30.2439 -2.37279 2.97454 0
M  V30 294 H 29.7559 -0.749484 3.80794 0
M  V30 295 H 27.8569 -2.80746 2.44974 0
M  V30 296 H 27.9699 -2.22655 4.24219 0
M  V30 297 H 26.3339 -1.26851 2.20864 0
M  V30 298 H 27.1169 -0.128149 3.43061 0
M  V30 299 N 29.562 -1.4872 -0.521534 0
M  V30 300 C 30.494 -1.59968 -1.64143 0
M  V30 301 C 31.507 -0.483463 -1.55456 0
M  V30 302 O 32.696 -0.75467 -1.61762 0
M  V30 303 C 29.796 -1.52127 -3.02838 0
M  V30 304 C 28.969 -2.78932 -3.36921 0
M  V30 305 C 28.028 -2.64428 -4.54933 0
M  V30 306 O 27.054 -3.38331 -4.57735 0
M  V30 307 N 28.256 -1.74606 -5.53618 0
M  V30 308 H 31.021 -2.56548 -1.54929 0
M  V30 309 H 28.582 -1.45551 -0.708988 0
M  V30 310 H 30.574 -1.40106 -3.79674 0
M  V30 311 H 29.144 -0.634868 -3.06085 0
M  V30 312 H 28.364 -3.05455 -2.4918 0
M  V30 313 H 29.652 -3.63041 -3.56481 0
M  V30 314 H 29.05 -1.13782 -5.54139 0
M  V30 315 H 27.607 -1.6852 -6.29638 0
M  V30 316 N 31.0401 0.771051 -1.3745 0
M  V30 317 C 32.0031 1.86598 -1.33093 0
M  V30 318 C 33.0031 1.59076 -0.234845 0
M  V30 319 O 34.1931 1.67145 -0.490732 0
M  V30 320 C 31.3251 3.23747 -1.06773 0
M  V30 321 H 32.5181 1.91873 -2.30488 0
M  V30 322 H 30.0711 0.970876 -1.2249 0
M  V30 323 H 30.8061 3.24148 -0.099129 0
M  V30 324 H 30.5911 3.45115 -1.86112 0
M  V30 325 H 32.0811 4.03824 -1.06377 0
M  V30 326 N 32.5182 1.22032 0.997298 0
M  V30 327 C 33.4282 1.00271 2.12092 0
M  V30 328 C 34.4442 -0.047621 1.73935 0
M  V30 329 O 35.6202 0.144136 2.00884 0
M  V30 330 C 32.6852 0.578449 3.4184 0
M  V30 331 C 31.7462 1.70189 3.94125 0
M  V30 332 C 30.9792 1.29778 5.17681 0
M  V30 333 O 31.2022 0.174676 5.70132 0
M  V30 334 O 30.1362 2.11261 5.63607 0
M  V30 335 H 33.9622 1.94398 2.3333 0
M  V30 336 H 31.5472 1.00587 1.10465 0
M  V30 337 H 33.4292 0.351998 4.19927 0
M  V30 338 H 32.1042 -0.334019 3.21972 0
M  V30 339 H 31.0112 1.98282 3.1723 0
M  V30 340 H 32.3442 2.59206 4.18417 0
M  V30 341 N 33.9963 -1.19345 1.0293 0
M  V30 342 C 35.2443 -1.88665 0.724574 0
M  V30 343 C 35.5653 -1.80036 -0.749144 0
M  V30 344 O 34.8353 -1.2111 -1.53978 0
M  V30 345 H 33.4153 -0.698406 0.265025 0
M  V30 346 H 36.0773 -1.44885 1.30362 0
M  V30 347 H 35.1733 -2.94987 1.01926 0
M  V30 348 N 35.4744 -0.807222 -1.35358 0
M  V30 349 C 36.4064 -0.175717 -2.28525 0
M  V30 350 C 37.4194 0.625354 -1.5031 0
M  V30 351 O 38.6084 0.457611 -1.72535 0
M  V30 352 C 35.7084 0.773471 -3.29956 0
M  V30 353 C 34.8814 0.0186296 -4.37396 0
M  V30 354 C 33.9404 0.886395 -5.18681 0
M  V30 355 O 32.9664 0.337106 -5.68201 0
M  V30 356 N 34.1684 2.20839 -5.36852 0
M  V30 357 H 36.9334 -0.976091 -2.83359 0
M  V30 358 H 34.4944 -0.662737 -1.47714 0
M  V30 359 H 36.4864 1.35824 -3.81227 0
M  V30 360 H 35.0564 1.47465 -2.75632 0
M  V30 361 H 34.2764 -0.747349 -3.87051 0
M  V30 362 H 35.5644 -0.501577 -5.06322 0
M  V30 363 H 34.9624 2.67858 -4.98265 0
M  V30 364 H 33.5194 2.74237 -5.91301 0
M  V30 365 N 36.9525 1.47285 -0.560781 0
M  V30 366 C 37.8825 2.32857 0.173105 0
M  V30 367 C 38.8635 1.44009 0.905281 0
M  V30 368 O 40.0485 1.7286 0.885046 0
M  V30 369 C 37.1785 3.25861 1.20133 0
M  V30 370 C 36.1325 4.23978 0.585388 0
M  V30 371 C 35.4585 5.06332 1.7185 0
M  V30 372 C 36.7585 5.20242 -0.463178 0
M  V30 373 H 38.4525 2.94466 -0.541307 0
M  V30 374 H 35.9985 1.41601 -0.261764 0
M  V30 375 H 37.9515 3.84569 1.72293 0
M  V30 376 H 36.6755 2.62315 1.94573 0
M  V30 377 H 35.3345 3.66501 0.085054 0
M  V30 378 H 34.9825 4.39186 2.45203 0
M  V30 379 H 34.6825 5.72762 1.31213 0
M  V30 380 H 36.2065 5.67899 2.24329 0
M  V30 381 H 37.6205 5.73293 -0.027502 0
M  V30 382 H 36.0175 5.94896 -0.788627 0
M  V30 383 H 37.0875 4.65504 -1.35773 0
M  V30 384 N 38.4306 0.297415 1.54768 0
M  V30 385 C 39.3626 -0.613881 2.20826 0
M  V30 386 C 40.3756 -1.10032 1.19987 0
M  V30 387 O 41.5646 -1.01839 1.46598 0
M  V30 388 C 38.6646 -1.852 2.83821 0
M  V30 389 C 37.8376 -1.50865 4.10559 0
M  V30 390 C 36.8966 -2.60154 4.57391 0
M  V30 391 O 35.9226 -2.25398 5.2267 0
M  V30 392 N 37.1246 -3.90629 4.29406 0
M  V30 393 H 39.8896 -0.048389 2.99661 0
M  V30 394 H 37.4506 0.11946 1.61459 0
M  V30 395 H 39.4426 -2.57652 3.12086 0
M  V30 396 H 38.0126 -2.32597 2.08847 0
M  V30 397 H 37.2326 -0.616925 3.89343 0
M  V30 398 H 38.5206 -1.25458 4.9309 0
M  V30 399 H 37.9186 -4.21677 3.77101 0
M  V30 400 H 36.4756 -4.59391 4.62388 0
M  V30 401 N 39.9087 -1.5758 0.0250728 0
M  V30 402 C 41.1547 -1.92746 -0.649648 0
M  V30 403 C 41.5097 -0.901588 -1.69968 0
M  V30 404 O 40.8027 0.0829251 -1.9142 0
M  V30 405 C 40.9967 -3.32421 -1.31268 0
M  V30 406 C 40.8257 -4.48499 -0.328394 0
M  V30 407 C 39.5957 -5.05251 0.070284 0
M  V30 408 C 41.7937 -5.12618 0.415665 0
M  V30 409 N 39.7757 -6.04851 1.05016 0
M  V30 410 C 41.1467 -6.0728 1.24943 0
M  V30 411 C 43.2017 -4.95612 0.476803 0
M  V30 412 C 41.9047 -6.86766 2.1388 0
M  V30 413 C 43.9307 -5.75703 1.3535 0
M  V30 414 C 43.2927 -6.69978 2.17504 0
M  V30 415 H 39.3917 -0.753231 -0.210159 0
M  V30 416 H 41.9757 -1.94486 0.0912999 0
M  V30 417 H 40.1467 -3.31508 -2.02379 0
M  V30 418 H 41.8787 -3.54946 -1.94411 0
M  V30 419 H 38.6337 -4.72628 -0.303323 0
M  V30 420 H 39.0577 -6.5934 1.53622 0
M  V30 421 H 43.6997 -4.22554 -0.144105 0
M  V30 422 H 41.4177 -7.59132 2.77027 0
M  V30 423 H 45.0037 -5.64579 1.40504 0
M  V30 424 H 43.8837 -7.30873 2.84244 0
M  V30 425 N 41.3868 0.248026 -1.55636 0
M  V30 426 C 42.3168 1.31079 -1.93237 0
M  V30 427 C 43.2978 1.50264 -0.797174 0
M  V30 428 O 44.4828 1.62891 -1.05737 0
M  V30 429 C 41.6128 2.66575 -2.22609 0
M  V30 430 C 40.5668 2.62087 -3.3837 0
M  V30 431 C 39.8928 4.01369 -3.53281 0
M  V30 432 C 41.1928 2.19171 -4.7409 0
M  V30 433 H 42.8868 0.998556 -2.82257 0
M  V30 434 H 40.4328 0.47891 -1.35803 0
M  V30 435 H 42.3858 3.41057 -2.47503 0
M  V30 436 H 41.1098 2.99432 -1.30414 0
M  V30 437 H 39.7688 1.90063 -3.13483 0
M  V30 438 H 39.4168 4.31489 -2.58508 0
M  V30 439 H 39.1168 3.99254 -4.31127 0
M  V30 440 H 40.6408 4.77552 -3.80495 0
M  V30 441 H 42.0548 2.83384 -4.98363 0
M  V30 442 H 40.4518 2.2817 -5.5503 0
M  V30 443 H 41.5218 1.14336 -4.71227 0
M  V30 444 N 42.8649 1.48995 0.513639 0
M  V30 445 C 43.8129 1.65199 1.63744 0
M  V30 446 C 44.8069 0.51809 1.61283 0
M  V30 447 O 46.0129 0.697335 1.65943 0
M  V30 448 H 42.3879 0.52069 0.542574 0
M  V30 449 H 44.3589 2.59552 1.47226 0
M  V30 450 C 43.1079 1.72409 3.01945 0
M  V30 451 H 42.4309 2.59029 3.04539 0
M  V30 452 H 43.8709 1.87785 3.80148 0
M  V30 453 C 42.3299 0.46618 3.33659 0
M  V30 454 O 42.8599 -0.413744 3.99564 0
M  V30 455 N 41.0659 0.332931 2.88687 0
M  V30 456 H 40.6129 1.04996 2.35231 0
M  V30 457 H 40.5709 -0.507665 3.10274 0
M  V30 458 N 44.343 -0.763751 1.37857 0
M  V30 459 C 45.759 -1.06542 1.18832 0
M  V30 460 C 45.959 -2.01478 0.0299722 0
M  V30 461 O 45.015 -2.4458 -0.627447 0
M  V30 462 C 46.328 -1.65525 2.51042 0
M  V30 463 C 47.876 -1.77745 2.57635 0
M  V30 464 C 48.351 -2.4014 3.89996 0
M  V30 465 N 49.842 -2.47582 3.91481 0
M  V30 466 C 50.577 -2.96732 4.9065 0
M  V30 467 N 50.073 -3.45993 6.00217 0
M  V30 468 N 51.866 -2.95679 4.78048 0
M  V30 469 H 44.017 -0.133556 2.1198 0
M  V30 470 H 46.28 -0.121879 0.940133 0
M  V30 471 H 45.986 -1.03236 3.36207 0
M  V30 472 H 45.86 -2.64719 2.68707 0
M  V30 473 H 48.247 -2.39164 1.72872 0
M  V30 474 H 48.328 -0.772836 2.43846 0
M  V30 475 H 47.972 -1.79358 4.75177 0
M  V30 476 H 47.902 -3.41223 4.01092 0
M  V30 477 H 50.393 -2.1273 3.12337 0
M  V30 478 H 50.706 -3.81922 6.7183 0
M  V30 479 H 49.051 -3.44077 6.03851 0
M  V30 480 H 52.242 -2.56499 3.91568 0
M  V30 481 H 52.415 -3.33672 5.55488 0
M  V30 482 N 45.8211 -1.22559 -0.990812 0
M  V30 483 C 47.2371 -0.985996 -1.255 0
M  V30 484 C 47.4371 0.319173 -1.98956 0
M  V30 485 O 46.4931 1.04127 -2.3003 0
M  V30 486 C 47.8061 -2.18607 -2.06474 0
M  V30 487 C 49.3541 -2.22985 -2.19651 0
M  V30 488 C 49.8291 -3.4255 -3.04012 0
M  V30 489 N 51.3201 -3.42725 -3.11599 0
M  V30 490 C 52.0551 -4.31892 -3.7717 0
M  V30 491 N 51.5511 -5.31279 -4.44651 0
M  V30 492 N 53.3441 -4.19662 -3.73952 0
M  V30 493 H 45.4951 -2.06469 -0.49841 0
M  V30 494 H 47.7581 -0.904853 -0.282747 0
M  V30 495 H 47.4641 -3.13267 -1.59865 0
M  V30 496 H 47.3381 -2.18838 -3.07229 0
M  V30 497 H 49.7251 -1.28871 -2.65474 0
M  V30 498 H 49.8061 -2.26791 -1.18319 0
M  V30 499 H 49.4501 -4.36965 -2.58889 0
M  V30 500 H 49.3801 -3.35984 -4.0549 0
M  V30 501 H 51.8711 -2.70807 -2.63575 0
M  V30 502 H 52.1841 -5.95593 -4.92431 0
M  V30 503 H 50.5291 -5.3519 -4.43392 0
M  V30 504 H 53.7201 -3.41268 -3.20396 0
M  V30 505 H 53.8931 -4.89358 -4.24774 0
M  V30 506 N 47.2992 1.18797 -1.03562 0
M  V30 507 C 48.2622 2.20464 -0.626769 0
M  V30 508 C 49.2622 1.57721 0.313173 0
M  V30 509 O 50.4522 1.73917 0.0992615 0
M  V30 510 C 47.5842 3.40802 0.0818498 0
M  V30 511 H 48.7772 2.58149 -1.5264 0
M  V30 512 H 46.3302 1.32593 -0.827578 0
M  V30 513 H 47.0652 3.08642 0.995518 0
M  V30 514 H 46.8502 3.8758 -0.593652 0
M  V30 515 H 48.3402 4.16092 0.354584 0
M  V30 516 N 48.7773 0.814389 1.34928 0
M  V30 517 C 49.7253 0.218424 2.31572 0
M  V30 518 C 50.7193 -0.636128 1.57002 0
M  V30 519 O 51.9253 -0.52842 1.72069 0
M  V30 520 H 48.3003 0.0518799 0.750208 0
M  V30 521 H 50.2713 1.04852 2.79372 0
M  V30 522 C 49.0203 -0.61207 3.4227 0
M  V30 523 H 48.3433 0.0361578 3.99784 0
M  V30 524 H 49.7833 -0.995317 4.12152 0
M  V30 525 C 48.2423 -1.78087 2.85984 0
M  V30 526 O 48.7723 -2.8787 2.80168 0
M  V30 527 N 46.9783 -1.59488 2.42924 0
M  V30 528 H 46.5253 -0.701874 2.47854 0
M  V30 529 H 46.4833 -2.37846 2.05613 0
M  V30 530 N 50.2554 -1.46986 0.568584 0
M  V30 531 C 51.2184 -2.28624 -0.162366 0
M  V30 532 C 52.2184 -1.37596 -0.832103 0
M  V30 533 O 53.4084 -1.60115 -0.68622 0
M  V30 534 C 50.5404 -3.17596 -1.23878 0
M  V30 535 H 51.7334 -2.94722 0.554899 0
M  V30 536 H 49.2864 -1.52863 0.325976 0
M  V30 537 H 50.0214 -2.56214 -1.98808 0
M  V30 538 H 49.8064 -3.846 -0.763219 0
M  V30 539 H 51.2964 -3.79078 -1.75185 0
M  V30 540 N 51.7335 -0.305618 -1.54608 0
M  V30 541 C 52.6635 0.561482 -2.26649 0
M  V30 542 C 53.6445 1.13415 -1.26772 0
M  V30 543 O 54.8295 1.16262 -1.55553 0
M  V30 544 C 51.9595 1.73122 -3.01075 0
M  V30 545 C 50.9135 1.2887 -4.08138 0
M  V30 546 C 50.2395 2.54396 -4.70305 0
M  V30 547 C 51.5395 0.416578 -5.20636 0
M  V30 548 H 53.2335 -0.0393902 -2.99374 0
M  V30 549 H 50.7795 -0.020385 -1.43986 0
M  V30 550 H 52.7325 2.34396 -3.50195 0
M  V30 551 H 51.4565 2.3584 -2.25936 0
M  V30 552 H 50.1155 0.698991 -3.59875 0
M  V30 553 H 49.7635 3.15439 -3.918 0
M  V30 554 H 49.4635 2.25486 -5.42614 0
M  V30 555 H 50.9875 3.16464 -5.2219 0
M  V30 556 H 52.4015 0.935116 -5.65622 0
M  V30 557 H 50.7985 0.221046 -5.99693 0
M  V30 558 H 51.8685 -0.557162 -4.81688 0
M  V30 559 N 53.2116 1.57565 -0.0334293 0
M  V30 560 C 54.1416 2.13511 0.945265 0
M  V30 561 C 55.1226 1.05231 1.33643 0
M  V30 562 O 56.3076 1.33084 1.41429 0
M  V30 563 C 53.4376 2.6657 2.22616 0
M  V30 564 C 52.3916 3.79676 1.97561 0
M  V30 565 C 51.7176 4.1918 3.31952 0
M  V30 566 C 53.0176 5.0557 1.31135 0
M  V30 567 H 54.7116 2.95538 0.479325 0
M  V30 568 H 52.2576 1.42166 0.229115 0
M  V30 569 H 54.2106 3.04344 2.91466 0
M  V30 570 H 52.9346 1.8171 2.71384 0
M  V30 571 H 51.5936 3.42347 1.31127 0
M  V30 572 H 51.2416 3.31296 3.78487 0
M  V30 573 H 50.9416 4.95402 3.15992 0
M  V30 574 H 52.4656 4.59541 4.02063 0
M  V30 575 H 53.8796 5.40903 1.89992 0
M  V30 576 H 52.2766 5.86818 1.25559 0
M  V30 577 H 53.3466 4.84062 0.284894 0
M  V30 578 N 54.6897 -0.239769 1.55765 0
M  V30 579 C 55.6527 -1.28038 1.90103 0
M  V30 580 C 56.6527 -1.40723 0.778055 0
M  V30 581 O 57.8427 -1.39301 1.04599 0
M  V30 582 C 54.9747 -2.65702 2.13577 0
M  V30 583 H 56.1677 -0.988048 2.83157 0
M  V30 584 H 53.7207 -0.479382 1.48767 0
M  V30 585 H 54.4557 -3.00063 1.23015 0
M  V30 586 H 54.2407 -2.57875 2.95369 0
M  V30 587 H 55.7307 -3.40828 2.41301 0
M  V30 588 N 56.1678 -1.49265 -0.50573 0
M  V30 589 C 57.1158 -1.66065 -1.62866 0
M  V30 590 C 58.1098 -0.526636 -1.61006 0
M  V30 591 O 59.3158 -0.706126 -1.65571 0
M  V30 592 H 55.6908 -0.52356 -0.539805 0
M  V30 593 H 57.6618 -2.60329 -1.45848 0
M  V30 594 C 56.4108 -1.74008 -3.01026 0
M  V30 595 H 55.7338 -2.6064 -3.03161 0
M  V30 596 H 57.1738 -1.89798 -3.79147 0
M  V30 597 C 55.6328 -0.483868 -3.33407 0
M  V30 598 O 56.1628 0.392548 -3.99777 0
M  V30 599 N 54.3688 -0.348236 -2.88506 0
M  V30 600 H 53.9158 -1.06242 -2.34671 0
M  V30 601 H 53.8738 0.491204 -3.10539 0
M  V30 602 N 57.6459 0.756429 -1.3826 0
M  V30 603 C 58.8939 1.51248 -1.34047 0
M  V30 604 C 59.2149 1.94875 0.0698372 0
M  V30 605 O 58.4849 1.67436 1.01696 0
M  V30 606 H 57.0649 0.561018 -0.493222 0
M  V30 607 H 59.7269 0.899347 -1.7291 0
M  V30 608 H 58.8229 2.40472 -1.98947 0
M  V30 609 N 59.124 1.23083 0.984299 0
M  V30 610 C 60.37 1.06214 1.72761 0
M  V30 611 C 60.703 -0.400584 1.90024 0
M  V30 612 O 59.978 -1.29672 1.44967 0
M  V30 613 C 60.261 1.78375 3.12817 0
M  V30 614 C 60.114 3.32296 3.03149 0
M  V30 615 C 61.433 1.54309 4.12161 0
M  V30 616 H 58.552 0.387251 0.627061 0
M  V30 617 H 61.194 1.51536 1.14616 0
M  V30 618 H 59.344 1.39848 3.62457 0
M  V30 619 H 61.016 3.8032 2.61064 0
M  V30 620 H 59.259 3.6153 2.39747 0
M  V30 621 H 59.93 3.77972 4.02295 0
M  V30 622 H 62.406 1.87791 3.71314 0
M  V30 623 H 61.282 2.07281 5.08258 0
M  V30 624 H 61.543 0.477572 4.39513 0
M  V30 625 N 60.6021 -1.18246 1.0419 0
M  V30 626 C 61.5121 -2.25574 0.644476 0
M  V30 627 C 62.5281 -1.70845 -0.329826 0
M  V30 628 O 63.7041 -2.00554 -0.184443 0
M  V30 629 C 60.7691 -3.46697 0.014877 0
M  V30 630 C 59.8301 -4.16554 1.03834 0
M  V30 631 C 59.0631 -5.31894 0.438692 0
M  V30 632 O 59.2861 -5.65385 -0.754752 0
M  V30 633 O 58.2201 -5.90459 1.168 0
M  V30 634 H 62.0461 -2.61836 1.53869 0
M  V30 635 H 59.6311 -1.25352 0.812854 0
M  V30 636 H 61.5131 -4.20062 -0.335538 0
M  V30 637 H 60.1881 -3.12255 -0.853138 0
M  V30 638 H 59.0951 -3.45251 1.44057 0
M  V30 639 H 60.4281 -4.54998 1.87716 0
M  V30 640 N 62.0802 -0.821533 -1.34494 0
M  V30 641 C 63.0102 -0.257138 -2.3208 0
M  V30 642 C 63.9912 0.625645 -1.58176 0
M  V30 643 O 65.1762 0.552811 -1.86166 0
M  V30 644 C 62.3062 0.582958 -3.42372 0
M  V30 645 C 61.2602 -0.202571 -4.2752 0
M  V30 646 C 60.5862 0.760179 -5.29269 0
M  V30 647 C 61.8862 -1.40998 -5.02908 0
M  V30 648 H 63.5802 -1.07247 -2.79532 0
M  V30 649 H 61.1262 -0.517163 -1.34393 0
M  V30 650 H 63.0792 0.987972 -4.09655 0
M  V30 651 H 61.8032 1.43133 -2.93565 0
M  V30 652 H 60.4622 -0.588936 -3.61838 0
M  V30 653 H 60.1102 1.60447 -4.76724 0
M  V30 654 H 59.8102 0.238809 -5.87115 0
M  V30 655 H 61.3342 1.16308 -5.9942 0
M  V30 656 H 62.7482 -1.07905 -5.63054 0
M  V30 657 H 61.1452 -1.86689 -5.70322 0
M  V30 658 H 62.2152 -2.1889 -4.32684 0
M  V30 659 N 63.5583 1.46682 -0.576371 0
M  V30 660 C 64.9743 1.57822 -0.237562 0
M  V30 661 C 65.1743 1.57237 1.26011 0
M  V30 662 O 64.2303 1.48596 2.04146 0
M  V30 663 C 65.5433 2.87499 -0.881168 0
M  V30 664 C 67.0913 3.01119 -0.85417 0
M  V30 665 C 67.5663 4.33524 -1.4772 0
M  V30 666 N 69.0573 4.40207 -1.44125 0
M  V30 667 C 69.7923 5.4126 -1.89276 0
M  V30 668 N 69.2883 6.49021 -2.42371 0
M  V30 669 N 71.0813 5.32422 -1.80231 0
M  V30 670 H 63.2323 1.45306 -1.54919 0
M  V30 671 H 65.4953 0.692733 -0.647167 0
M  V30 672 H 65.2013 2.9372 -1.93447 0
M  V30 673 H 65.0753 3.75224 -0.385592 0
M  V30 674 H 67.4623 2.94485 0.190491 0
M  V30 675 H 67.5433 2.14887 -1.3877 0
M  V30 676 H 67.1873 4.40916 -2.52103 0
M  V30 677 H 67.1173 5.1852 -0.918947 0
M  V30 678 H 69.6083 3.62931 -1.05307 0
M  V30 679 H 69.9213 7.2233 -2.74698 0
M  V30 680 H 68.2663 6.49858 -2.46393 0
M  V30 681 H 71.4573 4.47137 -1.38514 0
M  V30 682 H 71.6303 6.11034 -2.15735 0
M  V30 683 N 65.0364 0.313813 1.54444 0
M  V30 684 C 66.3134 -0.345447 1.92525 0
M  V30 685 C 66.6934 -1.70667 1.24242 0
M  V30 686 O 66.0414 -2.25273 0.382654 0
M  V30 687 C 66.2514 -0.44737 3.46121 0
M  V30 688 C 67.5994 -0.712238 4.18584 0
M  V30 689 O 68.6234 -0.530678 3.52225 0
M  V30 690 O 67.4824 -1.06183 5.36085 0
M  V30 691 H 64.5764 -0.195407 0.803583 0
M  V30 692 H 67.1224 0.362813 1.65776 0
M  V30 693 H 65.8944 0.509043 3.87975 0
M  V30 694 H 65.5174 -1.20359 3.78945 0
M  V30 695 N 66.5145 -1.57545 0.0417849 0
M  V30 696 C 67.4625 -2.12148 -0.953723 0
M  V30 697 C 68.4565 -1.05104 -1.32852 0
M  V30 698 O 69.6625 -1.23524 -1.30927 0
M  V30 699 H 66.0375 -0.677957 -0.325389 0
M  V30 700 H 68.0085 -2.94707 -0.467991 0
M  V30 701 C 66.7575 -2.6739 -2.22257 0
M  V30 702 H 66.0805 -3.49413 -1.94295 0
M  V30 703 H 67.5205 -3.09227 -2.90094 0
M  V30 704 C 65.9795 -1.60723 -2.96091 0
M  V30 705 O 66.5095 -1.01449 -3.88679 0
M  V30 706 N 64.7155 -1.32466 -2.58652 0
M  V30 707 H 64.2625 -1.80856 -1.83437 0
M  V30 708 H 64.2205 -0.61325 -3.08361 0
M  V30 709 N 67.9926 0.231505 -1.5589 0
M  V30 710 C 68.9246 1.31006 -1.8807 0
M  V30 711 C 69.9376 1.43539 -0.768145 0
M  V30 712 O 71.1266 1.44614 -1.04638 0
M  V30 713 C 68.2266 2.68688 -2.06543 0
M  V30 714 C 67.3996 2.78228 -3.37502 0
M  V30 715 C 66.4586 3.96857 -3.4553 0
M  V30 716 O 65.4846 3.85662 -4.18633 0
M  V30 717 N 66.6866 5.1072 -2.75944 0
M  V30 718 H 69.4516 1.03731 -2.81176 0
M  V30 719 H 67.0126 0.421573 -1.56315 0
M  V30 720 H 69.0046 3.46412 -2.09239 0
M  V30 721 H 67.5746 2.88605 -1.20109 0
M  V30 722 H 66.7946 1.87059 -3.46991 0
M  V30 723 H 68.0826 2.81564 -4.23791 0
M  V30 724 H 67.4806 5.2271 -2.16311 0
M  V30 725 H 66.0376 5.86523 -2.84314 0
M  V30 726 N 69.4707 1.49531 0.497807 0
M  V30 727 C 70.4007 1.6935 1.60757 0
M  V30 728 C 71.3817 0.542218 1.61227 0
M  V30 729 O 72.5667 0.778417 1.77917 0
M  V30 730 C 69.6967 1.76298 2.99226 0
M  V30 731 C 68.6507 2.91248 3.13622 0
M  V30 732 C 67.9767 2.83312 4.53474 0
M  V30 733 C 69.2767 4.3214 2.93346 0
M  V30 734 H 70.9707 2.62263 1.44425 0
M  V30 735 H 68.5167 1.26208 0.693367 0
M  V30 736 H 70.4697 1.88749 3.76765 0
M  V30 737 H 69.1937 0.799871 3.16654 0
M  V30 738 H 67.8527 2.78404 2.38509 0
M  V30 739 H 67.5007 1.84902 4.67782 0
M  V30 740 H 67.2007 3.60465 4.64046 0
M  V30 741 H 68.7247 2.97775 5.33069 0
M  V30 742 H 70.1387 4.45649 3.60652 0
M  V30 743 H 68.5357 5.1054 3.15387 0
M  V30 744 H 69.6057 4.46363 1.89441 0
M  V30 745 N 70.9488 -0.749086 1.3866 0
M  V30 746 C 72.1948 -1.51056 1.35314 0
M  V30 747 C 72.5278 -1.94121 -0.0553751 0
M  V30 748 O 71.8028 -1.65763 -1.01749 0
M  V30 749 C 72.0858 -2.76003 2.31288 0
M  V30 750 C 71.9388 -2.39047 3.8102 0
M  V30 751 C 73.2578 -3.78046 2.2532 0
M  V30 752 H 70.3768 -0.547972 0.492844 0
M  V30 753 H 73.0188 -0.857628 1.69543 0
M  V30 754 H 71.1688 -3.31716 2.02229 0
M  V30 755 H 72.8408 -1.89074 4.20771 0
M  V30 756 H 71.0838 -1.71449 3.98482 0
M  V30 757 H 71.7548 -3.28462 4.4364 0
M  V30 758 H 74.2308 -3.31884 2.50983 0
M  V30 759 H 73.1068 -4.63159 2.94576 0
M  V30 760 H 73.3678 -4.23957 1.25352 0
M  V30 761 N 72.4269 -1.23603 -0.977757 0
M  V30 762 C 73.6729 -1.07129 -1.72195 0
M  V30 763 C 74.0059 0.390501 -1.90233 0
M  V30 764 O 73.2809 1.28902 -1.45653 0
M  V30 765 C 73.5639 -1.80031 -3.11867 0
M  V30 766 C 73.4169 -3.33899 -3.01383 0
M  V30 767 C 74.7359 -1.56492 -4.11337 0
M  V30 768 H 71.8549 -0.390571 -0.624999 0
M  V30 769 H 74.4969 -1.52142 -1.13811 0
M  V30 770 H 72.6469 -1.41768 -3.6171 0
M  V30 771 H 74.3189 -3.81699 -2.59043 0
M  V30 772 H 72.5619 -3.62796 -2.37827 0
M  V30 773 H 73.2329 -3.801 -4.00285 0
M  V30 774 H 75.7089 -1.89757 -3.70313 0
M  V30 775 H 74.5849 -2.09973 -5.07151 0
M  V30 776 H 74.8459 -0.500874 -4.39254 0
M  V30 777 N 73.905 1.17692 -1.04816 0
M  V30 778 C 75.316 1.69501 -0.782698 0
M  V30 779 C 75.667 1.83456 0.695577 0
M  V30 780 O 74.792 1.51942 1.54086 0
M  V30 781 C 75.387 3.07874 -1.41419 0
M  V30 782 C 73.946 3.56864 -1.19686 0
M  V30 783 C 73.093 2.3322 -1.50012 0
M  V30 784 H 76.044 1.02262 -1.2136 0
M  V30 785 H 76.065 3.71528 -0.821428 0
M  V30 786 H 75.577 2.97685 -2.49009 0
M  V30 787 H 73.678 3.72337 -0.140043 0
M  V30 788 H 73.791 4.39851 -1.89916 0
M  V30 789 H 72.155 2.37501 -0.920071 0
M  V30 790 H 72.938 2.25644 -2.58727 0
M  V30 791 N 75.3831 0.828654 1.34056 0
M  V30 792 C 76.6081 0.431637 2.02859 0
M  V30 793 C 77.0331 -0.956339 1.61975 0
M  V30 794 O 76.3911 -1.62338 0.807228 0
M  V30 795 C 76.4391 0.548323 3.56407 0
M  V30 796 O 75.5431 -0.429556 4.10157 0
M  V30 797 H 74.8841 0.176886 0.640006 0
M  V30 798 H 77.4141 1.12066 1.71179 0
M  V30 799 H 77.4241 0.426196 4.05768 0
M  V30 800 H 76.0991 1.5606 3.8551 0
M  V30 801 H 74.6761 -0.265836 3.71951 0
M  V30 802 N 76.8612 -1.46375 0.584142 0
M  V30 803 C 77.7712 -2.34115 -0.150728 0
M  V30 804 C 78.7872 -1.49838 -0.884567 0
M  V30 805 O 79.9632 -1.82704 -0.847429 0
M  V30 806 C 77.0282 -3.2705 -1.15062 0
M  V30 807 C 76.0892 -4.27228 -0.421293 0
M  V30 808 C 75.3222 -5.15722 -1.37355 0
M  V30 809 O 75.5452 -5.07176 -2.61014 0
M  V30 810 O 74.4792 -5.95383 -0.883355 0
M  V30 811 H 78.3052 -2.98309 0.569708 0
M  V30 812 H 75.8902 -1.45373 0.344535 0
M  V30 813 H 77.7722 -3.84381 -1.72712 0
M  V30 814 H 76.4472 -2.65451 -1.8525 0
M  V30 815 H 75.3542 -3.7358 0.197085 0
M  V30 816 H 76.6872 -4.91616 0.239641 0
M  V30 817 N 78.3393 -0.321999 -1.54275 0
M  V30 818 C 79.5873 0.280489 -2.00144 0
M  V30 819 C 79.9083 1.52777 -1.21178 0
M  V30 820 O 79.1783 1.9338 -0.313187 0
M  V30 821 H 77.7583 0.106632 -0.73935 0
M  V30 822 H 80.4203 -0.438184 -1.8991 0
M  V30 823 H 79.5163 0.537972 -3.07428 0
M  V30 824 N 79.8174 1.5752 -0.0501392 0
M  V30 825 C 80.7474 2.14502 0.922566 0
M  V30 826 C 81.7284 1.06642 1.3252 0
M  V30 827 O 82.9134 1.34577 1.4001 0
M  V30 828 C 80.0434 2.68916 2.19776 0
M  V30 829 C 78.9974 3.8175 1.93523 0
M  V30 830 C 78.3234 4.22677 3.27487 0
M  V30 831 C 79.6234 5.06932 1.25765 0
M  V30 832 H 81.3174 2.9603 0.447952 0
M  V30 833 H 78.8634 1.42401 0.214024 0
M  V30 834 H 80.8164 3.07419 2.88222 0
M  V30 835 H 79.5404 1.84578 2.69441 0
M  V30 836 H 78.1994 3.43718 1.27489 0
M  V30 837 H 77.8474 3.35291 3.74952 0
M  V30 838 H 77.5474 4.98725 3.1072 0
M  V30 839 H 79.0714 4.63779 3.97166 0
M  V30 840 H 80.4854 5.42888 1.84244 0
M  V30 841 H 78.8824 5.88116 1.19328 0
M  V30 842 H 79.9524 4.84337 0.233536 0
M  V30 843 N 81.2955 -0.223234 1.56011 0
M  V30 844 C 82.5255 -0.963413 1.82762 0
M  V30 845 C 82.9335 -1.78516 0.626804 0
M  V30 846 O 82.2765 -1.78974 -0.414014 0
M  V30 847 C 82.3385 -1.93126 3.0322 0
M  V30 848 C 82.0025 -1.2942 4.38291 0
M  V30 849 C 82.9995 -0.684916 5.15369 0
M  V30 850 C 80.6845 -1.30647 4.85012 0
M  V30 851 C 82.6785 -0.0963971 6.37327 0
M  V30 852 C 80.3655 -0.71411 6.06913 0
M  V30 853 C 81.3635 -0.110123 6.82911 0
M  V30 854 O 81.0515 0.47303 8.02507 0
M  V30 855 H 80.7835 -0.288011 0.611576 0
M  V30 856 H 83.3375 -0.244103 2.03944 0
M  V30 857 H 81.5675 -2.68952 2.77852 0
M  V30 858 H 83.2565 -2.53685 3.16857 0
M  V30 859 H 84.0225 -0.667774 4.80381 0
M  V30 860 H 79.9015 -1.76598 4.25833 0
M  V30 861 H 83.4455 0.375657 6.96588 0
M  V30 862 H 79.3425 -0.728659 6.41374 0
M  V30 863 H 80.1105 0.367186 8.17676 0
M  V30 864 N 82.7736 -1.49793 -0.48987 0
M  V30 865 C 83.7036 -1.70201 -1.59856 0
M  V30 866 C 84.6846 -0.55076 -1.60937 0
M  V30 867 O 85.8696 -0.787841 -1.77501 0
M  V30 868 C 82.9996 -1.77882 -2.98287 0
M  V30 869 C 81.9536 -2.92907 -3.12073 0
M  V30 870 C 81.2796 -2.85712 -4.51965 0
M  V30 871 C 82.5796 -4.3369 -2.91051 0
M  V30 872 H 84.2736 -2.63025 -1.43032 0
M  V30 873 H 81.8196 -1.26574 -0.686664 0
M  V30 874 H 83.7726 -1.90744 -3.75759 0
M  V30 875 H 82.4966 -0.816653 -3.16225 0
M  V30 876 H 81.1556 -2.79665 -2.37029 0
M  V30 877 H 80.8036 -1.8738 -4.66795 0
M  V30 878 H 80.5036 -3.62921 -4.62128 0
M  V30 879 H 82.0276 -3.00598 -5.31482 0
M  V30 880 H 83.4416 -4.47555 -3.58284 0
M  V30 881 H 81.8386 -5.12205 -3.12675 0
M  V30 882 H 82.9086 -4.47362 -1.87071 0
M  V30 883 N 84.2517 0.741722 -1.39055 0
M  V30 884 C 85.5007 1.49656 -1.35225 0
M  V30 885 C 85.8137 1.95533 0.0512708 0
M  V30 886 O 87.0197 2.7067 0.212138 0
M  V30 887 C 85.4757 2.70389 -2.37525 0
M  V30 888 C 85.0837 2.31489 -3.83558 0
M  V30 889 C 86.8277 3.48236 -2.42759 0
M  V30 890 C 84.7347 3.48903 -4.77515 0
M  V30 891 H 83.6647 0.56197 -0.502699 0
M  V30 892 H 86.3157 0.809727 -1.64668 0
M  V30 893 H 84.6977 3.41113 -2.01142 0
M  V30 894 H 85.8717 1.68354 -4.28945 0
M  V30 895 H 84.1867 1.66749 -3.81554 0
M  V30 896 H 86.7837 4.35558 -3.1015 0
M  V30 897 H 87.1267 3.90229 -1.45008 0
M  V30 898 H 87.6597 2.84535 -2.78002 0
M  V30 899 H 84.3987 3.11966 -5.76504 0
M  V30 900 H 83.9187 4.11041 -4.36813 0
M  V30 901 H 85.5977 4.15328 -4.96096 0
M  V30 902 N 85.7298 1.2412 0.971189 0
M  V30 903 C 86.9598 1.10415 1.7462 0
M  V30 904 C 87.3678 -0.346462 1.86001 0
M  V30 905 O 86.7108 -1.25104 1.34517 0
M  V30 906 C 86.7728 1.66596 3.18568 0
M  V30 907 C 86.4368 3.15446 3.3067 0
M  V30 908 C 87.4338 4.12636 3.16271 0
M  V30 909 C 85.1188 3.55337 3.55022 0
M  V30 910 C 87.1128 5.47699 3.26044 0
M  V30 911 C 84.7998 4.90542 3.64434 0
M  V30 912 C 85.7978 5.86532 3.49956 0
M  V30 913 O 85.4858 7.19279 3.59017 0
M  V30 914 H 85.2178 0.386616 0.55453 0
M  V30 915 H 87.7718 1.64633 1.22821 0
M  V30 916 H 86.0018 1.06808 3.71657 0
M  V30 917 H 87.6908 1.48232 3.77865 0
M  V30 918 H 88.4568 3.8316 2.97344 0
M  V30 919 H 84.3358 2.8113 3.65359 0
M  V30 920 H 87.8798 6.22603 3.14661 0
M  V30 921 H 83.7768 5.19691 3.82873 0
M  V30 922 H 84.5448 7.27153 3.75754 0
M  V30 923 N 87.2079 -1.17134 1.05439 0
M  V30 924 C 88.4329 -1.91913 0.786396 0
M  V30 925 C 88.8579 -1.7643 -0.652234 0
M  V30 926 O 88.2159 -1.08372 -1.45345 0
M  V30 927 C 88.2639 -3.40921 1.17497 0
M  V30 928 O 87.3679 -4.11244 0.308589 0
M  V30 929 H 86.7089 -0.598215 0.288158 0
M  V30 930 H 89.2389 -1.48457 1.4079 0
M  V30 931 H 89.2489 -3.91668 1.14281 0
M  V30 932 H 87.9239 -3.5151 2.22292 0
M  V30 933 H 86.5009 -3.70731 0.40157 0
M  V30 934 N 88.686 -0.835752 -1.33615 0
M  V30 935 C 89.618 -0.224151 -2.28101 0
M  V30 936 C 90.631 0.593331 -1.51603 0
M  V30 937 O 91.82 0.420911 -1.73466 0
M  V30 938 C 88.92 0.703309 -3.31522 0
M  V30 939 C 88.093 -0.0741528 -4.37337 0
M  V30 940 C 87.152 0.776176 -5.20444 0
M  V30 941 O 86.178 0.216506 -5.68788 0
M  V30 942 N 87.38 2.09401 -5.41416 0
M  V30 943 H 90.145 -1.03598 -2.81225 0
M  V30 944 H 87.706 -0.69392 -1.46275 0
M  V30 945 H 89.698 1.27707 -3.84022 0
M  V30 946 H 88.268 1.41585 -2.78698 0
M  V30 947 H 87.488 -0.82928 -3.85378 0
M  V30 948 H 88.776 -0.608863 -5.05144 0
M  V30 949 H 88.174 2.57229 -5.03835 0
M  V30 950 H 86.731 2.61633 -5.96985 0
M  V30 951 N 90.1641 1.46063 -0.591896 0
M  V30 952 C 91.4101 2.02638 -0.0811191 0
M  V30 953 C 91.7431 1.4613 1.27905 0
M  V30 954 O 91.0181 0.629908 1.84017 0
M  V30 955 C 91.3011 3.60091 -0.0252436 0
M  V30 956 C 91.1541 4.26965 -1.41496 0
M  V30 957 C 92.4731 4.3496 0.670685 0
M  V30 958 H 89.5921 0.73635 -0.0309524 0
M  V30 959 H 92.2341 1.741 -0.760859 0
M  V30 960 H 90.3841 3.84535 0.553624 0
M  V30 961 H 92.0561 4.13756 -2.0397 0
M  V30 962 H 90.2991 3.85971 -1.98011 0
M  V30 963 H 90.9701 5.35781 -1.32825 0
M  V30 964 H 93.4461 4.15716 0.178825 0
M  V30 965 H 92.3221 5.44686 0.678837 0
M  V30 966 H 92.5831 4.06685 1.73379 0
M  V30 967 N 91.6422 0.330177 1.54103 0
M  V30 968 C 92.5722 -0.525353 2.27513 0
M  V30 969 C 93.5532 -1.11383 1.2856 0
M  V30 970 O 94.7382 -1.13773 1.57383 0
M  V30 971 C 91.8682 -1.6831 3.03791 0
M  V30 972 C 90.8222 -1.2236 4.10137 0
M  V30 973 C 90.1482 -2.46882 4.74293 0
M  V30 974 C 91.4482 -0.333697 5.21233 0
M  V30 975 H 93.1422 0.087013 2.99274 0
M  V30 976 H 90.6882 0.0432893 1.43935 0
M  V30 977 H 92.6412 -2.28795 3.5388 0
M  V30 978 H 91.3652 -2.32216 2.29659 0
M  V30 979 H 90.0242 -0.64165 3.60941 0
M  V30 980 H 89.6722 -3.09165 3.96769 0
M  V30 981 H 89.3722 -2.16825 5.46133 0
M  V30 982 H 90.8962 -3.08117 5.27159 0
M  V30 983 H 92.3102 -0.845013 5.67038 0
M  V30 984 H 90.7072 -0.125612 5.99969 0
M  V30 985 H 91.7772 0.633724 4.80741 0
M  V30 986 N 93.1203 -1.57491 0.0584922 0
M  V30 987 C 94.3673 -1.92978 -0.613648 0
M  V30 988 C 94.6953 -0.937461 -1.70417 0
M  V30 989 O 93.9503 0.049078 -1.95638 0
M  V30 990 C 94.2493 -3.3513 -1.24188 0
M  V30 991 C 93.9153 -4.50037 -0.278826 0
M  V30 992 C 92.5773 -4.81198 -0.0138447 0
M  V30 993 C 94.9293 -5.19807 0.380777 0
M  V30 994 C 92.2573 -5.79473 0.918052 0
M  V30 995 C 94.6093 -6.19079 1.30091 0
M  V30 996 C 93.2733 -6.48665 1.57449 0
M  V30 997 H 92.5433 -0.706157 -0.22455 0
M  V30 998 H 95.1903 -1.91082 0.126533 0
M  V30 999 H 93.4953 -3.33429 -2.05749 0
M  V30 1000 H 95.1923 -3.59871 -1.769 0
M  V30 1001 H 91.7823 -4.25726 -0.495539 0
M  V30 1002 H 95.9663 -4.95939 0.189158 0
M  V30 1003 H 91.2223 -6.00727 1.1374 0
M  V30 1004 H 95.3963 -6.7225 1.81804 0
M  V30 1005 H 93.0233 -7.24628 2.29822 0
M  V30 1006 N 94.5984 0.214957 -1.56127 0
M  V30 1007 C 95.5454 1.26642 -1.92952 0
M  V30 1008 C 96.5154 1.46244 -0.78753 0
M  V30 1009 O 97.7004 1.59704 -1.04399 0
M  V30 1010 C 94.8404 2.6104 -2.25726 0
M  V30 1011 C 93.9534 2.49183 -3.52891 0
M  V30 1012 C 93.0884 3.76149 -3.7508 0
M  V30 1013 C 92.1274 3.59041 -4.95738 0
M  V30 1014 N 91.2644 4.77972 -5.14283 0
M  V30 1015 H 96.1044 0.945384 -2.82607 0
M  V30 1016 H 93.6414 0.455489 -1.3987 0
M  V30 1017 H 95.5994 3.39313 -2.42739 0
M  V30 1018 H 94.2294 2.91227 -1.39236 0
M  V30 1019 H 93.2814 1.6231 -3.44034 0
M  V30 1020 H 94.5934 2.32466 -4.41318 0
M  V30 1021 H 93.7474 4.62865 -3.92226 0
M  V30 1022 H 92.4864 3.95799 -2.84947 0
M  V30 1023 H 91.4914 2.7071 -4.78535 0
M  V30 1024 H 92.7164 3.40856 -5.87362 0
M  V30 1025 H 90.6624 4.97923 -4.27093 0
M  V30 1026 H 90.5794 4.64006 -5.96853 0
M  V30 1027 H 91.8474 5.66096 -5.35869 0
M  V30 1028 N 96.0765 1.50051 0.48192 0
M  V30 1029 C 97.3245 1.60181 1.23234 0
M  V30 1030 C 97.6455 0.299176 1.92691 0
M  V30 1031 O 96.9155 -0.682708 1.83619 0
M  V30 1032 H 95.4955 0.590232 0.457859 0
M  V30 1033 H 98.1575 1.86775 0.556881 0
M  V30 1034 H 97.2535 2.40753 1.98607 0
M  V30 1035 N 97.5546 -0.734337 1.39446 0
M  V30 1036 C 98.4866 -1.85861 1.34121 0
M  V30 1037 C 99.4996 -1.60871 0.249864 0
M  V30 1038 O 100.689 -1.71093 0.508865 0
M  V30 1039 C 97.7886 -3.21899 1.05991 0
M  V30 1040 C 96.9616 -3.74239 2.26415 0
M  V30 1041 C 96.0206 -4.88841 1.94733 0
M  V30 1042 O 95.0466 -5.02468 2.67422 0
M  V30 1043 N 96.2486 -5.73261 0.913884 0
M  V30 1044 H 99.0136 -1.90934 2.31007 0
M  V30 1045 H 96.5746 -0.915102 1.33557 0
M  V30 1046 H 98.5666 -3.96136 0.828147 0
M  V30 1047 H 97.1366 -3.12091 0.178361 0
M  V30 1048 H 96.3566 -2.91347 2.65539 0
M  V30 1049 H 97.6446 -4.05942 3.06738 0
M  V30 1050 H 97.0426 -5.64842 0.311476 0
M  V30 1051 H 95.5996 -6.47563 0.742015 0
M  V30 1052 N 99.0327 -1.24633 -0.964593 0
M  V30 1053 C 100.281 -1.08573 -1.70459 0
M  V30 1054 C 100.602 0.375655 -1.91347 0
M  V30 1055 O 99.8717 1.26779 -1.49345 0
M  V30 1056 H 98.4517 -0.398784 -0.631649 0
M  V30 1057 H 101.114 -1.56601 -1.16026 0
M  V30 1058 H 100.21 -1.58623 -2.68785 0
M  V30 1059 N 100.511 1.16574 -1.06058 0
M  V30 1060 C 101.751 1.88723 -0.78504 0
M  V30 1061 C 102.115 1.79706 0.676006 0
M  V30 1062 O 103.316 2.46757 1.06603 0
M  V30 1063 C 101.587 3.34338 -1.26304 0
M  V30 1064 S 103.146 4.24366 -1.1162 0
M  V30 1065 H 99.9638 0.651448 -0.284846 0
M  V30 1066 H 102.566 1.40732 -1.35701 0
M  V30 1067 H 101.27 3.38439 -2.32136 0
M  V30 1068 H 100.801 3.87378 -0.685719 0
M  V30 1069 H 102.816 4.96179 -0.0456539 0
M  V30 1070 N 101.989 0.842826 1.3317 0
M  V30 1071 C 103.4 0.496651 1.79973 0
M  V30 1072 C 103.751 -0.984641 1.69703 0
M  V30 1073 O 102.876 -1.76743 1.24863 0
M  V30 1074 C 103.471 0.894727 3.26772 0
M  V30 1075 C 102.03 0.600629 3.71577 0
M  V30 1076 C 101.177 1.10091 2.5451 0
M  V30 1077 H 104.128 1.03116 1.20635 0
M  V30 1078 H 104.149 0.206347 3.7994 0
M  V30 1079 H 103.661 1.97287 3.34215 0
M  V30 1080 H 101.762 -0.467284 3.69658 0
M  V30 1081 H 101.875 1.15863 4.64879 0
M  V30 1082 H 100.239 0.52162 2.49301 0
M  V30 1083 H 101.022 2.18591 2.64713 0
M  V30 1084 N 103.467 -1.45747 0.599634 0
M  V30 1085 C 104.692 -2.07178 0.0960198 0
M  V30 1086 C 105.117 -1.44268 -1.207 0
M  V30 1087 O 104.475 -0.532503 -1.73303 0
M  V30 1088 C 104.523 -3.60579 -0.0385348 0
M  V30 1089 O 103.627 -3.97713 -1.0908 0
M  V30 1090 H 102.968 -0.660251 0.0704593 0
M  V30 1091 H 105.498 -1.87124 0.827385 0
M  V30 1092 H 105.508 -4.07298 -0.239304 0
M  V30 1093 H 104.183 -4.05756 0.912947 0
M  V30 1094 H 102.76 -3.62678 -0.867135 0
M  V30 1095 N 104.945 -0.338344 -1.53925 0
M  V30 1096 C 106.173 0.261298 -2.05243 0
M  V30 1097 C 106.588 1.44625 -1.21363 0
M  V30 1098 O 105.945 1.80811 -0.247736 0
M  V30 1099 C 105.996 0.681412 -3.5502 0
M  V30 1100 O 105.717 -0.456414 -4.35716 0
M  V30 1101 C 107.218 1.34232 -4.22489 0
M  V30 1102 H 104.438 0.0513685 -0.669031 0
M  V30 1103 H 106.982 -0.488822 -1.98572 0
M  V30 1104 H 105.137 1.38148 -3.61931 0
M  V30 1105 H 105.551 -0.122564 -5.24357 0
M  V30 1106 H 107.025 1.58708 -5.28693 0
M  V30 1107 H 107.502 2.29426 -3.74514 0
M  V30 1108 H 108.108 0.684424 -4.19757 0
M  V30 1109 N 106.423 1.57458 -0.0668435 0
M  V30 1110 C 107.373 2.0896 0.912119 0
M  V30 1111 C 108.357 0.998186 1.26195 0
M  V30 1112 O 109.549 1.26133 1.24175 0
M  V30 1113 C 106.678 2.6508 2.18145 0
M  V30 1114 C 105.764 3.81218 1.85832 0
M  V30 1115 N 106.155 4.90378 1.23948 0
M  V30 1116 C 104.453 3.9042 2.15612 0
M  V30 1117 C 105.154 5.71279 1.09616 0
M  V30 1118 N 104.13 5.19389 1.60423 0
M  V30 1119 H 107.932 2.90749 0.42924 0
M  V30 1120 H 105.446 1.6182 0.137184 0
M  V30 1121 H 107.443 3.0029 2.89192 0
M  V30 1122 H 106.103 1.84736 2.67025 0
M  V30 1123 H 107.114 5.09847 0.909731 0
M  V30 1124 H 103.791 3.21043 2.66903 0
M  V30 1125 H 105.181 6.69085 0.614425 0
M  V30 1126 N 107.901 -0.206675 1.56239 0
M  V30 1127 C 109.147 -0.930218 1.80208 0
M  V30 1128 C 109.48 -1.83387 0.638981 0
M  V30 1129 O 108.755 -1.91119 -0.361066 0
M  V30 1130 C 109.038 -1.75641 3.1436 0
M  V30 1131 C 108.891 -0.878257 4.41142 0
M  V30 1132 C 110.21 -2.73129 3.45092 0
M  V30 1133 H 107.329 -0.336742 0.655571 0
M  V30 1134 H 109.971 -0.198222 1.88963 0
M  V30 1135 H 108.121 -2.38048 3.07027 0
M  V30 1136 H 109.793 -0.269787 4.6051 0
M  V30 1137 H 108.036 -0.184385 4.33408 0
M  V30 1138 H 108.707 -1.49106 5.3148 0
M  V30 1139 H 111.183 -2.20856 3.52649 0
M  V30 1140 H 110.059 -3.28028 4.40101 0
M  V30 1141 H 110.32 -3.51606 2.68003 0
M  V30 1142 N 109.379 -1.50304 -0.473955 0
M  V30 1143 C 110.309 -1.71886 -1.58042 0
M  V30 1144 C 111.29 -0.567799 -1.60344 0
M  V30 1145 O 112.475 -0.806623 -1.76656 0
M  V30 1146 C 109.605 -1.81036 -2.96384 0
M  V30 1147 C 108.559 -2.962 -3.08949 0
M  V30 1148 C 107.885 -2.9049 -4.48909 0
M  V30 1149 C 109.185 -4.36752 -2.86434 0
M  V30 1150 H 110.879 -2.64527 -1.40234 0
M  V30 1151 H 108.425 -1.27295 -0.673201 0
M  V30 1152 H 110.378 -1.94719 -3.73714 0
M  V30 1153 H 109.102 -0.850147 -3.15341 0
M  V30 1154 H 107.761 -2.82164 -2.3405 0
M  V30 1155 H 107.409 -1.92321 -4.64781 0
M  V30 1156 H 107.109 -3.67802 -4.58253 0
M  V30 1157 H 108.633 -3.06218 -5.28264 0
M  V30 1158 H 110.047 -4.5133 -3.53517 0
M  V30 1159 H 108.444 -5.15493 -3.07225 0
M  V30 1160 H 109.514 -4.49321 -1.82316 0
M  V30 1161 N 110.857 0.726932 -1.39834 0
M  V30 1162 C 111.787 1.85405 -1.41941 0
M  V30 1163 C 112.768 1.67751 -0.281728 0
M  V30 1164 O 113.953 1.8795 -0.488717 0
M  V30 1165 C 111.083 3.23243 -1.2701 0
M  V30 1166 C 110.037 3.55549 -2.38262 0
M  V30 1167 C 109.363 4.9241 -2.08415 0
M  V30 1168 C 110.663 3.577 -3.80589 0
M  V30 1169 H 112.357 1.83899 -2.36266 0
M  V30 1170 H 109.903 0.883349 -1.13723 0
M  V30 1171 H 111.856 4.01775 -1.27103 0
M  V30 1172 H 110.58 3.25296 -0.291564 0
M  V30 1173 H 109.239 2.79351 -2.37399 0
M  V30 1174 H 108.887 4.91052 -1.0898 0
M  V30 1175 H 108.587 5.14992 -2.82943 0
M  V30 1176 H 110.111 5.73289 -2.10171 0
M  V30 1177 H 111.525 4.26293 -3.83337 0
M  V30 1178 H 109.922 3.91804 -4.54543 0
M  V30 1179 H 110.992 2.57328 -4.10987 0
M  V30 1180 N 112.336 1.25143 0.95797 0
M  V30 1181 C 113.564 1.12424 1.73691 0
M  V30 1182 C 113.979 -0.322304 1.86029 0
M  V30 1183 O 113.336 -1.22186 1.35561 0
M  V30 1184 C 113.387 1.76933 3.15241 0
M  V30 1185 O 113.108 3.15932 3.03511 0
M  V30 1186 C 114.609 1.6995 4.09429 0
M  V30 1187 H 111.829 0.3923 0.544373 0
M  V30 1188 H 114.373 1.6544 1.20207 0
M  V30 1189 H 112.528 1.27895 3.6568 0
M  V30 1190 H 112.942 3.47598 3.9278 0
M  V30 1191 H 114.416 2.19753 5.06372 0
M  V30 1192 H 114.893 0.662619 4.34173 0
M  V30 1193 H 115.499 2.18461 3.64904 0
M  V30 1194 N 113.814 -1.1601 1.06675 0
M  V30 1195 C 114.764 -2.18512 0.650888 0
M  V30 1196 C 115.748 -1.57677 -0.320441 0
M  V30 1197 O 116.94 -1.76482 -0.135266 0
M  V30 1198 C 114.069 -3.43273 0.0429255 0
M  V30 1199 C 113.155 -4.11176 1.03898 0
M  V30 1200 N 113.546 -4.54672 2.216 0
M  V30 1201 C 111.844 -4.37417 0.870779 0
M  V30 1202 C 112.545 -5.07248 2.84736 0
M  V30 1203 N 111.521 -5.0037 2.12441 0
M  V30 1204 H 115.323 -2.49863 1.54745 0
M  V30 1205 H 112.837 -1.32503 0.938975 0
M  V30 1206 H 114.834 -4.16006 -0.272857 0
M  V30 1207 H 113.494 -3.13408 -0.84884 0
M  V30 1208 H 114.505 -4.4828 2.59356 0
M  V30 1209 H 111.182 -4.17488 0.0313293 0
M  V30 1210 H 112.572 -5.50912 3.84636 0
M  V30 1211 N 115.292 -0.849877 -1.32721 0
M  V30 1212 C 116.52 -0.464754 -2.01613 0
M  V30 1213 C 116.935 0.937191 -1.63897 0
M  V30 1214 O 116.292 1.61081 -0.857856 0
M  V30 1215 C 116.343 -0.588638 -3.56675 0
M  V30 1216 O 116.064 -1.93535 -3.93034 0
M  V30 1217 C 117.565 -0.2019 -4.4284 0
M  V30 1218 H 114.785 -0.183215 -0.645502 0
M  V30 1219 H 117.329 -1.1455 -1.69407 0
M  V30 1220 H 115.484 0.0443159 -3.87375 0
M  V30 1221 H 115.898 -1.92871 -4.87751 0
M  V30 1222 H 117.372 -0.339599 -5.50954 0
M  V30 1223 H 117.849 0.857224 -4.30753 0
M  V30 1224 H 118.455 -0.809733 -4.17521 0
M  V30 1225 N 116.77 1.45427 -0.607355 0
M  V30 1226 C 118.019 2.01452 -0.100036 0
M  V30 1227 C 118.332 1.48159 1.27704 0
M  V30 1228 O 119.538 1.96159 1.87707 0
M  V30 1229 C 117.994 3.59672 -0.128158 0
M  V30 1230 C 117.602 4.21962 -1.50507 0
M  V30 1231 C 119.346 4.23262 0.323932 0
M  V30 1232 C 117.253 5.72333 -1.48959 0
M  V30 1233 H 116.183 0.75325 -0.0336299 0
M  V30 1234 H 118.834 1.66901 -0.76265 0
M  V30 1235 H 117.216 3.91411 0.601105 0
M  V30 1236 H 118.39 4.01796 -2.25602 0
M  V30 1237 H 116.705 3.70565 -1.89923 0
M  V30 1238 H 119.302 5.33522 0.354691 0
M  V30 1239 H 119.645 3.93921 1.34656 0
M  V30 1240 H 120.178 3.96239 -0.352056 0
M  V30 1241 H 116.917 6.06373 -2.48981 0
M  V30 1242 H 116.437 5.94691 -0.781214 0
M  V30 1243 H 118.116 6.35525 -1.21313 0
M  V30 1244 N 118.248 0.346503 1.53744 0
M  V30 1245 C 119.473 -0.253074 2.0585 0
M  V30 1246 C 119.898 -1.43202 1.21962 0
M  V30 1247 O 119.256 -1.79783 0.234073 0
M  V30 1248 C 119.304 -0.643193 3.54817 0
M  V30 1249 O 118.408 -1.74286 3.73762 0
M  V30 1250 H 117.749 -0.0413583 0.662711 0
M  V30 1251 H 120.279 0.501574 1.98357 0
M  V30 1252 H 120.289 -0.919526 3.97503 0
M  V30 1253 H 118.964 0.218966 4.15323 0
M  V30 1254 H 117.541 -1.46356 3.42979 0
M  V30 1255 N 119.726 -1.57421 0.075193 0
M  V30 1256 C 121.142 -1.57099 -0.281444 0
M  V30 1257 C 121.342 -1.08486 -1.69803 0
M  V30 1258 O 120.398 -0.752279 -2.41033 0
M  V30 1259 C 121.711 -3.00571 -0.0880041 0
M  V30 1260 C 123.259 -3.12605 -0.157281 0
M  V30 1261 C 123.734 -4.57999 0.0079207 0
M  V30 1262 N 125.225 -4.63176 -0.0475725 0
M  V30 1263 C 125.96 -5.73373 0.0557876 0
M  V30 1264 N 125.456 -6.92473 0.21286 0
M  V30 1265 N 127.249 -5.621 -0.00152098 0
M  V30 1266 H 119.4 -1.87335 1.00098 0
M  V30 1267 H 121.663 -0.86377 0.390646 0
M  V30 1268 H 121.369 -3.40262 0.889629 0
M  V30 1269 H 121.243 -3.67754 -0.838875 0
M  V30 1270 H 123.63 -2.72798 -1.1254 0
M  V30 1271 H 123.711 -2.48053 0.62475 0
M  V30 1272 H 123.355 -4.98496 0.972824 0
M  V30 1273 H 123.285 -5.20586 -0.793556 0
M  V30 1274 H 125.776 -3.7753 -0.167244 0
M  V30 1275 H 126.089 -7.72279 0.283781 0
M  V30 1276 H 124.434 -6.94556 0.248267 0
M  V30 1277 H 127.625 -4.67938 -0.122958 0
M  V30 1278 H 127.798 -6.47948 0.0824844 0
M  V30 1279 N 121.204 0.198386 -1.56346 0
M  V30 1280 C 122.453 0.917451 -1.79627 0
M  V30 1281 C 122.766 1.8456 -0.64784 0
M  V30 1282 O 123.972 2.60504 -0.764859 0
M  V30 1283 C 122.428 1.68175 -3.18191 0
M  V30 1284 C 122.036 0.798589 -4.40825 0
M  V30 1285 C 123.78 2.39065 -3.50782 0
M  V30 1286 C 121.687 1.56157 -5.70411 0
M  V30 1287 H 120.617 0.346317 -0.669762 0
M  V30 1288 H 123.268 0.170801 -1.82703 0
M  V30 1289 H 121.65 2.47216 -3.09354 0
M  V30 1290 H 122.824 0.0470665 -4.60776 0
M  V30 1291 H 121.139 0.200686 -4.15916 0
M  V30 1292 H 123.736 2.96692 -4.44835 0
M  V30 1293 H 124.079 3.13091 -2.74371 0
M  V30 1294 H 124.612 1.66993 -3.61052 0
M  V30 1295 H 121.351 0.864142 -6.49779 0
M  V30 1296 H 120.871 2.2871 -5.54483 0
M  V30 1297 H 122.55 2.11622 -6.11412 0
M  V30 1298 N 122.682 1.50554 0.465978 0
M  V30 1299 C 123.645 1.69233 1.54574 0
M  V30 1300 C 124.645 0.562901 1.50626 0
M  V30 1301 O 125.835 0.830016 1.53155 0
M  V30 1302 C 122.967 1.7223 2.94193 0
M  V30 1303 H 124.16 2.65571 1.39327 0
M  V30 1304 H 121.713 1.40111 0.692711 0
M  V30 1305 H 122.448 0.77603 3.14878 0
M  V30 1306 H 122.233 2.54285 2.98466 0
M  V30 1307 H 123.723 1.88618 3.72576 0
M  V30 1308 N 124.16 -0.719506 1.40217 0
M  V30 1309 C 125.406 -1.48152 1.38488 0
M  V30 1310 C 125.739 -1.94195 -0.0141867 0
M  V30 1311 O 125.014 -1.67884 -0.982096 0
M  V30 1312 C 125.297 -2.71035 2.37091 0
M  V30 1313 C 125.15 -2.30912 3.86005 0
M  V30 1314 C 126.469 -3.73182 2.33288 0
M  V30 1315 H 123.588 -0.537395 0.504357 0
M  V30 1316 H 126.23 -0.821472 1.71324 0
M  V30 1317 H 124.38 -3.27352 2.0922 0
M  V30 1318 H 126.052 -1.80107 4.24687 0
M  V30 1319 H 124.295 -1.62958 4.02029 0
M  V30 1320 H 124.966 -3.18978 4.50508 0
M  V30 1321 H 127.442 -3.26485 2.57966 0
M  V30 1322 H 126.318 -4.56806 3.04334 0
M  V30 1323 H 126.579 -4.21202 1.34317 0
M  V30 1324 N 125.638 -1.25649 -0.95132 0
M  V30 1325 C 126.863 -1.13443 -1.73624 0
M  V30 1326 C 127.288 0.307565 -1.85568 0
M  V30 1327 O 126.646 1.22282 -1.33854 0
M  V30 1328 C 126.694 -1.79723 -3.12621 0
M  V30 1329 O 125.798 -1.07912 -3.98031 0
M  V30 1330 H 125.139 -0.395872 -0.533086 0
M  V30 1331 H 127.669 -1.66276 -1.1922 0
M  V30 1332 H 127.679 -1.86141 -3.63064 0
M  V30 1333 H 126.354 -2.84633 -3.03244 0
M  V30 1334 H 124.931 -1.09398 -3.56492 0
M  V30 1335 N 127.117 1.15442 -1.07289 0
M  V30 1336 C 128.347 1.89821 -0.815576 0
M  V30 1337 C 128.755 1.7823 0.634867 0
M  V30 1338 O 128.098 1.13152 1.44715 0
M  V30 1339 C 128.16 3.40817 -1.14385 0
M  V30 1340 C 127.824 3.76193 -2.59476 0
M  V30 1341 C 128.821 3.77269 -3.57721 0
M  V30 1342 C 126.506 4.0652 -2.95037 0
M  V30 1343 C 128.5 4.08176 -4.89562 0
M  V30 1344 C 126.187 4.37092 -4.27076 0
M  V30 1345 C 127.185 4.37902 -5.24148 0
M  V30 1346 O 126.873 4.67741 -6.53815 0
M  V30 1347 H 126.605 0.608465 -0.294528 0
M  V30 1348 H 129.159 1.472 -1.43252 0
M  V30 1349 H 127.389 3.83835 -0.469865 0
M  V30 1350 H 129.078 3.96485 -0.869179 0
M  V30 1351 H 129.844 3.5394 -3.3159 0
M  V30 1352 H 125.723 4.05049 -2.20128 0
M  V30 1353 H 129.267 4.08723 -5.65324 0
M  V30 1354 H 125.164 4.59889 -4.5296 0
M  V30 1355 H 125.932 4.85509 -6.58957 0
M  V30 1356 N 128.595 0.856903 1.32268 0
M  V30 1357 C 129.527 0.260412 2.27716 0
M  V30 1358 C 130.54 -0.569137 1.52528 0
M  V30 1359 O 131.729 -0.39326 1.74114 0
M  V30 1360 C 128.829 -0.650477 3.32599 0
M  V30 1361 C 128.002 0.14372 4.37164 0
M  V30 1362 C 127.061 -0.69328 5.21613 0
M  V30 1363 O 126.087 -0.12599 5.69061 0
M  V30 1364 N 127.289 -2.00761 5.44679 0
M  V30 1365 H 130.054 1.08059 2.79541 0
M  V30 1366 H 127.615 0.717103 1.45152 0
M  V30 1367 H 129.607 -1.21581 3.86005 0
M  V30 1368 H 128.177 -1.37133 2.80915 0
M  V30 1369 H 127.397 0.890486 3.8401 0
M  V30 1370 H 128.685 0.68915 5.04111 0
M  V30 1371 H 128.083 -2.49181 5.07863 0
M  V30 1372 H 126.64 -2.52103 6.01072 0
M  V30 1373 N 130.073 -1.45103 0.615059 0
M  V30 1374 C 131.301 -2.06553 0.11977 0
M  V30 1375 C 131.716 -1.45842 -1.19898 0
M  V30 1376 O 131.073 -0.575325 -1.73194 0
M  V30 1377 C 131.124 -3.61495 -0.018364 0
M  V30 1378 O 130.845 -4.19942 1.24822 0
M  V30 1379 C 132.346 -4.39947 -0.544237 0
M  V30 1380 H 129.566 -0.667096 0.0722739 0
M  V30 1381 H 132.11 -1.8623 0.84491 0
M  V30 1382 H 130.265 -3.81135 -0.693865 0
M  V30 1383 H 130.679 -5.13204 1.0827 0
M  V30 1384 H 132.153 -5.48838 -0.589953 0
M  V30 1385 H 132.63 -4.10255 -1.56805 0
M  V30 1386 H 133.236 -4.25188 0.0974703 0
M  V30 1387 N 131.551 -0.354651 -1.53558 0
M  V30 1388 C 132.498 0.496968 -2.25386 0
M  V30 1389 C 133.468 1.0865 -1.25636 0
M  V30 1390 O 134.653 1.12104 -1.54394 0
M  V30 1391 C 131.793 1.63637 -3.03837 0
M  V30 1392 C 130.906 1.07307 -4.18461 0
M  V30 1393 C 130.041 2.18068 -4.84376 0
M  V30 1394 C 129.08 1.59147 -5.91049 0
M  V30 1395 N 128.217 2.63695 -6.50699 0
M  V30 1396 H 133.057 -0.122075 -2.9775 0
M  V30 1397 H 130.594 -0.0720154 -1.46924 0
M  V30 1398 H 132.552 2.30734 -3.47589 0
M  V30 1399 H 131.182 2.22623 -2.33749 0
M  V30 1400 H 130.234 0.292708 -3.79272 0
M  V30 1401 H 131.546 0.602193 -4.95152 0
M  V30 1402 H 130.7 2.93007 -5.31255 0
M  V30 1403 H 129.439 2.68504 -4.07133 0
M  V30 1404 H 128.444 0.827175 -5.43542 0
M  V30 1405 H 129.669 1.09549 -6.70206 0
M  V30 1406 H 127.615 3.13365 -5.76315 0
M  V30 1407 H 127.532 2.21263 -7.22896 0
M  V30 1408 H 128.8 3.3837 -7.02229 0
M  V30 1409 N 133.029 1.57378 -0.0835403 0
M  V30 1410 C 134.275 1.94217 0.583733 0
M  V30 1411 C 134.608 0.964653 1.68547 0
M  V30 1412 O 133.883 -0.00422258 1.945 0
M  V30 1413 C 134.166 3.41253 1.14972 0
M  V30 1414 C 134.019 4.49768 0.0538277 0
M  V30 1415 C 135.338 3.89352 2.05166 0
M  V30 1416 H 132.457 0.706233 0.210724 0
M  V30 1417 H 135.099 1.89392 -0.1519 0
M  V30 1418 H 133.249 3.45496 1.77665 0
M  V30 1419 H 134.921 4.57641 -0.579851 0
M  V30 1420 H 133.164 4.29432 -0.614068 0
M  V30 1421 H 133.835 5.49817 0.490452 0
M  V30 1422 H 136.311 3.87189 1.52393 0
M  V30 1423 H 135.187 4.92822 2.41698 0
M  V30 1424 H 135.448 3.27973 2.96456 0
M  V30 1425 N 134.507 -0.190092 1.56449 0
M  V30 1426 C 135.455 -1.25501 1.95837 0
M  V30 1427 C 136.449 -1.4685 0.844485 0
M  V30 1428 O 137.655 -1.47651 1.02952 0
M  V30 1429 H 134.03 -0.421447 0.622805 0
M  V30 1430 H 136.001 -0.895821 2.84636 0
M  V30 1431 C 134.75 -2.59124 2.31841 0
M  V30 1432 H 134.073 -2.43514 3.17082 0
M  V30 1433 H 135.513 -3.32371 2.6326 0
M  V30 1434 C 133.972 -3.16488 1.15486 0
M  V30 1435 O 134.502 -3.99365 0.432535 0
M  V30 1436 N 132.708 -2.75305 0.930349 0
M  V30 1437 H 132.255 -2.08013 1.51948 0
M  V30 1438 H 132.213 -3.14024 0.153634 0
M  V30 1439 N 135.985 -1.50799 -0.457987 0
M  V30 1440 C 136.915 -1.73553 -1.5621 0
M  V30 1441 C 137.896 -0.584774 -1.59732 0
M  V30 1442 O 139.081 -0.825314 -1.7579 0
M  V30 1443 C 136.211 -1.84169 -2.94447 0
M  V30 1444 C 135.165 -2.99461 -3.0579 0
M  V30 1445 C 134.491 -2.95235 -4.45803 0
M  V30 1446 C 135.791 -4.39766 -2.81786 0
M  V30 1447 H 137.485 -2.66 -1.37421 0
M  V30 1448 H 135.031 -1.28002 -0.659662 0
M  V30 1449 H 136.984 -1.98672 -3.71628 0
M  V30 1450 H 135.708 -0.883545 -3.14422 0
M  V30 1451 H 134.367 -2.8463 -2.31044 0
M  V30 1452 H 134.015 -1.97239 -4.62715 0
M  V30 1453 H 133.715 -3.72642 -4.54326 0
M  V30 1454 H 135.239 -3.11803 -5.24987 0
M  V30 1455 H 136.653 -4.55054 -3.4871 0
M  V30 1456 H 135.05 -5.18722 -3.0174 0
M  V30 1457 H 136.12 -4.51229 -1.7754 0
M  V30 1458 N 137.463 0.71206 -1.40597 0
M  V30 1459 C 138.393 1.83889 -1.43899 0
M  V30 1460 C 139.374 1.67442 -0.299504 0
M  V30 1461 O 140.559 1.87421 -0.508624 0
M  V30 1462 C 137.689 3.21877 -1.30431 0
M  V30 1463 C 136.643 3.53002 -2.42019 0
M  V30 1464 C 135.969 4.90172 -2.13626 0
M  V30 1465 C 137.269 3.53643 -3.84362 0
M  V30 1466 H 138.963 1.81383 -2.38203 0
M  V30 1467 H 136.509 0.871237 -1.14654 0
M  V30 1468 H 138.462 4.00404 -1.31357 0
M  V30 1469 H 137.186 3.24968 -0.326049 0
M  V30 1470 H 135.845 2.76818 -2.40349 0
M  V30 1471 H 135.493 4.89869 -1.14182 0
M  V30 1472 H 135.193 5.11962 -2.88389 0
M  V30 1473 H 136.717 5.71028 -2.1624 0
M  V30 1474 H 138.131 4.22203 -3.87837 0
M  V30 1475 H 136.528 3.86961 -4.58673 0
M  V30 1476 H 137.598 2.52954 -4.13693 0
M  V30 1477 N 138.941 1.26152 0.944643 0
M  V30 1478 C 140.166 1.14363 1.7302 0
M  V30 1479 C 140.591 -0.29772 1.85729 0
M  V30 1480 O 139.949 -1.2157 1.34501 0
M  V30 1481 C 139.997 1.81378 3.11664 0
M  V30 1482 O 139.101 1.10022 3.97453 0
M  V30 1483 H 138.442 0.398694 0.53098 0
M  V30 1484 H 140.972 1.66906 1.18337 0
M  V30 1485 H 140.982 1.88064 3.62072 0
M  V30 1486 H 139.657 2.86237 3.0173 0
M  V30 1487 H 138.234 1.11287 3.55907 0
M  V30 1488 N 140.419 -1.14872 1.07899 0
M  V30 1489 C 141.382 -2.17986 0.708161 0
M  V30 1490 C 142.382 -1.58775 -0.25442 0
M  V30 1491 O 143.572 -1.74166 -0.034645 0
M  V30 1492 C 140.704 -3.40871 0.0446929 0
M  V30 1493 H 141.897 -2.52306 1.62116 0
M  V30 1494 H 139.45 -1.2943 0.876218 0
M  V30 1495 H 140.185 -3.12124 -0.880281 0
M  V30 1496 H 139.97 -3.8511 0.737091 0
M  V30 1497 H 141.46 -4.17121 -0.19991 0
M  V30 1498 N 141.898 -0.863906 -1.31812 0
M  V30 1499 C 143.147 -0.46801 -1.96195 0
M  V30 1500 C 143.46 0.983474 -1.69077 0
M  V30 1501 O 144.666 1.48523 -2.27273 0
M  V30 1502 C 143.122 -0.785995 -3.51212 0
M  V30 1503 C 142.73 -2.25383 -3.87178 0
M  V30 1504 C 144.474 -0.458274 -4.22019 0
M  V30 1505 C 142.381 -2.51455 -5.3528 0
M  V30 1506 H 141.311 -0.171283 -0.734287 0
M  V30 1507 H 143.962 -1.05597 -1.50072 0
M  V30 1508 H 142.344 -0.127359 -3.95795 0
M  V30 1509 H 143.518 -2.95502 -3.53575 0
M  V30 1510 H 141.833 -2.54698 -3.2942 0
M  V30 1511 H 144.43 -0.630369 -5.30971 0
M  V30 1512 H 144.773 0.600834 -4.11941 0
M  V30 1513 H 145.306 -1.07319 -3.8305 0
M  V30 1514 H 142.045 -3.56025 -5.50387 0
M  V30 1515 H 141.565 -1.85923 -5.70257 0
M  V30 1516 H 143.244 -2.35874 -6.02472 0
M  V30 1517 N 143.376 1.44774 -0.622745 0
M  V30 1518 C 144.323 2.30635 0.0871679 0
M  V30 1519 C 145.293 1.42994 0.845097 0
M  V30 1520 O 146.478 1.71907 0.827812 0
M  V30 1521 C 143.618 3.28144 1.06844 0
M  V30 1522 C 142.731 4.30888 0.309809 0
M  V30 1523 C 141.866 5.15494 1.28215 0
M  V30 1524 C 140.905 6.09953 0.512198 0
M  V30 1525 N 140.042 6.87287 1.43458 0
M  V30 1526 H 144.882 2.90803 -0.650974 0
M  V30 1527 H 142.419 1.43286 -0.33281 0
M  V30 1528 H 144.377 3.83157 1.65066 0
M  V30 1529 H 143.007 2.69695 1.77382 0
M  V30 1530 H 142.059 3.78414 -0.388181 0
M  V30 1531 H 143.371 4.97955 -0.290254 0
M  V30 1532 H 142.525 5.74983 1.93596 0
M  V30 1533 H 141.264 4.48481 1.91614 0
M  V30 1534 H 140.269 5.49581 -0.155151 0
M  V30 1535 H 141.494 6.78999 -0.116958 0
M  V30 1536 H 139.44 6.2295 2.05594 0
M  V30 1537 H 139.357 7.50763 0.888335 0
M  V30 1538 H 140.625 7.51306 2.07749 0
M  V30 1539 N 144.854 0.36279 1.53368 0
M  V30 1540 C 146.079 -0.231226 2.06107 0
M  V30 1541 C 146.504 -1.419 1.23474 0
M  V30 1542 O 145.862 -1.79524 0.253128 0
M  V30 1543 C 145.91 -0.605523 3.5548 0
M  V30 1544 O 145.014 -1.70312 3.7559 0
M  V30 1545 H 144.355 -0.034327 0.663112 0
M  V30 1546 H 146.885 0.522584 1.97814 0
M  V30 1547 H 146.895 -0.877314 3.98456 0
M  V30 1548 H 145.57 0.263004 4.15068 0
M  V30 1549 H 144.147 -1.4271 3.44512 0
M  V30 1550 N 146.332 -1.57332 0.0918853 0
M  V30 1551 C 147.743 -1.81496 -0.437739 0
M  V30 1552 C 148.094 -1.00727 -1.6837 0
M  V30 1553 O 147.219 -0.235694 -2.15113 0
M  V30 1554 C 147.814 -3.29197 -0.800939 0
M  V30 1555 C 146.373 -3.54136 -1.27532 0
M  V30 1556 C 145.52 -2.75979 -0.270392 0
M  V30 1557 H 148.471 -1.55494 0.317366 0
M  V30 1558 H 148.492 -3.42344 -1.66074 0
M  V30 1559 H 148.004 -3.87955 0.106078 0
M  V30 1560 H 146.105 -3.00705 -2.20016 0
M  V30 1561 H 146.218 -4.62792 -1.23938 0
M  V30 1562 H 144.582 -2.43349 -0.751872 0
M  V30 1563 H 145.365 -3.37484 0.629248 0
M  V30 1564 N 147.81 0.181792 -1.56548 0
M  V30 1565 C 149.05 0.906711 -1.83189 0
M  V30 1566 C 149.414 1.79882 -0.671312 0
M  V30 1567 O 150.615 2.56054 -0.81792 0
M  V30 1568 C 148.886 1.69023 -3.14906 0
M  V30 1569 S 150.445 2.46535 -3.62996 0
M  V30 1570 H 147.263 0.303877 -0.642791 0
M  V30 1571 H 149.865 0.169107 -1.94767 0
M  V30 1572 H 148.569 1.02571 -3.97376 0
M  V30 1573 H 148.1 2.46941 -3.06241 0
M  V30 1574 H 150.115 3.71014 -3.29489 0
M  V30 1575 N 149.288 1.51039 0.449983 0
M  V30 1576 C 150.22 1.67617 1.56324 0
M  V30 1577 C 151.233 0.557083 1.52972 0
M  V30 1578 O 152.422 0.830989 1.57977 0
M  V30 1579 C 149.522 1.66402 2.95235 0
M  V30 1580 C 148.695 2.9469 3.23229 0
M  V30 1581 C 147.754 2.85832 4.41799 0
M  V30 1582 O 146.78 3.59785 4.41071 0
M  V30 1583 N 147.982 2.00821 5.44657 0
M  V30 1584 H 150.747 2.63648 1.42512 0
M  V30 1585 H 148.308 1.48767 0.638737 0
M  V30 1586 H 150.3 1.58062 3.72557 0
M  V30 1587 H 148.87 0.780182 3.02708 0
M  V30 1588 H 148.09 3.16996 2.34323 0
M  V30 1589 H 149.378 3.79636 3.38754 0
M  V30 1590 H 148.776 1.40091 5.48079 0
M  V30 1591 H 147.333 1.98368 6.20881 0
M  V30 1592 N 150.766 -0.704594 1.40972 0
M  V30 1593 C 152.182 -1.01406 1.23244 0
M  V30 1594 C 152.382 -2.01169 0.115399 0
M  V30 1595 O 151.438 -2.47021 -0.523147 0
M  V30 1596 C 152.751 -1.54728 2.57836 0
M  V30 1597 C 154.299 -1.66658 2.64942 0
M  V30 1598 C 154.774 -2.23383 3.9983 0
M  V30 1599 N 156.265 -2.30756 4.01629 0
M  V30 1600 C 157 -2.75655 5.02794 0
M  V30 1601 N 156.496 -3.20225 6.14352 0
M  V30 1602 N 158.289 -2.75138 4.90159 0
M  V30 1603 H 150.44 -0.0435285 2.12355 0
M  V30 1604 H 152.703 -0.0818951 0.944456 0
M  V30 1605 H 152.409 -0.888832 3.40283 0
M  V30 1606 H 152.283 -2.53084 2.79693 0
M  V30 1607 H 154.67 -2.31617 1.8286 0
M  V30 1608 H 154.751 -0.668717 2.46904 0
M  V30 1609 H 154.395 -1.59043 4.82357 0
M  V30 1610 H 154.325 -3.23904 4.15203 0
M  V30 1611 H 156.816 -1.99291 3.21079 0
M  V30 1612 H 157.129 -3.53084 6.87424 0
M  V30 1613 H 155.474 -3.18156 6.17901 0
M  V30 1614 H 158.665 -2.39661 4.02095 0
M  V30 1615 H 158.838 -3.09812 5.6914 0
M  V30 1616 N 152.244 -1.26651 -0.937939 0
M  V30 1617 C 153.154 -1.10276 -2.07066 0
M  V30 1618 C 154.17 -0.0354197 -1.73964 0
M  V30 1619 O 155.346 -0.239816 -1.99967 0
M  V30 1620 C 152.411 -0.740887 -3.38691 0
M  V30 1621 C 151.472 -1.88799 -3.85556 0
M  V30 1622 C 150.705 -1.54329 -5.10899 0
M  V30 1623 O 150.928 -0.446494 -5.6865 0
M  V30 1624 O 149.862 -2.37911 -5.52885 0
M  V30 1625 H 153.688 -2.05309 -2.23789 0
M  V30 1626 H 151.273 -1.05743 -1.0554 0
M  V30 1627 H 153.155 -0.55195 -4.1777 0
M  V30 1628 H 151.83 0.180022 -3.23199 0
M  V30 1629 H 150.737 -2.13191 -3.07409 0
M  V30 1630 H 152.07 -2.78874 -4.05574 0
M  V30 1631 N 153.722 1.14298 -1.08507 0
M  V30 1632 C 154.95 1.89219 -0.836876 0
M  V30 1633 C 155.365 1.78638 0.611054 0
M  V30 1634 O 154.722 1.14643 1.41998 0
M  V30 1635 C 154.773 3.39158 -1.25116 0
M  V30 1636 O 154.494 3.49449 -2.64229 0
M  V30 1637 C 155.995 4.31073 -1.03398 0
M  V30 1638 H 153.215 0.599328 -0.301739 0
M  V30 1639 H 155.759 1.44746 -1.44461 0
M  V30 1640 H 153.914 3.81251 -0.687514 0
M  V30 1641 H 154.328 4.42589 -2.81452 0
M  V30 1642 H 155.802 5.34646 -1.37323 0
M  V30 1643 H 156.279 4.3919 0.0289259 0
M  V30 1644 H 156.885 3.94738 -1.58311 0
M  V30 1645 N 155.201 0.870884 1.31352 0
M  V30 1646 C 156.612 0.534714 1.78879 0
M  V30 1647 C 156.963 -0.948423 1.71754 0
M  V30 1648 O 156.088 -1.74055 1.28584 0
M  V30 1649 C 156.683 0.963839 3.24801 0
M  V30 1650 C 155.242 0.679311 3.70219 0
M  V30 1651 C 154.389 1.15465 2.52117 0
M  V30 1652 H 157.34 1.05651 1.18421 0
M  V30 1653 H 157.361 0.286892 3.79417 0
M  V30 1654 H 156.873 2.04332 3.29955 0
M  V30 1655 H 154.974 -0.388769 3.70566 0
M  V30 1656 H 155.087 1.25698 4.62317 0
M  V30 1657 H 153.451 0.574383 2.48139 0
M  V30 1658 H 154.234 2.24157 2.60016 0
M  V30 1659 N 156.679 -1.44442 0.630414 0
M  V30 1660 C 157.589 -2.34476 -0.0761693 0
M  V30 1661 C 158.605 -1.52576 -0.836449 0
M  V30 1662 O 159.781 -1.85307 -0.788874 0
M  V30 1663 C 156.846 -3.30545 -1.04599 0
M  V30 1664 C 155.907 -4.28352 -0.28516 0
M  V30 1665 C 155.14 -5.19831 -1.20878 0
M  V30 1666 O 155.363 -5.15223 -2.44747 0
M  V30 1667 O 154.297 -5.97892 -0.693491 0
M  V30 1668 H 158.123 -2.96345 0.664324 0
M  V30 1669 H 155.708 -1.44203 0.39061 0
M  V30 1670 H 157.59 -3.89681 -1.60396 0
M  V30 1671 H 156.265 -2.7121 -1.76711 0
M  V30 1672 H 155.172 -3.72764 0.315837 0
M  V30 1673 H 156.505 -4.90605 0.395924 0
M  V30 1674 N 158.157 -0.370918 -1.53173 0
M  V30 1675 C 159.405 0.216673 -2.00935 0
M  V30 1676 C 159.726 1.48845 -1.25977 0
M  V30 1677 O 158.996 1.92286 -0.374551 0
M  V30 1678 H 157.576 0.0830565 -0.742368 0
M  V30 1679 H 160.238 -0.49838 -1.8842 0
M  V30 1680 H 159.334 0.439893 -3.08984 0
M  V30 1681 N 159.635 1.57281 -0.100228 0
M  V30 1682 C 160.598 2.13158 0.842398 0
M  V30 1683 C 161.598 1.06202 1.20738 0
M  V30 1684 O 162.788 1.32066 1.13597 0
M  V30 1685 C 159.92 2.65639 2.13655 0
M  V30 1686 H 161.113 2.97766 0.357114 0
M  V30 1687 H 158.666 1.5559 0.148823 0
M  V30 1688 H 159.401 1.84566 2.66657 0
M  V30 1689 H 159.186 3.43844 1.88451 0
M  V30 1690 H 160.676 3.08846 2.81077 0
M  V30 1691 N 161.113 -0.173488 1.56642 0
M  V30 1692 C 162.023 -1.23482 1.99473 0
M  V30 1693 C 163.039 -1.48567 0.905752 0
M  V30 1694 O 164.215 -1.60758 1.21321 0
M  V30 1695 C 161.28 -2.55444 2.34413 0
M  V30 1696 C 160.341 -2.38241 3.57127 0
M  V30 1697 C 159.574 -3.63909 3.90392 0
M  V30 1698 O 159.797 -4.68996 3.24653 0
M  V30 1699 O 158.731 -3.58149 4.83749 0
M  V30 1700 H 162.557 -0.901279 2.90018 0
M  V30 1701 H 160.142 -0.380185 1.44482 0
M  V30 1702 H 162.024 -3.33292 2.57865 0
M  V30 1703 H 160.699 -2.88382 1.4703 0
M  V30 1704 H 159.606 -1.58431 3.38896 0
M  V30 1705 H 160.939 -2.10228 4.45045 0
M  V30 1706 N 162.591 -1.51276 -0.441967 0
M  V30 1707 C 163.554 -1.7167 -1.51862 0
M  V30 1708 C 164.554 -0.586793 -1.49711 0
M  V30 1709 O 165.744 -0.854276 -1.51815 0
M  V30 1710 C 162.876 -1.76889 -2.91416 0
M  V30 1711 H 164.069 -2.67754 -1.35084 0
M  V30 1712 H 161.622 -1.41196 -0.670333 0
M  V30 1713 H 162.357 -0.826026 -3.13604 0
M  V30 1714 H 162.142 -2.59001 -2.94382 0
M  V30 1715 H 163.632 -1.94522 -3.69528 0
M  V30 1716 N 164.069 0.697108 -1.41344 0
M  V30 1717 C 165.016 1.81106 -1.43071 0
M  V30 1718 C 165.986 1.63632 -0.285275 0
M  V30 1719 O 167.171 1.84504 -0.486091 0
M  V30 1720 C 164.311 3.18975 -1.31715 0
M  V30 1721 C 163.424 3.47892 -2.56115 0
M  V30 1722 C 162.559 4.75367 -2.37064 0
M  V30 1723 C 161.598 4.97247 -3.56948 0
M  V30 1724 N 160.735 6.15947 -3.36977 0
M  V30 1725 H 165.575 1.78965 -2.38276 0
M  V30 1726 H 163.112 0.873975 -1.18322 0
M  V30 1727 H 165.07 3.98615 -1.23133 0
M  V30 1728 H 163.7 3.20297 -0.401183 0
M  V30 1729 H 162.752 2.62669 -2.75153 0
M  V30 1730 H 164.064 3.59962 -3.45295 0
M  V30 1731 H 163.218 5.63059 -2.25941 0
M  V30 1732 H 161.957 4.65541 -1.45338 0
M  V30 1733 H 160.962 4.08004 -3.68527 0
M  V30 1734 H 162.187 5.08934 -4.49626 0
M  V30 1735 H 160.133 6.07336 -2.47949 0
M  V30 1736 H 160.05 6.28777 -4.19732 0
M  V30 1737 H 161.318 7.06377 -3.29623 0
M  V30 1738 N 165.547 1.27147 0.931209 0
M  V30 1739 C 166.958 1.12044 1.49342 0
M  V30 1740 C 167.309 -0.295795 1.93957 0
M  V30 1741 O 166.434 -1.18835 1.80852 0
M  V30 1742 C 167.029 2.02781 2.71414 0
M  V30 1743 C 165.588 1.91794 3.2387 0
M  V30 1744 C 164.735 1.95543 1.96617 0
M  V30 1745 H 167.686 1.40091 0.745672 0
M  V30 1746 H 167.707 1.58156 3.46074 0
M  V30 1747 H 167.219 3.05848 2.38911 0
M  V30 1748 H 165.32 0.916992 3.6114 0
M  V30 1749 H 165.433 2.77852 3.90302 0
M  V30 1750 H 163.797 1.39722 2.12955 0
M  V30 1751 H 164.58 3.00259 1.66432 0
M  V30 1752 N 167.025 -1.13721 1.09112 0
M  V30 1753 C 168.271 -1.85413 0.836283 0
M  V30 1754 C 168.626 -1.8175 -0.631249 0
M  V30 1755 O 167.919 -1.24238 -1.45861 0
M  V30 1756 C 168.113 -3.32861 1.30146 0
M  V30 1757 C 167.942 -3.50882 2.81268 0
M  V30 1758 C 166.712 -3.65312 3.49106 0
M  V30 1759 C 168.91 -3.47196 3.7942 0
M  V30 1760 N 166.892 -3.71563 4.88686 0
M  V30 1761 C 168.263 -3.59777 5.04936 0
M  V30 1762 C 170.318 -3.30577 3.72321 0
M  V30 1763 C 169.021 -3.57455 6.24194 0
M  V30 1764 C 171.047 -3.29562 4.91063 0
M  V30 1765 C 170.409 -3.42691 6.15421 0
M  V30 1766 H 166.508 -0.694812 0.358832 0
M  V30 1767 H 169.092 -1.36246 1.39087 0
M  V30 1768 H 167.263 -3.80602 0.774361 0
M  V30 1769 H 168.995 -3.92346 0.99229 0
M  V30 1770 H 165.75 -3.6685 2.9953 0
M  V30 1771 H 166.174 -3.78387 5.61384 0
M  V30 1772 H 170.816 -3.19332 2.77105 0
M  V30 1773 H 168.534 -3.67475 7.19714 0
M  V30 1774 H 172.12 -3.17905 4.87266 0
M  V30 1775 H 171 -3.41862 7.05762 0
M  V30 1776 N 168.503 -0.877838 -1.30888 0
M  V30 1777 C 169.733 -0.506678 -2.00291 0
M  V30 1778 C 170.141 0.907449 -1.66018 0
M  V30 1779 O 169.484 1.60719 -0.88967 0
M  V30 1780 C 169.546 -0.59323 -3.54572 0
M  V30 1781 C 169.21 -1.97038 -4.12341 0
M  V30 1782 C 170.207 -2.93889 -4.28865 0
M  V30 1783 C 167.892 -2.27383 -4.47886 0
M  V30 1784 C 169.886 -4.19224 -4.80136 0
M  V30 1785 C 167.573 -3.52965 -4.98857 0
M  V30 1786 C 168.571 -4.48701 -5.14934 0
M  V30 1787 O 168.259 -5.72056 -5.64808 0
M  V30 1788 H 167.991 -0.1951 -0.647234 0
M  V30 1789 H 170.545 -1.18301 -1.6791 0
M  V30 1790 H 168.775 0.140057 -3.86446 0
M  V30 1791 H 170.464 -0.234372 -4.05223 0
M  V30 1792 H 171.23 -2.71756 -4.01714 0
M  V30 1793 H 167.109 -1.53639 -4.34645 0
M  V30 1794 H 170.653 -4.93956 -4.92599 0
M  V30 1795 H 166.55 -3.74939 -5.25443 0
M  V30 1796 H 167.318 -5.74337 -5.83163 0
M  V30 1797 N 169.982 1.44106 -0.638065 0
M  V30 1798 C 170.892 2.34513 0.0637334 0
M  V30 1799 C 171.908 1.53018 0.828346 0
M  V30 1800 O 173.084 1.85723 0.779036 0
M  V30 1801 C 170.149 3.31095 1.02844 0
M  V30 1802 C 169.21 4.28497 0.26244 0
M  V30 1803 C 168.443 5.20465 1.1812 0
M  V30 1804 O 168.666 5.16514 2.42011 0
M  V30 1805 O 167.6 5.98251 0.661774 0
M  V30 1806 H 171.426 2.95989 -0.68003 0
M  V30 1807 H 169.011 1.43994 -0.398252 0
M  V30 1808 H 170.893 3.90526 1.58327 0
M  V30 1809 H 169.568 2.72144 1.7527 0
M  V30 1810 H 168.475 3.72592 -0.335602 0
M  V30 1811 H 169.808 4.90388 -0.421936 0
M  V30 1812 N 171.46 0.379036 1.52974 0
M  V30 1813 C 172.871 -0.0972525 1.86447 0
M  V30 1814 C 173.222 -1.47027 1.29914 0
M  V30 1815 O 172.347 -2.07135 0.626433 0
M  V30 1816 C 172.942 -0.183248 3.38304 0
M  V30 1817 C 171.501 -0.603812 3.71525 0
M  V30 1818 C 170.648 0.240632 2.76254 0
M  V30 1819 H 173.599 0.597316 1.4703 0
M  V30 1820 H 173.62 -1.00432 3.67006 0
M  V30 1821 H 173.132 0.816191 3.79421 0
M  V30 1822 H 171.233 -1.61099 3.35973 0
M  V30 1823 H 171.346 -0.369086 4.77676 0
M  V30 1824 H 169.71 -0.292548 2.53014 0
M  V30 1825 H 170.493 1.23786 3.20206 0
M  V30 1826 N 172.938 -1.57226 0.108567 0
M  V30 1827 C 174.187 -1.94008 -0.551703 0
M  V30 1828 C 174.5 -0.993442 -1.68494 0
M  V30 1829 O 175.706 -1.25551 -2.40726 0
M  V30 1830 C 174.162 -3.44763 -1.03279 0
M  V30 1831 C 173.77 -4.47943 0.0714193 0
M  V30 1832 C 175.514 -3.90483 -1.66503 0
M  V30 1833 C 173.421 -5.89865 -0.425779 0
M  V30 1834 H 172.351 -0.724206 -0.209863 0
M  V30 1835 H 175.002 -1.82547 0.186741 0
M  V30 1836 H 173.384 -3.51422 -1.82533 0
M  V30 1837 H 174.558 -4.52942 0.847365 0
M  V30 1838 H 172.873 -4.11913 0.609669 0
M  V30 1839 H 175.47 -4.93925 -2.04798 0
M  V30 1840 H 175.813 -3.29877 -2.53942 0
M  V30 1841 H 176.346 -3.86581 -0.938074 0
M  V30 1842 H 173.085 -6.54202 0.412316 0
M  V30 1843 H 172.605 -5.88309 -1.16843 0
M  V30 1844 H 174.284 -6.40844 -0.890397 0
M  V30 1845 N 174.416 0.165178 -1.56732 0
M  V30 1846 C 175.646 0.894919 -1.86212 0
M  V30 1847 C 176.054 1.76066 -0.692627 0
M  V30 1848 O 175.397 1.80387 0.347303 0
M  V30 1849 C 175.459 1.8174 -3.10179 0
M  V30 1850 C 175.123 1.13064 -4.42793 0
M  V30 1851 C 176.12 0.493169 -5.17556 0
M  V30 1852 C 173.805 1.12556 -4.89527 0
M  V30 1853 C 175.799 -0.140209 -6.37246 0
M  V30 1854 C 173.486 0.488366 -6.09145 0
M  V30 1855 C 174.484 -0.143411 -6.82849 0
M  V30 1856 O 174.172 -0.77055 -8.00199 0
M  V30 1857 H 173.904 0.265114 -0.621844 0
M  V30 1858 H 176.458 0.168242 -2.0471 0
M  V30 1859 H 174.688 2.58455 -2.87642 0
M  V30 1860 H 176.377 2.4175 -3.26055 0
M  V30 1861 H 177.143 0.489023 -4.82528 0
M  V30 1862 H 173.022 1.60672 -4.32094 0
M  V30 1863 H 176.566 -0.633932 -6.94714 0
M  V30 1864 H 172.463 0.490116 -6.43637 0
M  V30 1865 H 173.231 -0.670408 -8.1575 0
M  V30 1866 N 175.894 1.51508 0.433938 0
M  V30 1867 C 176.824 1.76016 1.53429 0
M  V30 1868 C 177.805 0.610112 1.58782 0
M  V30 1869 O 178.99 0.853177 1.74455 0
M  V30 1870 C 176.12 1.88831 2.9148 0
M  V30 1871 C 175.074 3.04288 3.00987 0
M  V30 1872 C 174.4 3.0229 4.4105 0
M  V30 1873 C 175.7 4.44193 2.74754 0
M  V30 1874 H 177.394 2.68152 1.33171 0
M  V30 1875 H 174.94 1.29035 0.639214 0
M  V30 1876 H 176.893 2.04559 3.6842 0
M  V30 1877 H 175.617 0.933455 3.12976 0
M  V30 1878 H 174.276 2.8827 2.26486 0
M  V30 1879 H 173.924 2.04576 4.59519 0
M  V30 1880 H 173.624 3.79822 4.4834 0
M  V30 1881 H 175.148 3.20116 5.1996 0
M  V30 1882 H 176.562 4.60544 3.41426 0
M  V30 1883 H 174.959 5.23457 2.9345 0
M  V30 1884 H 176.029 4.53996 1.70339 0
M  V30 1885 N 177.372 -0.689602 1.41712 0
M  V30 1886 C 178.62 -1.4468 1.4111 0
M  V30 1887 C 178.941 -1.94986 0.0232196 0
M  V30 1888 O 178.211 -1.72097 -0.935913 0
M  V30 1889 H 176.791 -0.536847 0.519427 0
M  V30 1890 H 179.453 -0.815825 1.77004 0
M  V30 1891 H 178.549 -2.30706 2.10193 0
M  V30 1892 N 178.85 -1.27639 -0.924453 0
M  V30 1893 C 180.098 -1.13941 -1.66918 0
M  V30 1894 C 180.419 0.314589 -1.92446 0
M  V30 1895 O 179.689 1.21964 -1.53303 0
M  V30 1896 H 178.269 -0.418678 -0.618642 0
M  V30 1897 H 180.931 -1.60213 -1.10985 0
M  V30 1898 H 180.027 -1.67094 -2.63602 0
M  V30 1899 N 180.328 1.1314 -1.09713 0
M  V30 1900 C 181.574 1.84757 -0.836224 0
M  V30 1901 C 181.907 1.8347 0.636598 0
M  V30 1902 O 181.182 1.27491 1.46889 0
M  V30 1903 C 181.465 3.32782 -1.37578 0
M  V30 1904 C 181.318 3.42567 -2.91493 0
M  V30 1905 C 182.637 4.28307 -1.01198 0
M  V30 1906 H 179.756 0.67082 -0.305236 0
M  V30 1907 H 182.398 1.3278 -1.35903 0
M  V30 1908 H 180.548 3.77177 -0.931097 0
M  V30 1909 H 182.22 3.06862 -3.44432 0
M  V30 1910 H 180.463 2.83349 -3.28475 0
M  V30 1911 H 181.134 4.46674 -3.24324 0
M  V30 1912 H 183.61 3.91999 -1.39556 0
M  V30 1913 H 182.486 5.30307 -1.41653 0
M  V30 1914 H 182.747 4.42029 0.0794833 0
M  V30 1915 N 181.806 0.884767 1.30421 0
M  V30 1916 C 183.053 0.503105 1.96151 0
M  V30 1917 C 183.381 -0.947676 1.69851 0
M  V30 1918 O 182.636 -1.68467 0.995861 0
M  V30 1919 C 182.935 0.724318 3.49983 0
M  V30 1920 C 182.601 2.15015 3.96332 0
M  V30 1921 C 181.263 2.54005 4.08699 0
M  V30 1922 C 183.615 3.07936 4.20505 0
M  V30 1923 C 180.943 3.85128 4.42599 0
M  V30 1924 C 183.295 4.3859 4.55874 0
M  V30 1925 C 181.959 4.77474 4.66449 0
M  V30 1926 H 181.229 0.184099 0.717766 0
M  V30 1927 H 183.876 1.12058 1.55291 0
M  V30 1928 H 182.181 0.0238086 3.91793 0
M  V30 1929 H 183.878 0.408617 3.98913 0
M  V30 1930 H 180.468 1.8375 3.87213 0
M  V30 1931 H 184.652 2.79033 4.10431 0
M  V30 1932 H 179.908 4.14996 4.48986 0
M  V30 1933 H 184.082 5.10629 4.7353 0
M  V30 1934 H 181.709 5.79115 4.92473 0
M  V30 1935 N 183.284 -1.43765 0.645699 0
M  V30 1936 C 184.216 -2.29027 -0.0890605 0
M  V30 1937 C 185.229 -1.42093 -0.794563 0
M  V30 1938 O 186.418 -1.66104 -0.653575 0
M  V30 1939 C 183.518 -3.18831 -1.14891 0
M  V30 1940 C 182.691 -4.34261 -0.523043 0
M  V30 1941 C 181.75 -5.04994 -1.47878 0
M  V30 1942 O 180.776 -5.6052 -0.990277 0
M  V30 1943 N 181.978 -5.07795 -2.81291 0
M  V30 1944 H 184.743 -2.92727 0.64272 0
M  V30 1945 H 182.304 -1.54373 0.487924 0
M  V30 1946 H 184.296 -3.63015 -1.78892 0
M  V30 1947 H 182.866 -2.56782 -1.78275 0
M  V30 1948 H 182.086 -3.93088 0.295896 0
M  V30 1949 H 183.374 -5.08728 -0.0858147 0
M  V30 1950 H 182.772 -4.64042 -3.23546 0
M  V30 1951 H 181.329 -5.55721 -3.40614 0
M  V30 1952 N 184.763 -0.387143 -1.52771 0
M  V30 1953 C 185.693 0.440551 -2.29306 0
M  V30 1954 C 186.674 1.06535 -1.32606 0
M  V30 1955 O 187.859 1.07853 -1.61497 0
M  V30 1956 C 184.989 1.56919 -3.09829 0
M  V30 1957 C 183.943 1.07054 -4.14395 0
M  V30 1958 C 183.269 2.29109 -4.83129 0
M  V30 1959 C 184.569 0.140015 -5.22112 0
M  V30 1960 H 186.263 -0.198026 -2.98744 0
M  V30 1961 H 183.809 -0.09668 -1.43675 0
M  V30 1962 H 185.762 2.15503 -3.62128 0
M  V30 1963 H 184.486 2.23532 -2.3812 0
M  V30 1964 H 183.145 0.507247 -3.63074 0
M  V30 1965 H 182.793 2.94227 -4.0797 0
M  V30 1966 H 182.493 1.96406 -5.53804 0
M  V30 1967 H 184.017 2.88339 -5.38231 0
M  V30 1968 H 185.431 0.633978 -5.69784 0
M  V30 1969 H 183.828 -0.0971485 -6.00021 0
M  V30 1970 H 184.898 -0.811711 -4.78058 0
M  V30 1971 N 186.241 1.57166 -0.116904 0
M  V30 1972 C 187.151 2.18745 0.847812 0
M  V30 1973 C 188.167 1.163 1.29423 0
M  V30 1974 O 189.343 1.48761 1.35765 0
M  V30 1975 C 186.408 2.77307 2.0809 0
M  V30 1976 C 185.469 3.94781 1.68661 0
M  V30 1977 C 184.702 4.50541 2.86091 0
M  V30 1978 O 184.925 4.05202 4.01456 0
M  V30 1979 O 183.859 5.41256 2.63298 0
M  V30 1980 H 187.685 3.01632 0.353778 0
M  V30 1981 H 185.27 1.49005 0.108599 0
M  V30 1982 H 187.152 3.14647 2.80313 0
M  V30 1983 H 185.827 1.97452 2.56504 0
M  V30 1984 H 184.734 3.62214 0.935518 0
M  V30 1985 H 186.067 4.76065 1.24991 0
M  V30 1986 N 187.719 -0.156864 1.56817 0
M  V30 1987 C 188.666 -1.19394 1.97519 0
M  V30 1988 C 189.636 -1.4322 0.841265 0
M  V30 1989 O 190.821 -1.55719 1.10255 0
M  V30 1990 C 187.961 -2.52483 2.35258 0
M  V30 1991 C 187.074 -2.35914 3.61896 0
M  V30 1992 C 186.209 -3.61969 3.88782 0
M  V30 1993 C 185.248 -3.40395 5.08722 0
M  V30 1994 N 184.385 -4.58556 5.31668 0
M  V30 1995 H 189.225 -0.839845 2.85921 0
M  V30 1996 H 186.762 -0.403264 1.41464 0
M  V30 1997 H 188.72 -3.30071 2.55165 0
M  V30 1998 H 187.35 -2.85859 1.49949 0
M  V30 1999 H 186.402 -1.49429 3.49821 0
M  V30 2000 H 187.714 -2.15926 4.49641 0
M  V30 2001 H 186.868 -4.47989 4.09135 0
M  V30 2002 H 185.607 -3.84951 2.9944 0
M  V30 2003 H 184.612 -2.52763 4.88253 0
M  V30 2004 H 185.837 -3.18822 5.99608 0
M  V30 2005 H 183.783 -4.81729 4.45279 0
M  V30 2006 H 183.7 -4.41535 6.13664 0
M  V30 2007 H 184.968 -5.45817 5.5651 0
M  V30 2008 N 189.197 -1.51736 -0.425897 0
M  V30 2009 C 190.445 -1.64644 -1.17204 0
M  V30 2010 C 190.766 -0.370486 -1.91448 0
M  V30 2011 O 190.036 0.614088 -1.86026 0
M  V30 2012 H 188.616 -0.606819 -0.435638 0
M  V30 2013 H 191.278 -1.88713 -0.487177 0
M  V30 2014 H 190.374 -2.47958 -1.89534 0
M  V30 2015 N 190.675 0.682077 -1.42076 0
M  V30 2016 C 191.952 1.43755 -1.32642 0
M  V30 2017 C 192.332 2.11063 0.0396611 0
M  V30 2018 O 191.68 2.02701 1.05474 0
M  V30 2019 C 191.89 2.44596 -2.48946 0
M  V30 2020 C 193.238 3.09454 -2.9073 0
M  V30 2021 O 194.262 2.54922 -2.48783 0
M  V30 2022 O 193.121 4.08253 -3.63307 0
M  V30 2023 H 190.215 0.640857 -0.522715 0
M  V30 2024 H 192.761 0.711415 -1.54068 0
M  V30 2025 H 191.533 1.93609 -3.40046 0
M  V30 2026 H 191.156 3.24701 -2.29467 0
M  V30 2027 N 192.153 1.28127 0.917671 0
M  V30 2028 C 193.569 1.05749 1.19538 0
M  V30 2029 C 193.769 -0.202633 2.00479 0
M  V30 2030 O 192.825 -0.905382 2.3571 0
M  V30 2031 C 194.138 2.30273 1.93378 0
M  V30 2032 C 195.686 2.35412 2.06277 0
M  V30 2033 C 196.161 3.59692 2.83524 0
M  V30 2034 N 197.652 3.60309 2.91087 0
M  V30 2035 C 198.387 4.53147 3.51348 0
M  V30 2036 N 197.883 5.563 4.12919 0
M  V30 2037 N 199.676 4.40751 3.48849 0
M  V30 2038 H 191.827 2.09024 0.377184 0
M  V30 2039 H 194.09 0.919798 0.22951 0
M  V30 2040 H 193.796 3.22055 1.41328 0
M  V30 2041 H 193.67 2.36378 2.93947 0
M  V30 2042 H 196.057 1.4413 2.57508 0
M  V30 2043 H 196.138 2.33304 1.04895 0
M  V30 2044 H 195.782 4.51316 2.32973 0
M  V30 2045 H 195.712 3.59054 3.85211 0
M  V30 2046 H 198.203 2.85714 2.47338 0
M  V30 2047 H 198.516 6.2329 4.56869 0
M  V30 2048 H 196.861 5.60131 4.11435 0
M  V30 2049 H 200.052 3.59367 2.99955 0
M  V30 2050 H 200.225 5.13291 3.9552 0
M  V30 2051 N 193.631 -1.12557 1.10312 0
M  V30 2052 C 194.561 -2.20341 0.772798 0
M  V30 2053 C 195.542 -1.68198 -0.25365 0
M  V30 2054 O 196.727 -1.93831 -0.119699 0
M  V30 2055 C 193.857 -3.46709 0.202443 0
M  V30 2056 C 192.811 -4.11996 1.15943 0
M  V30 2057 C 192.137 -5.328 0.450345 0
M  V30 2058 C 193.437 -4.5828 2.50552 0
M  V30 2059 H 195.131 -2.48229 1.674 0
M  V30 2060 H 192.677 -1.19308 0.806326 0
M  V30 2061 H 194.63 -4.2138 -0.0407752 0
M  V30 2062 H 193.354 -3.18245 -0.734001 0
M  V30 2063 H 192.013 -3.39305 1.38808 0
M  V30 2064 H 191.661 -5.00602 -0.490531 0
M  V30 2065 H 191.361 -5.7743 1.08851 0
M  V30 2066 H 192.885 -6.10219 0.215642 0
M  V30 2067 H 194.299 -5.2433 2.31843 0
M  V30 2068 H 192.696 -5.13683 3.10242 0
M  V30 2069 H 193.766 -3.72329 3.10643 0
M  V30 2070 N 195.109 -0.891671 -1.2995 0
M  V30 2071 C 196.334 -0.527932 -2.00568 0
M  V30 2072 C 196.759 0.877969 -1.66353 0
M  V30 2073 O 196.117 1.58301 -0.883762 0
M  V30 2074 C 196.165 -0.717745 -3.53385 0
M  V30 2075 O 195.269 0.233376 -4.11739 0
M  V30 2076 H 194.61 -0.20722 -0.630837 0
M  V30 2077 H 197.14 -1.20105 -1.65638 0
M  V30 2078 H 197.15 -0.619307 -4.03272 0
M  V30 2079 H 195.825 -1.74276 -3.77625 0
M  V30 2080 H 194.402 0.0880706 -3.72796 0
M  V30 2081 N 196.587 1.43421 -0.653314 0
M  V30 2082 C 197.55 2.29182 0.0287951 0
M  V30 2083 C 198.55 1.42213 0.750465 0
M  V30 2084 O 199.74 1.63843 0.591701 0
M  V30 2085 C 196.872 3.24278 1.05151 0
M  V30 2086 H 198.065 2.90985 -0.725786 0
M  V30 2087 H 195.618 1.50702 -0.414545 0
M  V30 2088 H 196.353 2.6737 1.83532 0
M  V30 2089 H 196.138 3.88396 0.537687 0
M  V30 2090 H 197.628 3.88647 1.52786 0
M  V30 2091 N 198.065 0.39524 1.52563 0
M  V30 2092 C 198.975 -0.444232 2.30356 0
M  V30 2093 C 199.991 -1.06615 1.37511 0
M  V30 2094 O 201.167 -1.07067 1.70583 0
M  V30 2095 C 198.232 -1.55315 3.09964 0
M  V30 2096 C 197.293 -0.955734 4.18526 0
M  V30 2097 C 196.526 -2.01181 4.9433 0
M  V30 2098 O 196.749 -3.22781 4.70285 0
M  V30 2099 O 195.683 -1.62579 5.79527 0
M  V30 2100 H 199.509 0.189667 3.03107 0
M  V30 2101 H 197.094 0.1588 1.48554 0
M  V30 2102 H 198.976 -2.19724 3.59582 0
M  V30 2103 H 197.651 -2.17191 2.4002 0
M  V30 2104 H 196.558 -0.274743 3.7309 0
M  V30 2105 H 197.891 -0.381109 4.90722 0
M  V30 2106 N 199.544 -1.57102 0.125237 0
M  V30 2107 C 200.793 -1.94582 -0.531095 0
M  V30 2108 C 201.106 -1.01126 -1.6743 0
M  V30 2109 O 202.312 -1.28097 -2.39381 0
M  V30 2110 C 200.768 -3.45839 -0.996164 0
M  V30 2111 C 200.376 -4.47842 0.118926 0
M  V30 2112 C 202.12 -3.92227 -1.62352 0
M  V30 2113 C 200.027 -5.90284 -0.363192 0
M  V30 2114 H 198.957 -0.726391 -0.20217 0
M  V30 2115 H 201.608 -1.82339 0.206092 0
M  V30 2116 H 199.99 -3.53338 -1.78796 0
M  V30 2117 H 201.164 -4.52018 0.895358 0
M  V30 2118 H 199.479 -4.11243 0.653324 0
M  V30 2119 H 202.076 -4.96069 -1.99548 0
M  V30 2120 H 202.419 -3.32552 -2.50429 0
M  V30 2121 H 202.952 -3.87554 -0.897019 0
M  V30 2122 H 199.691 -6.53728 0.481679 0
M  V30 2123 H 199.211 -5.89515 -1.10597 0
M  V30 2124 H 200.89 -6.41752 -0.822377 0
M  V30 2125 N 201.022 0.148545 -1.56898 0
M  V30 2126 C 201.97 1.20265 -1.99096 0
M  V30 2127 C 202.964 1.44559 -0.883123 0
M  V30 2128 O 204.17 1.4487 -1.0683 0
M  V30 2129 H 200.545 0.404786 -0.63376 0
M  V30 2130 H 202.516 0.82004 -2.86911 0
M  V30 2131 C 201.265 2.52886 -2.3863 0
M  V30 2132 H 200.588 2.35021 -3.23427 0
M  V30 2133 H 202.028 3.25274 -2.7198 0
M  V30 2134 C 200.487 3.13315 -1.23837 0
M  V30 2135 O 201.017 3.98077 -0.538268 0
M  V30 2136 N 199.223 2.72742 -1.00301 0
M  V30 2137 H 198.77 2.03912 -1.5741 0
M  V30 2138 H 198.728 3.13507 -0.236838 0
M  V30 2139 N 202.5 1.5196 0.417844 0
M  V30 2140 C 203.916 1.40569 0.755816 0
M  V30 2141 C 204.116 0.503316 1.95113 0
M  V30 2142 O 203.172 -0.0341925 2.52477 0
M  V30 2143 C 204.485 2.82947 1.01791 0
M  V30 2144 C 206.033 2.92231 1.12116 0
M  V30 2145 C 206.508 4.35559 1.41608 0
M  V30 2146 N 207.999 4.38753 1.48491 0
M  V30 2147 C 208.734 5.46705 1.7292 0
M  V30 2148 N 208.23 6.64788 1.95011 0
M  V30 2149 N 210.023 5.34209 1.74863 0
M  V30 2150 H 202.174 2.09168 -0.369098 0
M  V30 2151 H 204.437 0.942409 -0.102809 0
M  V30 2152 H 204.143 3.5106 0.212081 0
M  V30 2153 H 204.017 3.23462 1.94042 0
M  V30 2154 H 206.404 2.24304 1.9176 0
M  V30 2155 H 206.485 2.55185 0.177225 0
M  V30 2156 H 206.129 5.04042 0.624848 0
M  V30 2157 H 206.059 4.70133 2.37239 0
M  V30 2158 H 208.55 3.5363 1.33244 0
M  V30 2159 H 208.863 7.42845 2.13076 0
M  V30 2160 H 207.208 6.67869 1.92293 0
M  V30 2161 H 210.399 4.40937 1.57137 0
M  V30 2162 H 210.572 6.18415 1.93563 0
M  V30 2163 N 203.978 -0.674533 1.42435 0
M  V30 2164 C 205.389 -1.25514 1.38214 0
M  V30 2165 C 205.74 -1.96055 0.0755464 0
M  V30 2166 O 204.865 -2.00028 -0.8257 0
M  V30 2167 C 205.46 -2.28269 2.50357 0
M  V30 2168 C 204.019 -2.81856 2.49467 0
M  V30 2169 C 203.166 -1.56182 2.29134 0
M  V30 2170 H 206.117 -0.467902 1.51646 0
M  V30 2171 H 206.138 -3.10009 2.20624 0
M  V30 2172 H 205.65 -1.769 3.45439 0
M  V30 2173 H 203.751 -3.37346 1.58204 0
M  V30 2174 H 203.864 -3.30854 3.46515 0
M  V30 2175 H 202.228 -1.82761 1.774 0
M  V30 2176 H 203.011 -1.06778 3.26272 0
M  V30 2177 N 205.456 -1.28612 -0.910864 0
M  V30 2178 C 206.733 -1.06632 -1.63979 0
M  V30 2179 C 207.113 0.393351 -2.07403 0
M  V30 2180 O 206.461 1.37999 -1.82122 0
M  V30 2181 C 206.671 -2.0436 -2.8291 0
M  V30 2182 C 208.019 -2.34666 -3.5386 0
M  V30 2183 O 209.043 -2.02467 -2.93062 0
M  V30 2184 O 207.902 -2.89631 -4.63439 0
M  V30 2185 H 204.996 -0.407737 -0.7195 0
M  V30 2186 H 207.542 -1.39942 -0.959914 0
M  V30 2187 H 206.314 -3.02727 -2.47936 0
M  V30 2188 H 205.937 -1.71714 -3.58609 0
M  V30 2189 N 206.934 1.1197 -1.10907 0
M  V30 2190 C 208.164 1.8713 -0.875553 0
M  V30 2191 C 208.572 1.8016 0.577843 0
M  V30 2192 O 207.915 1.17699 1.41042 0
M  V30 2193 C 207.977 3.37005 -1.2517 0
M  V30 2194 C 207.641 3.67748 -2.71313 0
M  V30 2195 C 208.638 3.65698 -3.69542 0
M  V30 2196 C 206.323 3.96928 -3.07821 0
M  V30 2197 C 208.317 3.92395 -5.023 0
M  V30 2198 C 206.004 4.23284 -4.40765 0
M  V30 2199 C 207.002 4.21005 -5.37814 0
M  V30 2200 O 206.69 4.46704 -6.68364 0
M  V30 2201 H 206.422 0.598786 -0.313737 0
M  V30 2202 H 208.976 1.42568 -1.47863 0
M  V30 2203 H 207.206 3.82146 -0.591741 0
M  V30 2204 H 208.895 3.93519 -0.994877 0
M  V30 2205 H 209.661 3.43211 -3.42682 0
M  V30 2206 H 205.54 3.97841 -2.32902 0
M  V30 2207 H 209.084 3.90531 -5.78041 0
M  V30 2208 H 204.981 4.45246 -4.67361 0
M  V30 2209 H 205.749 4.64299 -6.74069 0
M  V30 2210 N 208.412 0.89855 1.29475 0
M  V30 2211 C 209.342 0.39201 2.30186 0
M  V30 2212 C 210.323 -0.532359 1.61555 0
M  V30 2213 O 211.508 -0.443331 1.89072 0
M  V30 2214 C 208.638 -0.382353 3.45189 0
M  V30 2215 C 207.592 0.451483 4.25612 0
M  V30 2216 C 206.918 -0.450307 5.328 0
M  V30 2217 C 208.218 1.70079 4.93832 0
M  V30 2218 H 209.912 1.23362 2.72804 0
M  V30 2219 H 207.458 0.594638 1.31149 0
M  V30 2220 H 209.411 -0.747451 4.14718 0
M  V30 2221 H 208.135 -1.25774 3.01411 0
M  V30 2222 H 206.794 0.798897 3.57789 0
M  V30 2223 H 206.442 -1.32379 4.85268 0
M  V30 2224 H 206.142 0.103902 5.87508 0
M  V30 2225 H 207.666 -0.811623 6.05182 0
M  V30 2226 H 209.08 1.40549 5.55805 0
M  V30 2227 H 207.477 2.19623 5.58467 0
M  V30 2228 H 208.547 2.43744 4.19186 0
M  V30 2229 N 209.89 -1.43072 0.660911 0
M  V30 2230 C 211.167 -1.95307 0.107017 0
M  V30 2231 C 211.547 -1.60192 -1.37484 0
M  V30 2232 O 210.895 -0.890949 -2.10415 0
M  V30 2233 C 211.105 -3.47124 0.361402 0
M  V30 2234 C 212.453 -4.23738 0.270455 0
M  V30 2235 O 213.477 -3.54981 0.294382 0
M  V30 2236 O 212.336 -5.46131 0.200737 0
M  V30 2237 H 209.43 -0.826984 -0.00517729 0
M  V30 2238 H 211.976 -1.52972 0.734681 0
M  V30 2239 H 210.748 -3.65837 1.38848 0
M  V30 2240 H 210.371 -3.96475 -0.298953 0
M  V30 2241 N 211.368 -0.403325 -1.52352 0
M  V30 2242 C 212.615 0.174347 -2.01748 0
M  V30 2243 C 212.943 1.45636 -1.2892 0
M  V30 2244 O 212.198 1.9193 -0.382258 0
M  V30 2245 C 212.497 0.474665 -3.54234 0
M  V30 2246 C 212.163 -0.717458 -4.45155 0
M  V30 2247 C 210.825 -1.04447 -4.69728 0
M  V30 2248 C 213.177 -1.51432 -4.98716 0
M  V30 2249 C 210.505 -2.16963 -5.45109 0
M  V30 2250 C 212.857 -2.6302 -5.75329 0
M  V30 2251 C 211.521 -2.96213 -5.98175 0
M  V30 2252 H 210.791 0.0637981 -0.738248 0
M  V30 2253 H 213.438 -0.543553 -1.83624 0
M  V30 2254 H 211.743 1.27406 -3.70506 0
M  V30 2255 H 213.44 0.934496 -3.89959 0
M  V30 2256 H 210.03 -0.452596 -4.26204 0
M  V30 2257 H 214.214 -1.27491 -4.79645 0
M  V30 2258 H 209.47 -2.43034 -5.61021 0
M  V30 2259 H 213.644 -3.25158 -6.15829 0
M  V30 2260 H 211.271 -3.83516 -6.56368 0
M  V30 2261 N 212.846 1.57033 -0.133567 0
M  V30 2262 C 213.809 2.14897 0.796995 0
M  V30 2263 C 214.809 1.0874 1.18458 0
M  V30 2264 O 215.999 1.34446 1.1077 0
M  V30 2265 C 213.131 2.70112 2.07973 0
M  V30 2266 H 214.324 2.98457 0.293873 0
M  V30 2267 H 211.877 1.55871 0.115787 0
M  V30 2268 H 212.612 1.9018 2.62682 0
M  V30 2269 H 212.397 3.47764 1.81115 0
M  V30 2270 H 213.887 3.14738 2.74462 0
M  V30 2271 N 214.325 -0.140222 1.56975 0
M  V30 2272 C 215.235 -1.19223 2.02047 0
M  V30 2273 C 216.251 -1.46612 0.937062 0
M  V30 2274 O 217.427 -1.58148 1.24704 0
M  V30 2275 C 214.492 -2.50414 2.39778 0
M  V30 2276 C 213.553 -2.30612 3.621 0
M  V30 2277 C 212.786 -3.55547 3.98023 0
M  V30 2278 O 213.009 -4.62004 3.34528 0
M  V30 2279 O 211.943 -3.47808 4.91237 0
M  V30 2280 H 215.769 -0.839559 2.91865 0
M  V30 2281 H 213.354 -0.349453 1.45256 0
M  V30 2282 H 215.236 -3.27747 2.64877 0
M  V30 2283 H 213.911 -2.85198 1.53114 0
M  V30 2284 H 212.818 -1.51207 3.4218 0
M  V30 2285 H 214.151 -2.00741 4.49404 0
M  V30 2286 N 215.803 -1.52179 -0.40978 0
M  V30 2287 C 217.028 -1.70347 -1.18308 0
M  V30 2288 C 217.453 -0.411887 -1.83535 0
M  V30 2289 O 216.811 0.630587 -1.6998 0
M  V30 2290 C 216.859 -2.83977 -2.22238 0
M  V30 2291 O 215.963 -2.495 -3.28365 0
M  V30 2292 H 215.304 -0.567103 -0.345384 0
M  V30 2293 H 217.834 -1.98879 -0.480445 0
M  V30 2294 H 217.844 -3.0887 -2.66577 0
M  V30 2295 H 216.519 -3.77685 -1.74146 0
M  V30 2296 H 215.096 -2.35277 -2.89308 0
M  V30 2297 N 217.281 0.66697 -1.42791 0
M  V30 2298 C 218.529 1.42417 -1.43394 0
M  V30 2299 C 218.85 1.94925 -0.0542373 0
M  V30 2300 O 218.12 1.73564 0.908415 0
M  V30 2301 H 216.7 0.528515 -0.527902 0
M  V30 2302 H 219.362 0.787562 -1.78279 0
M  V30 2303 H 218.458 2.27333 -2.13837 0
M  V30 2304 N 218.759 1.29093 0.90403 0
M  V30 2305 C 219.691 1.09658 2.01266 0
M  V30 2306 C 220.704 0.0453729 1.62737 0
M  V30 2307 O 221.893 0.289446 1.76138 0
M  V30 2308 C 218.993 0.646278 3.32681 0
M  V30 2309 C 218.166 1.77505 3.99763 0
M  V30 2310 C 217.225 1.31649 5.09465 0
M  V30 2311 O 216.251 2.02045 5.32134 0
M  V30 2312 N 217.453 0.184997 5.80205 0
M  V30 2313 H 220.218 2.05135 2.18494 0
M  V30 2314 H 217.779 1.20975 1.07594 0
M  V30 2315 H 219.771 0.322906 4.0341 0
M  V30 2316 H 218.341 -0.215916 3.11853 0
M  V30 2317 H 217.561 2.26752 3.22455 0
M  V30 2318 H 218.849 2.53198 4.41325 0
M  V30 2319 H 218.247 -0.402021 5.6427 0
M  V30 2320 H 216.804 -0.0790358 6.51752 0
M  V30 2321 N 220.237 -1.11381 1.11499 0
M  V30 2322 C 221.483 -1.83403 0.865512 0
M  V30 2323 C 221.816 -1.84459 -0.607329 0
M  V30 2324 O 221.091 -1.29811 -1.44842 0
M  V30 2325 C 221.374 -3.30552 1.42855 0
M  V30 2326 C 221.227 -3.37886 2.96906 0
M  V30 2327 C 222.546 -4.26643 1.08 0
M  V30 2328 H 219.665 -0.665879 0.31587 0
M  V30 2329 H 222.307 -1.30601 1.37998 0
M  V30 2330 H 220.457 -3.75648 0.990985 0
M  V30 2331 H 222.129 -3.01343 3.49271 0
M  V30 2332 H 220.372 -2.78088 3.32941 0
M  V30 2333 H 221.043 -4.41458 3.31389 0
M  V30 2334 H 223.519 -3.89729 1.45775 0
M  V30 2335 H 222.395 -5.27986 1.50072 0
M  V30 2336 H 222.656 -4.42099 -0.00915037 0
M  V30 2337 N 221.715 -0.905404 -1.28997 0
M  V30 2338 C 222.945 -0.549049 -1.99171 0
M  V30 2339 C 223.353 0.87203 -1.67906 0
M  V30 2340 O 222.696 1.58796 -0.923561 0
M  V30 2341 C 222.758 -0.668306 -3.53234 0
M  V30 2342 C 222.422 -2.0574 -4.08069 0
M  V30 2343 C 223.419 -3.0292 -4.22534 0
M  V30 2344 C 221.104 -2.36833 -4.42962 0
M  V30 2345 C 223.098 -4.29314 -4.71135 0
M  V30 2346 C 220.785 -3.63467 -4.91258 0
M  V30 2347 C 221.783 -4.59522 -5.053 0
M  V30 2348 O 221.471 -5.83907 -5.52546 0
M  V30 2349 H 221.203 -0.208784 -0.64295 0
M  V30 2350 H 223.757 -1.21836 -1.65363 0
M  V30 2351 H 221.987 0.0580547 -3.86656 0
M  V30 2352 H 223.676 -0.320273 -4.04634 0
M  V30 2353 H 224.442 -2.80216 -3.95859 0
M  V30 2354 H 220.321 -1.62824 -4.31288 0
M  V30 2355 H 223.865 -5.04293 -4.8201 0
M  V30 2356 H 219.762 -3.86 -5.17372 0
M  V30 2357 H 220.53 -5.86578 -5.70849 0
M  V30 2358 N 223.193 1.4272 -0.668489 0
M  V30 2359 C 224.44 2.01624 -0.18814 0
M  V30 2360 C 224.768 1.5282 1.20317 0
M  V30 2361 O 224.023 0.718323 1.8204 0
M  V30 2362 C 224.322 3.57021 -0.164499 0
M  V30 2363 C 223.988 4.25232 -1.49962 0
M  V30 2364 C 222.65 4.4358 -1.8652 0
M  V30 2365 C 225.002 4.63727 -2.37921 0
M  V30 2366 C 222.33 4.97694 -3.10674 0
M  V30 2367 C 224.682 5.19218 -3.6138 0
M  V30 2368 C 223.346 5.3578 -3.98115 0
M  V30 2369 H 222.616 0.737795 -0.0688454 0
M  V30 2370 H 225.263 1.70991 -0.862225 0
M  V30 2371 H 223.568 3.87285 0.593079 0
M  V30 2372 H 225.265 4.00372 0.224271 0
M  V30 2373 H 221.855 4.11306 -1.20522 0
M  V30 2374 H 226.039 4.4923 -2.10964 0
M  V30 2375 H 221.295 5.08702 -3.39164 0
M  V30 2376 H 225.469 5.4799 -4.29743 0
M  V30 2377 H 223.096 5.77475 -4.94395 0
M  V30 2378 N 224.671 0.411399 1.52136 0
M  V30 2379 C 225.919 -0.163322 2.01439 0
M  V30 2380 C 226.24 -1.45453 1.29879 0
M  V30 2381 O 225.51 -1.91225 0.4254 0
M  V30 2382 H 224.09 -0.0633447 0.744309 0
M  V30 2383 H 226.752 0.548161 1.87033 0
M  V30 2384 H 225.848 -0.357817 3.10042 0
M  V30 2385 N 226.149 -1.5696 0.141893 0
M  V30 2386 C 227.398 -1.95135 -0.510427 0
M  V30 2387 C 227.711 -1.02896 -1.66348 0
M  V30 2388 O 228.917 -1.30629 -2.38009 0
M  V30 2389 C 227.373 -3.46876 -0.959427 0
M  V30 2390 C 226.981 -4.47691 0.166419 0
M  V30 2391 C 228.725 -3.93927 -1.58183 0
M  V30 2392 C 226.632 -5.90636 -0.300565 0
M  V30 2393 H 225.562 -0.728494 -0.194454 0
M  V30 2394 H 228.213 -1.8211 0.22542 0
M  V30 2395 H 226.595 -3.55215 -1.75038 0
M  V30 2396 H 227.769 -4.51043 0.94325 0
M  V30 2397 H 226.084 -4.10527 0.696905 0
M  V30 2398 H 228.681 -4.98158 -1.94275 0
M  V30 2399 H 229.024 -3.3519 -2.46888 0
M  V30 2400 H 229.557 -3.88484 -0.855863 0
M  V30 2401 H 226.296 -6.5318 0.550989 0
M  V30 2402 H 225.816 -5.90655 -1.04338 0
M  V30 2403 H 227.495 -6.42588 -0.754265 0
M  V30 2404 N 227.627 0.131896 -1.57047 0
M  V30 2405 C 228.876 0.84044 -1.83356 0
M  V30 2406 C 229.189 1.81646 -0.725535 0
M  V30 2407 O 230.395 2.57025 -0.874659 0
M  V30 2408 C 228.851 1.54528 -3.25037 0
M  V30 2409 C 228.459 0.610902 -4.43815 0
M  V30 2410 C 230.203 2.23972 -3.60606 0
M  V30 2411 C 228.11 1.31823 -5.76521 0
M  V30 2412 H 227.04 0.317599 -0.683847 0
M  V30 2413 H 229.691 0.0931561 -1.83263 0
M  V30 2414 H 228.073 2.33873 -3.19561 0
M  V30 2415 H 229.247 -0.148407 -4.60561 0
M  V30 2416 H 227.562 0.0241016 -4.16393 0
M  V30 2417 H 230.159 2.77558 -4.57018 0
M  V30 2418 H 230.502 3.01173 -2.87403 0
M  V30 2419 H 231.035 1.51529 -3.6781 0
M  V30 2420 H 227.774 0.587771 -6.52859 0
M  V30 2421 H 227.294 2.04987 -5.63685 0
M  V30 2422 H 228.973 1.855 -6.19838 0
M  V30 2423 N 229.106 1.52395 0.401703 0
M  V30 2424 C 230.069 1.75636 1.47257 0
M  V30 2425 C 231.069 0.62628 1.48103 0
M  V30 2426 O 232.259 0.894227 1.49497 0
M  V30 2427 C 229.391 1.84553 2.86624 0
M  V30 2428 H 230.584 2.71241 1.27938 0
M  V30 2429 H 228.137 1.42923 0.632662 0
M  V30 2430 H 228.872 0.908882 3.11303 0
M  V30 2431 H 228.657 2.66715 2.87412 0
M  V30 2432 H 230.147 2.04251 3.64241 0
M  V30 2433 N 230.584 -0.659388 1.43143 0
M  V30 2434 C 231.514 -1.78422 1.50625 0
M  V30 2435 C 232.495 -1.66216 0.361443 0
M  V30 2436 O 233.68 -1.85404 0.577834 0
M  V30 2437 C 230.81 -3.16815 1.42287 0
M  V30 2438 C 229.764 -3.43777 2.54954 0
M  V30 2439 C 229.09 -4.81905 2.31671 0
M  V30 2440 C 230.39 -3.39134 3.97222 0
M  V30 2441 H 232.084 -1.72417 2.44771 0
M  V30 2442 H 229.63 -0.828084 1.17808 0
M  V30 2443 H 231.583 -3.95253 1.46127 0
M  V30 2444 H 230.307 -3.23534 0.446435 0
M  V30 2445 H 228.966 -2.67707 2.50457 0
M  V30 2446 H 228.614 -4.85294 1.32284 0
M  V30 2447 H 228.314 -5.00906 3.07192 0
M  V30 2448 H 229.838 -5.62609 2.37284 0
M  V30 2449 H 231.252 -4.07518 4.03239 0
M  V30 2450 H 229.649 -3.69671 4.72719 0
M  V30 2451 H 230.719 -2.37426 4.22797 0
M  V30 2452 O 232.101 -1.40162 -0.802292 0
M  V30 2453 H 232.792 -1.28727 -1.44738 0
M  V30 END ATOM
M  V30 BEGIN BOND
M  V30 END BOND
M  V30 END CTAB
M  END
$$$$
