drugbank_target|P01024 Complement C3 (DB00028; DB01593; DB01915; DB06492; DB09130; DB14487; DB14533; DB14548)
 OpenBabel12092120323D

  0  0  0     0  0            999 V3000
M  V30 BEGIN CTAB
M  V30 COUNTS 26367 26629 0 0 0
M  V30 BEGIN ATOM
M  V30 1 H -0.908 1.98254 -0.117106 0
M  V30 2 N 0 1.576 0 0
M  V30 3 C 0.933 2.03868 1.02534 0
M  V30 4 C 1.911 0.928543 1.3348 0
M  V30 5 O 3.095 1.19667 1.45644 0
M  V30 6 C 0.222 2.43627 2.35294 0
M  V30 7 C -0.732 3.65373 2.2001 0
M  V30 8 S 0.101 5.13292 1.52614 0
M  V30 9 C 1.257 5.56322 2.86805 0
M  V30 10 H 1.49 2.90518 0.631377 0
M  V30 11 H -0.977 1.52953 0.210867 0
M  V30 12 H 0.981 2.67203 3.11629 0
M  V30 13 H -0.358 1.57376 2.7183 0
M  V30 14 H -1.165 3.90944 3.18086 0
M  V30 15 H -1.563 3.418 1.51819 0
M  V30 16 H 0.729 5.58782 3.83104 0
M  V30 17 H 1.672 6.56266 2.65933 0
M  V30 18 H 2.08 4.83886 2.90714 0
M  V30 19 N 1.4781 -0.272755 1.55222 0
M  V30 20 C 2.7261 -1.00234 1.75492 0
M  V30 21 C 3.0471 -1.8681 0.5592 0
M  V30 22 O 2.3171 -1.91215 -0.425882 0
M  V30 23 H 0.8971 -0.373076 0.647166 0
M  V30 24 H 3.5591 -0.296926 1.92625 0
M  V30 25 H 2.6551 -1.63913 2.65592 0
M  V30 26 N 2.9562 -1.48159 -0.537278 0
M  V30 27 C 4.3672 -1.49429 -1.11928 0
M  V30 28 C 4.7182 -0.26 -1.9447 0
M  V30 29 O 3.8432 0.633489 -2.0692 0
M  V30 30 C 4.4382 -2.70758 -2.03656 0
M  V30 31 C 2.9972 -2.74923 -2.57088 0
M  V30 32 C 2.1442 -2.42835 -1.3389 0
M  V30 33 H 5.0952 -1.55381 -0.322886 0
M  V30 34 H 5.1162 -2.48861 -2.87834 0
M  V30 35 H 4.6282 -3.60575 -1.43553 0
M  V30 36 H 2.7292 -1.89296 -3.20933 0
M  V30 37 H 2.8422 -3.76157 -2.9672 0
M  V30 38 H 1.2062 -1.93836 -1.65226 0
M  V30 39 H 1.9892 -3.34884 -0.755504 0
M  V30 40 N 4.4343 0.785586 -1.36625 0
M  V30 41 C 5.6623 1.57448 -1.3423 0
M  V30 42 C 6.0773 1.88649 0.0755653 0
M  V30 43 O 5.4343 1.50414 1.03354 0
M  V30 44 C 5.4853 2.89316 -2.16745 0
M  V30 45 O 5.2063 2.59459 -3.53005 0
M  V30 46 C 6.7073 3.83606 -2.22174 0
M  V30 47 H 3.9273 0.488226 -0.4603 0
M  V30 48 H 6.4713 0.974733 -1.79775 0
M  V30 49 H 4.6263 3.4575 -1.74745 0
M  V30 50 H 5.0403 3.43804 -3.96105 0
M  V30 51 H 6.5143 4.73181 -2.8426 0
M  V30 52 H 6.9913 4.21734 -1.22627 0
M  V30 53 H 7.5973 3.33104 -2.64427 0
M  V30 54 N 5.9124 1.20967 1.01018 0
M  V30 55 C 7.1374 1.0503 1.78839 0
M  V30 56 C 7.5624 -0.395752 1.8389 0
M  V30 57 O 6.9204 -1.28529 1.27867 0
M  V30 58 C 6.9684 1.64602 3.2084 0
M  V30 59 O 6.0724 0.887988 4.02726 0
M  V30 60 H 5.4134 0.369987 0.551367 0
M  V30 61 H 7.9434 1.60399 1.27018 0
M  V30 62 H 7.9534 1.68607 3.71532 0
M  V30 63 H 6.6284 2.69841 3.16479 0
M  V30 64 H 5.2054 0.922648 3.61305 0
M  V30 65 N 7.3905 -1.2043 1.01659 0
M  V30 66 C 8.6385 -1.89423 0.704522 0
M  V30 67 C 8.9595 -1.79231 -0.768197 0
M  V30 68 O 8.2295 -1.1947 -1.55254 0
M  V30 69 H 6.8095 -0.701178 0.257602 0
M  V30 70 H 9.4715 -1.4626 1.28818 0
M  V30 71 H 8.5675 -2.96052 0.987916 0
M  V30 72 N 8.8686 -0.792821 -1.36206 0
M  V30 73 C 10.2796 -0.429513 -1.81692 0
M  V30 74 C 10.6306 1.04695 -1.65932 0
M  V30 75 O 9.7556 1.81256 -1.18218 0
M  V30 76 C 10.3506 -0.772831 -3.29868 0
M  V30 77 C 8.9096 -0.462307 -3.7355 0
M  V30 78 C 8.0566 -1.00569 -2.5842 0
M  V30 79 H 11.0076 -0.985672 -1.24379 0
M  V30 80 H 11.0286 -0.0651928 -3.80444 0
M  V30 81 H 10.5406 -1.84747 -3.41307 0
M  V30 82 H 8.6416 0.604158 -3.67669 0
M  V30 83 H 8.7546 -0.985299 -4.68859 0
M  V30 84 H 7.1186 -0.428734 -2.51066 0
M  V30 85 H 7.9016 -2.08616 -2.72643 0
M  V30 86 N 10.3467 1.47872 -0.545128 0
M  V30 87 C 11.5717 2.07391 -0.0190611 0
M  V30 88 C 11.9967 1.39688 1.25971 0
M  V30 89 O 11.3547 0.467816 1.7516 0
M  V30 90 C 11.4027 3.60188 0.172335 0
M  V30 91 O 10.5067 3.9339 1.23766 0
M  V30 92 H 9.8477 0.662411 -0.0459059 0
M  V30 93 H 12.3777 1.90066 -0.757365 0
M  V30 94 H 12.3877 4.06129 0.390305 0
M  V30 95 H 11.0627 4.08865 -0.761725 0
M  V30 96 H 9.6397 3.5921 1.00114 0
M  V30 97 N 11.8248 0.280983 1.55075 0
M  V30 98 C 12.7548 -0.597469 2.25727 0
M  V30 99 C 13.7358 -1.15417 1.24952 0
M  V30 100 O 14.9208 -1.18722 1.53684 0
M  V30 101 C 12.0508 -1.7789 2.98283 0
M  V30 102 C 11.0048 -1.35347 4.06036 0
M  V30 103 C 10.3308 -2.61846 4.66198 0
M  V30 104 C 11.6308 -0.499354 5.19907 0
M  V30 105 H 13.3248 -0.00824265 2.99399 0
M  V30 106 H 10.8708 -0.0025244 1.44 0
M  V30 107 H 12.8238 -2.39937 3.46422 0
M  V30 108 H 11.5478 -2.39405 2.22155 0
M  V30 109 H 10.2068 -0.756156 3.58717 0
M  V30 110 H 9.8548 -3.21632 3.86732 0
M  V30 111 H 9.5548 -2.3409 5.38958 0
M  V30 112 H 11.0788 -3.24732 5.1709 0
M  V30 113 H 12.4928 -1.02498 5.64063 0
M  V30 114 H 10.8898 -0.316424 5.99265 0
M  V30 115 H 11.9598 0.480459 4.82514 0
M  V30 116 N 13.3029 -1.57598 0.00835791 0
M  V30 117 C 14.2329 -2.1198 -0.979113 0
M  V30 118 C 15.2139 -1.03091 -1.35301 0
M  V30 119 O 16.3989 -1.30818 -1.43528 0
M  V30 120 C 13.5289 -2.62995 -2.26828 0
M  V30 121 C 12.4829 -3.76485 -2.03576 0
M  V30 122 C 11.8089 -4.13846 -3.38579 0
M  V30 123 C 13.1089 -5.0342 -1.39161 0
M  V30 124 H 14.8029 -2.94738 -0.526281 0
M  V30 125 H 12.3489 -1.41783 -0.251704 0
M  V30 126 H 14.3019 -2.99669 -2.96271 0
M  V30 127 H 13.0259 -1.7737 -2.7424 0
M  V30 128 H 11.6849 -3.40217 -1.36557 0
M  V30 129 H 11.3329 -3.25232 -3.83709 0
M  V30 130 H 11.0329 -4.90312 -3.23834 0
M  V30 131 H 12.5569 -4.53086 -4.09323 0
M  V30 132 H 13.9709 -5.37812 -1.98573 0
M  V30 133 H 12.3679 -5.84746 -1.34878 0
M  V30 134 H 13.4379 -4.83548 -0.361868 0
M  V30 135 N 14.781 0.264519 -1.55364 0
M  V30 136 C 15.711 1.33121 -1.91836 0
M  V30 137 C 16.692 1.51101 -0.781192 0
M  V30 138 O 17.877 1.64003 -1.04003 0
M  V30 139 C 15.007 2.68921 -2.19769 0
M  V30 140 C 13.961 2.65661 -3.35571 0
M  V30 141 C 13.287 4.05093 -3.49004 0
M  V30 142 C 14.587 2.24187 -4.71739 0
M  V30 143 H 16.281 1.02844 -2.81182 0
M  V30 144 H 13.827 0.493286 -1.35287 0
M  V30 145 H 15.78 3.43663 -2.43872 0
M  V30 146 H 14.504 3.00799 -1.27231 0
M  V30 147 H 13.163 1.93377 -3.1145 0
M  V30 148 H 12.811 4.34206 -2.53917 0
M  V30 149 H 12.511 4.03804 -4.26868 0
M  V30 150 H 14.035 4.81561 -3.75408 0
M  V30 151 H 15.449 2.88654 -4.9533 0
M  V30 152 H 13.846 2.34044 -5.52579 0
M  V30 153 H 14.916 1.19327 -4.69988 0
M  V30 154 N 16.2591 1.48442 0.529413 0
M  V30 155 C 17.1891 1.65902 1.64313 0
M  V30 156 C 18.1701 0.507897 1.6234 0
M  V30 157 O 19.3551 0.740503 1.79528 0
M  V30 158 C 16.4851 1.69911 3.02898 0
M  V30 159 C 15.4391 2.8453 3.19729 0
M  V30 160 C 14.7651 2.73629 4.59381 0
M  V30 161 C 16.0651 4.25821 3.02447 0
M  V30 162 H 17.7591 2.5914 1.49955 0
M  V30 163 H 15.3051 1.24709 0.719982 0
M  V30 164 H 17.2581 1.80715 3.80684 0
M  V30 165 H 15.9821 0.732524 3.18279 0
M  V30 166 H 14.6411 2.73283 2.44361 0
M  V30 167 H 14.2891 1.74938 4.71599 0
M  V30 168 H 13.9891 3.50541 4.71588 0
M  V30 169 H 15.5131 2.86401 5.39265 0
M  V30 170 H 16.9271 4.37898 3.70024 0
M  V30 171 H 15.3241 5.03735 3.26146 0
M  V30 172 H 16.3941 4.42244 1.98867 0
M  V30 173 N 17.7372 -0.778329 1.37039 0
M  V30 174 C 18.6672 -1.90546 1.34962 0
M  V30 175 C 19.6482 -1.68681 0.219274 0
M  V30 176 O 20.8332 -1.89634 0.418624 0
M  V30 177 C 17.9632 -3.27734 1.14925 0
M  V30 178 C 16.9172 -3.64147 2.24902 0
M  V30 179 C 16.2432 -4.99806 1.89996 0
M  V30 180 C 17.5432 -3.71579 3.67051 0
M  V30 181 H 19.2372 -1.92541 2.29277 0
M  V30 182 H 16.7832 -0.924948 1.10366 0
M  V30 183 H 18.7362 -4.06215 1.12104 0
M  V30 184 H 17.4602 -3.26154 0.170631 0
M  V30 185 H 16.1192 -2.8797 2.26868 0
M  V30 186 H 15.7672 -4.94759 0.906796 0
M  V30 187 H 15.4672 -5.25139 2.63634 0
M  V30 188 H 16.9912 -5.80694 1.88749 0
M  V30 189 H 18.4052 -4.40227 3.67251 0
M  V30 190 H 16.8022 -4.08405 4.39688 0
M  V30 191 H 17.8722 -2.72404 4.01154 0
M  V30 192 N 19.2153 -1.21501 -1.00376 0
M  V30 193 C 20.1453 -0.999478 -2.11028 0
M  V30 194 C 21.1263 0.0759671 -1.6993 0
M  V30 195 O 22.3113 -0.0841106 -1.94018 0
M  V30 196 C 19.4413 -0.564709 -3.42678 0
M  V30 197 C 18.3953 -1.58486 -3.97576 0
M  V30 198 C 17.7213 -1.00628 -5.25146 0
M  V30 199 C 19.0213 -2.97204 -4.29496 0
M  V30 200 H 20.7153 -1.92495 -2.29317 0
M  V30 201 H 18.2613 -0.92693 -1.102 0
M  V30 202 H 20.2143 -0.401091 -4.19487 0
M  V30 203 H 18.9383 0.396411 -3.24185 0
M  V30 204 H 17.5973 -1.73606 -3.22888 0
M  V30 205 H 17.2453 -0.0368439 -5.02987 0
M  V30 206 H 16.9453 -1.68771 -5.62841 0
M  V30 207 H 18.4693 -0.854015 -6.04598 0
M  V30 208 H 19.8833 -2.8552 -4.97143 0
M  V30 209 H 18.2803 -3.62372 -4.78338 0
M  V30 210 H 19.3503 -3.47956 -3.3772 0
M  V30 211 N 20.6934 1.19889 -1.02296 0
M  V30 212 C 21.9214 1.9339 -0.735399 0
M  V30 213 C 22.3364 1.75148 0.704887 0
M  V30 214 O 21.6934 1.06954 1.47875 0
M  V30 215 C 21.7444 3.45313 -1.06962 0
M  V30 216 O 21.4654 3.62964 -2.45334 0
M  V30 217 C 22.9664 4.35948 -0.804021 0
M  V30 218 H 20.1864 0.61448 -0.269546 0
M  V30 219 H 22.7304 1.522 -1.36585 0
M  V30 220 H 20.8854 3.84359 -0.484455 0
M  V30 221 H 21.2994 4.56886 -2.57595 0
M  V30 222 H 22.7734 5.41174 -1.0879 0
M  V30 223 H 23.2504 4.3842 0.261691 0
M  V30 224 H 23.8564 4.02574 -1.37164 0
M  V30 225 N 22.1715 0.800033 1.35784 0
M  V30 226 C 23.1215 0.178654 2.27299 0
M  V30 227 C 24.1055 -0.643667 1.47464 0
M  V30 228 O 25.2975 -0.502 1.69732 0
M  V30 229 C 22.4265 -0.677194 3.36555 0
M  V30 230 C 21.5125 0.154497 4.23818 0
M  V30 231 N 21.9035 1.21427 4.91008 0
M  V30 232 C 20.2015 -0.0649462 4.45953 0
M  V30 233 C 20.9025 1.72147 5.55644 0
M  V30 234 N 19.8785 1.02897 5.33773 0
M  V30 235 H 23.6805 0.989637 2.76737 0
M  V30 236 H 21.1945 0.64054 1.49234 0
M  V30 237 H 23.1915 -1.13835 4.01058 0
M  V30 238 H 21.8515 -1.4866 2.8867 0
M  V30 239 H 22.8625 1.59684 4.92668 0
M  V30 240 H 19.5395 -0.844016 4.0888 0
M  V30 241 H 20.9295 2.60683 6.19269 0
M  V30 242 N 23.6496 -1.47581 0.552962 0
M  V30 243 C 24.5796 -2.32762 -0.185451 0
M  V30 244 C 25.5606 -1.43527 -0.912905 0
M  V30 245 O 26.7456 -1.72388 -0.894201 0
M  V30 246 C 23.8756 -3.25219 -1.21859 0
M  V30 247 C 22.8296 -4.23661 -0.607864 0
M  V30 248 C 22.1556 -5.05413 -1.74533 0
M  V30 249 C 23.4556 -5.20481 0.435582 0
M  V30 250 H 25.1496 -2.94749 0.525684 0
M  V30 251 H 22.6956 -1.41738 0.254251 0
M  V30 252 H 24.6486 -3.8365 -1.7433 0
M  V30 253 H 23.3726 -2.61279 -1.95961 0
M  V30 254 H 22.0316 -3.66451 -0.104489 0
M  V30 255 H 21.6796 -4.3788 -2.47529 0
M  V30 256 H 21.3796 -5.72059 -1.34249 0
M  V30 257 H 22.9036 -5.66701 -2.27338 0
M  V30 258 H 24.3176 -5.733 -0.00290157 0
M  V30 259 H 22.7146 -5.95305 0.757067 0
M  V30 260 H 23.7846 -4.66217 1.33303 0
M  V30 261 N 25.1277 -0.289203 -1.54924 0
M  V30 262 C 26.5387 0.205791 -1.85562 0
M  V30 263 C 26.8897 1.54351 -1.2112 0
M  V30 264 O 26.0147 2.10435 -0.504601 0
M  V30 265 C 26.6097 0.380177 -3.3666 0
M  V30 266 C 25.1687 0.819395 -3.67373 0
M  V30 267 C 24.3157 -0.079159 -2.77187 0
M  V30 268 H 27.2667 -0.510577 -1.50262 0
M  V30 269 H 27.2877 1.21659 -3.60526 0
M  V30 270 H 26.7997 -0.593589 -3.83534 0
M  V30 271 H 24.9007 1.80413 -3.26009 0
M  V30 272 H 25.0137 0.646957 -4.74712 0
M  V30 273 H 23.3777 0.439565 -2.50878 0
M  V30 274 H 24.1607 -1.04906 -3.26878 0
M  V30 275 N 26.6058 1.57591 -0.0167156 0
M  V30 276 C 27.5358 2.12496 0.967858 0
M  V30 277 C 28.5168 1.03807 1.34752 0
M  V30 278 O 29.7018 1.31577 1.42833 0
M  V30 279 C 26.8318 2.64194 2.25431 0
M  V30 280 C 25.7858 3.77559 2.01576 0
M  V30 281 C 25.1118 4.15636 3.36379 0
M  V30 282 C 26.4118 5.04151 1.36489 0
M  V30 283 H 28.1058 2.95013 0.510643 0
M  V30 284 H 25.6518 1.41915 0.244181 0
M  V30 285 H 27.6048 3.01236 2.94678 0
M  V30 286 H 26.3288 1.78821 2.73296 0
M  V30 287 H 24.9878 3.40937 1.34751 0
M  V30 288 H 24.6358 3.27263 3.81979 0
M  V30 289 H 24.3358 4.92022 3.21229 0
M  V30 290 H 25.8598 4.5525 4.06915 0
M  V30 291 H 27.2738 5.38857 1.95718 0
M  V30 292 H 25.6708 5.85453 1.31776 0
M  V30 293 H 26.7408 4.83733 0.336219 0
M  V30 294 N 28.0839 -0.256276 1.55502 0
M  V30 295 C 29.0469 -1.30047 1.88734 0
M  V30 296 C 30.0469 -1.4154 0.763086 0
M  V30 297 O 31.2369 -1.40403 1.03115 0
M  V30 298 C 28.3689 -2.67953 2.10747 0
M  V30 299 H 29.5619 -1.01802 2.82093 0
M  V30 300 H 27.1149 -0.495134 1.4825 0
M  V30 301 H 27.8499 -3.01351 1.19825 0
M  V30 302 H 27.6349 -2.60993 2.92617 0
M  V30 303 H 29.1249 -3.43368 2.37673 0
M  V30 304 N 29.562 -1.4872 -0.521534 0
M  V30 305 C 30.492 -1.66771 -1.63431 0
M  V30 306 C 31.473 -0.516499 -1.62069 0
M  V30 307 O 32.658 -0.750013 -1.79132 0
M  V30 308 C 29.788 -1.71515 -3.01993 0
M  V30 309 C 28.742 -2.86222 -3.18216 0
M  V30 310 C 28.068 -2.76061 -4.57924 0
M  V30 311 C 29.368 -4.27419 -3.00184 0
M  V30 312 H 31.062 -2.59932 -1.48579 0
M  V30 313 H 28.608 -1.25089 -0.713358 0
M  V30 314 H 30.561 -1.82731 -3.7972 0
M  V30 315 H 29.285 -0.749393 -3.17886 0
M  V30 316 H 27.944 -2.74575 -2.42908 0
M  V30 317 H 27.592 -1.77437 -4.70665 0
M  V30 318 H 27.292 -3.53037 -4.69722 0
M  V30 319 H 28.816 -2.89256 -5.37739 0
M  V30 320 H 30.23 -4.39855 -3.67697 0
M  V30 321 H 28.627 -5.05458 -3.2347 0
M  V30 322 H 29.697 -4.43293 -1.96518 0
M  V30 323 N 31.0401 0.771051 -1.3745 0
M  V30 324 C 32.2881 1.52661 -1.32435 0
M  V30 325 C 32.6091 1.9479 0.0905024 0
M  V30 326 O 31.8791 1.66348 1.03466 0
M  V30 327 H 30.4591 0.566218 -0.487244 0
M  V30 328 H 33.1211 0.917636 -1.71946 0
M  V30 329 H 32.2171 2.42568 -1.96385 0
M  V30 330 N 32.5182 1.22032 0.997298 0
M  V30 331 C 33.7432 1.06921 1.77715 0
M  V30 332 C 34.1682 -0.376226 1.84299 0
M  V30 333 O 33.5262 -1.27165 1.29223 0
M  V30 334 C 33.5742 1.67996 3.19076 0
M  V30 335 O 32.6782 0.930653 4.01762 0
M  V30 336 H 32.0192 0.375814 0.547412 0
M  V30 337 H 34.5492 1.61737 1.25309 0
M  V30 338 H 34.5592 1.72538 3.69723 0
M  V30 339 H 33.2342 2.73182 3.13599 0
M  V30 340 H 31.8112 0.960917 3.60307 0
M  V30 341 N 33.9963 -1.19345 1.0293 0
M  V30 342 C 35.4073 -1.70725 0.755633 0
M  V30 343 C 35.7583 -1.82326 -0.724676 0
M  V30 344 O 34.8833 -1.49471 -1.56484 0
M  V30 345 C 35.4783 -3.10084 1.36503 0
M  V30 346 C 34.0373 -3.58723 1.13994 0
M  V30 347 C 33.1843 -2.35577 1.46283 0
M  V30 348 H 36.1353 -1.0418 1.19718 0
M  V30 349 H 36.1563 -3.72787 0.762217 0
M  V30 350 H 35.6683 -3.01609 2.44241 0
M  V30 351 H 33.7693 -3.72512 0.0807901 0
M  V30 352 H 33.8823 -4.42816 1.82894 0
M  V30 353 H 32.2463 -2.38935 0.88217 0
M  V30 354 H 33.0293 -2.29731 2.55105 0
M  V30 355 N 35.4744 -0.807222 -1.35358 0
M  V30 356 C 36.4074 -0.163572 -2.27613 0
M  V30 357 C 37.3854 0.670817 -1.48118 0
M  V30 358 O 38.5694 0.63796 -1.77376 0
M  V30 359 C 35.6964 0.773015 -3.29761 0
M  V30 360 C 34.7424 0.0181653 -4.26496 0
M  V30 361 S 35.5754 -1.31831 -5.19019 0
M  V30 362 C 36.7314 -0.38619 -6.24707 0
M  V30 363 H 36.9644 -0.945757 -2.81856 0
M  V30 364 H 34.4974 -0.602315 -1.42167 0
M  V30 365 H 36.4554 1.30788 -3.89108 0
M  V30 366 H 35.1164 1.52859 -2.74396 0
M  V30 367 H 34.3094 0.729534 -4.98692 0
M  V30 368 H 33.9114 -0.446761 -3.71322 0
M  V30 369 H 36.2034 0.428295 -6.76145 0
M  V30 370 H 37.1464 -1.07736 -6.99856 0
M  V30 371 H 37.5544 0.018398 -5.64497 0
M  V30 372 N 36.9525 1.47285 -0.560781 0
M  V30 373 C 38.1825 2.06555 -0.0429638 0
M  V30 374 C 38.5905 1.41339 1.25777 0
M  V30 375 O 37.9335 0.505182 1.76617 0
M  V30 376 C 37.9955 3.58827 0.219887 0
M  V30 377 C 37.6595 4.46105 -0.991944 0
M  V30 378 C 38.6565 4.84 -1.89843 0
M  V30 379 C 36.3415 4.87567 -1.20762 0
M  V30 380 C 38.3355 5.6216 -3.00425 0
M  V30 381 C 36.0225 5.65491 -2.31653 0
M  V30 382 C 37.0205 6.02699 -3.21315 0
M  V30 383 O 36.7085 6.79052 -4.30283 0
M  V30 384 H 36.4405 0.674537 -0.0444468 0
M  V30 385 H 38.9945 1.90225 -0.774818 0
M  V30 386 H 37.2245 3.73383 1.00609 0
M  V30 387 H 38.9135 4.00103 0.683522 0
M  V30 388 H 39.6795 4.52564 -1.74387 0
M  V30 389 H 35.5585 4.5807 -0.518893 0
M  V30 390 H 39.1025 5.9112 -3.70436 0
M  V30 391 H 34.9995 5.9634 -2.47081 0
M  V30 392 H 35.7675 6.9745 -4.28376 0
M  V30 393 N 38.4306 0.297415 1.54768 0
M  V30 394 C 39.6556 -0.318435 2.04941 0
M  V30 395 C 40.0806 -1.4701 1.17345 0
M  V30 396 O 39.4386 -1.80436 0.176758 0
M  V30 397 C 39.4866 -0.755749 3.52592 0
M  V30 398 O 38.5906 -1.86088 3.68028 0
M  V30 399 H 37.9316 -0.062421 0.661059 0
M  V30 400 H 40.4616 0.438215 1.99852 0
M  V30 401 H 40.4716 -1.04552 3.94376 0
M  V30 402 H 39.1466 0.0867233 4.1581 0
M  V30 403 H 37.7236 -1.57193 3.38149 0
M  V30 404 N 39.9087 -1.5758 0.0250728 0
M  V30 405 C 41.1577 -1.90811 -0.653767 0
M  V30 406 C 41.4707 -0.90273 -1.73523 0
M  V30 407 O 42.6767 -1.12614 -2.47043 0
M  V30 408 C 41.1327 -3.38804 -1.21409 0
M  V30 409 C 40.7407 -4.47692 -0.166126 0
M  V30 410 C 42.4847 -3.81108 -1.86967 0
M  V30 411 C 40.3917 -5.86779 -0.737856 0
M  V30 412 H 39.3217 -0.712063 -0.247956 0
M  V30 413 H 41.9727 -1.83281 0.0897137 0
M  V30 414 H 40.3547 -3.41252 -2.00905 0
M  V30 415 H 41.5287 -4.56797 0.606079 0
M  V30 416 H 39.8437 -4.14565 0.390466 0
M  V30 417 H 42.4407 -4.82375 -2.30692 0
M  V30 418 H 42.7837 -3.15953 -2.71071 0
M  V30 419 H 43.3167 -3.81065 -1.14167 0
M  V30 420 H 40.0557 -6.55468 0.0649577 0
M  V30 421 H 39.5757 -5.81288 -1.47864 0
M  V30 422 H 41.2547 -6.35223 -1.22884 0
M  V30 423 N 41.3868 0.248026 -1.55636 0
M  V30 424 C 42.6358 0.974134 -1.76617 0
M  V30 425 C 42.9488 1.86528 -0.588796 0
M  V30 426 O 44.1548 2.62805 -0.681594 0
M  V30 427 C 42.6108 1.78213 -3.12679 0
M  V30 428 C 42.2188 0.93843 -4.38061 0
M  V30 429 C 43.9628 2.50104 -3.42999 0
M  V30 430 C 41.8698 1.74225 -5.65155 0
M  V30 431 H 40.7998 0.36745 -0.658405 0
M  V30 432 H 43.4508 0.22884 -1.82067 0
M  V30 433 H 41.8328 2.56933 -3.01333 0
M  V30 434 H 43.0068 0.193635 -4.60393 0
M  V30 435 H 41.3218 0.332905 -4.15067 0
M  V30 436 H 43.9188 3.10694 -4.3517 0
M  V30 437 H 44.2618 3.21662 -2.64271 0
M  V30 438 H 44.7948 1.78395 -3.55556 0
M  V30 439 H 41.5338 1.07043 -6.46701 0
M  V30 440 H 41.0538 2.46235 -5.46926 0
M  V30 441 H 42.7328 2.30967 -6.0437 0
M  V30 442 N 42.8649 1.48995 0.513639 0
M  V30 443 C 44.0929 1.61531 1.29288 0
M  V30 444 C 44.5079 0.281801 1.86685 0
M  V30 445 O 43.8649 -0.731111 1.67215 0
M  V30 446 C 43.9159 2.67449 2.43215 0
M  V30 447 O 43.6369 3.95626 1.88179 0
M  V30 448 C 45.1379 2.90575 3.34785 0
M  V30 449 H 42.3579 0.544165 0.392588 0
M  V30 450 H 44.9019 1.9494 0.617956 0
M  V30 451 H 43.0569 2.36853 3.0656 0
M  V30 452 H 43.4709 4.53868 2.62876 0
M  V30 453 H 44.9449 3.68449 4.11035 0
M  V30 454 H 45.4219 2.00011 3.91015 0
M  V30 455 H 46.0279 3.22538 2.77218 0
M  V30 456 N 44.343 -0.763751 1.37857 0
M  V30 457 C 45.754 -1.3405 1.29952 0
M  V30 458 C 46.105 -1.96138 -0.0492898 0
M  V30 459 O 45.23 -1.94372 -0.951239 0
M  V30 460 C 45.825 -2.43729 2.35333 0
M  V30 461 C 44.384 -2.97151 2.31037 0
M  V30 462 C 43.531 -1.70438 2.18738 0
M  V30 463 H 46.482 -0.563396 1.48363 0
M  V30 464 H 46.503 -3.23412 2.00462 0
M  V30 465 H 46.015 -1.9851 3.33489 0
M  V30 466 H 44.116 -3.46724 1.3643 0
M  V30 467 H 44.229 -3.52221 3.24772 0
M  V30 468 H 42.593 -1.93673 1.65418 0
M  V30 469 H 43.376 -1.27312 3.18821 0
M  V30 470 N 45.8211 -1.22559 -0.990812 0
M  V30 471 C 46.7691 -0.994798 -2.10253 0
M  V30 472 C 47.7631 0.0627798 -1.69284 0
M  V30 473 O 48.9691 -0.0898392 -1.79776 0
M  V30 474 H 45.3441 -0.304527 -0.687581 0
M  V30 475 H 47.3151 -1.93812 -2.26891 0
M  V30 476 C 46.0641 -0.591439 -3.42633 0
M  V30 477 H 45.3871 -1.3969 -3.74602 0
M  V30 478 H 46.8271 -0.469385 -4.21394 0
M  V30 479 C 45.2861 0.699232 -3.29564 0
M  V30 480 O 45.8161 1.75112 -3.61523 0
M  V30 481 N 44.0221 0.671182 -2.82743 0
M  V30 482 H 43.5691 -0.185136 -2.56934 0
M  V30 483 H 43.5271 1.53502 -2.7438 0
M  V30 484 N 47.2992 1.18797 -1.03562 0
M  V30 485 C 48.5482 1.87978 -0.731235 0
M  V30 486 C 48.8612 1.80911 0.743671 0
M  V30 487 O 50.0672 2.45407 1.16137 0
M  V30 488 C 48.5232 3.3721 -1.25768 0
M  V30 489 C 48.1312 3.52818 -2.76085 0
M  V30 490 C 49.8752 4.11825 -1.0296 0
M  V30 491 C 47.7822 4.9598 -3.22114 0
M  V30 492 H 46.7122 0.704063 -0.269835 0
M  V30 493 H 49.3632 1.34266 -1.25079 0
M  V30 494 H 47.7452 3.90359 -0.666011 0
M  V30 495 H 48.9192 3.09965 -3.40966 0
M  V30 496 H 47.2342 2.91602 -2.97249 0
M  V30 497 H 49.8312 5.17411 -1.34869 0
M  V30 498 H 50.1742 4.16287 0.0333546 0
M  V30 499 H 50.7072 3.64833 -1.58562 0
M  V30 500 H 47.4462 4.96684 -4.27768 0
M  V30 501 H 46.9662 5.39569 -2.61965 0
M  V30 502 H 48.6452 5.6467 -3.15844 0
M  V30 503 N 48.7773 0.814389 1.34928 0
M  V30 504 C 49.7073 0.244827 2.32213 0
M  V30 505 C 50.6883 -0.634024 1.57842 0
M  V30 506 O 51.8733 -0.562676 1.8587 0
M  V30 507 C 49.0033 -0.601106 3.42058 0
M  V30 508 C 47.9573 0.179896 4.27622 0
M  V30 509 C 47.2833 -0.788237 5.28858 0
M  V30 510 C 48.5833 1.38329 5.03649 0
M  V30 511 H 50.2773 1.05763 2.80097 0
M  V30 512 H 47.8233 0.510029 1.34665 0
M  V30 513 H 49.7763 -1.00968 4.09125 0
M  V30 514 H 48.5003 -1.44688 2.92802 0
M  V30 515 H 47.1593 0.569739 3.62146 0
M  V30 516 H 46.8073 -1.62973 4.75866 0
M  V30 517 H 46.5073 -0.269942 5.8698 0
M  V30 518 H 48.0313 -1.19485 5.98795 0
M  V30 519 H 49.4453 1.04918 5.63618 0
M  V30 520 H 47.8423 1.83662 5.71304 0
M  V30 521 H 48.9123 2.16592 4.33839 0
M  V30 522 N 50.2554 -1.46986 0.568584 0
M  V30 523 C 51.6714 -1.57946 0.229189 0
M  V30 524 C 51.8714 -1.56567 -1.26843 0
M  V30 525 O 50.9274 -1.47511 -2.04931 0
M  V30 526 C 52.2404 -2.87963 0.865909 0
M  V30 527 C 53.7884 -3.01568 0.838188 0
M  V30 528 C 54.2634 -4.34301 1.45419 0
M  V30 529 N 55.7544 -4.40965 1.41788 0
M  V30 530 C 56.4894 -5.42256 1.86403 0
M  V30 531 N 55.9854 -6.50297 2.38926 0
M  V30 532 N 57.7784 -5.3337 1.77405 0
M  V30 533 H 49.9294 -1.46126 1.54146 0
M  V30 534 H 52.1924 -0.696156 0.643484 0
M  V30 535 H 51.8984 -2.94742 1.91886 0
M  V30 536 H 51.7724 -3.75423 0.365687 0
M  V30 537 H 54.1594 -2.94379 -0.206106 0
M  V30 538 H 54.2404 -2.1562 1.37629 0
M  V30 539 H 53.8844 -4.42247 2.49761 0
M  V30 540 H 53.8144 -5.19 0.891435 0
M  V30 541 H 56.3054 -3.63484 1.03381 0
M  V30 542 H 56.6184 -7.23777 2.70863 0
M  V30 543 H 54.9634 -6.51155 2.42944 0
M  V30 544 H 58.1544 -4.47865 1.3614 0
M  V30 545 H 58.3274 -6.12169 2.12492 0
M  V30 546 N 51.7335 -0.305618 -1.54608 0
M  V30 547 C 52.6635 0.561482 -2.26649 0
M  V30 548 C 53.6445 1.13415 -1.26772 0
M  V30 549 O 54.8295 1.16262 -1.55553 0
M  V30 550 C 51.9595 1.73122 -3.01075 0
M  V30 551 C 50.9135 1.2887 -4.08138 0
M  V30 552 C 50.2395 2.54396 -4.70305 0
M  V30 553 C 51.5395 0.416578 -5.20636 0
M  V30 554 H 53.2335 -0.0393902 -2.99374 0
M  V30 555 H 50.7795 -0.020385 -1.43986 0
M  V30 556 H 52.7325 2.34396 -3.50195 0
M  V30 557 H 51.4565 2.3584 -2.25936 0
M  V30 558 H 50.1155 0.698991 -3.59875 0
M  V30 559 H 49.7635 3.15439 -3.918 0
M  V30 560 H 49.4635 2.25486 -5.42614 0
M  V30 561 H 50.9875 3.16464 -5.2219 0
M  V30 562 H 52.4015 0.935116 -5.65622 0
M  V30 563 H 50.7985 0.221046 -5.99693 0
M  V30 564 H 51.8685 -0.557162 -4.81688 0
M  V30 565 N 53.2116 1.57565 -0.0334293 0
M  V30 566 C 54.1216 2.13943 0.962572 0
M  V30 567 C 55.1376 1.09276 1.35406 0
M  V30 568 O 56.3136 1.41355 1.4346 0
M  V30 569 C 53.3786 2.65887 2.22497 0
M  V30 570 C 52.4396 3.85286 1.8935 0
M  V30 571 C 51.6726 4.34743 3.09571 0
M  V30 572 O 51.8956 3.83352 4.22371 0
M  V30 573 O 50.8296 5.26538 2.91618 0
M  V30 574 H 54.6556 2.99333 0.513169 0
M  V30 575 H 52.2406 1.4822 0.18743 0
M  V30 576 H 54.1226 2.99346 2.96598 0
M  V30 577 H 52.7976 1.83578 2.6661 0
M  V30 578 H 51.7046 3.56746 1.1262 0
M  V30 579 H 53.0376 4.68771 1.5005 0
M  V30 580 N 54.6897 -0.239769 1.55765 0
M  V30 581 C 55.9147 -0.988373 1.82335 0
M  V30 582 C 56.3397 -1.77886 0.611421 0
M  V30 583 O 55.6977 -1.75889 -0.439639 0
M  V30 584 C 55.7457 -1.89627 3.06715 0
M  V30 585 O 54.8497 -2.98904 2.84131 0
M  V30 586 H 54.1907 -0.280858 0.601677 0
M  V30 587 H 56.7207 -0.258597 2.02959 0
M  V30 588 H 56.7307 -2.30957 3.36338 0
M  V30 589 H 55.4057 -1.31511 3.9456 0
M  V30 590 H 53.9827 -2.61651 2.65694 0
M  V30 591 N 56.1678 -1.49265 -0.50573 0
M  V30 592 C 57.0778 -1.68312 -1.63427 0
M  V30 593 C 58.0938 -0.565682 -1.64548 0
M  V30 594 O 59.2698 -0.839801 -1.83055 0
M  V30 595 C 56.3348 -1.74107 -2.99813 0
M  V30 596 C 55.3958 -2.97653 -3.09356 0
M  V30 597 C 54.6288 -3.03163 -4.39236 0
M  V30 598 O 54.8518 -2.16396 -5.27758 0
M  V30 599 O 53.7858 -3.9558 -4.53652 0
M  V30 600 H 57.6118 -2.63907 -1.50289 0
M  V30 601 H 55.1968 -1.32951 -0.681502 0
M  V30 602 H 57.0788 -1.803 -3.80881 0
M  V30 603 H 55.7538 -0.816901 -3.13223 0
M  V30 604 H 54.6608 -2.96981 -2.27493 0
M  V30 605 H 55.9938 -3.89535 -3.00871 0
M  V30 606 N 57.6459 0.756429 -1.3826 0
M  V30 607 C 58.5559 1.9009 -1.37488 0
M  V30 608 C 59.5719 1.71855 -0.272366 0
M  V30 609 O 60.7479 1.94827 -0.510318 0
M  V30 610 C 57.8129 3.25421 -1.19592 0
M  V30 611 C 56.8739 3.56202 -2.39622 0
M  V30 612 C 56.1069 4.85075 -2.2257 0
M  V30 613 O 56.3299 5.57246 -1.21793 0
M  V30 614 O 55.2639 5.15269 -3.11098 0
M  V30 615 H 59.0899 1.93695 -2.33914 0
M  V30 616 H 56.6749 0.901313 -1.1915 0
M  V30 617 H 58.5569 4.06337 -1.11661 0
M  V30 618 H 57.2319 3.22634 -0.262486 0
M  V30 619 H 56.1389 2.75458 -2.53128 0
M  V30 620 H 57.4719 3.63747 -3.31586 0
M  V30 621 N 59.124 1.23083 0.984299 0
M  V30 622 C 60.352 1.08714 1.76037 0
M  V30 623 C 60.767 -0.361691 1.85303 0
M  V30 624 O 60.124 -1.25034 1.32939 0
M  V30 625 C 60.175 1.70206 3.18923 0
M  V30 626 O 59.896 3.09423 3.10144 0
M  V30 627 C 61.397 1.61227 4.12941 0
M  V30 628 H 58.617 0.380664 0.552572 0
M  V30 629 H 61.161 1.62853 1.23689 0
M  V30 630 H 59.316 1.20109 3.6831 0
M  V30 631 H 59.73 3.39188 4.00065 0
M  V30 632 H 61.204 2.08962 5.10919 0
M  V30 633 H 61.681 0.570375 4.35481 0
M  V30 634 H 62.287 2.10671 3.69456 0
M  V30 635 N 60.6021 -1.18246 1.0419 0
M  V30 636 C 61.5351 -2.20746 0.578474 0
M  V30 637 C 62.5131 -1.57912 -0.387624 0
M  V30 638 O 63.6971 -1.86071 -0.301634 0
M  V30 639 C 60.8241 -3.38346 -0.154762 0
M  V30 640 C 59.8701 -4.19587 0.764782 0
M  V30 641 S 60.7031 -4.86014 2.24835 0
M  V30 642 C 61.8591 -6.07012 1.526 0
M  V30 643 H 62.0921 -2.59715 1.44691 0
M  V30 644 H 59.6251 -1.287 0.85297 0
M  V30 645 H 61.5831 -4.065 -0.571641 0
M  V30 646 H 60.2441 -2.97786 -0.999105 0
M  V30 647 H 59.4371 -5.03611 0.197976 0
M  V30 648 H 59.0391 -3.56818 1.12057 0
M  V30 649 H 61.3311 -6.72523 0.819733 0
M  V30 650 H 62.2741 -6.68202 2.34333 0
M  V30 651 H 62.6821 -5.55249 1.01779 0
M  V30 652 N 62.0802 -0.821533 -1.34494 0
M  V30 653 C 63.3262 -0.409552 -1.98622 0
M  V30 654 C 63.6592 1.0244 -1.64984 0
M  V30 655 O 62.9342 1.71325 -0.920758 0
M  V30 656 C 63.2172 -0.610458 -3.54888 0
M  V30 657 C 63.0702 -2.09043 -3.98273 0
M  V30 658 C 64.3892 -0.0455379 -4.40076 0
M  V30 659 H 61.5082 -0.15028 -0.721516 0
M  V30 660 H 64.1502 -1.03384 -1.59411 0
M  V30 661 H 62.3002 -0.079044 -3.8842 0
M  V30 662 H 63.9722 -2.68537 -3.75081 0
M  V30 663 H 62.2152 -2.58139 -3.48635 0
M  V30 664 H 62.8862 -2.18182 -5.07051 0
M  V30 665 H 65.3622 -0.499557 -4.1309 0
M  V30 666 H 64.2382 -0.215922 -5.48475 0
M  V30 667 H 64.4992 1.04939 -4.29465 0
M  V30 668 N 63.5583 1.46682 -0.576371 0
M  V30 669 C 64.4883 2.33028 0.148397 0
M  V30 670 C 65.4693 1.44961 0.889956 0
M  V30 671 O 66.6543 1.73789 0.866662 0
M  V30 672 C 63.7843 3.27117 1.1667 0
M  V30 673 C 62.7383 4.24575 0.540386 0
M  V30 674 C 62.0643 5.08126 1.6647 0
M  V30 675 C 63.3643 5.19722 -0.518331 0
M  V30 676 H 65.0583 2.93875 -0.572509 0
M  V30 677 H 62.6043 1.41315 -0.276768 0
M  V30 678 H 64.5573 3.86374 1.68204 0
M  V30 679 H 63.2813 2.64364 1.9178 0
M  V30 680 H 61.9403 3.66571 0.0461769 0
M  V30 681 H 61.5883 4.41762 2.40531 0
M  V30 682 H 61.2883 5.74122 1.25131 0
M  V30 683 H 62.8123 5.70246 2.18293 0
M  V30 684 H 64.2263 5.73232 -0.0883058 0
M  V30 685 H 62.6233 5.94026 -0.851679 0
M  V30 686 H 63.6933 4.64037 -1.40703 0
M  V30 687 N 65.0364 0.313813 1.54444 0
M  V30 688 C 65.9464 -0.565714 2.27677 0
M  V30 689 C 66.9624 -1.13754 1.31666 0
M  V30 690 O 68.1384 -1.15959 1.64668 0
M  V30 691 C 65.2034 -1.71528 3.01296 0
M  V30 692 C 64.2644 -1.17624 4.12872 0
M  V30 693 C 63.4974 -2.27102 4.8297 0
M  V30 694 O 63.7204 -3.47256 4.52514 0
M  V30 695 O 62.6544 -1.9307 5.70094 0
M  V30 696 H 66.4804 0.0287296 3.03686 0
M  V30 697 H 64.0654 0.0798312 1.49187 0
M  V30 698 H 65.9474 -2.38476 3.4743 0
M  V30 699 H 64.6224 -2.29608 2.2817 0
M  V30 700 H 63.5294 -0.472124 3.71109 0
M  V30 701 H 64.8624 -0.640695 4.88012 0
M  V30 702 N 66.5145 -1.57545 0.0417849 0
M  V30 703 C 67.4775 -2.09885 -0.92093 0
M  V30 704 C 68.4775 -1.01648 -1.24596 0
M  V30 705 O 69.6675 -1.27759 -1.1842 0
M  V30 706 C 66.7995 -2.57527 -2.23367 0
M  V30 707 H 67.9925 -2.96236 -0.467382 0
M  V30 708 H 65.5455 -1.5493 -0.206467 0
M  V30 709 H 66.2805 -1.74542 -2.73323 0
M  V30 710 H 66.0655 -3.36613 -2.01083 0
M  V30 711 H 67.5555 -2.98201 -2.92346 0
M  V30 712 N 67.9926 0.231505 -1.5589 0
M  V30 713 C 68.9426 1.29007 -1.87993 0
M  V30 714 C 69.9266 1.42764 -0.742102 0
M  V30 715 O 71.1186 1.45747 -1.00433 0
M  V30 716 C 68.2476 2.6425 -2.1915 0
M  V30 717 C 67.3336 2.54435 -3.39299 0
M  V30 718 N 67.7246 2.14262 -4.58176 0
M  V30 719 C 66.0226 2.85416 -3.42715 0
M  V30 720 C 66.7236 2.15455 -5.40328 0
M  V30 721 N 65.6996 2.55558 -4.79783 0
M  V30 722 H 69.5016 0.970213 -2.77424 0
M  V30 723 H 67.0156 0.440097 -1.56323 0
M  V30 724 H 69.0126 3.40665 -2.40319 0
M  V30 725 H 67.6726 2.9709 -1.31025 0
M  V30 726 H 68.6836 1.85554 -4.83518 0
M  V30 727 H 65.3606 3.22693 -2.64906 0
M  V30 728 H 66.7506 1.86605 -6.45467 0
M  V30 729 N 69.4707 1.49531 0.497807 0
M  V30 730 C 70.7477 1.49682 1.25915 0
M  V30 731 C 71.1277 0.226339 2.09883 0
M  V30 732 O 70.4757 -0.791189 2.14365 0
M  V30 733 C 70.6857 2.77755 2.11313 0
M  V30 734 C 72.0337 3.27371 2.70395 0
M  V30 735 O 73.0577 2.78894 2.21578 0
M  V30 736 O 71.9167 4.11808 3.59272 0
M  V30 737 H 69.0107 0.599228 0.56996 0
M  V30 738 H 71.5567 1.61798 0.511816 0
M  V30 739 H 70.3287 3.61713 1.49264 0
M  V30 740 H 69.9517 2.68515 2.93233 0
M  V30 741 N 70.9488 -0.749086 1.3866 0
M  V30 742 C 71.9118 -1.84457 1.36045 0
M  V30 743 C 72.9118 -1.58682 0.260122 0
M  V30 744 O 74.1018 -1.66343 0.517261 0
M  V30 745 C 71.2338 -3.22008 1.11911 0
M  V30 746 H 72.4268 -1.88182 2.33512 0
M  V30 747 H 69.9798 -0.951266 1.24019 0
M  V30 748 H 70.7148 -3.2395 0.150686 0
M  V30 749 H 70.4998 -3.42111 1.91579 0
M  V30 750 H 71.9898 -4.0208 1.12788 0
M  V30 751 N 72.4269 -1.23603 -0.977757 0
M  V30 752 C 73.3589 -0.977369 -2.07317 0
M  V30 753 C 74.3719 0.0495845 -1.62724 0
M  V30 754 O 75.5609 -0.186261 -1.77526 0
M  V30 755 C 72.6609 -0.451216 -3.35883 0
M  V30 756 C 71.8339 -1.53896 -4.09432 0
M  V30 757 C 70.8929 -1.01721 -5.16274 0
M  V30 758 O 69.9189 -1.70676 -5.43009 0
M  V30 759 N 71.1209 0.153594 -5.80297 0
M  V30 760 H 73.8859 -1.92047 -2.30082 0
M  V30 761 H 71.4469 -1.14497 -1.14465 0
M  V30 762 H 73.4389 -0.0871574 -4.04606 0
M  V30 763 H 72.0089 0.397368 -3.10064 0
M  V30 764 H 71.2289 -2.07566 -3.35127 0
M  V30 765 H 72.5169 -2.27037 -4.55337 0
M  V30 766 H 71.9149 0.730323 -5.60966 0
M  V30 767 H 70.4719 0.458892 -6.50183 0
M  V30 768 N 73.905 1.17692 -1.04816 0
M  V30 769 C 75.153 1.87488 -0.754497 0
M  V30 770 C 75.474 1.81205 0.720407 0
M  V30 771 O 74.744 1.23544 1.52032 0
M  V30 772 H 73.324 0.694101 -0.276102 0
M  V30 773 H 75.986 1.42793 -1.32651 0
M  V30 774 H 75.082 2.93328 -1.06606 0
M  V30 775 N 75.3831 0.828654 1.34056 0
M  V30 776 C 76.6601 0.341809 1.9259 0
M  V30 777 C 77.0401 -1.17158 1.75605 0
M  V30 778 O 76.3881 -1.98132 1.13824 0
M  V30 779 C 76.5981 0.777453 3.4023 0
M  V30 780 C 77.9461 0.779579 4.17382 0
M  V30 781 O 78.9701 0.7204 3.48839 0
M  V30 782 O 77.8291 0.857996 5.39723 0
M  V30 783 H 74.9231 0.0946085 0.821571 0
M  V30 784 H 77.4691 0.913827 1.42994 0
M  V30 785 H 76.2411 1.8196 3.46419 0
M  V30 786 H 75.8641 0.181444 3.97186 0
M  V30 787 N 76.8612 -1.46375 0.584142 0
M  V30 788 C 78.1072 -2.02678 0.0703716 0
M  V30 789 C 78.4402 -1.4545 -1.28678 0
M  V30 790 O 77.7152 -0.62014 -1.84349 0
M  V30 791 C 77.9982 -3.60099 0.00614674 0
M  V30 792 C 77.8512 -4.27709 1.3923 0
M  V30 793 C 79.1702 -4.34598 -0.693742 0
M  V30 794 H 76.2892 -0.736504 0.027047 0
M  V30 795 H 78.9312 -1.74501 0.751615 0
M  V30 796 H 77.0812 -3.84236 -0.574009 0
M  V30 797 H 78.7532 -4.14832 2.01773 0
M  V30 798 H 76.9962 -3.87016 1.95962 0
M  V30 799 H 77.6672 -5.36478 1.29982 0
M  V30 800 H 80.1432 -4.15615 -0.200869 0
M  V30 801 H 79.0192 -5.44318 -0.707714 0
M  V30 802 H 79.2802 -4.05759 -1.75533 0
M  V30 803 N 78.3393 -0.321999 -1.54275 0
M  V30 804 C 79.7503 0.166384 -1.85957 0
M  V30 805 C 80.1013 1.51747 -1.24367 0
M  V30 806 O 79.2263 2.09317 -0.549124 0
M  V30 807 C 79.8213 0.308681 -3.37391 0
M  V30 808 C 78.3803 0.741286 -3.69028 0
M  V30 809 C 77.5273 -0.137937 -2.76957 0
M  V30 810 H 80.4783 -0.542335 -1.49146 0
M  V30 811 H 80.4993 1.13984 -3.63026 0
M  V30 812 H 80.0113 -0.674809 -3.82188 0
M  V30 813 H 78.1123 1.73458 -3.29762 0
M  V30 814 H 78.2253 0.546118 -4.75977 0
M  V30 815 H 76.5893 0.386251 -2.51754 0
M  V30 816 H 77.3723 -1.11816 -3.2458 0
M  V30 817 N 79.8174 1.5752 -0.0501392 0
M  V30 818 C 81.0634 1.92936 0.624798 0
M  V30 819 C 81.3964 0.928685 1.70555 0
M  V30 820 O 80.6714 -0.0454779 1.94447 0
M  V30 821 C 80.9544 3.38737 1.22185 0
M  V30 822 C 80.8074 4.49552 0.149218 0
M  V30 823 C 82.1264 3.84913 2.13378 0
M  V30 824 H 79.2454 0.701604 0.225657 0
M  V30 825 H 81.8874 1.89671 -0.111693 0
M  V30 826 H 80.0374 3.4165 1.84953 0
M  V30 827 H 81.7094 4.58768 -0.482648 0
M  V30 828 H 79.9524 4.30638 -0.522841 0
M  V30 829 H 80.6234 5.48653 0.606966 0
M  V30 830 H 83.0994 3.8387 1.60572 0
M  V30 831 H 81.9754 4.87584 2.52097 0
M  V30 832 H 82.2364 3.21611 3.03346 0
M  V30 833 N 81.2955 -0.223234 1.56011 0
M  V30 834 C 82.5235 -0.964812 1.83027 0
M  V30 835 C 82.9385 -1.78013 0.62904 0
M  V30 836 O 82.2955 -1.78008 -0.402414 0
M  V30 837 C 82.3465 -1.88373 3.08542 0
M  V30 838 O 82.0675 -1.10137 4.2403 0
M  V30 839 C 83.5685 -2.73934 3.48533 0
M  V30 840 H 80.7885 -0.282842 0.608475 0
M  V30 841 H 83.3325 -0.238971 2.03099 0
M  V30 842 H 81.4875 -2.56354 2.9045 0
M  V30 843 H 81.9015 -1.72501 4.95322 0
M  V30 844 H 83.3755 -3.34117 4.39397 0
M  V30 845 H 83.8525 -3.46244 2.70207 0
M  V30 846 H 84.4585 -2.11369 3.69057 0
M  V30 847 N 82.7736 -1.49793 -0.48987 0
M  V30 848 C 84.0196 -1.60078 -1.24511 0
M  V30 849 C 84.3526 -0.291608 -1.91998 0
M  V30 850 O 83.6276 0.705647 -1.81248 0
M  V30 851 C 83.9106 -2.76791 -2.30345 0
M  V30 852 C 83.7636 -4.17535 -1.67286 0
M  V30 853 C 85.0826 -2.89111 -3.31817 0
M  V30 854 H 82.2016 -0.582645 -0.451324 0
M  V30 855 H 84.8436 -1.82117 -0.541612 0
M  V30 856 H 82.9936 -2.5813 -2.90346 0
M  V30 857 H 84.6656 -4.4774 -1.11026 0
M  V30 858 H 82.9086 -4.22665 -0.976577 0
M  V30 859 H 83.5796 -4.95094 -2.44103 0
M  V30 860 H 86.0556 -3.06133 -2.81819 0
M  V30 861 H 84.9316 -3.72433 -4.03219 0
M  V30 862 H 85.1926 -1.9893 -3.94815 0
M  V30 863 N 84.2517 0.741722 -1.39055 0
M  V30 864 C 85.4797 1.53098 -1.39171 0
M  V30 865 C 85.8947 1.88794 0.0155099 0
M  V30 866 O 85.2517 1.53626 0.985159 0
M  V30 867 C 85.3027 2.82274 -2.2584 0
M  V30 868 O 85.0237 2.48097 -3.61081 0
M  V30 869 C 86.5247 3.76343 -2.34266 0
M  V30 870 H 83.7447 0.473335 -0.4756 0
M  V30 871 H 86.2887 0.917045 -1.82785 0
M  V30 872 H 84.4437 3.40015 -1.85656 0
M  V30 873 H 84.8577 3.31029 -4.06842 0
M  V30 874 H 86.3317 4.63898 -2.9917 0
M  V30 875 H 86.8087 4.17619 -1.35982 0
M  V30 876 H 87.4147 3.24523 -2.74891 0
M  V30 877 N 85.7298 1.2412 0.971189 0
M  V30 878 C 86.9758 1.08041 1.71625 0
M  V30 879 C 87.3088 -0.380407 1.90438 0
M  V30 880 O 86.5838 -1.28127 1.46334 0
M  V30 881 C 86.8668 1.81682 3.10908 0
M  V30 882 C 86.7198 3.35493 2.99608 0
M  V30 883 C 88.0388 1.58671 4.10501 0
M  V30 884 H 85.1578 0.39388 0.622919 0
M  V30 885 H 87.7998 1.52743 1.13003 0
M  V30 886 H 85.9498 1.43684 3.60953 0
M  V30 887 H 87.6218 3.83068 2.57015 0
M  V30 888 H 85.8648 3.64052 2.35899 0
M  V30 889 H 86.5358 3.82217 3.98264 0
M  V30 890 H 89.0118 1.91719 3.69301 0
M  V30 891 H 87.8878 2.1266 5.06031 0
M  V30 892 H 88.1488 0.524161 4.38982 0
M  V30 893 N 87.2079 -1.17134 1.05439 0
M  V30 894 C 88.1579 -2.1919 0.627675 0
M  V30 895 C 89.1419 -1.57328 -0.337147 0
M  V30 896 O 90.3339 -1.76329 -0.153976 0
M  V30 897 C 87.4629 -3.43299 0.00651435 0
M  V30 898 C 86.5489 -4.12255 0.995312 0
M  V30 899 N 86.9399 -4.56997 2.16765 0
M  V30 900 C 85.2379 -4.38316 0.824336 0
M  V30 901 C 85.9389 -5.10239 2.7934 0
M  V30 902 N 84.9149 -5.02595 2.07122 0
M  V30 903 H 88.7169 -2.5149 1.52086 0
M  V30 904 H 86.2309 -1.33491 0.924868 0
M  V30 905 H 88.2279 -4.15693 -0.316965 0
M  V30 906 H 86.8879 -3.1249 -0.882033 0
M  V30 907 H 87.8989 -4.51006 2.54587 0
M  V30 908 H 84.5759 -4.17498 -0.0129526 0
M  V30 909 H 85.9659 -5.54961 3.78772 0
M  V30 910 N 88.686 -0.835752 -1.33615 0
M  V30 911 C 89.963 -0.352017 -1.92406 0
M  V30 912 C 90.343 1.16225 -1.76224 0
M  V30 913 O 89.691 1.97526 -1.14873 0
M  V30 914 C 89.901 -0.795485 -3.39813 0
M  V30 915 C 91.249 -0.801703 -4.16963 0
M  V30 916 O 92.273 -0.738889 -3.48452 0
M  V30 917 O 91.132 -0.886607 -5.3926 0
M  V30 918 H 88.226 -0.0989641 -0.821057 0
M  V30 919 H 90.772 -0.921397 -1.42507 0
M  V30 920 H 89.544 -1.83795 -3.45449 0
M  V30 921 H 89.167 -0.202505 -3.97084 0
M  V30 922 N 90.1641 1.46063 -0.591896 0
M  V30 923 C 91.4111 2.02338 -0.0809991 0
M  V30 924 C 91.7391 1.46228 1.28249 0
M  V30 925 O 90.9941 0.620818 1.85592 0
M  V30 926 C 91.2931 3.57391 0.0249813 0
M  V30 927 C 90.9591 4.32583 -1.27211 0
M  V30 928 C 89.6211 4.52844 -1.62745 0
M  V30 929 C 91.9731 4.75687 -2.13005 0
M  V30 930 C 89.3011 5.13462 -2.83855 0
M  V30 931 C 91.6531 5.37644 -3.3335 0
M  V30 932 C 90.3171 5.5613 -3.69155 0
M  V30 933 H 89.5871 0.740407 -0.0296397 0
M  V30 934 H 92.2341 1.75321 -0.770374 0
M  V30 935 H 90.5391 3.83597 0.797537 0
M  V30 936 H 92.2361 3.98621 0.436184 0
M  V30 937 H 88.8261 4.17116 -0.985499 0
M  V30 938 H 93.0101 4.59782 -1.86855 0
M  V30 939 H 88.2661 5.25965 -3.11722 0
M  V30 940 H 92.4401 5.7 -4.00092 0
M  V30 941 H 90.0671 6.0287 -4.63089 0
M  V30 942 N 91.6422 0.330177 1.54103 0
M  V30 943 C 93.0532 -0.15652 1.86043 0
M  V30 944 C 93.4042 -1.51086 1.2517 0
M  V30 945 O 92.5292 -2.09023 0.560217 0
M  V30 946 C 93.1242 -0.290784 3.3755 0
M  V30 947 C 91.6832 -0.721705 3.69416 0
M  V30 948 C 90.8302 0.152622 2.7688 0
M  V30 949 H 93.7812 0.550237 1.48856 0
M  V30 950 H 93.8022 -1.12058 3.63625 0
M  V30 951 H 93.3142 0.695068 3.81825 0
M  V30 952 H 91.4152 -1.71706 3.30678 0
M  V30 953 H 91.5282 -0.520869 4.7626 0
M  V30 954 H 89.8922 -0.372894 2.51956 0
M  V30 955 H 90.6752 1.13536 3.23982 0
M  V30 956 N 93.1203 -1.57491 0.0584922 0
M  V30 957 C 94.3683 -1.92597 -0.612436 0
M  V30 958 C 94.6893 -0.938162 -1.70949 0
M  V30 959 O 93.9593 0.0158301 -1.95894 0
M  V30 960 H 92.5393 -0.710964 -0.229214 0
M  V30 961 H 95.2013 -1.94571 0.113218 0
M  V30 962 H 94.2973 -2.94038 -1.04633 0
M  V30 963 N 94.5984 0.214957 -1.56127 0
M  V30 964 C 95.5454 1.26642 -1.92952 0
M  V30 965 C 96.5154 1.46244 -0.78753 0
M  V30 966 O 97.7004 1.59704 -1.04399 0
M  V30 967 C 94.8404 2.6104 -2.25726 0
M  V30 968 C 93.9534 2.49183 -3.52891 0
M  V30 969 C 93.0884 3.76149 -3.7508 0
M  V30 970 C 92.1274 3.59041 -4.95738 0
M  V30 971 N 91.2644 4.77972 -5.14283 0
M  V30 972 H 96.1044 0.945384 -2.82607 0
M  V30 973 H 93.6414 0.455489 -1.3987 0
M  V30 974 H 95.5994 3.39313 -2.42739 0
M  V30 975 H 94.2294 2.91227 -1.39236 0
M  V30 976 H 93.2814 1.6231 -3.44034 0
M  V30 977 H 94.5934 2.32466 -4.41318 0
M  V30 978 H 93.7474 4.62865 -3.92226 0
M  V30 979 H 92.4864 3.95799 -2.84947 0
M  V30 980 H 91.4914 2.7071 -4.78535 0
M  V30 981 H 92.7164 3.40856 -5.87362 0
M  V30 982 H 90.6624 4.97923 -4.27093 0
M  V30 983 H 90.5794 4.64006 -5.96853 0
M  V30 984 H 91.8474 5.66096 -5.35869 0
M  V30 985 N 96.0765 1.50051 0.48192 0
M  V30 986 C 97.0235 1.68122 1.58125 0
M  V30 987 C 97.9935 0.522545 1.57666 0
M  V30 988 O 99.1785 0.751844 1.75362 0
M  V30 989 C 96.3185 1.77142 2.96167 0
M  V30 990 C 95.4315 3.0444 3.06497 0
M  V30 991 C 94.5665 3.04321 4.35387 0
M  V30 992 C 93.6055 4.26118 4.3942 0
M  V30 993 N 92.7425 4.238 5.59766 0
M  V30 994 H 97.5825 2.6198 1.42022 0
M  V30 995 H 95.1195 1.29877 0.690687 0
M  V30 996 H 97.0775 1.80352 3.76203 0
M  V30 997 H 95.7075 0.867329 3.1093 0
M  V30 998 H 94.7595 3.10752 2.19402 0
M  V30 999 H 96.0715 3.94426 3.05336 0
M  V30 1000 H 95.2255 3.062 5.23762 0
M  V30 1001 H 93.9645 2.12147 4.39141 0
M  V30 1002 H 92.9695 4.24463 3.49444 0
M  V30 1003 H 94.1945 5.19507 4.37366 0
M  V30 1004 H 92.1405 3.34474 5.64326 0
M  V30 1005 H 92.0575 5.07542 5.60301 0
M  V30 1006 H 93.3255 4.2981 6.50295 0
M  V30 1007 N 97.5546 -0.734337 1.39446 0
M  V30 1008 C 98.4846 -1.86155 1.40955 0
M  V30 1009 C 99.4656 -1.67898 0.272827 0
M  V30 1010 O 100.651 -1.88207 0.478743 0
M  V30 1011 C 97.7806 -3.23912 1.25294 0
M  V30 1012 C 96.7346 -3.56808 2.36373 0
M  V30 1013 C 96.0606 -4.93508 2.058 0
M  V30 1014 C 97.3606 -3.59713 3.78687 0
M  V30 1015 H 99.0546 -1.8515 2.35287 0
M  V30 1016 H 96.6006 -0.889367 1.13253 0
M  V30 1017 H 98.5536 -4.02443 1.2497 0
M  V30 1018 H 97.2776 -3.25446 0.274308 0
M  V30 1019 H 95.9366 -2.80606 2.35914 0
M  V30 1020 H 95.5846 -4.91623 1.06374 0
M  V30 1021 H 95.2846 -5.16486 2.80208 0
M  V30 1022 H 96.8086 -5.74396 2.07128 0
M  V30 1023 H 98.2226 -4.2832 3.81071 0
M  V30 1024 H 96.6196 -3.94209 4.52459 0
M  V30 1025 H 97.6896 -2.59504 4.09617 0
M  V30 1026 N 99.0327 -1.24633 -0.964593 0
M  V30 1027 C 100.279 -1.08949 -1.71049 0
M  V30 1028 C 100.612 0.370302 -1.90637 0
M  V30 1029 O 99.8867 1.27349 -1.47011 0
M  V30 1030 C 100.17 -1.83329 -3.0994 0
M  V30 1031 C 100.023 -3.37077 -2.97824 0
M  V30 1032 C 101.342 -1.60846 -4.09654 0
M  V30 1033 H 98.4607 -0.397178 -0.620821 0
M  V30 1034 H 101.103 -1.5334 -1.12191 0
M  V30 1035 H 99.2527 -1.45597 -3.60186 0
M  V30 1036 H 100.925 -3.84425 -2.5498 0
M  V30 1037 H 99.1677 -3.65298 -2.33965 0
M  V30 1038 H 99.8387 -3.84324 -3.96231 0
M  V30 1039 H 102.315 -1.93674 -3.68279 0
M  V30 1040 H 101.191 -2.1534 -5.04896 0
M  V30 1041 H 101.452 -0.547434 -4.38698 0
M  V30 1042 N 100.511 1.16574 -1.06058 0
M  V30 1043 C 101.441 2.23057 -0.690488 0
M  V30 1044 C 102.422 1.67141 0.315901 0
M  V30 1045 O 103.607 1.93253 0.191556 0
M  V30 1046 C 100.737 3.47222 -0.073625 0
M  V30 1047 C 99.6908 4.16016 -1.00573 0
M  V30 1048 C 99.0168 5.34104 -0.252289 0
M  V30 1049 C 100.317 4.67264 -2.33371 0
M  V30 1050 H 102.011 2.54271 -1.58072 0
M  V30 1051 H 99.5568 1.22218 -0.76149 0
M  V30 1052 H 101.51 4.20939 0.19714 0
M  V30 1053 H 100.234 3.15302 0.85161 0
M  V30 1054 H 98.8928 3.44223 -1.2612 0
M  V30 1055 H 98.5408 4.98437 0.675988 0
M  V30 1056 H 98.2408 5.81072 -0.873455 0
M  V30 1057 H 99.7648 6.10599 0.0109857 0
M  V30 1058 H 101.179 5.32573 -2.12223 0
M  V30 1059 H 99.5758 5.24843 -2.90963 0
M  V30 1060 H 100.646 3.83602 -2.96611 0
M  V30 1061 N 101.989 0.842826 1.3317 0
M  V30 1062 C 103.214 0.453129 2.02389 0
M  V30 1063 C 103.639 -0.939105 1.6298 0
M  V30 1064 O 102.997 -1.61472 0.8244 0
M  V30 1065 C 103.045 0.586094 3.55805 0
M  V30 1066 O 102.149 -0.386029 4.10589 0
M  V30 1067 H 101.49 0.183664 0.638094 0
M  V30 1068 H 104.02 1.13875 1.69981 0
M  V30 1069 H 104.03 0.469209 4.05293 0
M  V30 1070 H 102.705 1.6014 3.83833 0
M  V30 1071 H 101.282 -0.226371 3.72212 0
M  V30 1072 N 103.467 -1.45747 0.599634 0
M  V30 1073 C 104.692 -2.07178 0.0960198 0
M  V30 1074 C 105.117 -1.44268 -1.207 0
M  V30 1075 O 104.475 -0.532503 -1.73303 0
M  V30 1076 C 104.523 -3.60579 -0.0385348 0
M  V30 1077 O 103.627 -3.97713 -1.0908 0
M  V30 1078 H 102.968 -0.660251 0.0704593 0
M  V30 1079 H 105.498 -1.87124 0.827385 0
M  V30 1080 H 105.508 -4.07298 -0.239304 0
M  V30 1081 H 104.183 -4.05756 0.912947 0
M  V30 1082 H 102.76 -3.62678 -0.867135 0
M  V30 1083 N 104.945 -0.338344 -1.53925 0
M  V30 1084 C 105.855 0.529421 -2.28548 0
M  V30 1085 C 106.871 1.11645 -1.3346 0
M  V30 1086 O 108.047 1.13325 -1.66492 0
M  V30 1087 C 105.112 1.66713 -3.03987 0
M  V30 1088 C 104.173 1.11041 -4.14691 0
M  V30 1089 C 103.406 2.19389 -4.86522 0
M  V30 1090 O 103.629 3.40013 -4.57982 0
M  V30 1091 O 102.563 1.83976 -5.73094 0
M  V30 1092 H 106.389 -0.0770399 -3.03602 0
M  V30 1093 H 103.974 -0.103555 -1.49041 0
M  V30 1094 H 105.856 2.32918 -3.5118 0
M  V30 1095 H 104.531 2.25949 -2.31794 0
M  V30 1096 H 103.438 0.413024 -3.71813 0
M  V30 1097 H 104.771 0.562975 -4.8897 0
M  V30 1098 N 106.423 1.57458 -0.0668435 0
M  V30 1099 C 107.37 2.12439 0.902122 0
M  V30 1100 C 108.34 1.03565 1.2986 0
M  V30 1101 O 109.525 1.312 1.38532 0
M  V30 1102 C 106.665 2.6865 2.16614 0
M  V30 1103 C 105.778 3.91663 1.82274 0
M  V30 1104 C 104.913 4.36134 3.0325 0
M  V30 1105 C 103.952 5.51808 2.64904 0
M  V30 1106 N 103.089 5.9126 3.78624 0
M  V30 1107 H 107.929 2.94934 0.426382 0
M  V30 1108 H 105.466 1.4575 0.198819 0
M  V30 1109 H 107.424 2.99346 2.90599 0
M  V30 1110 H 106.054 1.88928 2.61737 0
M  V30 1111 H 105.106 3.6746 0.983719 0
M  V30 1112 H 106.418 4.75693 1.50059 0
M  V30 1113 H 105.572 4.68465 3.85519 0
M  V30 1114 H 104.311 3.50948 3.38655 0
M  V30 1115 H 103.316 5.19133 1.81055 0
M  V30 1116 H 104.541 6.38722 2.30675 0
M  V30 1117 H 102.487 5.09024 4.138 0
M  V30 1118 H 102.404 6.70018 3.5016 0
M  V30 1119 H 103.672 6.28212 4.61486 0
M  V30 1120 N 107.901 -0.206675 1.56239 0
M  V30 1121 C 109.129 -0.945345 1.8404 0
M  V30 1122 C 109.544 -1.77336 0.647885 0
M  V30 1123 O 108.901 -1.78425 -0.383511 0
M  V30 1124 C 108.952 -1.8509 3.10522 0
M  V30 1125 O 108.673 -1.05634 4.25174 0
M  V30 1126 C 110.174 -2.70222 3.51418 0
M  V30 1127 H 107.394 -0.276372 0.61144 0
M  V30 1128 H 109.938 -0.217417 2.03341 0
M  V30 1129 H 108.093 -2.53259 2.93153 0
M  V30 1130 H 108.507 -1.67238 4.97124 0
M  V30 1131 H 109.981 -3.29438 4.42916 0
M  V30 1132 H 110.458 -3.43358 2.73864 0
M  V30 1133 H 111.064 -2.07443 3.71278 0
M  V30 1134 N 109.379 -1.50304 -0.473955 0
M  V30 1135 C 110.625 -1.61389 -1.22806 0
M  V30 1136 C 110.958 -0.311955 -1.91678 0
M  V30 1137 O 110.233 0.686384 -1.81986 0
M  V30 1138 C 110.516 -2.79219 -2.27396 0
M  V30 1139 C 110.369 -4.19286 -1.62848 0
M  V30 1140 C 111.688 -2.92614 -3.28732 0
M  V30 1141 H 108.807 -0.587399 -0.445119 0
M  V30 1142 H 111.449 -1.82681 -0.522265 0
M  V30 1143 H 109.599 -2.61195 -2.87592 0
M  V30 1144 H 111.271 -4.48892 -1.06271 0
M  V30 1145 H 109.514 -4.23677 -0.931693 0
M  V30 1146 H 110.185 -4.97655 -2.38838 0
M  V30 1147 H 112.661 -3.09105 -2.78556 0
M  V30 1148 H 111.537 -3.76688 -3.99246 0
M  V30 1149 H 111.798 -2.03107 -3.92683 0
M  V30 1150 N 110.857 0.726932 -1.39834 0
M  V30 1151 C 111.787 1.85405 -1.41941 0
M  V30 1152 C 112.768 1.67751 -0.281728 0
M  V30 1153 O 113.953 1.8795 -0.488717 0
M  V30 1154 C 111.083 3.23243 -1.2701 0
M  V30 1155 C 110.037 3.55549 -2.38262 0
M  V30 1156 C 109.363 4.9241 -2.08415 0
M  V30 1157 C 110.663 3.577 -3.80589 0
M  V30 1158 H 112.357 1.83899 -2.36266 0
M  V30 1159 H 109.903 0.883349 -1.13723 0
M  V30 1160 H 111.856 4.01775 -1.27103 0
M  V30 1161 H 110.58 3.25296 -0.291564 0
M  V30 1162 H 109.239 2.79351 -2.37399 0
M  V30 1163 H 108.887 4.91052 -1.0898 0
M  V30 1164 H 108.587 5.14992 -2.82943 0
M  V30 1165 H 110.111 5.73289 -2.10171 0
M  V30 1166 H 111.525 4.26293 -3.83337 0
M  V30 1167 H 109.922 3.91804 -4.54543 0
M  V30 1168 H 110.992 2.57328 -4.10987 0
M  V30 1169 N 112.336 1.25143 0.95797 0
M  V30 1170 C 113.564 1.12424 1.73691 0
M  V30 1171 C 113.979 -0.322304 1.86029 0
M  V30 1172 O 113.336 -1.22186 1.35561 0
M  V30 1173 C 113.387 1.76933 3.15241 0
M  V30 1174 O 113.108 3.15932 3.03511 0
M  V30 1175 C 114.609 1.6995 4.09429 0
M  V30 1176 H 111.829 0.3923 0.544373 0
M  V30 1177 H 114.373 1.6544 1.20207 0
M  V30 1178 H 112.528 1.27895 3.6568 0
M  V30 1179 H 112.942 3.47598 3.9278 0
M  V30 1180 H 114.416 2.19753 5.06372 0
M  V30 1181 H 114.893 0.662619 4.34173 0
M  V30 1182 H 115.499 2.18461 3.64904 0
M  V30 1183 N 113.814 -1.1601 1.06675 0
M  V30 1184 C 115.225 -1.68235 0.809565 0
M  V30 1185 C 115.576 -1.8454 -0.666303 0
M  V30 1186 O 114.701 -1.54374 -1.5165 0
M  V30 1187 C 115.296 -3.05585 1.46299 0
M  V30 1188 C 113.855 -3.54915 1.25349 0
M  V30 1189 C 113.002 -2.30804 1.53703 0
M  V30 1190 H 115.953 -1.00318 1.22971 0
M  V30 1191 H 115.974 -3.70174 0.880431 0
M  V30 1192 H 115.486 -2.93686 2.53713 0
M  V30 1193 H 113.587 -3.72067 0.199261 0
M  V30 1194 H 113.7 -4.36774 1.9689 0
M  V30 1195 H 112.064 -2.36007 0.957739 0
M  V30 1196 H 112.847 -2.21499 2.62284 0
M  V30 1197 N 115.292 -0.849877 -1.32721 0
M  V30 1198 C 116.255 -0.296122 -2.27279 0
M  V30 1199 C 117.255 0.541458 -1.5141 0
M  V30 1200 O 118.445 0.353658 -1.70572 0
M  V30 1201 C 115.577 0.581579 -3.35902 0
M  V30 1202 H 116.77 -1.13064 -2.77771 0
M  V30 1203 H 114.323 -0.62383 -1.43311 0
M  V30 1204 H 115.058 1.43809 -2.9067 0
M  V30 1205 H 114.843 -0.0178814 -3.92096 0
M  V30 1206 H 116.333 0.961951 -4.0637 0
M  V30 1207 N 116.77 1.45427 -0.607355 0
M  V30 1208 C 117.998 2.06614 -0.108814 0
M  V30 1209 C 118.413 1.45204 1.2067 0
M  V30 1210 O 117.77 0.566132 1.73497 0
M  V30 1211 C 117.821 3.61481 0.0375347 0
M  V30 1212 O 117.542 4.20598 -1.22593 0
M  V30 1213 C 119.043 4.39652 0.567561 0
M  V30 1214 H 116.263 0.66747 -0.0687351 0
M  V30 1215 H 118.807 1.86675 -0.835022 0
M  V30 1216 H 116.962 3.80762 0.714068 0
M  V30 1217 H 117.376 5.1377 -1.05547 0
M  V30 1218 H 118.85 5.48518 0.61905 0
M  V30 1219 H 119.327 4.09417 1.58978 0
M  V30 1220 H 119.933 4.25234 -0.0749202 0
M  V30 1221 N 118.248 0.346503 1.53744 0
M  V30 1222 C 119.196 -0.52422 2.26616 0
M  V30 1223 C 120.19 -1.09948 1.28871 0
M  V30 1224 O 121.396 -1.04488 1.46568 0
M  V30 1225 H 117.771 -0.187743 0.728187 0
M  V30 1226 H 119.742 0.11239 2.98188 0
M  V30 1227 C 118.491 -1.66186 3.05414 0
M  V30 1228 H 117.814 -1.22848 3.80458 0
M  V30 1229 H 119.254 -2.24622 3.59612 0
M  V30 1230 C 117.713 -2.59302 2.1509 0
M  V30 1231 O 118.243 -3.61628 1.74895 0
M  V30 1232 N 116.449 -2.28055 1.8011 0
M  V30 1233 H 115.996 -1.44883 2.12994 0
M  V30 1234 H 115.954 -2.90615 1.19958 0
M  V30 1235 N 119.726 -1.57421 0.075193 0
M  V30 1236 C 120.676 -2.09441 -0.901025 0
M  V30 1237 C 121.66 -1.00486 -1.25663 0
M  V30 1238 O 122.852 -1.2679 -1.23504 0
M  V30 1239 C 119.981 -2.66233 -2.16737 0
M  V30 1240 C 119.067 -3.82198 -1.83808 0
M  V30 1241 N 119.458 -4.91028 -1.21345 0
M  V30 1242 C 117.756 -3.91558 -2.13538 0
M  V30 1243 C 118.457 -5.71852 -1.06585 0
M  V30 1244 N 117.433 -5.20233 -1.57667 0
M  V30 1245 H 121.235 -2.90972 -0.413815 0
M  V30 1246 H 118.749 -1.6189 -0.128601 0
M  V30 1247 H 120.746 -3.01819 -2.87595 0
M  V30 1248 H 119.406 -1.8615 -2.66042 0
M  V30 1249 H 120.417 -5.10323 -0.88268 0
M  V30 1250 H 117.094 -3.22454 -2.65197 0
M  V30 1251 H 118.484 -6.69401 -0.578933 0
M  V30 1252 N 121.204 0.198386 -1.56346 0
M  V30 1253 C 122.137 1.27381 -1.89339 0
M  V30 1254 C 123.115 1.44106 -0.753134 0
M  V30 1255 O 124.299 1.59549 -1.00381 0
M  V30 1256 C 121.426 2.6409 -2.12071 0
M  V30 1257 C 120.472 2.64253 -3.34772 0
M  V30 1258 S 121.305 2.16013 -4.89999 0
M  V30 1259 C 122.461 3.54553 -5.15794 0
M  V30 1260 H 122.694 0.992058 -2.8026 0
M  V30 1261 H 120.227 0.401726 -1.49082 0
M  V30 1262 H 122.185 3.42786 -2.2585 0
M  V30 1263 H 120.846 2.89478 -1.21906 0
M  V30 1264 H 120.039 3.64768 -3.47794 0
M  V30 1265 H 119.641 1.93637 -3.1997 0
M  V30 1266 H 121.933 4.50396 -5.06112 0
M  V30 1267 H 122.876 3.46428 -6.1757 0
M  V30 1268 H 123.284 3.49313 -4.43442 0
M  V30 1269 N 122.682 1.50554 0.465978 0
M  V30 1270 C 123.93 1.61479 1.21528 0
M  V30 1271 C 124.251 0.319596 1.92363 0
M  V30 1272 O 123.521 -0.663194 1.84333 0
M  V30 1273 H 122.101 0.595055 0.451573 0
M  V30 1274 H 124.763 1.87355 0.53704 0
M  V30 1275 H 123.859 2.42846 1.96042 0
M  V30 1276 N 124.16 -0.719506 1.40217 0
M  V30 1277 C 125.108 -1.85493 1.40339 0
M  V30 1278 C 126.102 -1.66995 0.284415 0
M  V30 1279 O 127.308 -1.74148 0.455252 0
M  V30 1280 H 123.683 -0.610857 0.438586 0
M  V30 1281 H 125.654 -1.82506 2.36081 0
M  V30 1282 C 124.403 -3.23321 1.27901 0
M  V30 1283 H 123.726 -3.38159 2.1328 0
M  V30 1284 H 125.166 -4.02914 1.32045 0
M  V30 1285 C 123.625 -3.36898 -0.0111355 0
M  V30 1286 O 124.155 -3.89674 -0.975538 0
M  V30 1287 N 122.361 -2.90492 -0.0793393 0
M  V30 1288 H 121.908 -2.47731 0.706183 0
M  V30 1289 H 121.866 -2.99955 -0.942038 0
M  V30 1290 N 125.638 -1.25649 -0.95132 0
M  V30 1291 C 126.884 -1.10757 -1.69884 0
M  V30 1292 C 127.217 0.350061 -1.91019 0
M  V30 1293 O 126.492 1.25783 -1.48354 0
M  V30 1294 C 126.775 -1.86606 -3.07978 0
M  V30 1295 C 126.628 -3.40217 -2.94232 0
M  V30 1296 C 127.947 -1.65182 -4.07925 0
M  V30 1297 H 125.066 -0.40374 -0.616574 0
M  V30 1298 H 127.708 -1.54521 -1.10558 0
M  V30 1299 H 125.858 -1.49409 -3.58621 0
M  V30 1300 H 127.53 -3.87108 -2.50889 0
M  V30 1301 H 125.773 -3.67759 -2.30078 0
M  V30 1302 H 126.444 -3.88505 -3.92133 0
M  V30 1303 H 128.92 -1.9757 -3.66204 0
M  V30 1304 H 127.796 -2.20683 -5.02583 0
M  V30 1305 H 128.057 -0.593933 -4.38092 0
M  V30 1306 N 127.117 1.15442 -1.07289 0
M  V30 1307 C 128.345 1.90096 -0.81676 0
M  V30 1308 C 128.76 1.7798 0.629966 0
M  V30 1309 O 128.117 1.1313 1.43206 0
M  V30 1310 C 128.168 3.40466 -1.21512 0
M  V30 1311 O 127.889 3.52232 -2.60508 0
M  V30 1312 C 129.39 4.32145 -0.988198 0
M  V30 1313 H 126.61 0.602495 -0.295366 0
M  V30 1314 H 129.154 1.4627 -1.42918 0
M  V30 1315 H 127.309 3.81958 -0.647039 0
M  V30 1316 H 127.723 4.45549 -2.76742 0
M  V30 1317 H 129.197 5.36072 -1.31645 0
M  V30 1318 H 129.674 4.39135 0.0755063 0
M  V30 1319 H 130.28 3.96395 -1.54115 0
M  V30 1320 N 128.595 0.856903 1.32268 0
M  V30 1321 C 129.842 0.461386 1.97174 0
M  V30 1322 C 130.17 -0.983491 1.67803 0
M  V30 1323 O 129.425 -1.70541 0.959903 0
M  V30 1324 C 129.724 0.649919 3.51441 0
M  V30 1325 C 129.39 2.0656 4.00804 0
M  V30 1326 C 128.052 2.45279 4.13995 0
M  V30 1327 C 130.404 2.98947 4.26943 0
M  V30 1328 C 127.732 3.75653 4.50668 0
M  V30 1329 C 130.084 4.28822 4.65075 0
M  V30 1330 C 128.748 4.67472 4.76472 0
M  V30 1331 H 128.018 0.168833 0.72151 0
M  V30 1332 H 130.665 1.08739 1.57633 0
M  V30 1333 H 128.97 -0.0593018 3.91755 0
M  V30 1334 H 130.667 0.32391 3.9969 0
M  V30 1335 H 127.257 1.75495 3.91024 0
M  V30 1336 H 131.441 2.70265 4.16258 0
M  V30 1337 H 126.697 4.05379 4.57688 0
M  V30 1338 H 130.871 5.0047 4.84255 0
M  V30 1339 H 128.498 5.68539 5.04646 0
M  V30 1340 N 130.073 -1.45103 0.615059 0
M  V30 1341 C 131.301 -2.06553 0.11977 0
M  V30 1342 C 131.716 -1.45842 -1.19898 0
M  V30 1343 O 131.073 -0.575325 -1.73194 0
M  V30 1344 C 131.124 -3.61495 -0.018364 0
M  V30 1345 O 130.845 -4.19942 1.24822 0
M  V30 1346 C 132.346 -4.39947 -0.544237 0
M  V30 1347 H 129.566 -0.667096 0.0722739 0
M  V30 1348 H 132.11 -1.8623 0.84491 0
M  V30 1349 H 130.265 -3.81135 -0.693865 0
M  V30 1350 H 130.679 -5.13204 1.0827 0
M  V30 1351 H 132.153 -5.48838 -0.589953 0
M  V30 1352 H 132.63 -4.10255 -1.56805 0
M  V30 1353 H 133.236 -4.25188 0.0974703 0
M  V30 1354 N 131.551 -0.354651 -1.53558 0
M  V30 1355 C 132.8 0.239504 -2.00273 0
M  V30 1356 C 133.113 1.50759 -1.24623 0
M  V30 1357 O 134.319 2.17968 -1.61871 0
M  V30 1358 C 132.775 0.477341 -3.5672 0
M  V30 1359 C 132.383 -0.775488 -4.41237 0
M  V30 1360 C 134.127 1.02975 -4.11821 0
M  V30 1361 C 132.034 -0.507838 -5.89216 0
M  V30 1362 H 130.964 0.0932743 -0.748208 0
M  V30 1363 H 133.615 -0.471701 -1.77334 0
M  V30 1364 H 131.997 1.24953 -3.7577 0
M  V30 1365 H 133.171 -1.54963 -4.33962 0
M  V30 1366 H 131.486 -1.25033 -3.97185 0
M  V30 1367 H 134.083 1.24513 -5.2 0
M  V30 1368 H 134.426 1.98862 -3.65731 0
M  V30 1369 H 134.959 0.317994 -3.96527 0
M  V30 1370 H 131.698 -1.43674 -6.39561 0
M  V30 1371 H 131.218 0.228011 -5.99366 0
M  V30 1372 H 132.897 -0.129238 -6.46871 0
M  V30 1373 N 133.029 1.57378 -0.0835403 0
M  V30 1374 C 134.44 1.81261 0.447358 0
M  V30 1375 C 134.791 0.998331 1.68902 0
M  V30 1376 O 133.916 0.224282 2.15235 0
M  V30 1377 C 134.511 3.28767 0.818386 0
M  V30 1378 C 133.07 3.53455 1.29409 0
M  V30 1379 C 132.217 2.75831 0.285024 0
M  V30 1380 H 135.168 1.5566 -0.309115 0
M  V30 1381 H 135.189 3.41459 1.67887 0
M  V30 1382 H 134.701 3.88006 -0.0855019 0
M  V30 1383 H 132.802 2.99534 2.21608 0
M  V30 1384 H 132.915 4.62128 1.2639 0
M  V30 1385 H 131.279 2.42947 0.764767 0
M  V30 1386 H 132.062 3.37813 -0.611341 0
M  V30 1387 N 134.507 -0.190092 1.56449 0
M  V30 1388 C 135.47 -1.21925 1.9408 0
M  V30 1389 C 136.47 -1.38176 0.822431 0
M  V30 1390 O 137.66 -1.35903 1.08977 0
M  V30 1391 C 134.792 -2.58773 2.21922 0
M  V30 1392 H 135.985 -0.897464 2.86157 0
M  V30 1393 H 133.538 -0.43181 1.50217 0
M  V30 1394 H 134.273 -2.95998 1.32499 0
M  V30 1395 H 134.058 -2.48348 3.03424 0
M  V30 1396 H 135.548 -3.32978 2.52022 0
M  V30 1397 N 135.985 -1.50799 -0.457987 0
M  V30 1398 C 136.933 -1.71162 -1.575 0
M  V30 1399 C 137.927 -0.577592 -1.59249 0
M  V30 1400 O 139.133 -0.758443 -1.63241 0
M  V30 1401 H 135.508 -0.540468 -0.522875 0
M  V30 1402 H 137.479 -2.64837 -1.37492 0
M  V30 1403 C 136.228 -1.83496 -2.95338 0
M  V30 1404 H 135.551 -2.70153 -2.94716 0
M  V30 1405 H 136.991 -2.01765 -3.72917 0
M  V30 1406 C 135.45 -0.589694 -3.31699 0
M  V30 1407 O 135.98 0.265163 -4.00824 0
M  V30 1408 N 134.186 -0.439845 -2.87252 0
M  V30 1409 H 133.733 -1.13655 -2.31172 0
M  V30 1410 H 133.691 0.392159 -3.11945 0
M  V30 1411 N 137.463 0.71206 -1.40597 0
M  V30 1412 C 138.879 1.02058 -1.22704 0
M  V30 1413 C 139.079 2.01228 -0.104729 0
M  V30 1414 O 138.135 2.4674 0.53624 0
M  V30 1415 C 139.448 1.56094 -2.57012 0
M  V30 1416 C 140.996 1.6806 -2.64054 0
M  V30 1417 C 141.471 2.25501 -3.9864 0
M  V30 1418 N 142.962 2.32882 -4.004 0
M  V30 1419 C 143.697 2.78317 -5.01325 0
M  V30 1420 N 143.193 3.23478 -6.12645 0
M  V30 1421 N 144.986 2.77733 -4.88693 0
M  V30 1422 H 137.137 0.0547896 -2.12329 0
M  V30 1423 H 139.4 0.0869027 -0.944008 0
M  V30 1424 H 139.106 0.906865 -3.39807 0
M  V30 1425 H 138.98 2.54564 -2.78347 0
M  V30 1426 H 141.367 2.32583 -1.81629 0
M  V30 1427 H 141.448 0.681802 -2.46546 0
M  V30 1428 H 141.092 1.61598 -4.81506 0
M  V30 1429 H 141.022 3.26102 -4.13479 0
M  V30 1430 H 143.513 2.00991 -3.20017 0
M  V30 1431 H 143.826 3.56725 -6.85542 0
M  V30 1432 H 142.171 3.21429 -6.16205 0
M  V30 1433 H 145.362 2.4179 -4.00818 0
M  V30 1434 H 145.535 3.12826 -5.67489 0
M  V30 1435 N 138.941 1.26152 0.944643 0
M  V30 1436 C 139.851 1.09176 2.07648 0
M  V30 1437 C 140.867 0.0261935 1.7398 0
M  V30 1438 O 142.043 0.229208 2.00091 0
M  V30 1439 C 139.108 0.722915 3.39079 0
M  V30 1440 C 138.169 1.86752 3.86552 0
M  V30 1441 C 137.402 1.51617 5.11711 0
M  V30 1442 O 137.625 0.416331 5.68879 0
M  V30 1443 O 136.559 2.34975 5.54139 0
M  V30 1444 H 140.385 2.0412 2.24875 0
M  V30 1445 H 137.97 1.05182 1.061 0
M  V30 1446 H 139.852 0.529787 4.18056 0
M  V30 1447 H 138.527 -0.197159 3.23099 0
M  V30 1448 H 137.434 2.11558 3.08535 0
M  V30 1449 H 138.767 2.76719 4.07047 0
M  V30 1450 N 140.419 -1.14872 1.07899 0
M  V30 1451 C 141.666 -1.85789 0.805532 0
M  V30 1452 C 141.994 -1.82649 -0.668561 0
M  V30 1453 O 141.249 -1.24858 -1.50695 0
M  V30 1454 C 141.548 -3.34223 1.26609 0
M  V30 1455 C 141.214 -3.57555 2.74709 0
M  V30 1456 C 139.876 -3.63631 3.1516 0
M  V30 1457 C 142.228 -3.66803 3.70277 0
M  V30 1458 C 139.556 -3.76473 4.49983 0
M  V30 1459 C 141.908 -3.8117 5.04869 0
M  V30 1460 C 140.572 -3.85494 5.44932 0
M  V30 1461 H 139.842 -0.679849 0.294765 0
M  V30 1462 H 142.489 -1.3572 1.35101 0
M  V30 1463 H 140.794 -3.86536 0.640103 0
M  V30 1464 H 142.491 -3.87511 1.03132 0
M  V30 1465 H 139.081 -3.5347 2.42398 0
M  V30 1466 H 143.265 -3.61404 3.40149 0
M  V30 1467 H 138.521 -3.7808 4.80484 0
M  V30 1468 H 142.695 -3.87268 5.78789 0
M  V30 1469 H 140.322 -3.95197 6.49403 0
M  V30 1470 N 141.898 -0.863906 -1.31812 0
M  V30 1471 C 142.845 -0.313303 -2.28664 0
M  V30 1472 C 143.815 0.584868 -1.55462 0
M  V30 1473 O 145 0.517805 -1.83639 0
M  V30 1474 C 142.14 0.48441 -3.41683 0
M  V30 1475 C 141.253 -0.440594 -4.29747 0
M  V30 1476 C 140.388 0.370652 -5.29905 0
M  V30 1477 C 139.427 -0.551164 -6.09613 0
M  V30 1478 N 138.564 0.223462 -7.01744 0
M  V30 1479 H 143.404 -1.14444 -2.75148 0
M  V30 1480 H 140.941 -0.575769 -1.35364 0
M  V30 1481 H 142.899 0.962627 -4.05943 0
M  V30 1482 H 141.529 1.28029 -2.96325 0
M  V30 1483 H 140.581 -1.03724 -3.65986 0
M  V30 1484 H 141.893 -1.14767 -4.85417 0
M  V30 1485 H 141.047 0.911638 -5.99812 0
M  V30 1486 H 139.786 1.11105 -4.74876 0
M  V30 1487 H 138.791 -1.10396 -5.38603 0
M  V30 1488 H 140.016 -1.29032 -6.66729 0
M  V30 1489 H 137.962 0.946787 -6.49132 0
M  V30 1490 H 137.879 -0.424399 -7.54808 0
M  V30 1491 H 139.147 0.745876 -7.75923 0
M  V30 1492 N 143.376 1.44774 -0.622745 0
M  V30 1493 C 144.601 2.06999 -0.128968 0
M  V30 1494 C 145.026 1.4617 1.1839 0
M  V30 1495 O 144.384 0.560007 1.72434 0
M  V30 1496 C 144.432 3.60595 -0.0188351 0
M  V30 1497 O 143.536 3.99398 1.02739 0
M  V30 1498 H 142.877 0.659047 -0.0809544 0
M  V30 1499 H 145.407 1.85784 -0.85705 0
M  V30 1500 H 145.417 4.07627 0.174476 0
M  V30 1501 H 144.092 4.04252 -0.977384 0
M  V30 1502 H 142.669 3.64011 0.809326 0
M  V30 1503 N 144.854 0.36279 1.53368 0
M  V30 1504 C 145.764 -0.492994 2.29362 0
M  V30 1505 C 146.78 -1.09507 1.35219 0
M  V30 1506 O 147.956 -1.10662 1.68273 0
M  V30 1507 C 145.021 -1.61855 3.066 0
M  V30 1508 C 144.082 -1.04429 4.16405 0
M  V30 1509 C 143.315 -2.11621 4.89951 0
M  V30 1510 O 143.538 -3.32684 4.63333 0
M  V30 1511 O 142.472 -1.74835 5.75948 0
M  V30 1512 H 146.298 0.125331 3.03441 0
M  V30 1513 H 143.883 0.127253 1.48857 0
M  V30 1514 H 145.765 -2.27302 3.54841 0
M  V30 1515 H 144.44 -2.22233 2.3536 0
M  V30 1516 H 143.347 -0.353819 3.72423 0
M  V30 1517 H 144.68 -0.485113 4.89804 0
M  V30 1518 N 146.332 -1.57332 0.0918853 0
M  V30 1519 C 147.279 -2.13847 -0.868211 0
M  V30 1520 C 148.249 -1.05618 -1.28196 0
M  V30 1521 O 149.434 -1.33387 -1.36427 0
M  V30 1522 C 146.574 -2.72062 -2.12312 0
M  V30 1523 C 145.687 -3.94514 -1.7602 0
M  V30 1524 C 144.822 -4.40903 -2.96273 0
M  V30 1525 C 143.861 -5.55953 -2.56092 0
M  V30 1526 N 142.998 -5.97209 -3.69169 0
M  V30 1527 H 147.838 -2.95575 -0.379406 0
M  V30 1528 H 145.375 -1.46048 -0.175606 0
M  V30 1529 H 147.333 -3.03931 -2.858 0
M  V30 1530 H 145.963 -1.93068 -2.58698 0
M  V30 1531 H 145.015 -3.68979 -0.925135 0
M  V30 1532 H 146.327 -4.7802 -1.42472 0
M  V30 1533 H 145.481 -4.74539 -3.78018 0
M  V30 1534 H 144.22 -3.56291 -3.33029 0
M  V30 1535 H 143.225 -5.21948 -1.72773 0
M  V30 1536 H 144.45 -6.42311 -2.20484 0
M  V30 1537 H 142.396 -5.15543 -4.05649 0
M  V30 1538 H 142.313 -6.75504 -3.39456 0
M  V30 1539 H 143.581 -6.35475 -4.51434 0
M  V30 1540 N 147.81 0.181792 -1.56548 0
M  V30 1541 C 149.058 0.89832 -1.81038 0
M  V30 1542 C 149.379 1.83232 -0.667164 0
M  V30 1543 O 148.649 1.93372 0.313673 0
M  V30 1544 H 147.229 0.33471 -0.667816 0
M  V30 1545 H 149.891 0.184116 -1.94028 0
M  V30 1546 H 148.987 1.4815 -2.74696 0
M  V30 1547 N 149.288 1.51039 0.449983 0
M  V30 1548 C 150.704 1.38934 0.785462 0
M  V30 1549 C 150.904 0.461817 1.96136 0
M  V30 1550 O 149.96 -0.0877389 2.52348 0
M  V30 1551 C 151.273 2.80724 1.0777 0
M  V30 1552 C 152.821 2.89787 1.1829 0
M  V30 1553 C 153.296 4.32457 1.50815 0
M  V30 1554 N 154.787 4.35505 1.57764 0
M  V30 1555 C 155.522 5.42914 1.84477 0
M  V30 1556 N 155.018 6.60502 2.09068 0
M  V30 1557 N 156.811 5.3038 1.86155 0
M  V30 1558 H 148.962 2.09904 -0.324647 0
M  V30 1559 H 151.225 0.944378 -0.0827957 0
M  V30 1560 H 150.931 3.50531 0.286498 0
M  V30 1561 H 150.805 3.19273 2.00859 0
M  V30 1562 H 153.192 2.20186 1.96474 0
M  V30 1563 H 153.273 2.54752 0.231314 0
M  V30 1564 H 152.917 5.02603 0.731622 0
M  V30 1565 H 152.847 4.64995 2.47158 0
M  V30 1566 H 155.338 3.50724 1.40715 0
M  V30 1567 H 155.651 7.38158 2.28785 0
M  V30 1568 H 153.996 6.63639 2.06416 0
M  V30 1569 H 157.187 4.37505 1.66454 0
M  V30 1570 H 157.36 6.1417 2.06637 0
M  V30 1571 N 150.766 -0.704594 1.40972 0
M  V30 1572 C 151.714 -1.83994 1.42299 0
M  V30 1573 C 152.708 -1.66684 0.302111 0
M  V30 1574 O 153.914 -1.73655 0.473697 0
M  V30 1575 H 150.289 -0.606171 0.44504 0
M  V30 1576 H 152.26 -1.79992 2.38003 0
M  V30 1577 C 151.009 -3.21946 1.31323 0
M  V30 1578 H 150.332 -3.35878 2.16855 0
M  V30 1579 H 151.772 -4.01491 1.36311 0
M  V30 1580 C 150.231 -3.36891 0.0245977 0
M  V30 1581 O 150.761 -3.90687 -0.934153 0
M  V30 1582 N 148.967 -2.90559 -0.0485243 0
M  V30 1583 H 148.514 -2.46968 0.732419 0
M  V30 1584 H 148.472 -3.00937 -0.910171 0
M  V30 1585 N 152.244 -1.26651 -0.937939 0
M  V30 1586 C 153.191 -1.0849 -2.03712 0
M  V30 1587 C 154.161 0.011033 -1.66096 0
M  V30 1588 O 155.346 -0.149353 -1.90215 0
M  V30 1589 C 152.486 -0.72735 -3.37348 0
M  V30 1590 C 151.599 -1.89986 -3.87981 0
M  V30 1591 C 150.734 -1.48513 -5.10017 0
M  V30 1592 C 149.773 -2.62575 -5.5292 0
M  V30 1593 N 148.91 -2.21762 -6.66158 0
M  V30 1594 H 153.75 -2.02551 -2.18579 0
M  V30 1595 H 151.287 -1.00844 -1.07093 0
M  V30 1596 H 153.245 -0.50092 -4.14182 0
M  V30 1597 H 151.875 0.176298 -3.22318 0
M  V30 1598 H 150.927 -2.23913 -3.07518 0
M  V30 1599 H 152.239 -2.75586 -4.15757 0
M  V30 1600 H 151.393 -1.21934 -5.94321 0
M  V30 1601 H 150.132 -0.60009 -4.83994 0
M  V30 1602 H 149.137 -2.8988 -4.67172 0
M  V30 1603 H 150.362 -3.51685 -5.80943 0
M  V30 1604 H 148.308 -1.35696 -6.41812 0
M  V30 1605 H 148.225 -3.00903 -6.93537 0
M  V30 1606 H 149.493 -1.98403 -7.53828 0
M  V30 1607 N 153.722 1.14298 -1.08507 0
M  V30 1608 C 154.969 1.85359 -0.815373 0
M  V30 1609 C 155.297 1.83001 0.658865 0
M  V30 1610 O 154.552 1.25655 1.50031 0
M  V30 1611 C 154.851 3.33547 -1.28379 0
M  V30 1612 C 154.517 3.56093 -2.76602 0
M  V30 1613 C 153.179 3.61955 -3.17084 0
M  V30 1614 C 155.531 3.64834 -3.72217 0
M  V30 1615 C 152.859 3.74082 -4.51973 0
M  V30 1616 C 155.211 3.78487 -5.06883 0
M  V30 1617 C 153.875 3.82598 -5.46969 0
M  V30 1618 H 153.145 0.678276 -0.298366 0
M  V30 1619 H 155.792 1.35002 -1.35819 0
M  V30 1620 H 154.097 3.86191 -0.660593 0
M  V30 1621 H 155.794 3.86959 -1.05186 0
M  V30 1622 H 152.384 3.52179 -2.4427 0
M  V30 1623 H 156.568 3.59595 -3.42061 0
M  V30 1624 H 151.824 3.75527 -4.82483 0
M  V30 1625 H 155.998 3.84193 -5.80834 0
M  V30 1626 H 153.625 3.91747 -6.51489 0
M  V30 1627 N 155.201 0.870884 1.31352 0
M  V30 1628 C 156.447 0.482987 1.96965 0
M  V30 1629 C 156.78 -0.962462 1.68672 0
M  V30 1630 O 156.055 -1.6779 0.98371 0
M  V30 1631 C 156.338 0.741752 3.52378 0
M  V30 1632 C 156.191 2.2368 3.9024 0
M  V30 1633 C 157.51 0.208838 4.39604 0
M  V30 1634 H 154.629 0.176955 0.715441 0
M  V30 1635 H 157.271 1.09229 1.55464 0
M  V30 1636 H 155.421 0.223149 3.87859 0
M  V30 1637 H 157.093 2.82273 3.64856 0
M  V30 1638 H 155.336 2.70901 3.38814 0
M  V30 1639 H 156.007 2.3685 4.98604 0
M  V30 1640 H 158.483 0.652529 4.10952 0
M  V30 1641 H 157.359 0.419336 5.47296 0
M  V30 1642 H 157.62 -0.889275 4.33064 0
M  V30 1643 N 156.679 -1.44442 0.630414 0
M  V30 1644 C 157.907 -2.06414 0.141671 0
M  V30 1645 C 158.322 -1.47105 -1.18345 0
M  V30 1646 O 157.679 -0.593662 -1.72574 0
M  V30 1647 C 157.73 -3.61494 0.0199784 0
M  V30 1648 O 157.451 -4.18594 1.29269 0
M  V30 1649 C 158.952 -4.40499 -0.497544 0
M  V30 1650 H 156.172 -0.666292 0.0793452 0
M  V30 1651 H 158.716 -1.85323 0.864614 0
M  V30 1652 H 156.871 -3.8185 -0.653402 0
M  V30 1653 H 157.285 -5.12026 1.13707 0
M  V30 1654 H 158.759 -5.49433 -0.531708 0
M  V30 1655 H 159.236 -4.11895 -1.52445 0
M  V30 1656 H 159.842 -4.25061 0.142562 0
M  V30 1657 N 158.157 -0.370918 -1.53173 0
M  V30 1658 C 159.403 0.217423 -2.01631 0
M  V30 1659 C 159.736 1.47983 -1.25756 0
M  V30 1660 O 159.011 1.91274 -0.352764 0
M  V30 1661 C 159.294 0.503982 -3.56556 0
M  V30 1662 C 159.147 -0.77243 -4.43118 0
M  V30 1663 C 160.466 1.30234 -4.20389 0
M  V30 1664 H 157.585 0.0775486 -0.732909 0
M  V30 1665 H 160.227 -0.496863 -1.83388 0
M  V30 1666 H 158.377 1.11248 -3.72231 0
M  V30 1667 H 160.049 -1.4098 -4.39229 0
M  V30 1668 H 158.292 -1.39167 -4.10871 0
M  V30 1669 H 158.963 -0.526815 -5.4948 0
M  V30 1670 H 161.439 0.787546 -4.08579 0
M  V30 1671 H 160.315 1.47158 -5.28806 0
M  V30 1672 H 160.576 2.31237 -3.76805 0
M  V30 1673 N 159.635 1.57281 -0.100228 0
M  V30 1674 C 160.567 2.11342 0.886972 0
M  V30 1675 C 161.58 1.05182 1.24261 0
M  V30 1676 O 162.769 1.32613 1.19483 0
M  V30 1677 C 159.869 2.5825 2.19454 0
M  V30 1678 C 159.042 3.88302 2.01346 0
M  V30 1679 C 158.101 4.21004 3.15661 0
M  V30 1680 O 157.127 4.9014 2.89398 0
M  V30 1681 N 158.329 3.76818 4.41575 0
M  V30 1682 H 161.094 2.96668 0.425216 0
M  V30 1683 H 158.655 1.61678 0.0847334 0
M  V30 1684 H 160.647 2.7717 2.94888 0
M  V30 1685 H 159.217 1.77907 2.57037 0
M  V30 1686 H 158.437 3.7848 1.10212 0
M  V30 1687 H 159.725 4.73375 1.8653 0
M  V30 1688 H 159.123 3.2102 4.65792 0
M  V30 1689 H 157.68 4.00882 5.13942 0
M  V30 1690 N 161.113 -0.173488 1.56642 0
M  V30 1691 C 162.076 -1.19859 1.95362 0
M  V30 1692 C 163.076 -1.37296 0.83704 0
M  V30 1693 O 164.266 -1.34739 1.10413 0
M  V30 1694 C 161.398 -2.56405 2.24654 0
M  V30 1695 H 162.591 -0.867062 2.87092 0
M  V30 1696 H 160.144 -0.415853 1.50666 0
M  V30 1697 H 160.879 -2.94576 1.35631 0
M  V30 1698 H 160.664 -2.45115 3.06041 0
M  V30 1699 H 162.154 -3.30287 2.5554 0
M  V30 1700 N 162.591 -1.51276 -0.441967 0
M  V30 1701 C 163.819 -1.67516 -1.21434 0
M  V30 1702 C 164.234 -0.37055 -1.85128 0
M  V30 1703 O 163.591 0.650498 -1.70513 0
M  V30 1704 C 163.642 -2.78748 -2.30177 0
M  V30 1705 O 163.363 -4.04154 -1.69089 0
M  V30 1706 C 164.864 -3.06217 -3.20541 0
M  V30 1707 H 162.084 -0.562276 -0.366178 0
M  V30 1708 H 164.628 -1.97666 -0.524244 0
M  V30 1709 H 162.783 -2.5121 -2.94911 0
M  V30 1710 H 163.197 -4.65894 -2.40922 0
M  V30 1711 H 164.671 -3.8764 -3.92987 0
M  V30 1712 H 165.148 -2.18439 -3.81026 0
M  V30 1713 H 165.754 -3.35397 -2.61513 0
M  V30 1714 N 164.069 0.697108 -1.41344 0
M  V30 1715 C 165.316 1.45714 -1.40619 0
M  V30 1716 C 165.644 1.94494 -0.0147907 0
M  V30 1717 O 164.899 1.69794 0.973066 0
M  V30 1718 C 165.198 2.68553 -2.35826 0
M  V30 1719 C 164.864 2.38438 -3.82698 0
M  V30 1720 C 163.526 2.29936 -4.22709 0
M  V30 1721 C 165.878 2.13567 -4.75435 0
M  V30 1722 C 163.206 1.94656 -5.53467 0
M  V30 1723 C 165.558 1.79797 -6.06511 0
M  V30 1724 C 164.222 1.69789 -6.45545 0
M  V30 1725 H 163.492 0.533206 -0.51456 0
M  V30 1726 H 166.139 0.796901 -1.74131 0
M  V30 1727 H 164.444 3.39503 -1.95563 0
M  V30 1728 H 166.141 3.2669 -2.32539 0
M  V30 1729 H 162.731 2.4595 -3.51008 0
M  V30 1730 H 166.915 2.19082 -4.45328 0
M  V30 1731 H 162.171 1.8546 -5.82593 0
M  V30 1732 H 166.345 1.59572 -6.77872 0
M  V30 1733 H 163.972 1.4222 -7.46778 0
M  V30 1734 N 165.547 1.27147 0.931209 0
M  V30 1735 C 166.795 1.13055 1.6752 0
M  V30 1736 C 167.116 -0.324791 1.92276 0
M  V30 1737 O 166.386 -1.22775 1.52654 0
M  V30 1738 H 164.966 0.415391 0.620854 0
M  V30 1739 H 167.628 1.59623 1.11833 0
M  V30 1740 H 166.724 1.65694 2.64485 0
M  V30 1741 N 167.025 -1.13721 1.09112 0
M  V30 1742 C 168.253 -1.88773 0.846899 0
M  V30 1743 C 168.668 -1.7896 -0.601572 0
M  V30 1744 O 168.025 -1.15394 -1.41388 0
M  V30 1745 C 168.076 -3.3849 1.26913 0
M  V30 1746 O 167.797 -3.48043 2.66079 0
M  V30 1747 C 169.298 -4.30518 1.05682 0
M  V30 1748 H 166.518 -0.59772 0.304914 0
M  V30 1749 H 169.062 -1.43977 1.45227 0
M  V30 1750 H 167.217 -3.80881 0.707723 0
M  V30 1751 H 167.631 -4.4109 2.83795 0
M  V30 1752 H 169.105 -5.3391 1.40156 0
M  V30 1753 H 169.582 -4.392 -0.00563416 0
M  V30 1754 H 170.188 -3.93893 1.60402 0
M  V30 1755 N 168.503 -0.877838 -1.30888 0
M  V30 1756 C 169.435 -0.296607 -2.27273 0
M  V30 1757 C 170.448 0.544799 -1.53414 0
M  V30 1758 O 171.637 0.365511 -1.74718 0
M  V30 1759 C 168.737 0.597481 -3.33592 0
M  V30 1760 C 167.91 -0.213251 -4.3688 0
M  V30 1761 C 166.969 0.610208 -5.2265 0
M  V30 1762 O 165.995 0.035441 -5.69189 0
M  V30 1763 N 167.197 1.92071 -5.47804 0
M  V30 1764 H 169.962 -1.12492 -2.77787 0
M  V30 1765 H 167.523 -0.740105 -1.43993 0
M  V30 1766 H 169.515 1.15425 -3.87891 0
M  V30 1767 H 168.085 1.32647 -2.83061 0
M  V30 1768 H 167.305 -0.951466 -3.82545 0
M  V30 1769 H 168.593 -0.769262 -5.02951 0
M  V30 1770 H 167.991 2.4107 -5.11763 0
M  V30 1771 H 166.548 2.42508 -6.05007 0
M  V30 1772 N 169.982 1.44106 -0.638065 0
M  V30 1773 C 171.228 2.02277 -0.145546 0
M  V30 1774 C 171.561 1.50125 1.23191 0
M  V30 1775 O 170.836 0.688133 1.8192 0
M  V30 1776 C 171.119 3.59829 -0.139791 0
M  V30 1777 C 170.972 4.22247 -1.55008 0
M  V30 1778 C 172.291 4.36873 0.531966 0
M  V30 1779 H 169.41 0.734992 -0.0543632 0
M  V30 1780 H 172.052 1.71592 -0.815863 0
M  V30 1781 H 170.202 3.86102 0.431007 0
M  V30 1782 H 171.874 4.07057 -2.1703 0
M  V30 1783 H 170.117 3.79476 -2.10191 0
M  V30 1784 H 170.788 5.31284 -1.49804 0
M  V30 1785 H 173.264 4.16074 0.0464781 0
M  V30 1786 H 172.14 5.4657 0.505206 0
M  V30 1787 H 172.401 4.11995 1.60352 0
M  V30 1788 N 171.46 0.379036 1.52974 0
M  V30 1789 C 172.706 -0.206727 2.01744 0
M  V30 1790 C 173.039 -1.47314 1.26539 0
M  V30 1791 O 172.314 -1.91084 0.362903 0
M  V30 1792 C 172.597 -0.485066 3.56818 0
M  V30 1793 C 172.45 0.795919 4.42702 0
M  V30 1794 C 173.769 -1.28003 4.21074 0
M  V30 1795 H 170.888 -0.0736607 0.73331 0
M  V30 1796 H 173.53 0.506581 1.83122 0
M  V30 1797 H 171.68 -1.09272 3.72816 0
M  V30 1798 H 173.352 1.43307 4.38476 0
M  V30 1799 H 171.595 1.41344 4.10127 0
M  V30 1800 H 172.266 0.555947 5.49193 0
M  V30 1801 H 174.742 -0.765867 4.08991 0
M  V30 1802 H 173.618 -1.44352 5.29579 0
M  V30 1803 H 173.879 -2.29236 3.78026 0
M  V30 1804 N 172.938 -1.57226 0.108567 0
M  V30 1805 C 173.848 -2.18292 -0.859401 0
M  V30 1806 C 174.864 -1.15612 -1.30038 0
M  V30 1807 O 176.04 -1.48039 -1.36552 0
M  V30 1808 C 173.105 -2.762 -2.09558 0
M  V30 1809 C 172.166 -3.93881 -1.70752 0
M  V30 1810 C 171.399 -4.49018 -2.88477 0
M  V30 1811 O 171.622 -4.03068 -4.036 0
M  V30 1812 O 170.556 -5.39852 -2.66164 0
M  V30 1813 H 174.382 -3.01441 -0.369769 0
M  V30 1814 H 171.967 -1.48945 -0.1165 0
M  V30 1815 H 173.849 -3.13156 -2.81978 0
M  V30 1816 H 172.524 -1.96089 -2.57548 0
M  V30 1817 H 171.431 -3.61713 -0.954714 0
M  V30 1818 H 172.764 -4.75396 -1.27513 0
M  V30 1819 N 174.416 0.165178 -1.56732 0
M  V30 1820 C 175.363 1.2044 -1.96883 0
M  V30 1821 C 176.333 1.43664 -0.833657 0
M  V30 1822 O 177.518 1.56302 -1.09427 0
M  V30 1823 C 174.658 2.53727 -2.33916 0
M  V30 1824 C 173.771 2.3783 -3.6064 0
M  V30 1825 C 172.906 3.64026 -3.86857 0
M  V30 1826 C 171.945 3.43088 -5.06909 0
M  V30 1827 N 171.082 4.61369 -5.29229 0
M  V30 1828 H 175.922 0.854996 -2.85471 0
M  V30 1829 H 173.459 0.41076 -1.41249 0
M  V30 1830 H 175.417 3.31419 -2.53411 0
M  V30 1831 H 174.047 2.8665 -1.48431 0
M  V30 1832 H 173.099 1.51282 -3.49024 0
M  V30 1833 H 174.411 2.18308 -4.4849 0
M  V30 1834 H 173.565 4.50152 -4.06753 0
M  V30 1835 H 172.304 3.86533 -2.97394 0
M  V30 1836 H 171.309 2.55349 -4.86906 0
M  V30 1837 H 172.534 3.21997 -5.97909 0
M  V30 1838 H 170.48 4.84084 -4.42718 0
M  V30 1839 H 170.397 4.44783 -6.11313 0
M  V30 1840 H 171.665 5.48761 -5.53608 0
M  V30 1841 N 175.894 1.51508 0.433938 0
M  V30 1842 C 177.14 1.64588 1.18484 0
M  V30 1843 C 177.473 0.362666 1.90784 0
M  V30 1844 O 176.748 -0.637892 1.83742 0
M  V30 1845 C 177.031 2.85149 2.19913 0
M  V30 1846 C 176.884 4.23456 1.51674 0
M  V30 1847 C 178.203 3.01227 3.20858 0
M  V30 1848 H 175.322 0.598994 0.429389 0
M  V30 1849 H 177.964 1.84002 0.473647 0
M  V30 1850 H 176.114 2.68729 2.80566 0
M  V30 1851 H 177.786 4.51552 0.943322 0
M  V30 1852 H 176.029 4.25998 0.819035 0
M  V30 1853 H 176.7 5.03812 2.2556 0
M  V30 1854 H 179.176 3.16382 2.70263 0
M  V30 1855 H 178.052 3.87141 3.89118 0
M  V30 1856 H 178.313 2.13447 3.8716 0
M  V30 1857 N 177.372 -0.689602 1.41712 0
M  V30 1858 C 178.618 -1.45181 1.41599 0
M  V30 1859 C 178.951 -1.94181 0.0270081 0
M  V30 1860 O 178.226 -1.6993 -0.946265 0
M  V30 1861 C 178.509 -2.65945 2.42787 0
M  V30 1862 C 178.362 -2.22672 3.90816 0
M  V30 1863 C 179.681 -3.68149 2.41151 0
M  V30 1864 H 176.8 -0.526576 0.515642 0
M  V30 1865 H 179.442 -0.784947 1.73028 0
M  V30 1866 H 177.592 -3.2284 2.16116 0
M  V30 1867 H 179.264 -1.71058 4.28412 0
M  V30 1868 H 177.507 -1.54394 4.05395 0
M  V30 1869 H 178.178 -3.0935 4.57172 0
M  V30 1870 H 180.654 -3.2094 2.64834 0
M  V30 1871 H 179.53 -4.50248 3.13955 0
M  V30 1872 H 179.791 -4.18259 1.43221 0
M  V30 1873 N 178.85 -1.27639 -0.924453 0
M  V30 1874 C 179.78 -1.13166 -2.04244 0
M  V30 1875 C 180.761 -0.032256 -1.70069 0
M  V30 1876 O 181.946 -0.207328 -1.9309 0
M  V30 1877 C 179.076 -0.781496 -3.38393 0
M  V30 1878 C 178.03 -1.83449 -3.86692 0
M  V30 1879 C 177.356 -1.33822 -5.17683 0
M  V30 1880 C 178.656 -3.23917 -4.09726 0
M  V30 1881 H 180.35 -2.06689 -2.1661 0
M  V30 1882 H 177.896 -0.995136 -1.04082 0
M  V30 1883 H 179.849 -0.667057 -4.16087 0
M  V30 1884 H 178.573 0.189439 -3.2605 0
M  V30 1885 H 177.232 -1.93789 -3.11193 0
M  V30 1886 H 176.88 -0.35665 -5.01734 0
M  V30 1887 H 176.58 -2.04224 -5.50968 0
M  V30 1888 H 178.104 -1.23679 -5.97943 0
M  V30 1889 H 179.518 -3.16559 -4.77978 0
M  V30 1890 H 177.915 -3.92059 -4.54324 0
M  V30 1891 H 178.985 -3.68729 -3.14908 0
M  V30 1892 N 180.328 1.1314 -1.09713 0
M  V30 1893 C 181.574 1.84757 -0.836224 0
M  V30 1894 C 181.907 1.8347 0.636598 0
M  V30 1895 O 181.182 1.27491 1.46889 0
M  V30 1896 C 181.465 3.32782 -1.37578 0
M  V30 1897 C 181.318 3.42567 -2.91493 0
M  V30 1898 C 182.637 4.28307 -1.01198 0
M  V30 1899 H 179.756 0.67082 -0.305236 0
M  V30 1900 H 182.398 1.3278 -1.35903 0
M  V30 1901 H 180.548 3.77177 -0.931097 0
M  V30 1902 H 182.22 3.06862 -3.44432 0
M  V30 1903 H 180.463 2.83349 -3.28475 0
M  V30 1904 H 181.134 4.46674 -3.24324 0
M  V30 1905 H 183.61 3.91999 -1.39556 0
M  V30 1906 H 182.486 5.30307 -1.41653 0
M  V30 1907 H 182.747 4.42029 0.0794833 0
M  V30 1908 N 181.806 0.884767 1.30421 0
M  V30 1909 C 183.031 0.517288 2.00845 0
M  V30 1910 C 183.456 -0.886779 1.65885 0
M  V30 1911 O 182.814 -1.58768 0.875354 0
M  V30 1912 C 182.862 0.698994 3.5376 0
M  V30 1913 O 181.966 -0.255208 4.1161 0
M  V30 1914 H 181.307 0.203872 0.631927 0
M  V30 1915 H 183.837 1.19225 1.66272 0
M  V30 1916 H 183.847 0.597912 4.03595 0
M  V30 1917 H 182.522 1.72271 3.78544 0
M  V30 1918 H 181.099 -0.10784 3.72744 0
M  V30 1919 N 183.284 -1.43765 0.645699 0
M  V30 1920 C 184.214 -2.33471 -0.0370477 0
M  V30 1921 C 185.195 -1.49042 -0.819779 0
M  V30 1922 O 186.38 -1.77726 -0.782758 0
M  V30 1923 C 183.51 -3.32311 -1.0093 0
M  V30 1924 C 182.464 -4.2667 -0.337201 0
M  V30 1925 C 181.79 -5.1549 -1.42037 0
M  V30 1926 C 183.09 -5.16657 0.765706 0
M  V30 1927 H 184.784 -2.90809 0.712069 0
M  V30 1928 H 182.33 -1.39834 0.343876 0
M  V30 1929 H 184.283 -3.9396 -1.49578 0
M  V30 1930 H 183.007 -2.73213 -1.78948 0
M  V30 1931 H 181.666 -3.66374 0.128771 0
M  V30 1932 H 181.314 -4.52735 -2.1918 0
M  V30 1933 H 181.014 -5.79438 -0.975966 0
M  V30 1934 H 182.538 -5.80012 -1.90838 0
M  V30 1935 H 183.952 -5.72158 0.361702 0
M  V30 1936 H 182.349 -5.89286 1.13413 0
M  V30 1937 H 183.419 -4.56796 1.62683 0
M  V30 1938 N 184.763 -0.387143 -1.52771 0
M  V30 1939 C 185.695 0.484089 -2.2403 0
M  V30 1940 C 186.708 1.02849 -1.26198 0
M  V30 1941 O 187.897 0.931186 -1.52286 0
M  V30 1942 C 184.997 1.68337 -2.94136 0
M  V30 1943 C 184.17 1.26672 -4.18656 0
M  V30 1944 C 183.229 2.33045 -4.7178 0
M  V30 1945 O 182.255 1.94541 -5.34923 0
M  V30 1946 N 183.457 3.64929 -4.5145 0
M  V30 1947 H 186.222 -0.126404 -2.99433 0
M  V30 1948 H 183.783 -0.213392 -1.60488 0
M  V30 1949 H 185.775 2.39019 -3.26577 0
M  V30 1950 H 184.345 2.20025 -2.22053 0
M  V30 1951 H 183.565 0.388878 -3.92277 0
M  V30 1952 H 184.853 0.964964 -4.99566 0
M  V30 1953 H 184.251 3.98974 -4.01044 0
M  V30 1954 H 182.808 4.31651 -4.88386 0
M  V30 1955 N 186.241 1.57166 -0.116904 0
M  V30 1956 C 187.466 1.999 0.55271 0
M  V30 1957 C 187.891 0.996039 1.59564 0
M  V30 1958 O 187.249 -0.032556 1.81271 0
M  V30 1959 C 187.297 3.4152 1.15742 0
M  V30 1960 O 186.401 3.44106 2.27299 0
M  V30 1961 H 185.742 0.649447 0.138258 0
M  V30 1962 H 188.272 2.03573 -0.204759 0
M  V30 1963 H 188.282 3.79684 1.49346 0
M  V30 1964 H 186.957 4.14034 0.393493 0
M  V30 1965 H 185.534 3.17759 1.9515 0
M  V30 1966 N 187.719 -0.156864 1.56817 0
M  V30 1967 C 188.967 -0.869404 1.82444 0
M  V30 1968 C 189.288 -1.82147 0.69623 0
M  V30 1969 O 188.558 -1.93847 -0.28287 0
M  V30 1970 H 187.138 -0.324043 0.673056 0
M  V30 1971 H 189.8 -0.153224 1.94297 0
M  V30 1972 H 188.896 -1.43761 2.77019 0
M  V30 1973 N 189.197 -1.51736 -0.425897 0
M  V30 1974 C 190.427 -1.68549 -1.19476 0
M  V30 1975 C 190.835 -0.387288 -1.85194 0
M  V30 1976 O 190.178 0.645142 -1.71999 0
M  V30 1977 C 190.24 -2.75275 -2.31223 0
M  V30 1978 C 189.904 -4.17534 -1.8578 0
M  V30 1979 C 190.901 -5.01936 -1.35485 0
M  V30 1980 C 188.586 -4.6369 -1.93123 0
M  V30 1981 C 190.58 -6.30559 -0.931347 0
M  V30 1982 C 188.267 -5.92307 -1.50384 0
M  V30 1983 C 189.265 -6.75569 -1.00473 0
M  V30 1984 O 188.953 -8.0178 -0.583452 0
M  V30 1985 H 188.685 -0.568525 -0.365725 0
M  V30 1986 H 191.239 -1.98982 -0.509444 0
M  V30 1987 H 189.469 -2.40182 -3.03067 0
M  V30 1988 H 191.158 -2.80853 -2.93047 0
M  V30 1989 H 191.924 -4.67475 -1.29197 0
M  V30 1990 H 187.803 -3.98997 -2.30916 0
M  V30 1991 H 191.347 -6.95498 -0.541084 0
M  V30 1992 H 187.244 -6.2628 -1.56346 0
M  V30 1993 H 188.012 -8.1543 -0.708275 0
M  V30 1994 N 190.675 0.682077 -1.42076 0
M  V30 1995 C 191.605 1.80796 -1.47767 0
M  V30 1996 C 192.586 1.6677 -0.334954 0
M  V30 1997 O 193.771 1.863 -0.548264 0
M  V30 1998 C 190.901 3.19038 -1.37229 0
M  V30 1999 C 189.855 3.47789 -2.49453 0
M  V30 2000 C 189.181 4.8553 -2.23975 0
M  V30 2001 C 190.481 3.45411 -3.91776 0
M  V30 2002 H 192.175 1.7629 -2.41997 0
M  V30 2003 H 189.721 0.846721 -1.16476 0
M  V30 2004 H 191.674 3.97528 -1.39821 0
M  V30 2005 H 190.398 3.24204 -0.394907 0
M  V30 2006 H 189.057 2.71657 -2.46166 0
M  V30 2007 H 188.705 4.87337 -1.24547 0
M  V30 2008 H 188.405 5.0573 -2.99184 0
M  V30 2009 H 189.929 5.66312 -2.28304 0
M  V30 2010 H 191.343 4.13882 -3.96705 0
M  V30 2011 H 189.74 3.77145 -4.66778 0
M  V30 2012 H 190.81 2.44122 -4.18966 0
M  V30 2013 N 192.153 1.28127 0.917671 0
M  V30 2014 C 193.4 1.15052 1.66641 0
M  V30 2015 C 193.728 -0.301677 1.92146 0
M  V30 2016 O 192.983 -1.23622 1.51711 0
M  V30 2017 C 193.282 1.89018 3.03327 0
M  V30 2018 C 192.948 3.38832 2.97496 0
M  V30 2019 C 191.61 3.79693 2.95613 0
M  V30 2020 C 193.962 4.34378 2.88036 0
M  V30 2021 C 191.29 5.14447 2.82066 0
M  V30 2022 C 193.642 5.69201 2.7603 0
M  V30 2023 C 192.306 6.09343 2.72502 0
M  V30 2024 H 191.576 0.421006 0.609783 0
M  V30 2025 H 194.223 1.58855 1.06945 0
M  V30 2026 H 192.528 1.37752 3.66785 0
M  V30 2027 H 194.225 1.76321 3.60156 0
M  V30 2028 H 190.815 3.06342 2.99754 0
M  V30 2029 H 194.999 4.03775 2.88581 0
M  V30 2030 H 190.255 5.44681 2.77728 0
M  V30 2031 H 194.429 6.42901 2.67678 0
M  V30 2032 H 192.056 7.13712 2.61762 0
M  V30 2033 N 193.631 -1.12557 1.10312 0
M  V30 2034 C 194.88 -1.83395 0.839588 0
M  V30 2035 C 195.193 -1.84939 -0.636929 0
M  V30 2036 O 196.399 -2.51761 -1.01631 0
M  V30 2037 C 194.855 -3.29303 1.45215 0
M  V30 2038 C 194.463 -3.36122 2.96186 0
M  V30 2039 C 196.207 -4.05121 1.26796 0
M  V30 2040 C 194.114 -4.76357 3.50483 0
M  V30 2041 H 193.044 -0.687133 0.310425 0
M  V30 2042 H 195.695 -1.26746 1.32694 0
M  V30 2043 H 194.077 -3.85812 0.892469 0
M  V30 2044 H 195.251 -2.89559 3.58458 0
M  V30 2045 H 193.566 -2.73776 3.13745 0
M  V30 2046 H 196.163 -5.08668 1.64806 0
M  V30 2047 H 196.506 -4.15773 0.209409 0
M  V30 2048 H 197.039 -3.54967 1.79563 0
M  V30 2049 H 193.778 -4.70899 4.55998 0
M  V30 2050 H 193.298 -5.23377 2.92978 0
M  V30 2051 H 194.977 -5.45294 3.48228 0
M  V30 2052 N 195.109 -0.891671 -1.2995 0
M  V30 2053 C 196.041 -0.320695 -2.26945 0
M  V30 2054 C 197.054 0.528497 -1.53983 0
M  V30 2055 O 198.243 0.346959 -1.75096 0
M  V30 2056 C 195.343 0.562066 -3.34207 0
M  V30 2057 C 194.516 -0.259576 -4.36629 0
M  V30 2058 C 193.575 0.554739 -5.23268 0
M  V30 2059 O 192.601 -0.0249311 -5.69195 0
M  V30 2060 N 193.803 1.8625 -5.4981 0
M  V30 2061 H 196.568 -1.15432 -2.76578 0
M  V30 2062 H 194.129 -0.755336 -1.432 0
M  V30 2063 H 196.121 1.11304 -3.89093 0
M  V30 2064 H 194.691 1.29637 -2.84452 0
M  V30 2065 H 193.911 -0.991986 -3.81514 0
M  V30 2066 H 195.199 -0.822564 -5.02107 0
M  V30 2067 H 194.597 2.35628 -5.14292 0
M  V30 2068 H 193.154 2.36078 -6.07545 0
M  V30 2069 N 196.587 1.43421 -0.653314 0
M  V30 2070 C 197.815 2.06163 -0.174491 0
M  V30 2071 C 198.23 1.48969 1.1599 0
M  V30 2072 O 197.587 0.621042 1.71608 0
M  V30 2073 C 197.638 3.61417 -0.0774865 0
M  V30 2074 O 197.359 4.16485 -1.35912 0
M  V30 2075 C 198.86 4.41235 0.427402 0
M  V30 2076 H 196.08 0.664946 -0.0899353 0
M  V30 2077 H 198.624 1.83924 -0.893988 0
M  V30 2078 H 196.779 3.82841 0.59257 0
M  V30 2079 H 197.193 5.10153 -1.21839 0
M  V30 2080 H 198.667 5.5021 0.44423 0
M  V30 2081 H 199.144 4.14268 1.45873 0
M  V30 2082 H 199.75 4.2478 -0.210167 0
M  V30 2083 N 198.065 0.39524 1.52563 0
M  V30 2084 C 199.342 -0.242908 1.94086 0
M  V30 2085 C 199.722 -1.63841 1.33114 0
M  V30 2086 O 199.07 -2.22928 0.501529 0
M  V30 2087 C 199.28 -0.26327 3.48006 0
M  V30 2088 C 200.628 -0.489354 4.21771 0
M  V30 2089 O 201.652 -0.343226 3.54543 0
M  V30 2090 O 200.511 -0.776169 5.4096 0
M  V30 2091 H 197.605 -0.152536 0.812811 0
M  V30 2092 H 200.151 0.450178 1.6362 0
M  V30 2093 H 198.923 0.713985 3.84731 0
M  V30 2094 H 198.546 -1.00103 3.84792 0
M  V30 2095 N 199.544 -1.57102 0.125237 0
M  V30 2096 C 200.491 -2.15641 -0.822655 0
M  V30 2097 C 201.461 -1.08313 -1.25927 0
M  V30 2098 O 202.646 -1.36251 -1.33567 0
M  V30 2099 C 199.786 -2.76504 -2.06494 0
M  V30 2100 C 198.899 -3.98158 -1.67612 0
M  V30 2101 C 198.034 -4.47088 -2.86854 0
M  V30 2102 C 197.073 -5.6126 -2.44242 0
M  V30 2103 N 196.21 -6.04905 -3.56419 0
M  V30 2104 H 201.05 -2.96313 -0.316625 0
M  V30 2105 H 198.587 -1.46388 -0.144588 0
M  V30 2106 H 200.545 -3.09925 -2.79289 0
M  V30 2107 H 199.175 -1.98512 -2.54545 0
M  V30 2108 H 198.227 -3.70858 -0.846661 0
M  V30 2109 H 199.539 -4.80934 -1.32301 0
M  V30 2110 H 198.693 -4.82451 -3.67867 0
M  V30 2111 H 197.432 -3.63275 -3.25396 0
M  V30 2112 H 196.437 -5.25495 -1.61663 0
M  V30 2113 H 197.662 -6.46843 -2.0681 0
M  V30 2114 H 195.608 -5.24032 -3.94623 0
M  V30 2115 H 195.525 -6.82552 -3.25051 0
M  V30 2116 H 196.793 -6.44907 -4.37853 0
M  V30 2117 N 201.022 0.148545 -1.56898 0
M  V30 2118 C 202.25 0.876389 -1.87422 0
M  V30 2119 C 202.665 1.74809 -0.713256 0
M  V30 2120 O 202.022 1.79725 0.317025 0
M  V30 2121 C 202.073 1.73438 -3.17178 0
M  V30 2122 O 201.794 0.897809 -4.28802 0
M  V30 2123 C 203.295 2.56993 -3.61205 0
M  V30 2124 H 200.515 0.253489 -0.621277 0
M  V30 2125 H 203.059 0.141798 -2.04008 0
M  V30 2126 H 201.214 2.42205 -3.0235 0
M  V30 2127 H 201.628 1.48672 -5.02988 0
M  V30 2128 H 203.102 3.12773 -4.54838 0
M  V30 2129 H 203.579 3.32958 -2.86419 0
M  V30 2130 H 204.185 1.9352 -3.78722 0
M  V30 2131 N 202.5 1.5196 0.417844 0
M  V30 2132 C 203.749 1.6482 1.16264 0
M  V30 2133 C 204.062 0.379886 1.91876 0
M  V30 2134 O 205.268 0.388154 2.68711 0
M  V30 2135 C 203.724 2.91161 2.1155 0
M  V30 2136 C 203.332 4.25068 1.41495 0
M  V30 2137 C 205.076 3.13383 2.86341 0
M  V30 2138 C 202.983 5.42541 2.35379 0
M  V30 2139 H 201.913 0.613954 0.437694 0
M  V30 2140 H 204.564 1.78442 0.427871 0
M  V30 2141 H 202.946 2.71218 2.88543 0
M  V30 2142 H 204.12 4.55463 0.699263 0
M  V30 2143 H 202.435 4.0888 0.787792 0
M  V30 2144 H 205.032 3.98324 3.5671 0
M  V30 2145 H 205.375 2.27256 3.48798 0
M  V30 2146 H 205.908 3.33757 2.1645 0
M  V30 2147 H 202.647 6.30987 1.77582 0
M  V30 2148 H 202.167 5.16497 3.04945 0
M  V30 2149 H 203.846 5.75272 2.96093 0
M  V30 2150 N 203.978 -0.674533 1.42435 0
M  V30 2151 C 205.208 -1.46071 1.46105 0
M  V30 2152 C 205.616 -1.89067 0.0709605 0
M  V30 2153 O 204.959 -1.58731 -0.924677 0
M  V30 2154 C 205.021 -2.74145 2.32561 0
M  V30 2155 C 204.685 -2.53224 3.8043 0
M  V30 2156 C 205.682 -2.17809 4.72075 0
M  V30 2157 C 203.367 -2.6821 4.24698 0
M  V30 2158 C 205.361 -1.97648 6.05982 0
M  V30 2159 C 203.048 -2.47665 5.58664 0
M  V30 2160 C 204.046 -2.12437 6.49122 0
M  V30 2161 O 203.734 -1.9209 7.80613 0
M  V30 2162 H 203.466 -0.455959 0.499076 0
M  V30 2163 H 206.02 -0.836193 1.87609 0
M  V30 2164 H 204.25 -3.3908 1.85908 0
M  V30 2165 H 205.939 -3.36028 2.27683 0
M  V30 2166 H 206.705 -2.05826 4.39159 0
M  V30 2167 H 202.584 -2.94609 3.54579 0
M  V30 2168 H 206.128 -1.70075 6.7655 0
M  V30 2169 H 202.025 -2.59244 5.91154 0
M  V30 2170 H 202.793 -2.06686 7.91974 0
M  V30 2171 N 205.456 -1.28612 -0.910864 0
M  V30 2172 C 206.684 -1.18792 -1.69399 0
M  V30 2173 C 207.099 0.253039 -1.87097 0
M  V30 2174 O 206.456 1.17071 -1.40003 0
M  V30 2175 C 206.507 -1.88511 -3.08457 0
M  V30 2176 O 206.228 -3.26979 -2.91576 0
M  V30 2177 C 207.729 -1.85029 -4.02839 0
M  V30 2178 H 204.949 -0.412233 -0.529438 0
M  V30 2179 H 207.493 -1.69788 -1.13984 0
M  V30 2180 H 205.648 -1.41379 -3.60681 0
M  V30 2181 H 206.062 -3.61936 -3.79608 0
M  V30 2182 H 207.536 -2.38395 -4.97867 0
M  V30 2183 H 208.013 -0.823303 -4.31414 0
M  V30 2184 H 208.619 -2.31853 -3.56545 0
M  V30 2185 N 206.934 1.1197 -1.10907 0
M  V30 2186 C 208.345 1.65114 -0.871446 0
M  V30 2187 C 208.696 1.86885 0.597353 0
M  V30 2188 O 207.821 1.59896 1.45816 0
M  V30 2189 C 208.416 2.99944 -1.5754 0
M  V30 2190 C 206.975 3.50018 -1.38435 0
M  V30 2191 C 206.122 2.24941 -1.62164 0
M  V30 2192 H 209.073 0.956851 -1.2661 0
M  V30 2193 H 209.094 3.66651 -1.01721 0
M  V30 2194 H 208.606 2.84067 -2.64438 0
M  V30 2195 H 206.707 3.71071 -0.337214 0
M  V30 2196 H 206.82 4.29165 -2.12965 0
M  V30 2197 H 205.184 2.3229 -1.04467 0
M  V30 2198 H 205.967 2.11612 -2.70324 0
M  V30 2199 N 208.412 0.89855 1.29475 0
M  V30 2200 C 209.66 0.522847 1.9522 0
M  V30 2201 C 209.981 -0.93371 1.71192 0
M  V30 2202 O 209.251 -1.65823 1.04305 0
M  V30 2203 H 207.831 0.190366 0.722336 0
M  V30 2204 H 210.493 1.14459 1.5775 0
M  V30 2205 H 209.589 0.704476 3.04045 0
M  V30 2206 N 209.89 -1.43072 0.660911 0
M  V30 2207 C 211.115 -2.06584 0.183805 0
M  V30 2208 C 211.54 -1.49257 -1.14472 0
M  V30 2209 O 210.898 -0.605528 -1.70889 0
M  V30 2210 C 210.946 -3.60418 0.114434 0
M  V30 2211 O 210.05 -4.01981 -0.921137 0
M  V30 2212 H 209.391 -0.656669 0.0983994 0
M  V30 2213 H 211.921 -1.83447 0.906006 0
M  V30 2214 H 211.931 -4.07946 -0.0663394 0
M  V30 2215 H 210.606 -4.01519 1.08422 0
M  V30 2216 H 209.183 -3.66029 -0.71253 0
M  V30 2217 N 211.368 -0.403325 -1.52352 0
M  V30 2218 C 212.596 0.174012 -2.06167 0
M  V30 2219 C 213.011 1.39347 -1.27388 0
M  V30 2220 O 212.368 1.79597 -0.324201 0
M  V30 2221 C 212.419 0.530223 -3.5759 0
M  V30 2222 O 212.14 -0.640806 -4.33388 0
M  V30 2223 C 213.641 1.16192 -4.27802 0
M  V30 2224 H 210.861 0.0229464 -0.670608 0
M  V30 2225 H 213.405 -0.572604 -1.9632 0
M  V30 2226 H 211.56 1.22673 -3.67464 0
M  V30 2227 H 211.974 -0.344851 -5.23365 0
M  V30 2228 H 213.448 1.36141 -5.34948 0
M  V30 2229 H 213.925 2.13335 -3.83907 0
M  V30 2230 H 214.531 0.505775 -4.22282 0
M  V30 2231 N 212.846 1.57033 -0.133567 0
M  V30 2232 C 214.092 1.95976 0.521649 0
M  V30 2233 C 214.425 1.01779 1.65393 0
M  V30 2234 O 213.7 0.0576581 1.94415 0
M  V30 2235 C 213.983 3.44738 1.04057 0
M  V30 2236 C 213.836 4.49711 -0.0892897 0
M  V30 2237 C 215.155 3.95682 1.92675 0
M  V30 2238 H 212.274 0.712579 0.188149 0
M  V30 2239 H 214.916 1.88813 -0.212076 0
M  V30 2240 H 213.066 3.50973 1.66583 0
M  V30 2241 H 214.738 4.55565 -0.725152 0
M  V30 2242 H 212.981 4.27261 -0.750378 0
M  V30 2243 H 213.652 5.51099 0.315284 0
M  V30 2244 H 216.128 3.91841 1.39998 0
M  V30 2245 H 215.004 5.00262 2.25897 0
M  V30 2246 H 215.265 3.37239 2.85872 0
M  V30 2247 N 214.325 -0.140222 1.56975 0
M  V30 2248 C 215.255 -1.17456 2.01808 0
M  V30 2249 C 216.236 -1.44415 0.898794 0
M  V30 2250 O 217.421 -1.5522 1.16707 0
M  V30 2251 C 214.551 -2.50607 2.40444 0
M  V30 2252 C 213.505 -2.38155 3.55621 0
M  V30 2253 C 212.831 -3.76078 3.80091 0
M  V30 2254 C 214.131 -1.85991 4.88062 0
M  V30 2255 H 215.825 -0.801743 2.88466 0
M  V30 2256 H 213.371 -0.38422 1.38779 0
M  V30 2257 H 215.324 -3.23197 2.7041 0
M  V30 2258 H 214.048 -2.89737 1.50732 0
M  V30 2259 H 212.707 -1.68016 3.25832 0
M  V30 2260 H 212.355 -4.12656 2.87618 0
M  V30 2261 H 212.055 -3.68606 4.57606 0
M  V30 2262 H 213.579 -4.50206 4.12488 0
M  V30 2263 H 214.993 -2.4838 5.16701 0
M  V30 2264 H 213.39 -1.89393 5.6943 0
M  V30 2265 H 214.46 -0.816023 4.77984 0
M  V30 2266 N 215.803 -1.52179 -0.40978 0
M  V30 2267 C 217.033 -1.69807 -1.17682 0
M  V30 2268 C 217.441 -0.406908 -1.84773 0
M  V30 2269 O 216.784 0.626863 -1.72673 0
M  V30 2270 C 216.846 -2.77712 -2.2829 0
M  V30 2271 C 216.51 -4.19481 -1.81341 0
M  V30 2272 C 217.507 -5.03345 -1.30154 0
M  V30 2273 C 215.192 -4.65713 -1.88194 0
M  V30 2274 C 217.186 -6.31511 -0.864416 0
M  V30 2275 C 214.873 -5.93869 -1.44093 0
M  V30 2276 C 215.871 -6.76597 -0.933023 0
M  V30 2277 O 215.559 -8.02354 -0.49838 0
M  V30 2278 H 215.291 -0.572372 -0.359675 0
M  V30 2279 H 217.845 -1.99511 -0.488311 0
M  V30 2280 H 216.075 -2.43383 -3.00502 0
M  V30 2281 H 217.764 -2.83946 -2.90051 0
M  V30 2282 H 218.53 -4.68819 -1.24232 0
M  V30 2283 H 214.409 -4.01424 -2.26671 0
M  V30 2284 H 217.953 -6.96033 -0.467286 0
M  V30 2285 H 213.85 -6.27903 -1.49694 0
M  V30 2286 H 214.618 -8.16135 -0.621747 0
M  V30 2287 N 217.281 0.66697 -1.42791 0
M  V30 2288 C 218.697 0.981027 -1.25889 0
M  V30 2289 C 218.897 2.00793 -0.168695 0
M  V30 2290 O 217.953 2.48321 0.45747 0
M  V30 2291 C 219.266 1.47838 -2.61848 0
M  V30 2292 C 220.814 1.59575 -2.69267 0
M  V30 2293 C 221.289 2.12704 -4.05612 0
M  V30 2294 N 222.78 2.20026 -4.07606 0
M  V30 2295 C 223.515 2.62227 -5.09926 0
M  V30 2296 N 223.011 3.03824 -6.22626 0
M  V30 2297 N 224.804 2.62045 -4.97281 0
M  V30 2298 H 216.955 -0.0127891 -2.12396 0
M  V30 2299 H 219.218 0.0568258 -0.946295 0
M  V30 2300 H 218.924 0.798299 -3.4252 0
M  V30 2301 H 218.798 2.45579 -2.86305 0
M  V30 2302 H 221.185 2.26687 -1.88936 0
M  V30 2303 H 221.266 0.60302 -2.48591 0
M  V30 2304 H 220.91 1.46198 -4.86404 0
M  V30 2305 H 220.84 3.12782 -4.23645 0
M  V30 2306 H 223.331 1.90708 -3.2625 0
M  V30 2307 H 223.644 3.34734 -6.96544 0
M  V30 2308 H 221.989 3.01662 -6.26119 0
M  V30 2309 H 225.18 2.28916 -4.08308 0
M  V30 2310 H 225.353 2.94613 -5.77154 0
M  V30 2311 N 218.759 1.29093 0.90403 0
M  V30 2312 C 220.008 1.16187 1.64874 0
M  V30 2313 C 220.321 -0.286742 1.93487 0
M  V30 2314 O 221.527 -0.537062 2.66135 0
M  V30 2315 C 219.983 2.03177 2.97064 0
M  V30 2316 C 219.591 3.52836 2.76062 0
M  V30 2317 C 221.335 1.98984 3.74974 0
M  V30 2318 C 219.242 4.31945 4.03952 0
M  V30 2319 H 218.172 0.431246 0.618501 0
M  V30 2320 H 220.823 1.53699 1.00243 0
M  V30 2321 H 219.205 1.5853 3.62883 0
M  V30 2322 H 220.379 4.05507 2.18863 0
M  V30 2323 H 218.694 3.58656 2.11553 0
M  V30 2324 H 221.291 2.55351 4.69787 0
M  V30 2325 H 221.634 0.968815 4.0487 0
M  V30 2326 H 222.167 2.41652 3.15989 0
M  V30 2327 H 218.906 5.34667 3.79225 0
M  V30 2328 H 218.426 3.84045 4.60727 0
M  V30 2329 H 220.105 4.42379 4.72133 0
M  V30 2330 N 220.237 -1.11381 1.11499 0
M  V30 2331 C 221.484 -1.83132 0.864231 0
M  V30 2332 C 221.812 -1.84683 -0.610114 0
M  V30 2333 O 221.067 -1.29589 -1.46646 0
M  V30 2334 C 221.366 -3.30026 1.37177 0
M  V30 2335 C 221.032 -3.48634 2.85946 0
M  V30 2336 C 219.694 -3.53421 3.26569 0
M  V30 2337 C 222.046 -3.54837 3.81759 0
M  V30 2338 C 219.374 -3.61967 4.61733 0
M  V30 2339 C 221.726 -3.64915 5.1674 0
M  V30 2340 C 220.39 -3.67962 5.5692 0
M  V30 2341 H 219.66 -0.670127 0.316245 0
M  V30 2342 H 222.307 -1.31354 1.3935 0
M  V30 2343 H 220.612 -3.84304 0.762753 0
M  V30 2344 H 222.309 -3.84034 1.15408 0
M  V30 2345 H 218.899 -3.45579 2.53521 0
M  V30 2346 H 223.083 -3.50399 3.51474 0
M  V30 2347 H 218.339 -3.62603 4.92269 0
M  V30 2348 H 222.513 -3.68658 5.90816 0
M  V30 2349 H 220.14 -3.74336 6.61647 0
M  V30 2350 N 221.715 -0.905404 -1.28997 0
M  V30 2351 C 222.943 -0.549846 -1.9946 0
M  V30 2352 C 223.358 0.866834 -1.67724 0
M  V30 2353 O 222.715 1.57298 -0.925404 0
M  V30 2354 C 222.766 -0.739387 -3.53858 0
M  V30 2355 O 222.487 -2.10031 -3.84472 0
M  V30 2356 C 223.988 -0.389541 -4.41585 0
M  V30 2357 H 221.208 -0.210429 -0.637151 0
M  V30 2358 H 223.752 -1.21632 -1.64396 0
M  V30 2359 H 221.907 -0.120023 -3.87214 0
M  V30 2360 H 222.321 -2.13385 -4.79132 0
M  V30 2361 H 223.795 -0.572972 -5.49018 0
M  V30 2362 H 224.272 0.673756 -4.34001 0
M  V30 2363 H 224.878 -0.986089 -4.1371 0
M  V30 2364 N 223.193 1.4272 -0.668489 0
M  V30 2365 C 224.439 2.01923 -0.188419 0
M  V30 2366 C 224.772 1.52704 1.19979 0
M  V30 2367 O 224.047 0.726566 1.8042 0
M  V30 2368 C 224.33 3.59451 -0.216085 0
M  V30 2369 C 224.183 4.18864 -1.6393 0
M  V30 2370 C 225.502 4.37903 0.439179 0
M  V30 2371 H 222.621 0.733674 -0.0699412 0
M  V30 2372 H 225.263 1.69822 -0.852076 0
M  V30 2373 H 223.413 3.86929 0.349012 0
M  V30 2374 H 225.085 4.02362 -2.25616 0
M  V30 2375 H 223.328 3.74933 -2.18193 0
M  V30 2376 H 223.999 5.27987 -1.61039 0
M  V30 2377 H 226.475 4.16079 -0.0417878 0
M  V30 2378 H 225.351 5.47519 0.389157 0
M  V30 2379 H 225.612 4.15303 1.51577 0
M  V30 2380 N 224.671 0.411399 1.52136 0
M  V30 2381 C 225.619 -0.427633 2.28635 0
M  V30 2382 C 226.613 -1.04383 1.33419 0
M  V30 2383 O 227.819 -0.981772 1.50868 0
M  V30 2384 H 224.194 -0.156689 0.735495 0
M  V30 2385 H 226.165 0.238761 2.97443 0
M  V30 2386 C 224.914 -1.53082 3.12188 0
M  V30 2387 H 224.237 -1.06601 3.85326 0
M  V30 2388 H 225.677 -2.09167 3.68816 0
M  V30 2389 C 224.136 -2.49946 2.25895 0
M  V30 2390 O 224.666 -3.53884 1.90076 0
M  V30 2391 N 222.872 -2.2021 1.8962 0
M  V30 2392 H 222.419 -1.35719 2.18948 0
M  V30 2393 H 222.377 -2.85266 1.32176 0
M  V30 2394 N 226.149 -1.5696 0.141893 0
M  V30 2395 C 227.099 -2.13074 -0.811383 0
M  V30 2396 C 228.083 -1.05726 -1.21288 0
M  V30 2397 O 229.275 -1.31914 -1.18015 0
M  V30 2398 C 226.404 -2.75186 -2.0525 0
M  V30 2399 C 225.49 -3.8965 -1.67432 0
M  V30 2400 N 225.881 -4.95733 -1.0041 0
M  V30 2401 C 224.179 -4.00262 -1.96739 0
M  V30 2402 C 224.88 -5.75858 -0.822345 0
M  V30 2403 N 223.856 -5.26452 -1.3546 0
M  V30 2404 H 227.658 -2.92465 -0.290031 0
M  V30 2405 H 225.172 -1.6229 -0.0598218 0
M  V30 2406 H 227.169 -3.13745 -2.74535 0
M  V30 2407 H 225.829 -1.97266 -2.57907 0
M  V30 2408 H 226.84 -5.13607 -0.665441 0
M  V30 2409 H 223.517 -3.33412 -2.51282 0
M  V30 2410 H 224.907 -6.71254 -0.294496 0
M  V30 2411 N 227.627 0.131896 -1.57047 0
M  V30 2412 C 228.574 1.16236 -1.99393 0
M  V30 2413 C 229.544 1.41863 -0.863943 0
M  V30 2414 O 230.729 1.53946 -1.12718 0
M  V30 2415 C 227.869 2.48708 -2.39245 0
M  V30 2416 C 226.982 2.30127 -3.65603 0
M  V30 2417 C 226.117 3.55738 -3.94492 0
M  V30 2418 C 225.156 3.32259 -5.14073 0
M  V30 2419 N 224.293 4.50039 -5.38896 0
M  V30 2420 H 229.133 0.794251 -2.87221 0
M  V30 2421 H 226.67 0.380707 -1.42088 0
M  V30 2422 H 228.628 3.25969 -2.60384 0
M  V30 2423 H 227.258 2.83437 -1.54478 0
M  V30 2424 H 226.31 1.43845 -3.52154 0
M  V30 2425 H 227.622 2.08746 -4.5302 0
M  V30 2426 H 226.776 4.41423 -4.1621 0
M  V30 2427 H 225.515 3.80138 -3.05526 0
M  V30 2428 H 224.52 2.44963 -4.92212 0
M  V30 2429 H 225.745 3.09242 -6.04604 0
M  V30 2430 H 223.691 4.74584 -4.52886 0
M  V30 2431 H 223.608 4.31716 -6.2061 0
M  V30 2432 H 224.876 5.36895 -5.65123 0
M  V30 2433 N 229.106 1.52395 0.401703 0
M  V30 2434 C 230.036 1.79231 1.49661 0
M  V30 2435 C 231.017 0.643654 1.57452 0
M  V30 2436 O 232.202 0.889989 1.72606 0
M  V30 2437 C 229.332 1.94971 2.87409 0
M  V30 2438 C 228.286 3.10604 2.94465 0
M  V30 2439 C 227.612 3.11577 4.34538 0
M  V30 2440 C 228.912 4.49921 2.6527 0
M  V30 2441 H 230.606 2.70917 1.27454 0
M  V30 2442 H 228.152 1.30362 0.6117 0
M  V30 2443 H 230.105 2.12328 3.63999 0
M  V30 2444 H 228.829 0.999632 3.10926 0
M  V30 2445 H 227.488 2.93009 2.20321 0
M  V30 2446 H 227.136 2.14277 4.55076 0
M  V30 2447 H 226.836 3.89247 4.40183 0
M  V30 2448 H 228.36 3.31073 5.13053 0
M  V30 2449 H 229.774 4.67683 3.31581 0
M  V30 2450 H 228.171 5.29564 2.82281 0
M  V30 2451 H 229.241 4.57507 1.60671 0
M  V30 2452 N 230.584 -0.659388 1.43143 0
M  V30 2453 C 231.514 -1.78422 1.50625 0
M  V30 2454 C 232.495 -1.66216 0.361443 0
M  V30 2455 O 233.68 -1.85404 0.577834 0
M  V30 2456 C 230.81 -3.16815 1.42287 0
M  V30 2457 C 229.764 -3.43777 2.54954 0
M  V30 2458 C 229.09 -4.81905 2.31671 0
M  V30 2459 C 230.39 -3.39134 3.97222 0
M  V30 2460 H 232.084 -1.72417 2.44771 0
M  V30 2461 H 229.63 -0.828084 1.17808 0
M  V30 2462 H 231.583 -3.95253 1.46127 0
M  V30 2463 H 230.307 -3.23534 0.446435 0
M  V30 2464 H 228.966 -2.67707 2.50457 0
M  V30 2465 H 228.614 -4.85294 1.32284 0
M  V30 2466 H 228.314 -5.00906 3.07192 0
M  V30 2467 H 229.838 -5.62609 2.37284 0
M  V30 2468 H 231.252 -4.07518 4.03239 0
M  V30 2469 H 229.649 -3.69671 4.72719 0
M  V30 2470 H 230.719 -2.37426 4.22797 0
M  V30 2471 N 232.062 -1.29571 -0.897171 0
M  V30 2472 C 233.473 -1.15964 -1.46319 0
M  V30 2473 C 233.824 0.244267 -1.94674 0
M  V30 2474 O 232.949 1.13998 -1.83939 0
M  V30 2475 C 233.544 -2.09906 -2.65942 0
M  V30 2476 C 232.103 -2.00314 -3.18671 0
M  V30 2477 C 231.25 -2.00687 -1.91363 0
M  V30 2478 H 234.201 -1.42019 -0.708268 0
M  V30 2479 H 234.222 -1.67276 -3.41759 0
M  V30 2480 H 233.734 -3.12075 -2.30718 0
M  V30 2481 H 231.835 -1.01242 -3.58582 0
M  V30 2482 H 231.948 -2.88102 -3.82798 0
M  V30 2483 H 230.312 -1.45319 -2.09175 0
M  V30 2484 H 231.095 -3.04566 -1.58413 0
M  V30 2485 N 233.54 1.10788 -1.12088 0
M  V30 2486 C 234.786 1.82942 -0.875226 0
M  V30 2487 C 235.119 1.84779 0.597538 0
M  V30 2488 O 234.394 1.30578 1.44152 0
M  V30 2489 C 234.677 3.29789 -1.44606 0
M  V30 2490 C 234.53 3.36307 -2.98693 0
M  V30 2491 C 235.849 4.26064 -1.10261 0
M  V30 2492 H 232.968 0.664195 -0.319397 0
M  V30 2493 H 235.61 1.29867 -1.38689 0
M  V30 2494 H 233.76 3.75118 -1.01089 0
M  V30 2495 H 235.432 2.99487 -3.50864 0
M  V30 2496 H 233.675 2.76318 -3.34411 0
M  V30 2497 H 234.346 4.39694 -3.33726 0
M  V30 2498 H 236.822 3.88951 -1.4784 0
M  V30 2499 H 235.698 5.27183 -1.52869 0
M  V30 2500 H 235.959 4.42098 -0.0142953 0
M  V30 2501 N 235.018 0.912232 1.28515 0
M  V30 2502 C 236.266 0.543523 1.94654 0
M  V30 2503 C 236.587 -0.9155 1.72173 0
M  V30 2504 O 235.857 -1.64708 1.06058 0
M  V30 2505 H 234.437 0.198017 0.720277 0
M  V30 2506 H 237.099 1.16126 1.56527 0
M  V30 2507 H 236.195 0.736684 3.03281 0
M  V30 2508 N 236.496 -1.42363 0.676048 0
M  V30 2509 C 237.912 -1.55811 0.345718 0
M  V30 2510 C 238.112 -1.65544 -1.14879 0
M  V30 2511 O 237.168 -1.62306 -1.93424 0
M  V30 2512 C 238.481 -2.80746 1.07713 0
M  V30 2513 C 240.029 -2.9452 1.05958 0
M  V30 2514 C 240.504 -4.22318 1.77233 0
M  V30 2515 N 241.995 -4.29233 1.74108 0
M  V30 2516 C 242.73 -5.26935 2.26113 0
M  V30 2517 N 242.226 -6.30783 2.86505 0
M  V30 2518 N 244.019 -5.18741 2.1648 0
M  V30 2519 H 236.17 -1.34289 1.6456 0
M  V30 2520 H 238.433 -0.646506 0.69335 0
M  V30 2521 H 238.139 -2.79696 2.13221 0
M  V30 2522 H 238.013 -3.71676 0.64316 0
M  V30 2523 H 240.4 -2.95097 0.0128255 0
M  V30 2524 H 240.481 -2.04817 1.53244 0
M  V30 2525 H 240.125 -4.22502 2.81877 0
M  V30 2526 H 240.055 -5.10958 1.27396 0
M  V30 2527 H 242.546 -3.54814 1.30059 0
M  V30 2528 H 242.859 -7.01691 3.23805 0
M  V30 2529 H 241.204 -6.31341 2.90575 0
M  V30 2530 H 244.395 -4.36533 1.68987 0
M  V30 2531 H 244.568 -5.94721 2.57316 0
M  V30 2532 N 237.974 -0.419461 -1.51915 0
M  V30 2533 C 239.202 0.152136 -2.0634 0
M  V30 2534 C 239.617 1.37988 -1.28859 0
M  V30 2535 O 238.974 1.79243 -0.343232 0
M  V30 2536 C 239.025 0.492266 -3.58133 0
M  V30 2537 O 238.746 -0.686736 -4.32684 0
M  V30 2538 C 240.247 1.11648 -4.2901 0
M  V30 2539 H 237.467 0.0158325 -0.670813 0
M  V30 2540 H 240.011 -0.593394 -1.95702 0
M  V30 2541 H 238.166 1.18769 -3.68745 0
M  V30 2542 H 238.58 -0.400341 -5.2297 0
M  V30 2543 H 240.054 1.3046 -5.36362 0
M  V30 2544 H 240.531 2.09251 -3.86148 0
M  V30 2545 H 241.137 0.460958 -4.22795 0
M  V30 2546 N 239.452 1.56882 -0.150215 0
M  V30 2547 C 240.698 1.96518 0.500834 0
M  V30 2548 C 241.031 1.03527 1.64304 0
M  V30 2549 O 240.306 0.0782751 1.94342 0
M  V30 2550 C 240.589 3.45822 1.00395 0
M  V30 2551 C 240.442 4.49591 -0.136983 0
M  V30 2552 C 241.761 3.97704 1.88467 0
M  V30 2553 H 238.88 0.714535 0.18058 0
M  V30 2554 H 241.522 1.88577 -0.232091 0
M  V30 2555 H 239.672 3.5272 1.62851 0
M  V30 2556 H 241.344 4.5477 -0.77343 0
M  V30 2557 H 239.587 4.26441 -0.795652 0
M  V30 2558 H 240.258 5.51402 0.256815 0
M  V30 2559 H 242.734 3.93304 1.35834 0
M  V30 2560 H 241.61 5.0263 2.20578 0
M  V30 2561 H 241.871 3.40252 2.82279 0
M  V30 2562 N 240.93 -0.123565 1.57115 0
M  V30 2563 C 241.863 -1.18202 1.95201 0
M  V30 2564 C 242.841 -1.40349 0.821031 0
M  V30 2565 O 244.025 -1.54578 1.07879 0
M  V30 2566 C 241.152 -2.53671 2.24429 0
M  V30 2567 C 240.198 -2.4798 3.46999 0
M  V30 2568 S 241.031 -1.92389 4.99747 0
M  V30 2569 C 242.187 -3.2954 5.32123 0
M  V30 2570 H 242.42 -0.857212 2.84674 0
M  V30 2571 H 239.953 -0.33014 1.50829 0
M  V30 2572 H 241.911 -3.3162 2.41947 0
M  V30 2573 H 240.572 -2.83332 1.35579 0
M  V30 2574 H 239.765 -3.47758 3.64801 0
M  V30 2575 H 239.367 -1.7815 3.28844 0
M  V30 2576 H 241.659 -4.25736 5.27025 0
M  V30 2577 H 242.602 -3.16569 6.33395 0
M  V30 2578 H 243.01 -3.27758 4.59603 0
M  V30 2579 N 242.408 -1.52605 -0.393616 0
M  V30 2580 C 243.654 -1.67672 -1.14079 0
M  V30 2581 C 243.987 -0.413121 -1.89755 0
M  V30 2582 O 243.262 0.588952 -1.85369 0
M  V30 2583 C 243.545 -2.9088 -2.12276 0
M  V30 2584 C 243.398 -4.27329 -1.40394 0
M  V30 2585 C 244.717 -3.09628 -3.12759 0
M  V30 2586 H 241.836 -0.610168 -0.413356 0
M  V30 2587 H 244.478 -1.85193 -0.424696 0
M  V30 2588 H 242.628 -2.76073 -2.73342 0
M  V30 2589 H 244.3 -4.53894 -0.82327 0
M  V30 2590 H 242.543 -4.2802 -0.705801 0
M  V30 2591 H 243.214 -5.09615 -2.12123 0
M  V30 2592 H 245.69 -3.23436 -2.61779 0
M  V30 2593 H 244.566 -3.97322 -3.78717 0
M  V30 2594 H 244.827 -2.23637 -3.81365 0
M  V30 2595 N 243.887 0.651787 -1.4349 0
M  V30 2596 C 244.835 1.78586 -1.49029 0
M  V30 2597 C 245.829 1.65448 -0.363767 0
M  V30 2598 O 247.035 1.71777 -0.537821 0
M  V30 2599 H 243.41 0.589236 -0.467231 0
M  V30 2600 H 245.381 1.71035 -2.44519 0
M  V30 2601 C 244.13 3.16851 -1.43181 0
M  V30 2602 H 243.453 3.27598 -2.29171 0
M  V30 2603 H 244.893 3.96156 -1.51118 0
M  V30 2604 C 243.352 3.36568 -0.149616 0
M  V30 2605 O 243.882 3.93885 0.788509 0
M  V30 2606 N 242.088 2.90539 -0.0593484 0
M  V30 2607 H 241.635 2.4408 -0.823575 0
M  V30 2608 H 241.593 3.04108 0.797853 0
M  V30 2609 N 245.365 1.30045 0.890287 0
M  V30 2610 C 246.614 1.17929 1.63633 0
M  V30 2611 C 246.927 -0.266204 1.9378 0
M  V30 2612 O 248.133 -0.508804 2.6669 0
M  V30 2613 C 246.589 2.06317 2.94892 0
M  V30 2614 C 246.197 3.55745 2.72305 0
M  V30 2615 C 247.941 2.0295 3.72843 0
M  V30 2616 C 245.848 4.36205 3.99348 0
M  V30 2617 H 244.778 0.437782 0.613892 0
M  V30 2618 H 247.429 1.54754 0.986075 0
M  V30 2619 H 245.811 1.6237 3.61182 0
M  V30 2620 H 246.985 4.07805 2.1455 0
M  V30 2621 H 245.3 3.6088 2.07737 0
M  V30 2622 H 247.897 2.60319 4.67053 0
M  V30 2623 H 248.24 1.0117 4.0382 0
M  V30 2624 H 248.773 2.4499 3.13408 0
M  V30 2625 H 245.512 5.38659 3.73533 0
M  V30 2626 H 245.032 3.8891 4.56628 0
M  V30 2627 H 246.711 4.47362 4.67415 0
M  V30 2628 N 246.843 -1.10192 1.12674 0
M  V30 2629 C 247.753 -2.20172 0.810026 0
M  V30 2630 C 248.769 -1.72821 -0.202188 0
M  V30 2631 O 249.945 -2.01369 -0.0351691 0
M  V30 2632 C 247.01 -3.45631 0.272007 0
M  V30 2633 C 246.071 -4.07704 1.34447 0
M  V30 2634 C 245.304 -5.27175 0.832029 0
M  V30 2635 O 245.527 -5.69425 -0.333284 0
M  V30 2636 O 244.461 -5.80168 1.60277 0
M  V30 2637 H 248.287 -2.49701 1.72867 0
M  V30 2638 H 245.872 -1.18977 0.903597 0
M  V30 2639 H 247.754 -4.21394 -0.0230219 0
M  V30 2640 H 246.429 -3.17723 -0.619164 0
M  V30 2641 H 245.336 -3.33614 1.6927 0
M  V30 2642 H 246.669 -4.3982 2.2095 0
M  V30 2643 N 248.321 -0.919034 -1.28029 0
M  V30 2644 C 249.269 -0.401753 -2.29104 0
M  V30 2645 C 250.263 0.509354 -1.61561 0
M  V30 2646 O 251.469 0.390014 -1.75724 0
M  V30 2647 H 247.844 -0.111331 -0.743713 0
M  V30 2648 H 249.815 -1.2672 -2.70156 0
M  V30 2649 C 248.564 0.338148 -3.46052 0
M  V30 2650 H 247.887 -0.353732 -3.98232 0
M  V30 2651 H 249.327 0.664653 -4.18758 0
M  V30 2652 C 247.786 1.54798 -2.99231 0
M  V30 2653 O 248.316 2.64696 -3.02157 0
M  V30 2654 N 246.522 1.3968 -2.54829 0
M  V30 2655 H 246.069 0.502698 -2.52647 0
M  V30 2656 H 246.027 2.20755 -2.23863 0
M  V30 2657 N 249.799 1.42003 -0.683588 0
M  V30 2658 C 251.21 1.84501 -0.285736 0
M  V30 2659 C 251.561 1.57213 1.17382 0
M  V30 2660 O 250.686 1.03642 1.89966 0
M  V30 2661 C 251.281 3.34912 -0.511821 0
M  V30 2662 C 249.84 3.76025 -0.168005 0
M  V30 2663 C 248.987 2.6551 -0.799983 0
M  V30 2664 H 251.938 1.31724 -0.885119 0
M  V30 2665 H 251.959 3.79784 0.233292 0
M  V30 2666 H 251.471 3.54741 -1.57418 0
M  V30 2667 H 249.572 3.61801 0.890567 0
M  V30 2668 H 249.685 4.75141 -0.614661 0
M  V30 2669 H 248.049 2.53654 -0.230568 0
M  V30 2670 H 248.832 2.8816 -1.86597 0
M  V30 2671 N 251.277 0.427512 1.51691 0
M  V30 2672 C 252.187 -0.39527 2.31246 0
M  V30 2673 C 253.203 -1.03674 1.39742 0
M  V30 2674 O 254.379 -1.03425 1.72816 0
M  V30 2675 C 251.444 -1.48706 3.13189 0
M  V30 2676 C 250.505 -0.866743 4.20459 0
M  V30 2677 C 249.738 -1.90651 4.98486 0
M  V30 2678 O 249.961 -3.12733 4.77026 0
M  V30 2679 O 248.895 -1.5025 5.82845 0
M  V30 2680 H 252.721 0.253918 3.02637 0
M  V30 2681 H 250.306 0.190274 1.48183 0
M  V30 2682 H 252.188 -2.12047 3.64162 0
M  V30 2683 H 250.863 -2.12051 2.44573 0
M  V30 2684 H 249.77 -0.195544 3.73589 0
M  V30 2685 H 251.103 -0.276934 4.9142 0
M  V30 2686 N 252.755 -1.56801 0.158532 0
M  V30 2687 C 254.003 -1.96102 -0.488712 0
M  V30 2688 C 254.324 -1.04498 -1.64636 0
M  V30 2689 O 253.594 -0.108783 -1.95598 0
M  V30 2690 H 252.174 -0.724102 -0.183535 0
M  V30 2691 H 254.836 -1.93457 0.236728 0
M  V30 2692 H 253.932 -3.00097 -0.857219 0
M  V30 2693 N 254.233 0.115231 -1.57178 0
M  V30 2694 C 255.482 0.820945 -1.84237 0
M  V30 2695 C 255.795 1.80866 -0.744761 0
M  V30 2696 O 257.001 2.56083 -0.901871 0
M  V30 2697 C 255.457 1.51072 -3.26658 0
M  V30 2698 C 255.065 0.563795 -4.44438 0
M  V30 2699 C 256.809 2.20134 -3.62962 0
M  V30 2700 C 254.716 1.25701 -5.77887 0
M  V30 2701 H 253.646 0.310328 -0.687177 0
M  V30 2702 H 256.297 0.0737134 -1.83352 0
M  V30 2703 H 254.679 2.30471 -3.22024 0
M  V30 2704 H 255.853 -0.197247 -4.60378 0
M  V30 2705 H 254.168 -0.0200638 -4.16395 0
M  V30 2706 H 256.765 2.72696 -4.59936 0
M  V30 2707 H 257.108 2.98107 -2.90582 0
M  V30 2708 H 257.641 1.47619 -3.69396 0
M  V30 2709 H 254.38 0.518493 -6.53446 0
M  V30 2710 H 253.9 1.98997 -5.65827 0
M  V30 2711 H 255.579 1.78915 -6.2177 0
M  V30 2712 N 255.711 1.52812 0.385517 0
M  V30 2713 C 257.122 1.5993 0.963293 0
M  V30 2714 C 257.473 0.454302 1.90868 0
M  V30 2715 O 256.598 -0.422132 2.12243 0
M  V30 2716 C 257.193 2.89871 1.75387 0
M  V30 2717 C 255.752 2.99389 2.28129 0
M  V30 2718 C 254.899 2.55071 1.08783 0
M  V30 2719 H 257.85 1.5784 0.164948 0
M  V30 2720 H 257.871 2.76553 2.61341 0
M  V30 2721 H 257.383 3.73186 1.06554 0
M  V30 2722 H 255.484 2.20619 3.00263 0
M  V30 2723 H 255.597 4.04096 2.57377 0
M  V30 2724 H 253.961 2.09473 1.4489 0
M  V30 2725 H 254.744 3.40785 0.414807 0
M  V30 2726 N 257.189 -0.644168 1.43834 0
M  V30 2727 C 258.435 -1.40603 1.46146 0
M  V30 2728 C 258.768 -1.93997 0.0887717 0
M  V30 2729 O 258.043 -1.72854 -0.891724 0
M  V30 2730 C 258.326 -2.58086 2.51124 0
M  V30 2731 C 258.179 -2.10126 3.97702 0
M  V30 2732 C 259.498 -3.60291 2.52742 0
M  V30 2733 H 256.617 -0.509905 0.532134 0
M  V30 2734 H 259.259 -0.729502 1.75437 0
M  V30 2735 H 257.409 -3.15801 2.26278 0
M  V30 2736 H 259.081 -1.57342 4.33637 0
M  V30 2737 H 257.324 -1.41419 4.10101 0
M  V30 2738 H 257.995 -2.94649 4.66783 0
M  V30 2739 H 260.471 -3.12352 2.7491 0
M  V30 2740 H 259.347 -4.40032 3.28121 0
M  V30 2741 H 259.608 -4.1349 1.56455 0
M  V30 2742 N 258.668 -1.30515 -0.883378 0
M  V30 2743 C 259.615 -1.17032 -1.98927 0
M  V30 2744 C 260.585 -0.0594241 -1.65994 0
M  V30 2745 O 261.77 -0.229895 -1.8941 0
M  V30 2746 C 258.91 -0.869777 -3.33959 0
M  V30 2747 C 258.023 -2.06271 -3.79574 0
M  V30 2748 C 257.158 -1.70011 -5.03259 0
M  V30 2749 C 256.197 -2.8579 -5.41286 0
M  V30 2750 N 255.334 -2.49816 -6.56153 0
M  V30 2751 H 260.174 -2.1164 -2.09792 0
M  V30 2752 H 257.711 -1.05296 -1.02719 0
M  V30 2753 H 259.669 -0.676138 -4.11685 0
M  V30 2754 H 258.299 0.0394332 -3.22776 0
M  V30 2755 H 257.351 -2.36755 -2.97744 0
M  V30 2756 H 258.663 -2.92971 -4.03694 0
M  V30 2757 H 257.817 -1.47032 -5.88614 0
M  V30 2758 H 256.556 -0.804829 -4.81013 0
M  V30 2759 H 255.561 -3.09434 -4.54456 0
M  V30 2760 H 256.786 -3.76008 -5.65504 0
M  V30 2761 H 254.732 -1.62795 -6.35479 0
M  V30 2762 H 254.649 -3.30048 -6.8015 0
M  V30 2763 H 255.917 -2.30197 -7.44735 0
M  V30 2764 N 260.146 1.09593 -1.13257 0
M  V30 2765 C 261.078 2.16015 -0.766167 0
M  V30 2766 C 262.091 1.61423 0.211303 0
M  V30 2767 O 263.28 1.78498 -0.00863946 0
M  V30 2768 C 260.38 3.38706 -0.114662 0
M  V30 2769 C 259.553 4.22717 -1.12379 0
M  V30 2770 C 258.612 5.23835 -0.498301 0
M  V30 2771 O 257.638 5.573 -1.15781 0
M  V30 2772 N 258.84 5.75886 0.730417 0
M  V30 2773 H 261.605 2.48055 -1.68193 0
M  V30 2774 H 259.166 1.25292 -1.02535 0
M  V30 2775 H 261.158 4.03464 0.315991 0
M  V30 2776 H 259.728 3.04569 0.704011 0
M  V30 2777 H 258.948 3.54122 -1.73179 0
M  V30 2778 H 260.236 4.75673 -1.80589 0
M  V30 2779 H 259.634 5.50911 1.28504 0
M  V30 2780 H 258.191 6.42387 1.10376 0
M  V30 2781 N 261.624 0.925811 1.2754 0
M  V30 2782 C 262.901 0.483726 1.89524 0
M  V30 2783 C 263.281 -1.03809 1.83812 0
M  V30 2784 O 262.629 -1.89143 1.28207 0
M  V30 2785 C 262.839 1.02769 3.33526 0
M  V30 2786 C 264.187 1.08703 4.10449 0
M  V30 2787 O 265.211 0.977175 3.42534 0
M  V30 2788 O 264.07 1.25599 5.31871 0
M  V30 2789 H 261.164 0.15529 0.812289 0
M  V30 2790 H 263.71 1.01738 1.35822 0
M  V30 2791 H 262.482 2.07155 3.31967 0
M  V30 2792 H 262.105 0.475567 3.94746 0
M  V30 2793 N 263.102 -1.41638 0.69111 0
M  V30 2794 C 264.327 -2.06148 0.227583 0
M  V30 2795 C 264.752 -1.51652 -1.11281 0
M  V30 2796 O 264.11 -0.64164 -1.69566 0
M  V30 2797 C 264.158 -3.60095 0.190858 0
M  V30 2798 O 263.262 -4.03845 -0.835664 0
M  V30 2799 H 262.603 -0.654434 0.112306 0
M  V30 2800 H 265.133 -1.81484 0.944714 0
M  V30 2801 H 265.143 -4.07995 0.020207 0
M  V30 2802 H 263.818 -3.99129 1.16915 0
M  V30 2803 H 262.395 -3.67458 -0.63473 0
M  V30 2804 N 264.58 -0.43555 -1.51462 0
M  V30 2805 C 265.51 0.367376 -2.30592 0
M  V30 2806 C 266.491 1.02263 -1.35928 0
M  V30 2807 O 267.676 1.02661 -1.64847 0
M  V30 2808 C 264.806 1.46983 -3.14664 0
M  V30 2809 C 263.76 0.938161 -4.17591 0
M  V30 2810 C 263.086 2.13622 -4.90173 0
M  V30 2811 C 264.386 -0.0261621 -5.22293 0
M  V30 2812 H 266.08 -0.292969 -2.97963 0
M  V30 2813 H 263.626 -0.14234 -1.43295 0
M  V30 2814 H 265.579 2.03873 -3.688 0
M  V30 2815 H 264.303 2.15843 -2.4511 0
M  V30 2816 H 262.962 0.391481 -3.64504 0
M  V30 2817 H 262.61 2.81098 -4.17124 0
M  V30 2818 H 262.31 1.78688 -5.59772 0
M  V30 2819 H 263.834 2.7107 -5.47132 0
M  V30 2820 H 265.248 0.452384 -5.71512 0
M  V30 2821 H 263.645 -0.287992 -5.99409 0
M  V30 2822 H 264.715 -0.963391 -4.75233 0
M  V30 2823 N 266.058 1.56714 -0.166846 0
M  V30 2824 C 267.283 2.01557 0.488833 0
M  V30 2825 C 267.708 1.0463 1.56314 0
M  V30 2826 O 267.066 0.0251304 1.81283 0
M  V30 2827 C 267.114 3.4503 1.04818 0
M  V30 2828 O 266.218 3.51163 2.16236 0
M  V30 2829 H 265.559 0.653516 0.117526 0
M  V30 2830 H 268.089 2.02818 -0.269421 0
M  V30 2831 H 268.099 3.84243 1.37191 0
M  V30 2832 H 266.774 4.15077 0.261572 0
M  V30 2833 H 265.351 3.23807 1.84942 0
M  V30 2834 N 267.536 -0.106894 1.57237 0
M  V30 2835 C 268.761 -0.830287 1.90055 0
M  V30 2836 C 269.186 -1.72064 0.75998 0
M  V30 2837 O 268.544 -1.78982 -0.288991 0
M  V30 2838 C 268.592 -1.6295 3.21683 0
M  V30 2839 O 267.696 -2.73748 3.08441 0
M  V30 2840 H 267.037 -0.228855 0.623315 0
M  V30 2841 H 269.567 -0.085658 2.04421 0
M  V30 2842 H 269.577 -2.01621 3.54701 0
M  V30 2843 H 268.252 -0.975989 4.04286 0
M  V30 2844 H 266.829 -2.38192 2.86913 0
M  V30 2845 N 269.014 -1.53014 -0.377408 0
M  V30 2846 C 269.946 -1.74884 -1.48149 0
M  V30 2847 C 270.959 -0.629433 -1.5014 0
M  V30 2848 O 272.148 -0.905416 -1.53833 0
M  V30 2849 C 269.248 -1.80299 -2.86959 0
M  V30 2850 C 268.421 -3.09776 -3.08801 0
M  V30 2851 C 267.48 -3.06586 -4.27658 0
M  V30 2852 O 266.506 -3.80419 -4.23403 0
M  V30 2853 N 267.708 -2.26578 -5.34455 0
M  V30 2854 H 270.473 -2.70147 -1.29771 0
M  V30 2855 H 268.034 -1.51646 -0.56703 0
M  V30 2856 H 270.026 -1.75657 -3.64591 0
M  V30 2857 H 268.596 -0.92372 -2.98641 0
M  V30 2858 H 267.816 -3.27815 -2.18931 0
M  V30 2859 H 269.104 -3.95366 -3.20255 0
M  V30 2860 H 268.502 -1.66081 -5.40771 0
M  V30 2861 H 267.059 -2.27766 -6.10709 0
M  V30 2862 N 270.492 0.636531 -1.44174 0
M  V30 2863 C 271.44 1.76995 -1.50915 0
M  V30 2864 C 272.434 1.65053 -0.381295 0
M  V30 2865 O 273.64 1.71197 -0.55601 0
M  V30 2866 H 270.015 0.584247 -0.473455 0
M  V30 2867 H 271.986 1.68432 -2.4632 0
M  V30 2868 C 270.735 3.15314 -1.46534 0
M  V30 2869 H 270.058 3.25149 -2.32633 0
M  V30 2870 H 271.498 3.9453 -1.55312 0
M  V30 2871 C 269.957 3.3639 -0.185305 0
M  V30 2872 O 270.487 3.94699 0.746688 0
M  V30 2873 N 268.693 2.9046 -0.0901606 0
M  V30 2874 H 268.24 2.43193 -0.849416 0
M  V30 2875 H 268.198 3.04937 0.765553 0
M  V30 2876 N 271.97 1.30982 0.876444 0
M  V30 2877 C 272.902 1.13902 1.98894 0
M  V30 2878 C 273.915 0.0798815 1.62604 0
M  V30 2879 O 275.104 0.326743 1.75484 0
M  V30 2880 C 272.204 0.716699 3.31235 0
M  V30 2881 C 271.377 1.85945 3.95908 0
M  V30 2882 C 270.436 1.42426 5.06558 0
M  V30 2883 O 269.462 2.13287 5.27729 0
M  V30 2884 N 270.664 0.308025 5.79682 0
M  V30 2885 H 273.429 2.09724 2.14094 0
M  V30 2886 H 270.99 1.2323 1.05004 0
M  V30 2887 H 272.982 0.408403 4.02634 0
M  V30 2888 H 271.552 -0.149719 3.12241 0
M  V30 2889 H 270.772 2.33541 3.17573 0
M  V30 2890 H 272.06 2.62503 4.35855 0
M  V30 2891 H 271.458 -0.282241 5.64995 0
M  V30 2892 H 270.015 0.0592282 6.51773 0
M  V30 2893 N 273.449 -1.08991 1.13837 0
M  V30 2894 C 274.379 -2.17771 0.842507 0
M  V30 2895 C 275.36 -1.6892 -0.20001 0
M  V30 2896 O 276.545 -1.94113 -0.0579731 0
M  V30 2897 C 273.675 -3.4589 0.312644 0
M  V30 2898 C 272.629 -4.08099 1.28992 0
M  V30 2899 C 271.955 -5.31098 0.619623 0
M  V30 2900 C 273.255 -4.50077 2.65005 0
M  V30 2901 H 274.949 -2.42777 1.75213 0
M  V30 2902 H 272.495 -1.16682 0.843875 0
M  V30 2903 H 274.448 -4.21297 0.0933043 0
M  V30 2904 H 273.172 -3.20419 -0.632382 0
M  V30 2905 H 271.831 -3.34717 1.49533 0
M  V30 2906 H 271.479 -5.0191 -0.33102 0
M  V30 2907 H 271.179 -5.73674 1.27167 0
M  V30 2908 H 272.703 -6.09224 0.409669 0
M  V30 2909 H 274.117 -5.16688 2.48407 0
M  V30 2910 H 272.514 -5.03553 3.26427 0
M  V30 2911 H 273.584 -3.62257 3.22332 0
M  V30 2912 N 274.927 -0.932562 -1.27047 0
M  V30 2913 C 276.175 -0.574422 -1.93765 0
M  V30 2914 C 276.496 0.887993 -1.73608 0
M  V30 2915 O 275.766 1.62999 -1.08665 0
M  V30 2916 H 274.346 -0.209451 -0.717035 0
M  V30 2917 H 277.008 -1.18601 -1.5466 0
M  V30 2918 H 276.104 -0.784841 -3.02071 0
M  V30 2919 N 276.405 1.4127 -0.698611 0
M  V30 2920 C 277.651 2.01478 -0.231207 0
M  V30 2921 C 277.984 1.55215 1.16713 0
M  V30 2922 O 277.259 0.764672 1.78838 0
M  V30 2923 C 277.542 3.58912 -0.292281 0
M  V30 2924 C 277.395 4.15293 -1.72778 0
M  V30 2925 C 278.714 4.38736 0.346194 0
M  V30 2926 H 275.833 0.732025 -0.0854878 0
M  V30 2927 H 278.475 1.67977 -0.887906 0
M  V30 2928 H 276.625 3.87582 0.26686 0
M  V30 2929 H 278.297 3.97486 -2.341 0
M  V30 2930 H 276.54 3.7022 -2.26096 0
M  V30 2931 H 277.211 5.24452 -1.72202 0
M  V30 2932 H 279.687 4.15897 -0.130035 0
M  V30 2933 H 278.563 5.48221 0.272932 0
M  V30 2934 H 278.824 4.18425 1.42734 0
M  V30 2935 N 277.883 0.443576 1.51229 0
M  V30 2936 C 278.813 -0.355142 2.30783 0
M  V30 2937 C 279.794 -1.0154 1.36468 0
M  V30 2938 O 280.979 -1.01785 1.65389 0
M  V30 2939 C 278.109 -1.45312 3.15439 0
M  V30 2940 C 277.063 -0.916002 4.18083 0
M  V30 2941 C 276.389 -2.1102 4.91299 0
M  V30 2942 C 277.689 0.0538602 5.22272 0
M  V30 2943 H 279.383 0.308767 2.97804 0
M  V30 2944 H 276.929 0.149937 1.43217 0
M  V30 2945 H 278.882 -2.01914 3.69876 0
M  V30 2946 H 277.606 -2.14541 2.46252 0
M  V30 2947 H 276.265 -0.372145 3.64706 0
M  V30 2948 H 275.913 -2.78882 4.18609 0
M  V30 2949 H 275.613 -1.75717 5.60712 0
M  V30 2950 H 277.137 -2.68164 5.48562 0
M  V30 2951 H 278.551 -0.422069 5.71744 0
M  V30 2952 H 276.948 0.319776 5.99247 0
M  V30 2953 H 278.018 0.98858 4.74716 0
M  V30 2954 N 279.361 -1.56624 0.175154 0
M  V30 2955 C 280.772 -1.83561 -0.340916 0
M  V30 2956 C 281.123 -1.09511 -1.62794 0
M  V30 2957 O 280.248 -0.349389 -2.13561 0
M  V30 2958 C 280.843 -3.32979 -0.625313 0
M  V30 2959 C 279.402 -3.60399 -1.08581 0
M  V30 2960 C 278.549 -2.77024 -0.123722 0
M  V30 2961 H 281.5 -1.53593 0.399344 0
M  V30 2962 H 281.521 -3.50666 -1.47694 0
M  V30 2963 H 281.033 -3.86847 0.311575 0
M  V30 2964 H 279.134 -3.11945 -2.03767 0
M  V30 2965 H 279.247 -4.68711 -0.992317 0
M  V30 2966 H 277.611 -2.46993 -0.621821 0
M  V30 2967 H 278.394 -3.33674 0.807256 0
M  V30 2968 N 280.839 0.0985539 -1.57292 0
M  V30 2969 C 281.769 1.12064 -2.04851 0
M  V30 2970 C 282.75 1.41981 -0.936767 0
M  V30 2971 O 283.935 1.52071 -1.20781 0
M  V30 2972 C 281.065 2.44144 -2.47004 0
M  V30 2973 C 280.019 2.28643 -3.6181 0
M  V30 2974 C 279.345 3.65869 -3.89929 0
M  V30 2975 C 280.645 1.72986 -4.92822 0
M  V30 2976 H 282.339 0.724979 -2.9049 0
M  V30 2977 H 279.885 0.34729 -1.39749 0
M  V30 2978 H 281.838 3.15914 -2.78884 0
M  V30 2979 H 280.562 2.85639 -1.5836 0
M  V30 2980 H 279.221 1.59318 -3.30172 0
M  V30 2981 H 278.869 4.04885 -2.98458 0
M  V30 2982 H 278.569 3.56344 -4.67218 0
M  V30 2983 H 280.093 4.39112 -4.2428 0
M  V30 2984 H 281.507 2.34593 -5.23105 0
M  V30 2985 H 279.904 1.74229 -5.74251 0
M  V30 2986 H 280.974 0.689007 -4.7998 0
M  V30 2987 N 282.317 1.53212 0.369288 0
M  V30 2988 C 283.542 1.73423 1.1375 0
M  V30 2989 C 283.967 0.460404 1.82378 0
M  V30 2990 O 283.325 -0.585298 1.71592 0
M  V30 2991 C 283.373 2.89769 2.1463 0
M  V30 2992 O 282.477 2.58119 3.21634 0
M  V30 2993 H 281.818 0.576061 0.330227 0
M  V30 2994 H 284.348 2.00083 0.427547 0
M  V30 2995 H 284.358 3.15829 2.58294 0
M  V30 2996 H 283.033 3.8217 1.64071 0
M  V30 2997 H 281.61 2.42864 2.82969 0
M  V30 2998 N 283.795 -0.628877 1.44509 0
M  V30 2999 C 285.041 -1.38863 1.48623 0
M  V30 3000 C 285.396 -1.92038 0.117933 0
M  V30 3001 O 284.689 -1.70853 -0.86716 0
M  V30 3002 C 284.883 -2.56995 2.48371 0
M  V30 3003 C 284.712 -2.15385 3.94765 0
M  V30 3004 C 283.482 -2.02558 4.62924 0
M  V30 3005 C 285.68 -1.74158 4.83915 0
M  V30 3006 N 283.662 -1.54534 5.94132 0
M  V30 3007 C 285.033 -1.37396 6.04584 0
M  V30 3008 C 287.088 -1.61559 4.7096 0
M  V30 3009 C 285.791 -0.892948 7.13736 0
M  V30 3010 C 287.817 -1.14862 5.80139 0
M  V30 3011 C 287.179 -0.790516 6.9995 0
M  V30 3012 H 283.278 -0.502858 0.59888 0
M  V30 3013 H 285.862 -0.72121 1.8085 0
M  V30 3014 H 284.033 -3.21362 2.1813 0
M  V30 3015 H 285.765 -3.23801 2.42766 0
M  V30 3016 H 282.52 -2.23082 4.1777 0
M  V30 3017 H 282.944 -1.32815 6.63844 0
M  V30 3018 H 287.586 -1.87876 3.78764 0
M  V30 3019 H 285.304 -0.617291 8.05739 0
M  V30 3020 H 288.89 -1.05569 5.72142 0
M  V30 3021 H 287.77 -0.434713 7.82994 0
M  V30 3022 N 285.273 -1.31445 -0.869486 0
M  V30 3023 C 286.55 -1.11795 -1.60503 0
M  V30 3024 C 286.93 0.327168 -2.08549 0
M  V30 3025 O 286.278 1.32135 -1.8642 0
M  V30 3026 C 286.488 -2.13258 -2.76265 0
M  V30 3027 C 287.836 -2.45805 -3.46215 0
M  V30 3028 O 288.86 -2.11688 -2.86473 0
M  V30 3029 O 287.719 -3.04228 -4.5399 0
M  V30 3030 H 284.813 -0.430421 -0.706163 0
M  V30 3031 H 287.359 -1.42925 -0.914907 0
M  V30 3032 H 286.131 -3.10461 -2.3818 0
M  V30 3033 H 285.754 -1.83035 -3.52964 0
M  V30 3034 N 286.751 1.08385 -1.14413 0
M  V30 3035 C 288 1.80153 -0.907076 0
M  V30 3036 C 288.313 1.87176 0.567851 0
M  V30 3037 O 289.519 2.55359 0.922172 0
M  V30 3038 C 287.975 3.23687 -1.57336 0
M  V30 3039 C 287.583 3.24897 -3.08457 0
M  V30 3040 C 289.327 4.00136 -1.41744 0
M  V30 3041 C 287.234 4.6302 -3.67921 0
M  V30 3042 H 286.164 0.675139 -0.335714 0
M  V30 3043 H 288.815 1.21733 -1.37307 0
M  V30 3044 H 287.197 3.82234 -1.03505 0
M  V30 3045 H 288.371 2.76055 -3.68958 0
M  V30 3046 H 286.686 2.61943 -3.2369 0
M  V30 3047 H 289.283 5.02201 -1.83572 0
M  V30 3048 H 289.626 4.14709 -0.363576 0
M  V30 3049 H 290.159 3.48058 -1.92614 0
M  V30 3050 H 286.898 4.5365 -4.73161 0
M  V30 3051 H 286.418 5.12143 -3.12201 0
M  V30 3052 H 288.097 5.31994 -3.68227 0
M  V30 3053 N 288.23 0.939286 1.26551 0
M  V30 3054 C 289.641 0.628782 1.75793 0
M  V30 3055 C 289.992 -0.856046 1.7654 0
M  V30 3056 O 289.117 -1.66994 1.3763 0
M  V30 3057 C 289.712 1.13465 3.19235 0
M  V30 3058 C 288.271 0.874601 3.66098 0
M  V30 3059 C 287.418 1.28667 2.45642 0
M  V30 3060 H 290.369 1.1178 1.12654 0
M  V30 3061 H 290.39 0.487609 3.77363 0
M  V30 3062 H 289.902 2.21535 3.1866 0
M  V30 3063 H 288.003 -0.191793 3.72106 0
M  V30 3064 H 288.116 1.50028 4.55004 0
M  V30 3065 H 286.48 0.705109 2.44745 0
M  V30 3066 H 287.263 2.37625 2.47769 0
M  V30 3067 N 289.708 -1.40897 0.706093 0
M  V30 3068 C 290.618 -2.3455 0.0482286 0
M  V30 3069 C 291.634 -1.56796 -0.754396 0
M  V30 3070 O 292.81 -1.89228 -0.689538 0
M  V30 3071 C 289.875 -3.35625 -0.869303 0
M  V30 3072 C 288.936 -4.29261 -0.0576994 0
M  V30 3073 C 288.169 -5.25508 -0.931531 0
M  V30 3074 O 288.392 -5.27472 -2.17092 0
M  V30 3075 O 287.326 -6.00727 -0.375587 0
M  V30 3076 H 291.152 -2.92407 0.820476 0
M  V30 3077 H 288.737 -1.4193 0.4665 0
M  V30 3078 H 290.619 -3.97635 -1.39514 0
M  V30 3079 H 289.294 -2.80196 -1.62086 0
M  V30 3080 H 288.201 -3.70566 0.512988 0
M  V30 3081 H 289.534 -4.87817 0.655426 0
M  V30 3082 N 291.186 -0.45159 -1.50991 0
M  V30 3083 C 292.116 0.342898 -2.30969 0
M  V30 3084 C 293.097 1.00815 -1.37005 0
M  V30 3085 O 294.282 1.00907 -1.65926 0
M  V30 3086 C 291.412 1.43637 -3.16205 0
M  V30 3087 C 290.366 0.893818 -4.18563 0
M  V30 3088 C 289.692 2.08411 -4.92411 0
M  V30 3089 C 290.992 -0.0815568 -5.22236 0
M  V30 3090 H 292.686 -0.324556 -2.97636 0
M  V30 3091 H 290.232 -0.157531 -1.43136 0
M  V30 3092 H 292.185 1.9995 -3.70942 0
M  V30 3093 H 290.909 2.13232 -2.47386 0
M  V30 3094 H 289.568 0.352798 -3.64898 0
M  V30 3095 H 289.216 2.76658 -4.20082 0
M  V30 3096 H 288.916 1.72741 -5.61636 0
M  V30 3097 H 290.44 2.65251 -5.49976 0
M  V30 3098 H 291.854 0.391742 -5.7196 0
M  V30 3099 H 290.251 -0.351551 -5.99069 0
M  V30 3100 H 291.321 -1.01374 -4.74185 0
M  V30 3101 N 292.664 1.56529 -0.183458 0
M  V30 3102 C 293.91 1.97537 0.459036 0
M  V30 3103 C 294.243 1.06989 1.62071 0
M  V30 3104 O 293.518 0.11948 1.94133 0
M  V30 3105 C 293.801 3.47874 0.930368 0
M  V30 3106 C 293.654 4.492 -0.232317 0
M  V30 3107 C 294.973 4.01612 1.79989 0
M  V30 3108 H 292.092 0.718204 0.165383 0
M  V30 3109 H 294.734 1.88042 -0.272038 0
M  V30 3110 H 292.884 3.56095 1.55333 0
M  V30 3111 H 294.556 4.53027 -0.86972 0
M  V30 3112 H 292.799 4.24657 -0.885928 0
M  V30 3113 H 293.47 5.51823 0.139796 0
M  V30 3114 H 295.946 3.96097 1.27461 0
M  V30 3115 H 294.822 5.07195 2.09867 0
M  V30 3116 H 295.083 3.46163 2.74998 0
M  V30 3117 N 294.142 -0.090211 1.57342 0
M  V30 3118 C 295.09 -1.12792 2.03422 0
M  V30 3119 C 296.084 -1.41182 0.936166 0
M  V30 3120 O 297.29 -1.40805 1.12133 0
M  V30 3121 H 293.665 -0.380986 0.648347 0
M  V30 3122 H 295.636 -0.71299 2.89757 0
M  V30 3123 C 294.385 -2.43855 2.47851 0
M  V30 3124 H 293.708 -2.22855 3.31927 0
M  V30 3125 H 295.148 -3.14955 2.83865 0
M  V30 3126 C 293.607 -3.08503 1.3538 0
M  V30 3127 O 294.137 -3.95805 0.685641 0
M  V30 3128 N 292.343 -2.68831 1.10355 0
M  V30 3129 H 291.89 -1.97929 1.64869 0
M  V30 3130 H 291.848 -3.12412 0.353031 0
M  V30 3131 N 295.62 -1.53406 -0.361157 0
M  V30 3132 C 296.553 -1.74946 -1.46524 0
M  V30 3133 C 297.531 -0.59795 -1.51206 0
M  V30 3134 O 298.715 -0.831062 -1.69191 0
M  V30 3135 C 295.842 -1.83224 -2.84863 0
M  V30 3136 C 294.888 -3.05233 -2.97885 0
M  V30 3137 S 295.721 -4.6466 -2.66179 0
M  V30 3138 C 296.877 -4.75793 -4.06659 0
M  V30 3139 H 297.11 -2.68319 -1.28033 0
M  V30 3140 H 294.643 -1.44051 -0.555764 0
M  V30 3141 H 296.601 -1.88679 -3.64569 0
M  V30 3142 H 295.262 -0.908948 -3.00661 0
M  V30 3143 H 294.455 -3.07648 -3.9921 0
M  V30 3144 H 294.057 -2.97913 -2.26106 0
M  V30 3145 H 296.349 -4.5612 -5.0096 0
M  V30 3146 H 297.292 -5.7786 -4.09247 0
M  V30 3147 H 297.7 -4.04389 -3.93865 0
M  V30 3148 N 297.098 0.621204 -1.44841 0
M  V30 3149 C 298.346 1.37783 -1.47852 0
M  V30 3150 C 298.667 1.94653 -0.116224 0
M  V30 3151 O 297.937 1.76367 0.852737 0
M  V30 3152 H 296.517 0.511453 -0.544449 0
M  V30 3153 H 299.179 0.730446 -1.80694 0
M  V30 3154 H 298.275 2.20414 -2.20961 0
M  V30 3155 N 298.576 1.31904 0.862503 0
M  V30 3156 C 299.508 1.16005 1.97675 0
M  V30 3157 C 300.521 0.0971234 1.6251 0
M  V30 3158 O 301.71 0.345337 1.75128 0
M  V30 3159 C 298.81 0.751791 3.30456 0
M  V30 3160 C 297.983 1.90133 3.93914 0
M  V30 3161 C 297.042 1.4779 5.05019 0
M  V30 3162 O 296.068 2.18872 5.25437 0
M  V30 3163 N 297.27 0.369491 5.79323 0
M  V30 3164 H 300.035 2.11982 2.11857 0
M  V30 3165 H 297.596 1.24337 1.03691 0
M  V30 3166 H 299.588 0.451084 4.02178 0
M  V30 3167 H 298.158 -0.116593 3.12382 0
M  V30 3168 H 297.378 2.36896 3.15078 0
M  V30 3169 H 298.666 2.67111 4.33047 0
M  V30 3170 H 298.064 -0.222299 5.65263 0
M  V30 3171 H 296.621 0.128354 6.51674 0
M  V30 3172 N 300.054 -1.07777 1.14986 0
M  V30 3173 C 301.3 -1.80719 0.93339 0
M  V30 3174 C 301.655 -1.8484 -0.534019 0
M  V30 3175 O 300.948 -1.31795 -1.3907 0
M  V30 3176 C 301.142 -3.25495 1.47608 0
M  V30 3177 C 300.971 -3.3548 2.99472 0
M  V30 3178 C 299.741 -3.46293 3.6798 0
M  V30 3179 C 301.939 -3.26596 3.97291 0
M  V30 3180 N 299.921 -3.45136 5.07695 0
M  V30 3181 C 301.292 -3.32506 5.23297 0
M  V30 3182 C 303.347 -3.10376 3.89321 0
M  V30 3183 C 302.05 -3.23866 6.42264 0
M  V30 3184 C 304.076 -3.03069 5.07842 0
M  V30 3185 C 303.438 -3.09587 6.32721 0
M  V30 3186 H 299.537 -0.674814 0.395158 0
M  V30 3187 H 302.121 -1.28681 1.46114 0
M  V30 3188 H 300.292 -3.75963 0.975022 0
M  V30 3189 H 302.024 -3.86535 1.19887 0
M  V30 3190 H 298.779 -3.50456 3.18555 0
M  V30 3191 H 299.203 -3.48097 5.80653 0
M  V30 3192 H 303.845 -3.04194 2.93642 0
M  V30 3193 H 301.563 -3.28807 7.38181 0
M  V30 3194 H 305.149 -2.91629 5.03432 0
M  V30 3195 H 304.029 -3.0397 7.22891 0
M  V30 3196 N 301.532 -0.945985 -1.26051 0
M  V30 3197 C 302.479 -0.45809 -2.26208 0
M  V30 3198 C 303.449 0.484816 -1.58867 0
M  V30 3199 O 304.634 0.399969 -1.86561 0
M  V30 3200 C 301.774 0.266131 -3.44072 0
M  V30 3201 C 300.887 -0.713005 -4.26075 0
M  V30 3202 C 300.022 0.0329013 -5.3119 0
M  V30 3203 C 299.061 -0.93774 -6.04874 0
M  V30 3204 N 298.198 -0.223274 -7.01745 0
M  V30 3205 H 303.038 -1.3171 -2.67313 0
M  V30 3206 H 300.575 -0.66069 -1.31428 0
M  V30 3207 H 302.533 0.702514 -4.11243 0
M  V30 3208 H 301.163 1.08925 -3.03867 0
M  V30 3209 H 300.215 -1.26789 -3.58648 0
M  V30 3210 H 301.527 -1.45406 -4.77136 0
M  V30 3211 H 300.681 0.528335 -6.04395 0
M  V30 3212 H 299.42 0.806801 -4.8098 0
M  V30 3213 H 298.425 -1.44425 -5.30492 0
M  V30 3214 H 299.65 -1.71172 -6.57173 0
M  V30 3215 H 297.596 0.532046 -6.53839 0
M  V30 3216 H 297.513 -0.90357 -7.50581 0
M  V30 3217 H 298.781 0.250907 -7.79096 0
M  V30 3218 N 303.011 1.40521 -0.713556 0
M  V30 3219 C 304.26 2.00155 -0.249192 0
M  V30 3220 C 304.573 1.57224 1.16362 0
M  V30 3221 O 305.779 2.09542 1.72639 0
M  V30 3222 C 304.235 3.5773 -0.3946 0
M  V30 3223 C 303.843 4.09635 -1.81392 0
M  V30 3224 C 305.587 4.24499 0.00907364 0
M  V30 3225 C 303.494 5.59707 -1.91003 0
M  V30 3226 H 302.424 0.74868 -0.0894114 0
M  V30 3227 H 305.075 1.60784 -0.884352 0
M  V30 3228 H 303.457 3.94792 0.30911 0
M  V30 3229 H 304.631 3.83955 -2.54785 0
M  V30 3230 H 302.946 3.55456 -2.16888 0
M  V30 3231 H 305.543 5.34683 -0.0420404 0
M  V30 3232 H 305.886 4.02824 1.05065 0
M  V30 3233 H 306.419 3.92536 -0.645007 0
M  V30 3234 H 303.158 5.86234 -2.93275 0
M  V30 3235 H 302.678 5.87258 -1.22019 0
M  V30 3236 H 304.357 6.24776 -1.6812 0
M  V30 3237 N 304.489 0.459591 1.5075 0
M  V30 3238 C 305.905 0.113092 1.59199 0
M  V30 3239 C 306.105 -1.37951 1.46874 0
M  V30 3240 O 305.161 -2.15168 1.32132 0
M  V30 3241 C 306.474 0.653043 2.93523 0
M  V30 3242 C 308.022 0.615449 3.0689 0
M  V30 3243 C 308.497 1.13275 4.43771 0
M  V30 3244 N 309.988 1.09167 4.50152 0
M  V30 3245 C 310.723 1.46256 5.54434 0
M  V30 3246 N 310.219 1.90739 6.66026 0
M  V30 3247 N 312.012 1.37932 5.44914 0
M  V30 3248 H 304.163 1.43049 1.57005 0
M  V30 3249 H 306.426 0.590861 0.741341 0
M  V30 3250 H 306.132 1.69822 3.07983 0
M  V30 3251 H 306.006 0.0902132 3.77092 0
M  V30 3252 H 308.393 -0.420793 2.92084 0
M  V30 3253 H 308.474 1.21495 2.25106 0
M  V30 3254 H 308.118 2.16757 4.59324 0
M  V30 3255 H 308.048 0.509576 5.24129 0
M  V30 3256 H 310.539 0.76528 3.7007 0
M  V30 3257 H 310.852 2.17218 7.41644 0
M  V30 3258 H 309.197 1.94683 6.67176 0
M  V30 3259 H 312.388 1.0303 4.56621 0
M  V30 3260 H 312.561 1.67164 6.26067 0
M  V30 3261 N 305.967 -1.56429 0.191757 0
M  V30 3262 C 306.93 -2.17707 -0.716688 0
M  V30 3263 C 307.93 -1.13061 -1.14341 0
M  V30 3264 O 309.12 -1.38464 -1.05704 0
M  V30 3265 C 306.252 -2.77644 -1.97804 0
M  V30 3266 H 307.445 -2.99342 -0.1829 0
M  V30 3267 H 304.998 -1.56193 -0.0578566 0
M  V30 3268 H 305.733 -1.99799 -2.55443 0
M  V30 3269 H 305.518 -3.54246 -1.68083 0
M  V30 3270 H 307.008 -3.24708 -2.62592 0
M  V30 3271 N 307.445 0.0818655 -1.57387 0
M  V30 3272 C 308.675 0.794954 -1.90694 0
M  V30 3273 C 309.083 1.72147 -0.784982 0
M  V30 3274 O 308.426 1.81974 0.251196 0
M  V30 3275 C 308.488 1.65042 -3.19376 0
M  V30 3276 C 308.152 0.894337 -4.48164 0
M  V30 3277 C 309.149 0.21813 -5.19442 0
M  V30 3278 C 306.834 0.864495 -4.94805 0
M  V30 3279 C 308.828 -0.477802 -6.35607 0
M  V30 3280 C 306.515 0.164785 -6.10878 0
M  V30 3281 C 307.513 -0.505173 -6.81129 0
M  V30 3282 O 307.201 -1.19363 -7.94989 0
M  V30 3283 H 306.933 0.231779 -0.635023 0
M  V30 3284 H 309.487 0.059493 -2.05314 0
M  V30 3285 H 307.717 2.42844 -3.00938 0
M  V30 3286 H 309.406 2.24127 -3.38411 0
M  V30 3287 H 310.172 0.232558 -4.84442 0
M  V30 3288 H 306.051 1.37542 -4.40004 0
M  V30 3289 H 309.595 -1.00129 -6.90377 0
M  V30 3290 H 305.492 0.148249 -6.4533 0
M  V30 3291 H 306.26 -1.10188 -8.11049 0
M  V30 3292 N 308.923 1.53595 0.353017 0
M  V30 3293 C 310.153 1.74058 1.11299 0
M  V30 3294 C 310.561 0.475205 1.83135 0
M  V30 3295 O 309.904 -0.562344 1.74881 0
M  V30 3296 C 309.966 2.85994 2.17825 0
M  V30 3297 C 309.63 4.25923 1.65647 0
M  V30 3298 C 310.627 5.07829 1.11383 0
M  V30 3299 C 308.312 4.72377 1.7078 0
M  V30 3300 C 310.306 6.34285 0.629439 0
M  V30 3301 C 307.993 5.98808 1.21953 0
M  V30 3302 C 308.991 6.79594 0.681265 0
M  V30 3303 O 308.679 8.03651 0.200248 0
M  V30 3304 H 308.411 0.585327 0.338183 0
M  V30 3305 H 310.965 2.01186 0.413927 0
M  V30 3306 H 309.195 2.54368 2.91262 0
M  V30 3307 H 310.884 2.94515 2.79313 0
M  V30 3308 H 311.65 4.73107 1.06746 0
M  V30 3309 H 307.529 4.0956 2.11617 0
M  V30 3310 H 311.073 6.97288 0.208636 0
M  V30 3311 H 306.97 6.33026 1.26287 0
M  V30 3312 H 307.738 8.1788 0.318416 0
M  V30 3313 N 310.401 -0.613514 1.45168 0
M  V30 3314 C 311.311 -1.75296 1.55912 0
M  V30 3315 C 312.327 -1.68244 0.443856 0
M  V30 3316 O 313.503 -1.88706 0.70371 0
M  V30 3317 C 310.568 -3.1174 1.5172 0
M  V30 3318 C 309.629 -3.30291 2.74238 0
M  V30 3319 C 308.862 -4.60226 2.70236 0
M  V30 3320 O 309.085 -5.42168 1.77229 0
M  V30 3321 O 308.019 -4.81361 3.61352 0
M  V30 3322 H 311.845 -1.69183 2.52212 0
M  V30 3323 H 309.43 -0.776886 1.27612 0
M  V30 3324 H 311.312 -3.93044 1.51968 0
M  V30 3325 H 309.987 -3.18357 0.585697 0
M  V30 3326 H 308.894 -2.48598 2.79553 0
M  V30 3327 H 310.227 -3.28547 3.66494 0
M  V30 3328 N 311.879 -1.3236 -0.855495 0
M  V30 3329 C 312.827 -1.2118 -1.9854 0
M  V30 3330 C 313.821 -0.116788 -1.68997 0
M  V30 3331 O 315.027 -0.279657 -1.77814 0
M  V30 3332 H 311.402 -0.375608 -0.651477 0
M  V30 3333 H 313.373 -2.16743 -2.05098 0
M  V30 3334 C 312.122 -0.950849 -3.34446 0
M  V30 3335 H 311.445 -1.78563 -3.57708 0
M  V30 3336 H 312.885 -0.912863 -4.14057 0
M  V30 3337 C 311.344 0.346404 -3.35114 0
M  V30 3338 O 311.874 1.35855 -3.7803 0
M  V30 3339 N 310.08 0.36808 -2.88259 0
M  V30 3340 H 309.627 -0.456102 -2.5353 0
M  V30 3341 H 309.585 1.23591 -2.89089 0
M  V30 3342 N 313.357 1.07166 -1.15556 0
M  V30 3343 C 314.582 1.84053 -0.955988 0
M  V30 3344 C 315.007 1.81586 0.490739 0
M  V30 3345 O 314.365 1.21018 1.34997 0
M  V30 3346 C 314.413 3.28957 -1.47714 0
M  V30 3347 O 313.517 4.06795 -0.677593 0
M  V30 3348 H 312.858 0.569842 -0.340847 0
M  V30 3349 H 315.388 1.35178 -1.53584 0
M  V30 3350 H 315.398 3.79788 -1.4908 0
M  V30 3351 H 314.073 3.30068 -2.53037 0
M  V30 3352 H 312.65 3.6561 -0.733721 0
M  V30 3353 N 314.835 0.952656 1.25548 0
M  V30 3354 C 316.246 0.647392 1.75116 0
M  V30 3355 C 316.597 -0.837274 1.77438 0
M  V30 3356 O 315.722 -1.65525 1.39393 0
M  V30 3357 C 316.317 1.16845 3.18014 0
M  V30 3358 C 314.876 0.913382 3.6515 0
M  V30 3359 C 314.023 1.31265 2.44264 0
M  V30 3360 H 316.974 1.12968 1.11462 0
M  V30 3361 H 316.995 0.527606 3.76824 0
M  V30 3362 H 316.507 2.24902 3.16292 0
M  V30 3363 H 314.608 -0.152316 3.72289 0
M  V30 3364 H 314.721 1.54845 4.53387 0
M  V30 3365 H 313.085 0.731028 2.43984 0
M  V30 3366 H 313.868 2.40239 2.45234 0
M  V30 3367 N 316.313 -1.40141 0.720998 0
M  V30 3368 C 317.245 -2.29177 0.0324669 0
M  V30 3369 C 318.258 -1.46105 -0.718126 0
M  V30 3370 O 319.447 -1.69335 -0.564608 0
M  V30 3371 C 316.547 -3.24473 -0.978292 0
M  V30 3372 C 315.72 -4.36423 -0.292115 0
M  V30 3373 C 314.779 -5.12122 -1.20901 0
M  V30 3374 O 313.805 -5.64981 -0.691766 0
M  V30 3375 N 315.007 -5.21992 -2.53978 0
M  V30 3376 H 317.772 -2.88909 0.796984 0
M  V30 3377 H 315.333 -1.51569 0.569068 0
M  V30 3378 H 317.325 -3.71987 -1.59398 0
M  V30 3379 H 315.895 -2.65871 -1.64413 0
M  V30 3380 H 315.115 -3.90967 0.503847 0
M  V30 3381 H 316.403 -5.08467 0.183971 0
M  V30 3382 H 315.801 -4.8054 -2.98493 0
M  V30 3383 H 314.358 -5.72995 -3.10677 0
M  V30 3384 N 317.792 -0.46758 -1.50504 0
M  V30 3385 C 318.724 0.364655 -2.26281 0
M  V30 3386 C 319.737 0.960151 -1.31472 0
M  V30 3387 O 320.926 0.849153 -1.57008 0
M  V30 3388 C 318.026 1.52509 -3.02645 0
M  V30 3389 C 317.199 1.04302 -4.24782 0
M  V30 3390 C 316.258 2.07709 -4.8347 0
M  V30 3391 O 315.284 1.65913 -5.44483 0
M  V30 3392 N 316.486 3.40485 -4.70159 0
M  V30 3393 H 319.251 -0.28495 -2.98342 0
M  V30 3394 H 316.812 -0.298163 -1.59131 0
M  V30 3395 H 318.804 2.21371 -3.38787 0
M  V30 3396 H 317.374 2.07945 -2.33404 0
M  V30 3397 H 316.594 0.180393 -3.93787 0
M  V30 3398 H 317.882 0.698798 -5.03978 0
M  V30 3399 H 317.28 3.77155 -4.21629 0
M  V30 3400 H 315.837 4.05156 -5.1058 0
M  V30 3401 N 319.27 1.56325 -0.20005 0
M  V30 3402 C 320.516 1.98012 0.438059 0
M  V30 3403 C 320.849 1.08702 1.60927 0
M  V30 3404 O 320.124 0.140064 1.93995 0
M  V30 3405 C 320.407 3.48841 0.893419 0
M  V30 3406 C 320.26 4.48928 -0.279947 0
M  V30 3407 C 321.579 4.03498 1.75719 0
M  V30 3408 H 318.698 0.719918 0.157757 0
M  V30 3409 H 321.34 1.87743 -0.291968 0
M  V30 3410 H 319.49 3.57723 1.51547 0
M  V30 3411 H 321.162 4.52079 -0.91772 0
M  V30 3412 H 319.405 4.23694 -0.930919 0
M  V30 3413 H 320.076 5.5194 0.0812601 0
M  V30 3414 H 322.552 3.97427 1.23253 0
M  V30 3415 H 321.428 5.09393 2.04476 0
M  V30 3416 H 321.689 3.4906 2.71311 0
M  V30 3417 N 320.748 -0.0735177 1.57428 0
M  V30 3418 C 321.995 -0.772999 1.87166 0
M  V30 3419 C 322.323 -1.77665 0.791551 0
M  V30 3420 O 321.578 -1.94541 -0.212636 0
M  V30 3421 C 321.877 -1.51799 3.23561 0
M  V30 3422 C 321.543 -0.654484 4.46125 0
M  V30 3423 C 320.205 -0.416511 4.79394 0
M  V30 3424 C 322.557 -0.0555862 5.2117 0
M  V30 3425 C 319.885 0.429869 5.85123 0
M  V30 3426 C 322.237 0.778239 6.27795 0
M  V30 3427 C 320.901 1.0261 6.59566 0
M  V30 3428 H 320.171 -0.282861 0.684888 0
M  V30 3429 H 322.818 -0.0338272 1.9147 0
M  V30 3430 H 321.123 -2.32932 3.1504 0
M  V30 3431 H 322.82 -2.06397 3.43804 0
M  V30 3432 H 319.41 -0.850091 4.20085 0
M  V30 3433 H 323.594 -0.226558 4.95783 0
M  V30 3434 H 318.85 0.630665 6.08139 0
M  V30 3435 H 323.024 1.24906 6.85107 0
M  V30 3436 H 320.651 1.68371 7.4132 0
M  V30 3437 N 322.226 -1.5378 -0.344866 0
M  V30 3438 C 323.451 -1.75211 -1.10977 0
M  V30 3439 C 323.876 -0.48936 -1.81623 0
M  V30 3440 O 323.234 0.557925 -1.72502 0
M  V30 3441 C 323.282 -2.93147 -2.09993 0
M  V30 3442 O 322.386 -2.63203 -3.17487 0
M  V30 3443 H 321.727 -0.581241 -0.321021 0
M  V30 3444 H 324.257 -2.00738 -0.395661 0
M  V30 3445 H 324.267 -3.19898 -2.53237 0
M  V30 3446 H 322.942 -3.84731 -1.5797 0
M  V30 3447 H 321.519 -2.47336 -2.79069 0
M  V30 3448 N 323.704 0.605807 -1.45491 0
M  V30 3449 C 324.932 1.39136 -1.5313 0
M  V30 3450 C 325.347 1.88082 -0.164507 0
M  V30 3451 O 324.704 1.62316 0.834247 0
M  V30 3452 C 324.755 2.59463 -2.51716 0
M  V30 3453 O 324.476 2.12551 -3.83084 0
M  V30 3454 C 325.977 3.52301 -2.6907 0
M  V30 3455 H 323.197 0.425849 -0.51855 0
M  V30 3456 H 325.741 0.73865 -1.90694 0
M  V30 3457 H 323.896 3.20772 -2.17219 0
M  V30 3458 H 324.31 2.90744 -4.36541 0
M  V30 3459 H 325.784 4.33271 -3.42024 0
M  V30 3460 H 326.261 4.02757 -1.75167 0
M  V30 3461 H 326.867 2.96845 -3.04571 0
M  V30 3462 N 325.182 1.32811 0.848464 0
M  V30 3463 C 326.092 1.24278 1.98978 0
M  V30 3464 C 327.108 0.155176 1.73307 0
M  V30 3465 O 328.284 0.376999 1.9784 0
M  V30 3466 C 325.349 0.972444 3.32783 0
M  V30 3467 C 324.41 2.14911 3.71634 0
M  V30 3468 C 323.643 1.89157 4.99054 0
M  V30 3469 O 323.866 0.837165 5.64223 0
M  V30 3470 O 322.8 2.75433 5.35183 0
M  V30 3471 H 326.626 2.20238 2.09115 0
M  V30 3472 H 324.211 1.12762 0.980052 0
M  V30 3473 H 326.093 0.838432 4.12975 0
M  V30 3474 H 324.768 0.043051 3.23671 0
M  V30 3475 H 323.675 2.33862 2.91992 0
M  V30 3476 H 325.008 3.06151 3.85399 0
M  V30 3477 N 326.66 -1.06551 1.16123 0
M  V30 3478 C 327.907 -1.79302 0.941126 0
M  V30 3479 C 328.235 -1.87105 -0.531235 0
M  V30 3480 O 327.49 -1.35692 -1.41018 0
M  V30 3481 C 327.789 -3.23911 1.51052 0
M  V30 3482 C 327.455 -3.36193 3.00475 0
M  V30 3483 C 326.117 -3.39252 3.41265 0
M  V30 3484 C 328.469 -3.38326 3.96465 0
M  V30 3485 C 325.797 -3.42057 4.76669 0
M  V30 3486 C 328.149 -3.4267 5.31752 0
M  V30 3487 C 326.813 -3.4401 5.72026 0
M  V30 3488 H 326.083 -0.656111 0.344382 0
M  V30 3489 H 328.73 -1.25325 1.44796 0
M  V30 3490 H 327.035 -3.80723 0.925063 0
M  V30 3491 H 328.732 -3.78793 1.31593 0
M  V30 3492 H 325.322 -3.34516 2.6795 0
M  V30 3493 H 329.506 -3.35176 3.6602 0
M  V30 3494 H 324.762 -3.41398 5.07206 0
M  V30 3495 H 328.936 -3.43268 6.05921 0
M  V30 3496 H 326.563 -3.45937 6.76928 0
M  V30 3497 N 328.138 -0.959301 -1.25041 0
M  V30 3498 C 329.048 -0.489994 -2.29426 0
M  V30 3499 C 330.064 0.444944 -1.68215 0
M  V30 3500 O 331.24 0.320046 -1.98841 0
M  V30 3501 C 328.305 0.220309 -3.45999 0
M  V30 3502 C 327.366 -0.753418 -4.22637 0
M  V30 3503 C 326.599 -0.076918 -5.33645 0
M  V30 3504 O 326.822 1.13649 -5.58963 0
M  V30 3505 O 325.756 -0.764824 -5.97021 0
M  V30 3506 H 329.582 -1.35755 -2.71669 0
M  V30 3507 H 327.167 -0.725961 -1.30576 0
M  V30 3508 H 329.049 0.619677 -4.16819 0
M  V30 3509 H 327.724 1.06296 -3.0575 0
M  V30 3510 H 326.631 -1.20308 -3.54227 0
M  V30 3511 H 327.964 -1.56423 -4.66683 0
M  V30 3512 N 329.616 1.39756 -0.72842 0
M  V30 3513 C 330.862 2.00942 -0.273892 0
M  V30 3514 C 331.195 1.57656 1.13394 0
M  V30 3515 O 330.47 0.802434 1.77176 0
M  V30 3516 C 330.753 3.58211 -0.368346 0
M  V30 3517 C 330.606 4.11534 -1.81548 0
M  V30 3518 C 331.925 4.39372 0.253054 0
M  V30 3519 H 329.044 0.730047 -0.100996 0
M  V30 3520 H 331.686 1.66056 -0.923337 0
M  V30 3521 H 329.836 3.88061 0.184588 0
M  V30 3522 H 331.508 3.92431 -2.42478 0
M  V30 3523 H 329.751 3.65341 -2.33898 0
M  V30 3524 H 330.422 5.20682 -1.83288 0
M  V30 3525 H 332.898 4.15527 -0.218224 0
M  V30 3526 H 331.774 5.48677 0.156585 0
M  V30 3527 H 332.035 4.21358 1.33826 0
M  V30 3528 N 331.094 0.475555 1.50254 0
M  V30 3529 C 332.041 -0.316293 2.28622 0
M  V30 3530 C 333.011 -0.983227 1.33873 0
M  V30 3531 O 334.196 -0.994805 1.62814 0
M  V30 3532 C 331.336 -1.38975 3.1588 0
M  V30 3533 C 330.449 -0.737146 4.25664 0
M  V30 3534 C 329.584 -1.78887 5.00173 0
M  V30 3535 C 328.623 -1.11676 6.01826 0
M  V30 3536 N 327.76 -2.11154 6.69596 0
M  V30 3537 H 332.6 0.358297 2.95838 0
M  V30 3538 H 330.137 0.188541 1.45887 0
M  V30 3539 H 332.095 -2.02383 3.64825 0
M  V30 3540 H 330.725 -2.03344 2.50701 0
M  V30 3541 H 329.777 0.0096065 3.80399 0
M  V30 3542 H 331.089 -0.206816 4.98371 0
M  V30 3543 H 330.243 -2.49865 5.52859 0
M  V30 3544 H 328.982 -2.35302 4.27182 0
M  V30 3545 H 327.987 -0.392633 5.48396 0
M  V30 3546 H 329.212 -0.55945 6.76792 0
M  V30 3547 H 327.158 -2.66577 5.99394 0
M  V30 3548 H 327.075 -1.63118 7.38193 0
M  V30 3549 H 328.343 -2.81497 7.26897 0
M  V30 3550 N 332.573 -1.56217 0.208337 0
M  V30 3551 C 333.483 -2.23316 -0.718836 0
M  V30 3552 C 334.499 -1.23648 -1.22422 0
M  V30 3553 O 335.675 -1.56423 -1.26861 0
M  V30 3554 C 332.74 -2.88968 -1.91568 0
M  V30 3555 C 331.801 -4.03943 -1.45357 0
M  V30 3556 C 331.034 -4.66455 -2.59337 0
M  V30 3557 O 331.257 -4.27919 -3.77149 0
M  V30 3558 O 330.191 -5.55686 -2.31293 0
M  V30 3559 H 334.017 -3.03182 -0.177315 0
M  V30 3560 H 331.602 -1.49384 -0.0215402 0
M  V30 3561 H 333.484 -3.30455 -2.61491 0
M  V30 3562 H 332.159 -2.12071 -2.44556 0
M  V30 3563 H 331.066 -3.67052 -0.722746 0
M  V30 3564 H 332.399 -4.82543 -0.970219 0
M  V30 3565 N 334.051 0.0651679 -1.57465 0
M  V30 3566 C 335.281 0.774683 -1.91526 0
M  V30 3567 C 335.689 1.71305 -0.803196 0
M  V30 3568 O 335.032 1.82231 0.231881 0
M  V30 3569 C 335.094 1.61645 -3.21109 0
M  V30 3570 C 334.758 0.846753 -4.49087 0
M  V30 3571 C 335.755 0.163024 -5.19644 0
M  V30 3572 C 333.44 0.811966 -4.95694 0
M  V30 3573 C 335.434 -0.54519 -6.35064 0
M  V30 3574 C 333.121 0.0999836 -6.11018 0
M  V30 3575 C 334.119 -0.577388 -6.80555 0
M  V30 3576 O 333.807 -1.27789 -7.93678 0
M  V30 3577 H 333.539 0.225031 -0.637446 0
M  V30 3578 H 336.093 0.0377134 -2.05365 0
M  V30 3579 H 334.323 2.39638 -3.03497 0
M  V30 3580 H 336.012 2.20525 -3.40769 0
M  V30 3581 H 336.778 0.181163 -4.84662 0
M  V30 3582 H 332.657 1.32867 -4.41438 0
M  V30 3583 H 336.201 -1.07446 -6.89276 0
M  V30 3584 H 332.098 0.0797945 -6.45451 0
M  V30 3585 H 332.866 -1.18784 -8.09835 0
M  V30 3586 N 335.529 1.53961 0.336706 0
M  V30 3587 C 336.775 1.7179 1.07777 0
M  V30 3588 C 337.108 0.483263 1.88091 0
M  V30 3589 O 336.383 -0.519747 1.87427 0
M  V30 3590 C 336.666 2.98558 2.01334 0
M  V30 3591 C 336.519 4.32245 1.24437 0
M  V30 3592 C 337.838 3.21023 3.01052 0
M  V30 3593 H 334.957 0.625089 0.390426 0
M  V30 3594 H 337.599 1.86641 0.35567 0
M  V30 3595 H 335.749 2.86028 2.62908 0
M  V30 3596 H 337.421 4.56637 0.654243 0
M  V30 3597 H 335.664 4.30344 0.546458 0
M  V30 3598 H 336.335 5.17137 1.93063 0
M  V30 3599 H 338.811 3.32929 2.49595 0
M  V30 3600 H 337.687 4.11104 3.6371 0
M  V30 3601 H 337.948 2.37637 3.72802 0
M  V30 3602 N 337.007 -0.598083 1.45811 0
M  V30 3603 C 337.937 -1.71873 1.58057 0
M  V30 3604 C 338.918 -1.64533 0.431615 0
M  V30 3605 O 340.103 -1.82787 0.65595 0
M  V30 3606 C 337.233 -3.10495 1.55597 0
M  V30 3607 C 336.187 -3.32654 2.69305 0
M  V30 3608 C 335.513 -4.71646 2.51902 0
M  V30 3609 C 336.813 -3.21981 4.11248 0
M  V30 3610 H 338.507 -1.61881 2.51863 0
M  V30 3611 H 336.053 -0.777372 1.21214 0
M  V30 3612 H 338.006 -3.88699 1.6276 0
M  V30 3613 H 336.73 -3.2135 0.583255 0
M  V30 3614 H 335.389 -2.56843 2.61586 0
M  V30 3615 H 335.037 -4.79246 1.52748 0
M  V30 3616 H 334.737 -4.87426 3.2816 0
M  V30 3617 H 336.261 -5.52038 2.60933 0
M  V30 3618 H 337.675 -3.90049 4.20161 0
M  V30 3619 H 336.072 -3.49289 4.87972 0
M  V30 3620 H 337.142 -2.1928 4.32486 0
M  V30 3621 N 338.485 -1.33259 -0.841409 0
M  V30 3622 C 339.896 -1.22066 -1.41269 0
M  V30 3623 C 340.247 0.161479 -1.95534 0
M  V30 3624 O 339.372 1.06094 -1.88608 0
M  V30 3625 C 339.967 -2.20996 -2.568 0
M  V30 3626 C 338.526 -2.13649 -3.09888 0
M  V30 3627 C 337.673 -2.08623 -1.82679 0
M  V30 3628 H 340.624 -1.44895 -0.647395 0
M  V30 3629 H 340.645 -1.81621 -3.34356 0
M  V30 3630 H 340.157 -3.2158 -2.17274 0
M  V30 3631 H 338.258 -1.16359 -3.53965 0
M  V30 3632 H 338.371 -3.04079 -3.70234 0
M  V30 3633 H 336.735 -1.54061 -2.02824 0
M  V30 3634 H 337.518 -3.1101 -1.45353 0
M  V30 3635 N 339.963 1.05934 -1.16686 0
M  V30 3636 C 341.188 1.83029 -0.975455 0
M  V30 3637 C 341.613 1.82096 0.471452 0
M  V30 3638 O 340.971 1.22443 1.33706 0
M  V30 3639 C 341.019 3.27372 -1.51195 0
M  V30 3640 O 340.123 4.06054 -0.720701 0
M  V30 3641 H 339.464 0.566194 -0.346872 0
M  V30 3642 H 341.994 1.33541 -1.55009 0
M  V30 3643 H 342.004 3.78186 -1.53099 0
M  V30 3644 H 340.679 3.27366 -2.56523 0
M  V30 3645 H 339.256 3.64812 -0.772458 0
M  V30 3646 N 341.441 0.965919 1.2453 0
M  V30 3647 C 342.688 0.626831 1.92554 0
M  V30 3648 C 343.016 -0.837739 1.75534 0
M  V30 3649 O 342.271 -1.61793 1.10098 0
M  V30 3650 C 342.57 0.945428 3.44669 0
M  V30 3651 C 342.236 2.39785 3.81856 0
M  V30 3652 C 340.898 2.79483 3.91718 0
M  V30 3653 C 343.25 3.34055 4.00071 0
M  V30 3654 C 340.578 4.12496 4.1721 0
M  V30 3655 C 342.93 4.66694 4.27059 0
M  V30 3656 C 341.594 5.06172 4.3514 0
M  V30 3657 H 340.864 0.229374 0.704605 0
M  V30 3658 H 343.511 1.21707 1.4785 0
M  V30 3659 H 341.816 0.272926 3.90848 0
M  V30 3660 H 343.513 0.661484 3.95507 0
M  V30 3661 H 340.103 2.08003 3.74743 0
M  V30 3662 H 344.287 3.04571 3.91855 0
M  V30 3663 H 339.543 4.42709 4.21685 0
M  V30 3664 H 343.717 5.3971 4.40097 0
M  V30 3665 H 341.344 6.09262 4.54646 0
M  V30 3666 N 342.919 -1.39368 0.735821 0
M  V30 3667 C 343.829 -2.34395 0.0979693 0
M  V30 3668 C 344.845 -1.58361 -0.720968 0
M  V30 3669 O 346.021 -1.90648 -0.649245 0
M  V30 3670 C 343.086 -3.37393 -0.797916 0
M  V30 3671 C 342.147 -4.29287 0.0333662 0
M  V30 3672 C 341.38 -5.27365 -0.819854 0
M  V30 3673 O 341.603 -5.31959 -2.05855 0
M  V30 3674 O 340.537 -6.01389 -0.248079 0
M  V30 3675 H 344.363 -2.90601 0.882315 0
M  V30 3676 H 341.948 -1.40909 0.4965 0
M  V30 3677 H 343.83 -4.00505 -1.31048 0
M  V30 3678 H 342.505 -2.83571 -1.56106 0
M  V30 3679 H 341.412 -3.69395 0.591475 0
M  V30 3680 H 342.745 -4.86317 0.758752 0
M  V30 3681 N 344.397 -0.483516 -1.5 0
M  V30 3682 C 345.643 0.0672592 -2.02688 0
M  V30 3683 C 345.976 1.38247 -1.36387 0
M  V30 3684 O 345.251 1.88131 -0.493675 0
M  V30 3685 C 345.534 0.238109 -3.59312 0
M  V30 3686 C 345.387 -1.099 -4.36168 0
M  V30 3687 C 346.706 0.986916 -4.28892 0
M  V30 3688 H 343.825 0.0229696 -0.736642 0
M  V30 3689 H 346.467 -0.631527 -1.79197 0
M  V30 3690 H 344.617 0.8333 -3.79458 0
M  V30 3691 H 346.289 -1.73172 -4.27562 0
M  V30 3692 H 344.532 -1.69261 -3.99416 0
M  V30 3693 H 345.203 -0.932954 -5.44059 0
M  V30 3694 H 347.679 0.482302 -4.13295 0
M  V30 3695 H 346.555 1.07527 -5.38265 0
M  V30 3696 H 346.816 2.0265 -3.92919 0
M  V30 3697 N 345.875 1.56104 -0.216619 0
M  V30 3698 C 347.124 1.97348 0.416744 0
M  V30 3699 C 347.437 1.10715 1.6125 0
M  V30 3700 O 348.643 1.41836 2.31506 0
M  V30 3701 C 347.099 3.51059 0.792835 0
M  V30 3702 C 346.707 4.46387 -0.379828 0
M  V30 3703 C 348.451 4.01026 1.39208 0
M  V30 3704 C 346.358 5.91397 0.0184223 0
M  V30 3705 H 345.288 0.736942 0.159475 0
M  V30 3706 H 347.939 1.80827 -0.31205 0
M  V30 3707 H 346.321 3.63162 1.57891 0
M  V30 3708 H 347.495 4.46029 -1.15737 0
M  V30 3709 H 345.81 4.06734 -0.891979 0
M  V30 3710 H 348.407 5.0686 1.70286 0
M  V30 3711 H 348.75 3.46587 2.30614 0
M  V30 3712 H 349.283 3.92125 0.669537 0
M  V30 3713 H 346.022 6.49807 -0.862002 0
M  V30 3714 H 345.542 5.94961 0.760384 0
M  V30 3715 H 347.221 6.45455 0.446818 0
M  V30 3716 N 347.353 -0.0568162 1.57498 0
M  V30 3717 C 348.599 -0.75422 1.88253 0
M  V30 3718 C 348.932 -1.76461 0.810865 0
M  V30 3719 O 348.207 -1.93691 -0.177259 0
M  V30 3720 C 348.49 -1.44878 3.2967 0
M  V30 3721 C 348.343 -0.453789 4.47505 0
M  V30 3722 C 349.662 -2.38994 3.69554 0
M  V30 3723 H 346.781 -0.272724 0.684683 0
M  V30 3724 H 349.423 -0.0172113 1.89992 0
M  V30 3725 H 347.573 -2.077 3.28318 0
M  V30 3726 H 349.245 0.170371 4.60985 0
M  V30 3727 H 347.488 0.229552 4.33192 0
M  V30 3728 H 348.159 -0.977699 5.43273 0
M  V30 3729 H 350.635 -1.86239 3.72095 0
M  V30 3730 H 349.511 -2.84587 4.69363 0
M  V30 3731 H 349.772 -3.24461 3.00296 0
M  V30 3732 N 348.832 -1.54138 -0.328536 0
M  V30 3733 C 349.742 -1.86192 -1.42723 0
M  V30 3734 C 350.758 -0.753382 -1.56844 0
M  V30 3735 O 351.934 -1.04718 -1.72035 0
M  V30 3736 C 348.999 -2.07824 -2.77507 0
M  V30 3737 C 348.06 -3.31641 -2.72603 0
M  V30 3738 C 347.293 -3.52232 -4.00959 0
M  V30 3739 O 347.516 -2.7636 -4.9898 0
M  V30 3740 O 346.45 -4.45699 -4.0452 0
M  V30 3741 H 350.276 -2.79608 -1.18547 0
M  V30 3742 H 347.861 -1.3998 -0.522104 0
M  V30 3743 H 349.743 -2.23411 -3.57303 0
M  V30 3744 H 348.418 -1.17596 -3.01584 0
M  V30 3745 H 347.325 -3.21444 -1.91376 0
M  V30 3746 H 348.658 -4.2191 -2.53481 0
M  V30 3747 N 350.31 0.590341 -1.46126 0
M  V30 3748 C 351.721 1.17243 -1.45296 0
M  V30 3749 C 352.072 1.95281 -0.189723 0
M  V30 3750 O 351.197 2.04502 0.707674 0
M  V30 3751 C 351.792 2.13284 -2.6324 0
M  V30 3752 C 350.351 2.66832 -2.65476 0
M  V30 3753 C 349.498 1.42557 -2.3785 0
M  V30 3754 H 352.449 0.378692 -1.54116 0
M  V30 3755 H 352.47 2.96619 -2.38323 0
M  V30 3756 H 351.982 1.56459 -3.55165 0
M  V30 3757 H 350.083 3.27548 -1.77603 0
M  V30 3758 H 350.196 3.10088 -3.65215 0
M  V30 3759 H 348.56 1.72107 -1.87753 0
M  V30 3760 H 349.343 0.875741 -3.31942 0
M  V30 3761 N 351.788 1.33704 0.83433 0
M  V30 3762 C 353.016 1.28467 1.62185 0
M  V30 3763 C 353.431 -0.143526 1.88254 0
M  V30 3764 O 352.788 -1.08709 1.4659 0
M  V30 3765 C 352.839 2.06174 2.96942 0
M  V30 3766 O 352.56 3.43422 2.72016 0
M  V30 3767 C 354.061 2.08201 3.91366 0
M  V30 3768 H 351.281 0.4424 0.504503 0
M  V30 3769 H 353.825 1.76145 1.03891 0
M  V30 3770 H 351.98 1.62167 3.51825 0
M  V30 3771 H 352.394 3.83453 3.57861 0
M  V30 3772 H 353.868 2.67017 4.83121 0
M  V30 3773 H 354.345 1.07343 4.2588 0
M  V30 3774 H 354.951 2.52246 3.42421 0
M  V30 3775 N 353.266 -1.05314 1.17247 0
M  V30 3776 C 354.176 -2.16538 0.90268 0
M  V30 3777 C 355.192 -1.73523 -0.128707 0
M  V30 3778 O 356.368 -2.01337 0.0502701 0
M  V30 3779 C 353.433 -3.44167 0.418356 0
M  V30 3780 C 352.494 -4.01635 1.51618 0
M  V30 3781 C 351.727 -5.23171 1.05487 0
M  V30 3782 O 351.95 -5.70327 -0.0914715 0
M  V30 3783 O 350.884 -5.72848 1.8474 0
M  V30 3784 H 354.71 -2.42145 1.83302 0
M  V30 3785 H 352.295 -1.15037 0.953246 0
M  V30 3786 H 354.177 -4.21112 0.155726 0
M  V30 3787 H 352.852 -3.20063 -0.48385 0
M  V30 3788 H 351.759 -3.26135 1.83268 0
M  V30 3789 H 353.092 -4.30053 2.39405 0
M  V30 3790 N 354.744 -0.972509 -1.24016 0
M  V30 3791 C 355.691 -0.505969 -2.25186 0
M  V30 3792 C 356.661 0.451009 -1.5986 0
M  V30 3793 O 357.846 0.360307 -1.87367 0
M  V30 3794 C 354.986 0.193089 -3.44559 0
M  V30 3795 C 354.099 -0.803222 -4.24467 0
M  V30 3796 C 353.234 -0.0797793 -5.3114 0
M  V30 3797 C 352.273 -1.06583 -6.02749 0
M  V30 3798 N 351.41 -0.372074 -7.01113 0
M  V30 3799 H 356.25 -1.37351 -2.64459 0
M  V30 3800 H 353.787 -0.688419 -1.29997 0
M  V30 3801 H 355.745 0.615125 -4.1264 0
M  V30 3802 H 354.375 1.02455 -3.06109 0
M  V30 3803 H 353.427 -1.34368 -3.55878 0
M  V30 3804 H 354.739 -1.55494 -4.73944 0
M  V30 3805 H 353.893 0.400015 -6.0538 0
M  V30 3806 H 352.632 0.704597 -4.82583 0
M  V30 3807 H 351.637 -1.55645 -5.27309 0
M  V30 3808 H 352.862 -1.85074 -6.53395 0
M  V30 3809 H 350.808 0.393238 -6.5482 0
M  V30 3810 H 350.725 -1.06258 -7.48495 0
M  V30 3811 H 351.993 0.0855932 -7.79453 0
M  V30 3812 N 356.222 1.38976 -0.743202 0
M  V30 3813 C 357.469 2.00343 -0.294752 0
M  V30 3814 C 357.797 1.58983 1.12047 0
M  V30 3815 O 357.052 0.813809 1.77977 0
M  V30 3816 C 357.351 3.55647 -0.353517 0
M  V30 3817 C 357.017 4.16685 -1.72292 0
M  V30 3818 C 355.679 4.3307 -2.09771 0
M  V30 3819 C 358.031 4.50464 -2.62168 0
M  V30 3820 C 355.359 4.80526 -3.36618 0
M  V30 3821 C 357.711 4.99332 -3.88395 0
M  V30 3822 C 356.375 5.13924 -4.25956 0
M  V30 3823 H 355.645 0.733108 -0.107857 0
M  V30 3824 H 358.292 1.6618 -0.951651 0
M  V30 3825 H 356.597 3.89884 0.386954 0
M  V30 3826 H 358.294 4.00998 0.0117269 0
M  V30 3827 H 354.884 4.04339 -1.42155 0
M  V30 3828 H 359.068 4.37416 -2.3448 0
M  V30 3829 H 354.324 4.90008 -3.65653 0
M  V30 3830 H 358.498 5.2444 -4.58187 0
M  V30 3831 H 356.125 5.50457 -5.2431 0
M  V30 3832 N 357.7 0.491464 1.49741 0
M  V30 3833 C 358.93 -0.0534375 2.06531 0
M  V30 3834 C 359.338 -1.32233 1.35318 0
M  V30 3835 O 358.681 -1.78781 0.422243 0
M  V30 3836 C 358.743 -0.387034 3.57411 0
M  V30 3837 C 358.407 0.782764 4.50246 0
M  V30 3838 C 359.404 1.67059 4.92329 0
M  V30 3839 C 357.089 0.978866 4.9267 0
M  V30 3840 C 359.083 2.73874 5.75562 0
M  V30 3841 C 356.77 2.05022 5.75682 0
M  V30 3842 C 357.768 2.92851 6.17031 0
M  V30 3843 O 357.456 3.98138 6.98385 0
M  V30 3844 H 357.188 0.0129324 0.675876 0
M  V30 3845 H 359.742 0.685238 1.93633 0
M  V30 3846 H 357.972 -1.17918 3.68283 0
M  V30 3847 H 359.661 -0.869419 3.96479 0
M  V30 3848 H 360.427 1.53086 4.60206 0
M  V30 3849 H 356.306 0.304646 4.59992 0
M  V30 3850 H 359.85 3.42458 6.07757 0
M  V30 3851 H 355.747 2.18993 6.07217 0
M  V30 3852 H 356.515 3.95374 7.16674 0
M  V30 3853 N 359.178 -1.55987 0.224894 0
M  V30 3854 C 360.408 -2.02489 -0.41007 0
M  V30 3855 C 360.816 -1.10391 -1.53657 0
M  V30 3856 O 360.159 -0.106458 -1.83391 0
M  V30 3857 C 360.221 -3.45319 -0.999757 0
M  V30 3858 C 359.885 -4.56999 -0.00827976 0
M  V30 3859 C 360.882 -5.13812 0.793314 0
M  V30 3860 C 358.567 -5.02176 0.111442 0
M  V30 3861 C 360.561 -6.14276 1.7013 0
M  V30 3862 C 358.248 -6.02477 1.02296 0
M  V30 3863 C 359.246 -6.58403 1.81643 0
M  V30 3864 O 358.934 -7.56751 2.71262 0
M  V30 3865 H 358.666 -0.667915 -0.104235 0
M  V30 3866 H 361.22 -2.0257 0.339782 0
M  V30 3867 H 359.45 -3.42318 -1.79876 0
M  V30 3868 H 361.139 -3.7545 -1.54248 0
M  V30 3869 H 361.905 -4.79756 0.711288 0
M  V30 3870 H 357.784 -4.58323 -0.49605 0
M  V30 3871 H 361.328 -6.57854 2.32107 0
M  V30 3872 H 357.225 -6.35954 1.10599 0
M  V30 3873 H 357.993 -7.74286 2.65375 0
M  V30 3874 N 360.656 0.0484629 -1.57525 0
M  V30 3875 C 361.905 0.742065 -1.87553 0
M  V30 3876 C 362.218 1.77545 -0.820802 0
M  V30 3877 O 363.424 2.52027 -1.00967 0
M  V30 3878 C 361.88 1.37081 -3.32771 0
M  V30 3879 C 361.488 0.374786 -4.4643 0
M  V30 3880 C 363.232 2.04542 -3.71972 0
M  V30 3881 C 361.139 1.01077 -5.82698 0
M  V30 3882 H 360.069 0.280903 -0.699721 0
M  V30 3883 H 362.72 -0.00411877 -1.835 0
M  V30 3884 H 361.102 2.16605 -3.31509 0
M  V30 3885 H 362.276 -0.392331 -4.59127 0
M  V30 3886 H 360.591 -0.196653 -4.15935 0
M  V30 3887 H 363.188 2.52943 -4.71088 0
M  V30 3888 H 363.531 2.85515 -3.02964 0
M  V30 3889 H 364.064 1.31819 -3.75325 0
M  V30 3890 H 360.803 0.240878 -6.55057 0
M  V30 3891 H 360.323 1.74819 -5.73758 0
M  V30 3892 H 362.002 1.52383 -6.28799 0
M  V30 3893 N 362.134 1.5431 0.320358 0
M  V30 3894 C 363.364 1.7638 1.07582 0
M  V30 3895 C 363.772 0.513944 1.82086 0
M  V30 3896 O 363.115 -0.525123 1.76035 0
M  V30 3897 C 363.177 2.9055 2.1171 0
M  V30 3898 C 362.841 4.2934 1.56575 0
M  V30 3899 C 363.838 5.10077 1.00586 0
M  V30 3900 C 361.523 4.75893 1.60722 0
M  V30 3901 C 363.517 6.35477 0.494756 0
M  V30 3902 C 361.204 6.0126 1.09224 0
M  V30 3903 C 362.202 6.80886 0.53696 0
M  V30 3904 O 361.89 8.03894 0.0297371 0
M  V30 3905 H 361.622 0.592369 0.325692 0
M  V30 3906 H 364.176 2.02019 0.37116 0
M  V30 3907 H 362.406 2.60489 2.85801 0
M  V30 3908 H 364.095 3.00373 2.73003 0
M  V30 3909 H 364.861 4.75265 0.966869 0
M  V30 3910 H 360.74 4.13957 2.02882 0
M  V30 3911 H 364.284 6.97574 0.0606842 0
M  V30 3912 H 360.181 6.35562 1.12831 0
M  V30 3913 H 360.949 8.18372 0.14486 0
M  V30 3914 N 363.613 -0.582584 1.46437 0
M  V30 3915 C 364.561 -1.71272 1.5738 0
M  V30 3916 C 365.555 -1.63524 0.44229 0
M  V30 3917 O 366.761 -1.69016 0.619166 0
M  V30 3918 H 363.136 -0.566273 0.494813 0
M  V30 3919 H 365.107 -1.59174 2.52401 0
M  V30 3920 C 363.856 -3.09658 1.58136 0
M  V30 3921 H 363.179 -3.16291 2.44541 0
M  V30 3922 H 364.619 -3.88494 1.69847 0
M  V30 3923 C 363.078 -3.3547 0.310026 0
M  V30 3924 O 363.608 -3.97199 -0.599683 0
M  V30 3925 N 361.814 -2.89925 0.197901 0
M  V30 3926 H 361.361 -2.39873 0.93909 0
M  V30 3927 H 361.319 -3.07568 -0.65185 0
M  V30 3928 N 365.091 -1.34144 -0.827227 0
M  V30 3929 C 366.001 -1.27428 -1.96975 0
M  V30 3930 C 367.017 -0.182728 -1.73038 0
M  V30 3931 O 368.193 -0.408426 -1.97215 0
M  V30 3932 C 365.258 -1.02526 -3.31194 0
M  V30 3933 C 364.319 -2.20796 -3.68168 0
M  V30 3934 C 363.552 -1.97073 -4.95982 0
M  V30 3935 O 363.775 -0.926822 -5.6282 0
M  V30 3936 O 362.709 -2.83912 -5.30733 0
M  V30 3937 H 366.535 -2.23537 -2.05584 0
M  V30 3938 H 364.12 -1.14307 -0.961989 0
M  V30 3939 H 366.002 -0.904026 -4.11589 0
M  V30 3940 H 364.677 -0.0945389 -3.23562 0
M  V30 3941 H 363.584 -2.38477 -2.88235 0
M  V30 3942 H 364.917 -3.12243 -3.8048 0
M  V30 3943 N 366.569 1.04691 -1.17803 0
M  V30 3944 C 367.516 2.12557 -0.899343 0
M  V30 3945 C 368.486 1.65339 0.158771 0
M  V30 3946 O 369.671 1.90789 0.0204797 0
M  V30 3947 C 366.811 3.42481 -0.424315 0
M  V30 3948 C 365.924 4.03346 -1.54713 0
M  V30 3949 C 365.059 5.21208 -1.02546 0
M  V30 3950 C 364.098 5.74089 -2.12339 0
M  V30 3951 N 363.235 6.83247 -1.61612 0
M  V30 3952 H 368.075 2.35734 -1.823 0
M  V30 3953 H 365.612 1.1564 -0.909159 0
M  V30 3954 H 367.57 4.16996 -0.130421 0
M  V30 3955 H 366.2 3.19471 0.462377 0
M  V30 3956 H 365.252 3.2622 -1.95664 0
M  V30 3957 H 366.564 4.38628 -2.37501 0
M  V30 3958 H 365.718 6.02812 -0.685718 0
M  V30 3959 H 364.457 4.87414 -0.167084 0
M  V30 3960 H 363.462 4.91111 -2.47165 0
M  V30 3961 H 364.687 6.0993 -2.98601 0
M  V30 3962 H 362.633 6.5134 -0.780533 0
M  V30 3963 H 362.55 7.17559 -2.38003 0
M  V30 3964 H 363.818 7.68491 -1.30545 0
M  V30 3965 N 368.047 0.979072 1.23499 0
M  V30 3966 C 369.295 0.645941 1.91499 0
M  V30 3967 C 369.616 -0.822948 1.76784 0
M  V30 3968 O 368.886 -1.58854 1.14639 0
M  V30 3969 H 367.466 0.235919 0.708767 0
M  V30 3970 H 370.128 1.2426 1.50152 0
M  V30 3971 H 369.224 0.896411 2.9895 0
M  V30 3972 N 369.525 -1.3858 0.750561 0
M  V30 3973 C 370.455 -2.33102 0.136237 0
M  V30 3974 C 371.436 -1.54713 -0.706965 0
M  V30 3975 O 372.621 -1.83043 -0.648769 0
M  V30 3976 C 369.751 -3.38882 -0.760017 0
M  V30 3977 C 368.705 -4.27995 -0.0197785 0
M  V30 3978 C 368.031 -5.24605 -1.03408 0
M  V30 3979 C 369.331 -5.09554 1.14684 0
M  V30 3980 H 371.025 -2.84726 0.925822 0
M  V30 3981 H 368.571 -1.36898 0.446654 0
M  V30 3982 H 370.524 -4.0397 -1.19943 0
M  V30 3983 H 369.248 -2.85734 -1.58189 0
M  V30 3984 H 367.907 -3.64409 0.400184 0
M  V30 3985 H 367.555 -4.67746 -1.84994 0
M  V30 3986 H 367.255 -5.85081 -0.543464 0
M  V30 3987 H 368.779 -5.9257 -1.47288 0
M  V30 3988 H 370.193 -5.67899 0.785118 0
M  V30 3989 H 368.59 -5.7925 1.56812 0
M  V30 3990 H 369.66 -4.4347 1.96118 0
M  V30 3991 N 371.003 -0.499398 -1.49478 0
M  V30 3992 C 371.913 0.284489 -2.32869 0
M  V30 3993 C 372.929 0.968885 -1.44529 0
M  V30 3994 O 374.105 0.95062 -1.77553 0
M  V30 3995 C 371.17 1.33594 -3.19928 0
M  V30 3996 C 370.231 0.665149 -4.24116 0
M  V30 3997 C 369.464 1.6665 -5.07014 0
M  V30 3998 O 369.687 2.89618 -4.91404 0
M  V30 3999 O 368.621 1.22271 -5.8935 0
M  V30 4000 H 372.447 -0.39802 -3.01081 0
M  V30 4001 H 370.032 -0.260758 -1.47107 0
M  V30 4002 H 371.914 1.94431 -3.73864 0
M  V30 4003 H 370.589 2.0014 -2.54412 0
M  V30 4004 H 369.496 0.0170769 -3.74096 0
M  V30 4005 H 370.829 0.0421555 -4.92182 0
M  V30 4006 N 372.481 1.55866 -0.233164 0
M  V30 4007 C 373.727 1.98897 0.395959 0
M  V30 4008 C 374.06 1.12091 1.58585 0
M  V30 4009 O 373.335 0.181182 1.93654 0
M  V30 4010 C 373.618 3.50658 0.819224 0
M  V30 4011 C 373.471 4.48233 -0.375109 0
M  V30 4012 C 374.79 4.07135 1.67121 0
M  V30 4013 H 371.909 0.723102 0.142451 0
M  V30 4014 H 374.551 1.87082 -0.331725 0
M  V30 4015 H 372.701 3.60857 1.43925 0
M  V30 4016 H 374.373 4.50031 -1.01341 0
M  V30 4017 H 372.616 4.21624 -1.02058 0
M  V30 4018 H 373.287 5.51988 -0.0358328 0
M  V30 4019 H 375.763 3.99952 1.14795 0
M  V30 4020 H 374.639 5.13615 1.93625 0
M  V30 4021 H 374.9 3.54736 2.63846 0
M  V30 4022 N 373.959 -0.0401083 1.57549 0
M  V30 4023 C 375.187 -0.745196 1.93014 0
M  V30 4024 C 375.602 -1.6948 0.831984 0
M  V30 4025 O 374.959 -1.81482 -0.192463 0
M  V30 4026 C 375.01 -1.51176 3.28372 0
M  V30 4027 O 374.731 -0.600284 4.33968 0
M  V30 4028 C 376.232 -2.315 3.78051 0
M  V30 4029 H 373.452 -0.210088 0.637263 0
M  V30 4030 H 375.996 -0.000924689 2.045 0
M  V30 4031 H 374.151 -2.20801 3.18317 0
M  V30 4032 H 374.565 -1.13669 5.12035 0
M  V30 4033 H 376.039 -2.80697 4.75303 0
M  V30 4034 H 376.516 -3.12436 3.08675 0
M  V30 4035 H 377.122 -1.66971 3.91153 0
M  V30 4036 N 375.437 -1.54477 -0.31217 0
M  V30 4037 C 376.686 -1.72438 -1.04633 0
M  V30 4038 C 376.999 -0.511163 -1.88803 0
M  V30 4039 O 378.205 -0.572341 -2.65399 0
M  V30 4040 C 376.661 -3.05043 -1.9099 0
M  V30 4041 C 376.269 -4.33806 -1.11877 0
M  V30 4042 C 378.013 -3.32364 -2.64073 0
M  V30 4043 C 375.92 -5.57467 -1.97445 0
M  V30 4044 H 374.85 -0.642647 -0.394361 0
M  V30 4045 H 377.501 -1.80966 -0.303929 0
M  V30 4046 H 375.883 -2.90451 -2.69173 0
M  V30 4047 H 377.057 -4.59199 -0.383843 0
M  V30 4048 H 375.372 -4.13336 -0.504252 0
M  V30 4049 H 377.969 -4.21951 -3.28423 0
M  V30 4050 H 378.312 -2.50745 -3.32314 0
M  V30 4051 H 378.845 -3.47875 -1.92944 0
M  V30 4052 H 375.584 -6.41722 -1.33692 0
M  V30 4053 H 375.104 -5.36277 -2.6864 0
M  V30 4054 H 376.783 -5.94303 -2.5576 0
M  V30 4055 N 376.915 0.57481 -1.46744 0
M  V30 4056 C 378.143 1.35856 -1.56047 0
M  V30 4057 C 378.558 1.87691 -0.204365 0
M  V30 4058 O 377.915 1.64049 0.79963 0
M  V30 4059 C 377.966 2.54066 -2.57163 0
M  V30 4060 O 377.687 2.04377 -3.87507 0
M  V30 4061 C 379.188 3.46514 -2.76483 0
M  V30 4062 H 376.408 0.414754 -0.527466 0
M  V30 4063 H 378.952 0.698035 -1.92218 0
M  V30 4064 H 377.107 3.16092 -2.23974 0
M  V30 4065 H 377.521 2.81419 -4.4261 0
M  V30 4066 H 378.995 4.25919 -3.51137 0
M  V30 4067 H 379.472 3.98951 -1.83671 0
M  V30 4068 H 380.078 2.90318 -3.10799 0
M  V30 4069 N 378.394 1.34581 0.820102 0
M  V30 4070 C 379.357 1.2628 1.91275 0
M  V30 4071 C 380.357 0.177344 1.59819 0
M  V30 4072 O 381.547 0.430156 1.68806 0
M  V30 4073 C 378.679 0.950327 3.27386 0
M  V30 4074 H 379.872 2.23421 2.00057 0
M  V30 4075 H 377.425 1.1891 1.0144 0
M  V30 4076 H 378.16 -0.0177938 3.24295 0
M  V30 4077 H 377.945 1.73549 3.51601 0
M  V30 4078 H 379.435 0.917492 4.07396 0
M  V30 4079 N 379.872 -1.04064 1.18357 0
M  V30 4080 C 381.288 -1.2947 0.933258 0
M  V30 4081 C 381.488 -1.97466 -0.401169 0
M  V30 4082 O 380.544 -2.25528 -1.13549 0
M  V30 4083 C 381.857 -2.15337 2.09882 0
M  V30 4084 C 383.405 -2.28683 2.13712 0
M  V30 4085 C 383.88 -3.17917 3.29686 0
M  V30 4086 N 385.371 -3.25504 3.29547 0
M  V30 4087 C 386.106 -3.94706 4.15926 0
M  V30 4088 N 385.602 -4.66239 5.12439 0
M  V30 4089 N 387.395 -3.90986 4.0384 0
M  V30 4090 H 379.546 -0.583359 2.04232 0
M  V30 4091 H 381.809 -0.319921 0.892387 0
M  V30 4092 H 381.515 -1.72682 3.06389 0
M  V30 4093 H 381.389 -3.16015 2.05947 0
M  V30 4094 H 383.776 -2.70575 1.17784 0
M  V30 4095 H 383.857 -1.27596 2.21705 0
M  V30 4096 H 383.501 -2.76736 4.25887 0
M  V30 4097 H 383.431 -4.19036 3.1893 0
M  V30 4098 H 385.922 -2.74547 2.59677 0
M  V30 4099 H 386.235 -5.16638 5.74722 0
M  V30 4100 H 384.58 -4.65143 5.16398 0
M  V30 4101 H 387.771 -3.34234 3.27727 0
M  V30 4102 H 387.944 -4.44646 4.71375 0
M  V30 4103 N 381.35 -0.985608 -1.22978 0
M  V30 4104 C 382.597 -0.657386 -1.91532 0
M  V30 4105 C 382.925 0.809707 -1.76845 0
M  V30 4106 O 382.18 1.60021 -1.12658 0
M  V30 4107 C 382.479 -1.00014 -3.43121 0
M  V30 4108 C 382.145 -2.4583 -3.77993 0
M  V30 4109 C 380.807 -2.85679 -3.87222 0
M  V30 4110 C 383.159 -3.40378 -3.94705 0
M  V30 4111 C 380.487 -4.19081 -4.10595 0
M  V30 4112 C 382.839 -4.73429 -4.1958 0
M  V30 4113 C 381.503 -5.1303 -4.27032 0
M  V30 4114 H 380.773 -0.240555 -0.700867 0
M  V30 4115 H 383.42 -1.24044 -1.45895 0
M  V30 4116 H 381.725 -0.335072 -3.90365 0
M  V30 4117 H 383.422 -0.724322 -3.94404 0
M  V30 4118 H 380.012 -2.13939 -3.71387 0
M  V30 4119 H 384.196 -3.10766 -3.8696 0
M  V30 4120 H 379.452 -4.49362 -4.14589 0
M  V30 4121 H 383.626 -5.46644 -4.31455 0
M  V30 4122 H 381.253 -6.16418 -4.44896 0
M  V30 4123 N 382.828 1.3818 -0.7579 0
M  V30 4124 C 383.758 2.33027 -0.148597 0
M  V30 4125 C 384.739 1.55085 0.69875 0
M  V30 4126 O 385.924 1.83384 0.639053 0
M  V30 4127 C 383.054 3.3928 0.742034 0
M  V30 4128 C 382.008 4.28 -0.00291946 0
M  V30 4129 C 381.334 5.25146 1.00625 0
M  V30 4130 C 382.634 5.08938 -1.17385 0
M  V30 4131 H 384.328 2.84231 -0.940909 0
M  V30 4132 H 381.874 1.36659 -0.453908 0
M  V30 4133 H 383.827 4.046 1.17799 0
M  V30 4134 H 382.551 2.86569 1.56671 0
M  V30 4135 H 381.21 3.64192 -0.419504 0
M  V30 4136 H 380.858 4.68721 1.8251 0
M  V30 4137 H 380.558 5.85361 0.512428 0
M  V30 4138 H 382.082 5.93342 1.44143 0
M  V30 4139 H 383.496 5.67474 -0.815224 0
M  V30 4140 H 381.893 5.7841 -1.59882 0
M  V30 4141 H 382.963 4.42424 -1.98468 0
M  V30 4142 N 384.306 0.507319 1.49211 0
M  V30 4143 C 385.536 -0.0315292 2.06576 0
M  V30 4144 C 385.944 -1.30791 1.36713 0
M  V30 4145 O 385.287 -1.78324 0.441181 0
M  V30 4146 C 385.349 -0.349104 3.57801 0
M  V30 4147 C 385.013 0.830475 4.49391 0
M  V30 4148 C 386.01 1.72271 4.90529 0
M  V30 4149 C 383.695 1.03107 4.91604 0
M  V30 4150 C 385.689 2.79964 5.72625 0
M  V30 4151 C 383.376 2.11116 5.73475 0
M  V30 4152 C 384.374 2.99379 6.1389 0
M  V30 4153 O 384.062 4.05523 6.94123 0
M  V30 4154 H 383.794 0.0201002 0.675701 0
M  V30 4155 H 386.348 0.705737 1.92895 0
M  V30 4156 H 384.578 -1.14005 3.69513 0
M  V30 4157 H 386.267 -0.827319 3.97379 0
M  V30 4158 H 387.033 1.57958 4.58557 0
M  V30 4159 H 382.912 0.353417 4.59643 0
M  V30 4160 H 386.456 3.48884 6.04091 0
M  V30 4161 H 382.353 2.25421 6.0486 0
M  V30 4162 H 383.121 4.02953 7.1244 0
M  V30 4163 N 385.784 -1.5574 0.241426 0
M  V30 4164 C 387.032 -1.98417 -0.384075 0
M  V30 4165 C 387.353 -1.13078 -1.58866 0
M  V30 4166 O 386.623 -0.212312 -1.94746 0
M  V30 4167 H 385.203 -0.732813 -0.144894 0
M  V30 4168 H 387.865 -1.9193 0.338943 0
M  V30 4169 H 386.961 -3.04219 -0.696939 0
M  V30 4170 N 387.262 0.0317525 -1.57568 0
M  V30 4171 C 388.209 1.0332 -2.06382 0
M  V30 4172 C 389.179 1.36082 -0.952414 0
M  V30 4173 O 390.364 1.46466 -1.2228 0
M  V30 4174 C 387.504 2.32989 -2.54578 0
M  V30 4175 C 386.617 2.0641 -3.79498 0
M  V30 4176 C 385.752 3.2993 -4.16317 0
M  V30 4177 C 384.791 2.98893 -5.34162 0
M  V30 4178 N 383.928 4.14857 -5.66426 0
M  V30 4179 H 388.768 0.609982 -2.9169 0
M  V30 4180 H 386.305 0.289573 -1.44222 0
M  V30 4181 H 388.263 3.0875 -2.80587 0
M  V30 4182 H 386.893 2.73039 -1.7219 0
M  V30 4183 H 385.945 1.21158 -3.6059 0
M  V30 4184 H 387.257 1.79513 -4.65378 0
M  V30 4185 H 386.411 4.1406 -4.4344 0
M  V30 4186 H 385.15 3.59938 -3.29083 0
M  V30 4187 H 384.155 2.13164 -5.06795 0
M  V30 4188 H 385.38 2.70165 -6.23047 0
M  V30 4189 H 383.326 4.44821 -4.82151 0
M  V30 4190 H 383.243 3.91374 -6.4681 0
M  V30 4191 H 384.511 4.99868 -5.98124 0
M  V30 4192 N 388.74 1.54641 0.303973 0
M  V30 4193 C 389.687 1.85386 1.37479 0
M  V30 4194 C 390.657 0.702528 1.50512 0
M  V30 4195 O 391.842 0.950867 1.65418 0
M  V30 4196 C 388.982 2.10413 2.73533 0
M  V30 4197 C 388.095 3.38049 2.68974 0
M  V30 4198 C 387.23 3.52934 3.97002 0
M  V30 4199 C 386.269 4.74373 3.86829 0
M  V30 4200 N 385.406 4.8608 5.06627 0
M  V30 4201 H 390.246 2.76732 1.1056 0
M  V30 4202 H 387.783 1.37034 0.534805 0
M  V30 4203 H 389.741 2.22919 3.52652 0
M  V30 4204 H 388.371 1.22338 2.98719 0
M  V30 4205 H 387.423 3.3418 1.81736 0
M  V30 4206 H 388.735 4.27288 2.57346 0
M  V30 4207 H 387.889 3.65088 4.84557 0
M  V30 4208 H 386.628 2.61824 4.1146 0
M  V30 4209 H 385.633 4.62255 2.97658 0
M  V30 4210 H 386.858 5.66888 3.73918 0
M  V30 4211 H 384.804 3.97891 5.21554 0
M  V30 4212 H 384.721 5.69315 4.9741 0
M  V30 4213 H 385.989 5.02587 5.95841 0
M  V30 4214 N 390.218 -0.567019 1.47046 0
M  V30 4215 C 391.464 -1.32658 1.53394 0
M  V30 4216 C 391.797 -1.93254 0.19148 0
M  V30 4217 O 391.072 -1.77338 -0.798844 0
M  V30 4218 C 391.355 -2.44412 2.64452 0
M  V30 4219 C 391.208 -1.88749 4.08282 0
M  V30 4220 C 392.527 -3.46387 2.71485 0
M  V30 4221 H 389.646 -0.48098 0.558415 0
M  V30 4222 H 392.288 -0.635481 1.79058 0
M  V30 4223 H 390.438 -3.03363 2.427 0
M  V30 4224 H 392.11 -1.34134 4.41368 0
M  V30 4225 H 390.353 -1.19481 4.17021 0
M  V30 4226 H 391.024 -2.69491 4.81745 0
M  V30 4227 H 393.5 -2.9734 2.91081 0
M  V30 4228 H 392.376 -4.2202 3.50985 0
M  V30 4229 H 392.637 -4.04616 1.78153 0
M  V30 4230 N 391.696 -1.35014 -0.812953 0
M  V30 4231 C 392.606 -1.2951 -1.95613 0
M  V30 4232 C 393.622 -0.20107 -1.72834 0
M  V30 4233 O 394.798 -0.42932 -1.96771 0
M  V30 4234 C 391.863 -1.06033 -3.30088 0
M  V30 4235 C 390.924 -2.24688 -3.65805 0
M  V30 4236 C 390.157 -2.02322 -4.93864 0
M  V30 4237 O 390.38 -0.986464 -5.61805 0
M  V30 4238 O 389.314 -2.89525 -5.27692 0
M  V30 4239 H 393.14 -2.25705 -2.03202 0
M  V30 4240 H 390.725 -1.15321 -0.949811 0
M  V30 4241 H 392.607 -0.94763 -4.10607 0
M  V30 4242 H 391.282 -0.128852 -3.23443 0
M  V30 4243 H 390.189 -2.41521 -2.85689 0
M  V30 4244 H 391.522 -3.16261 -3.77147 0
M  V30 4245 N 393.175 1.03435 -1.18907 0
M  V30 4246 C 394.423 1.76394 -0.986382 0
M  V30 4247 C 394.744 1.88883 0.484567 0
M  V30 4248 O 394.014 1.41843 1.3512 0
M  V30 4249 H 392.594 0.65344 -0.361975 0
M  V30 4250 H 395.256 1.248 -1.49703 0
M  V30 4251 H 394.352 2.77424 -1.42978 0
M  V30 4252 N 394.653 0.992116 1.22453 0
M  V30 4253 C 395.881 0.685944 1.95198 0
M  V30 4254 C 396.296 -0.749233 1.73297 0
M  V30 4255 O 395.653 -1.50549 1.03156 0
M  V30 4256 C 395.704 0.981395 3.47924 0
M  V30 4257 O 395.425 2.36018 3.6909 0
M  V30 4258 C 396.926 0.692815 4.37853 0
M  V30 4259 H 394.146 0.253821 0.621141 0
M  V30 4260 H 396.69 1.32668 1.55626 0
M  V30 4261 H 394.845 0.386481 3.85467 0
M  V30 4262 H 395.259 2.45884 4.63294 0
M  V30 4263 H 396.733 0.949818 5.43767 0
M  V30 4264 H 397.21 -0.373181 4.37612 0
M  V30 4265 H 397.816 1.26874 4.05935 0
M  V30 4266 N 396.131 -1.37776 0.765217 0
M  V30 4267 C 397.094 -2.28686 0.153416 0
M  V30 4268 C 398.094 -1.47727 -0.635081 0
M  V30 4269 O 399.284 -1.68027 -0.459632 0
M  V30 4270 C 396.416 -3.31608 -0.790495 0
M  V30 4271 H 397.609 -2.84297 0.954723 0
M  V30 4272 H 395.162 -1.46932 0.53299 0
M  V30 4273 H 395.897 -2.81109 -1.61705 0
M  V30 4274 H 395.682 -3.9144 -0.227348 0
M  V30 4275 H 397.172 -3.99559 -1.21419 0
M  V30 4276 N 397.609 -0.515225 -1.4894 0
M  V30 4277 C 398.856 0.024215 -2.02486 0
M  V30 4278 C 399.184 1.35671 -1.39368 0
M  V30 4279 O 398.439 1.88566 -0.523574 0
M  V30 4280 C 398.738 0.210595 -3.56779 0
M  V30 4281 C 398.404 -1.04569 -4.38607 0
M  V30 4282 C 397.066 -1.39002 -4.60686 0
M  V30 4283 C 399.418 -1.88008 -4.86109 0
M  V30 4284 C 396.746 -2.568 -5.27514 0
M  V30 4285 C 399.098 -3.04972 -5.54234 0
M  V30 4286 C 397.762 -3.39768 -5.74555 0
M  V30 4287 H 397.032 0.00886088 -0.740947 0
M  V30 4288 H 399.679 -0.678263 -1.79086 0
M  V30 4289 H 397.984 0.99572 -3.78936 0
M  V30 4290 H 399.681 0.642659 -3.95817 0
M  V30 4291 H 396.271 -0.767497 -4.21672 0
M  V30 4292 H 400.455 -1.62719 -4.68867 0
M  V30 4293 H 395.711 -2.8398 -5.41447 0
M  V30 4294 H 399.885 -3.69943 -5.90013 0
M  V30 4295 H 397.512 -4.31148 -6.26112 0
M  V30 4296 N 399.087 1.5561 -0.249682 0
M  V30 4297 C 400.333 1.99306 0.374841 0
M  V30 4298 C 400.666 1.13767 1.57387 0
M  V30 4299 O 399.941 0.201711 1.93451 0
M  V30 4300 C 400.224 3.51507 0.781986 0
M  V30 4301 C 400.077 4.4781 -0.422629 0
M  V30 4302 C 401.396 4.08884 1.62793 0
M  V30 4303 H 398.515 0.724572 0.134773 0
M  V30 4304 H 401.157 1.86719 -0.351549 0
M  V30 4305 H 399.307 3.62363 1.4009 0
M  V30 4306 H 400.979 4.48931 -1.06108 0
M  V30 4307 H 399.222 4.20518 -1.06524 0
M  V30 4308 H 399.893 5.51919 -0.0943766 0
M  V30 4309 H 402.369 4.01147 1.10547 0
M  V30 4310 H 401.245 5.1564 1.88166 0
M  V30 4311 H 401.506 3.57515 2.60068 0
M  V30 4312 N 400.565 -0.0233959 1.57583 0
M  V30 4313 C 401.814 -0.712133 1.8871 0
M  V30 4314 C 402.127 -1.76217 0.848944 0
M  V30 4315 O 403.333 -2.50389 1.04964 0
M  V30 4316 C 401.789 -1.3177 3.3491 0
M  V30 4317 C 401.397 -0.303715 4.46969 0
M  V30 4318 C 403.141 -1.98598 3.75179 0
M  V30 4319 C 401.048 -0.917945 5.84233 0
M  V30 4320 H 399.978 -0.269735 0.704101 0
M  V30 4321 H 402.629 0.0333114 1.8347 0
M  V30 4322 H 401.011 -2.11304 3.34913 0
M  V30 4323 H 402.185 0.465325 4.58445 0
M  V30 4324 H 400.5 0.2628 4.1557 0
M  V30 4325 H 403.097 -2.45416 4.75053 0
M  V30 4326 H 403.44 -2.80659 3.07468 0
M  V30 4327 H 403.973 -1.25831 3.77374 0
M  V30 4328 H 400.712 -0.136633 6.55358 0
M  V30 4329 H 400.232 -1.65669 5.76467 0
M  V30 4330 H 401.911 -1.4236 6.31144 0
M  V30 4331 N 402.043 -1.548 -0.295768 0
M  V30 4332 C 403.29 -1.74329 -1.03032 0
M  V30 4333 C 403.618 -0.531915 -1.87085 0
M  V30 4334 O 402.873 0.486052 -1.89568 0
M  V30 4335 C 403.172 -2.98797 -1.961 0
M  V30 4336 C 402.838 -4.32356 -1.2798 0
M  V30 4337 C 401.5 -4.68661 -1.09135 0
M  V30 4338 C 403.852 -5.15128 -0.793243 0
M  V30 4339 C 401.18 -5.85312 -0.403269 0
M  V30 4340 C 403.532 -6.32488 -0.118854 0
M  V30 4341 C 402.196 -6.6745 0.0815043 0
M  V30 4342 H 401.466 -0.637916 -0.37702 0
M  V30 4343 H 404.113 -1.8906 -0.304696 0
M  V30 4344 H 402.418 -2.78869 -2.75207 0
M  V30 4345 H 404.115 -3.11102 -2.53015 0
M  V30 4346 H 400.705 -4.03808 -1.43655 0
M  V30 4347 H 404.889 -4.87575 -0.92653 0
M  V30 4348 H 400.145 -6.1094 -0.237098 0
M  V30 4349 H 404.319 -6.95892 0.266035 0
M  V30 4350 H 401.946 -7.57695 0.616685 0
M  V30 4351 N 403.521 0.559213 -1.47345 0
M  V30 4352 C 404.769 1.31388 -1.53563 0
M  V30 4353 C 405.09 1.93985 -0.198678 0
M  V30 4354 O 404.36 1.79825 0.777167 0
M  V30 4355 H 402.94 0.487901 -0.565652 0
M  V30 4356 H 405.602 0.65315 -1.8363 0
M  V30 4357 H 404.698 2.10844 -2.30111 0
M  V30 4358 N 404.999 1.35443 0.805782 0
M  V30 4359 C 406.248 1.28097 1.55801 0
M  V30 4360 C 406.561 -0.142428 1.95081 0
M  V30 4361 O 407.767 -0.33817 2.69386 0
M  V30 4362 C 406.223 2.24653 2.81174 0
M  V30 4363 C 405.831 3.72342 2.49129 0
M  V30 4364 C 407.575 2.2625 3.59181 0
M  V30 4365 C 405.482 4.60719 3.70799 0
M  V30 4366 H 404.412 0.475937 0.584808 0
M  V30 4367 H 407.063 1.60712 0.885661 0
M  V30 4368 H 405.445 1.85011 3.50124 0
M  V30 4369 H 406.619 4.20624 1.88181 0
M  V30 4370 H 404.934 3.73361 1.84366 0
M  V30 4371 H 407.531 2.89495 4.49552 0
M  V30 4372 H 407.874 1.26647 3.96568 0
M  V30 4373 H 408.407 2.64426 2.97193 0
M  V30 4374 H 405.146 5.61324 3.3852 0
M  V30 4375 H 404.666 4.17163 4.3097 0
M  V30 4376 H 406.345 4.76182 4.38018 0
M  V30 4377 N 406.477 -1.02803 1.19454 0
M  V30 4378 C 407.409 -2.11181 0.890807 0
M  V30 4379 C 408.422 -1.6238 -0.116829 0
M  V30 4380 O 409.611 -1.78144 0.112694 0
M  V30 4381 C 406.711 -3.37461 0.311942 0
M  V30 4382 C 405.884 -4.15446 1.36834 0
M  V30 4383 C 404.943 -5.20039 0.802864 0
M  V30 4384 O 403.969 -5.49602 1.48077 0
M  V30 4385 N 405.171 -5.79165 -0.393417 0
M  V30 4386 H 407.936 -2.37827 1.82369 0
M  V30 4387 H 405.497 -1.19101 1.09666 0
M  V30 4388 H 407.489 -4.0462 -0.0802225 0
M  V30 4389 H 406.059 -3.08156 -0.52524 0
M  V30 4390 H 405.279 -3.43423 1.93531 0
M  V30 4391 H 406.567 -4.64335 2.08015 0
M  V30 4392 H 405.965 -5.57466 -0.961658 0
M  V30 4393 H 404.522 -6.47729 -0.727351 0
M  V30 4394 N 407.956 -0.998596 -1.21925 0
M  V30 4395 C 409.233 -0.593401 -1.86382 0
M  V30 4396 C 409.613 0.92916 -1.89552 0
M  V30 4397 O 408.961 1.81347 -1.39017 0
M  V30 4398 C 409.171 -1.22039 -3.26967 0
M  V30 4399 C 410.519 -1.32449 -4.03413 0
M  V30 4400 O 411.543 -1.17522 -3.36254 0
M  V30 4401 O 410.402 -1.56395 -5.23644 0
M  V30 4402 H 407.496 -0.202385 -0.801854 0
M  V30 4403 H 410.042 -1.09484 -1.29659 0
M  V30 4404 H 408.814 -2.26158 -3.19325 0
M  V30 4405 H 408.437 -0.704906 -3.91301 0
M  V30 4406 N 409.434 1.37368 -0.772513 0
M  V30 4407 C 410.682 1.99279 -0.336516 0
M  V30 4408 C 411.003 1.6163 1.09091 0
M  V30 4409 O 410.273 0.882109 1.74916 0
M  V30 4410 H 408.853 0.737063 -0.121435 0
M  V30 4411 H 411.515 1.67836 -0.990809 0
M  V30 4412 H 410.611 3.09332 -0.414763 0
M  V30 4413 N 410.912 0.523116 1.48665 0
M  V30 4414 C 411.822 -0.247406 2.33292 0
M  V30 4415 C 412.838 -0.945769 1.46052 0
M  V30 4416 O 414.014 -0.922253 1.79043 0
M  V30 4417 C 411.079 -1.28487 3.22012 0
M  V30 4418 C 410.14 -0.597592 4.2512 0
M  V30 4419 C 409.373 -1.58563 5.09601 0
M  V30 4420 O 409.596 -2.81763 4.95949 0
M  V30 4421 O 408.53 -1.12879 5.91221 0
M  V30 4422 H 412.356 0.445869 3.00409 0
M  V30 4423 H 409.941 0.284128 1.46673 0
M  V30 4424 H 411.823 -1.88459 3.7691 0
M  V30 4425 H 410.498 -1.96068 2.57564 0
M  V30 4426 H 409.405 0.0424407 3.74076 0
M  V30 4427 H 410.738 0.0361517 4.92187 0
M  V30 4428 N 412.39 -1.55475 0.257931 0
M  V30 4429 C 413.322 -2.19192 -0.669881 0
M  V30 4430 C 414.335 -1.17148 -1.1305 0
M  V30 4431 O 415.524 -1.43959 -1.05537 0
M  V30 4432 C 412.624 -2.79016 -1.92363 0
M  V30 4433 C 411.797 -4.06586 -1.61265 0
M  V30 4434 C 410.856 -4.50622 -2.7171 0
M  V30 4435 O 409.882 -5.16765 -2.38627 0
M  V30 4436 N 411.084 -4.19325 -4.01431 0
M  V30 4437 H 413.849 -2.99441 -0.124635 0
M  V30 4438 H 411.41 -1.6171 0.0783311 0
M  V30 4439 H 413.402 -3.05427 -2.65511 0
M  V30 4440 H 411.972 -2.0286 -2.37837 0
M  V30 4441 H 411.192 -3.87646 -0.715811 0
M  V30 4442 H 412.48 -4.89737 -1.37967 0
M  V30 4443 H 411.878 -3.66247 -4.31138 0
M  V30 4444 H 410.435 -4.50547 -4.7101 0
M  V30 4445 N 413.868 0.0150385 -1.57593 0
M  V30 4446 C 415.284 0.370907 -1.5523 0
M  V30 4447 C 415.484 1.75735 -0.985882 0
M  V30 4448 O 414.54 2.44944 -0.613077 0
M  V30 4449 C 415.853 0.259908 -2.99575 0
M  V30 4450 C 417.401 0.335959 -3.11192 0
M  V30 4451 C 417.876 0.254253 -4.57294 0
M  V30 4452 N 419.367 0.312618 -4.62144 0
M  V30 4453 C 420.102 0.272505 -5.72752 0
M  V30 4454 N 419.598 0.183864 -6.92556 0
M  V30 4455 N 421.391 0.323267 -5.6117 0
M  V30 4456 H 413.542 -0.892104 -1.92757 0
M  V30 4457 H 415.805 -0.340563 -0.884715 0
M  V30 4458 H 415.511 -0.693403 -3.44797 0
M  V30 4459 H 415.385 1.048 -3.62349 0
M  V30 4460 H 417.772 1.27971 -2.65909 0
M  V30 4461 H 417.853 -0.481739 -2.51223 0
M  V30 4462 H 417.497 -0.685887 -5.03247 0
M  V30 4463 H 417.427 1.09024 -5.15191 0
M  V30 4464 H 419.918 0.38307 -3.75953 0
M  V30 4465 H 420.231 0.15874 -7.72637 0
M  V30 4466 H 418.576 0.149708 -6.94839 0
M  V30 4467 H 421.767 0.390607 -4.66467 0
M  V30 4468 H 421.94 0.288539 -6.47357 0
M  V30 4469 N 415.346 1.54954 0.287554 0
M  V30 4470 C 416.595 1.74081 1.01877 0
M  V30 4471 C 416.908 0.541135 1.87966 0
M  V30 4472 O 418.114 0.614491 2.64455 0
M  V30 4473 C 416.57 3.08042 1.86113 0
M  V30 4474 C 416.178 4.35531 1.04961 0
M  V30 4475 C 417.922 3.36523 2.58752 0
M  V30 4476 C 415.829 5.60538 1.88551 0
M  V30 4477 H 414.759 0.64884 0.384087 0
M  V30 4478 H 417.41 1.81426 0.275101 0
M  V30 4479 H 415.792 2.94696 2.64519 0
M  V30 4480 H 416.966 4.59751 0.31074 0
M  V30 4481 H 415.281 4.14085 0.43843 0
M  V30 4482 H 417.878 4.27122 3.21668 0
M  V30 4483 H 418.221 2.56 3.28283 0
M  V30 4484 H 418.754 3.50901 1.87386 0
M  V30 4485 H 415.493 6.43767 1.23466 0
M  V30 4486 H 415.013 5.40483 2.60074 0
M  V30 4487 H 416.692 5.98297 2.46273 0
M  V30 4488 N 416.824 -0.551391 1.4764 0
M  V30 4489 C 418.049 -1.33837 1.58437 0
M  V30 4490 C 418.474 -1.866 0.237063 0
M  V30 4491 O 417.832 -1.6328 -0.787994 0
M  V30 4492 C 417.88 -2.48014 2.61766 0
M  V30 4493 O 416.984 -3.50419 2.1744 0
M  V30 4494 H 416.325 -0.397299 0.532024 0
M  V30 4495 H 418.855 -0.665759 1.93465 0
M  V30 4496 H 418.865 -2.94503 2.82369 0
M  V30 4497 H 417.54 -2.08969 3.5959 0
M  V30 4498 H 416.117 -3.10196 2.06961 0
M  V30 4499 N 418.302 -1.35869 -0.798587 0
M  V30 4500 C 419.232 -1.32118 -1.92528 0
M  V30 4501 C 420.213 -0.194209 -1.68988 0
M  V30 4502 O 421.398 -0.390426 -1.90235 0
M  V30 4503 C 418.528 -1.10047 -3.29404 0
M  V30 4504 C 417.482 -2.19471 -3.67446 0
M  V30 4505 C 416.808 -1.82555 -5.02571 0
M  V30 4506 C 418.108 -3.61495 -3.76987 0
M  V30 4507 H 419.802 -2.26394 -1.95924 0
M  V30 4508 H 417.348 -1.08981 -0.94123 0
M  V30 4509 H 419.301 -1.06061 -4.07835 0
M  V30 4510 H 418.025 -0.122195 -3.26371 0
M  V30 4511 H 416.684 -2.22568 -2.91306 0
M  V30 4512 H 416.332 -0.833249 -4.9605 0
M  V30 4513 H 416.032 -2.5581 -5.28995 0
M  V30 4514 H 417.556 -1.80108 -5.83432 0
M  V30 4515 H 418.97 -3.60676 -4.4563 0
M  V30 4516 H 417.367 -4.33577 -4.14887 0
M  V30 4517 H 418.437 -3.97065 -2.78329 0
M  V30 4518 N 419.78 1.02168 -1.19998 0
M  V30 4519 C 421.191 1.57135 -1.00825 0
M  V30 4520 C 421.542 1.91276 0.436818 0
M  V30 4521 O 420.667 1.71679 1.3174 0
M  V30 4522 C 421.262 2.85514 -1.82393 0
M  V30 4523 C 419.821 3.37027 -1.67601 0
M  V30 4524 C 418.968 2.10388 -1.80644 0
M  V30 4525 H 421.919 0.846106 -1.34264 0
M  V30 4526 H 421.94 3.56711 -1.32429 0
M  V30 4527 H 421.452 2.60634 -2.87561 0
M  V30 4528 H 419.553 3.66878 -0.650485 0
M  V30 4529 H 419.666 4.09572 -2.4857 0
M  V30 4530 H 418.03 2.22601 -1.23778 0
M  V30 4531 H 418.813 1.8794 -2.87286 0
M  V30 4532 N 421.258 1.00505 1.21394 0
M  V30 4533 C 422.168 0.574806 2.27449 0
M  V30 4534 C 423.184 -0.382206 1.6975 0
M  V30 4535 O 424.36 -0.246027 1.99892 0
M  V30 4536 C 421.425 -0.0917414 3.46579 0
M  V30 4537 C 420.486 0.909758 4.1955 0
M  V30 4538 C 419.719 0.274924 5.32991 0
M  V30 4539 O 419.942 -0.928254 5.62796 0
M  V30 4540 O 418.876 0.985877 5.93771 0
M  V30 4541 H 422.702 1.45744 2.66444 0
M  V30 4542 H 420.287 0.773923 1.27792 0
M  V30 4543 H 422.169 -0.464551 4.18832 0
M  V30 4544 H 420.844 -0.948755 3.09484 0
M  V30 4545 H 419.751 1.33372 3.49518 0
M  V30 4546 H 421.084 1.73636 4.60555 0
M  V30 4547 N 422.737 -1.36956 0.779787 0
M  V30 4548 C 423.962 -2.04283 0.358224 0
M  V30 4549 C 424.387 -1.58422 -1.01411 0
M  V30 4550 O 423.745 -0.748179 -1.65142 0
M  V30 4551 C 423.793 -3.58152 0.419479 0
M  V30 4552 O 422.897 -4.08342 -0.577142 0
M  V30 4553 H 422.238 -0.645967 0.153698 0
M  V30 4554 H 424.768 -1.75108 1.05822 0
M  V30 4555 H 424.778 -4.07041 0.279636 0
M  V30 4556 H 423.453 -3.90886 1.42061 0
M  V30 4557 H 422.03 -3.70751 -0.399755 0
M  V30 4558 N 424.215 -0.530993 -1.48385 0
M  V30 4559 C 425.145 0.219985 -2.32461 0
M  V30 4560 C 426.126 0.934111 -1.42156 0
M  V30 4561 O 427.311 0.919694 -1.71042 0
M  V30 4562 C 424.441 1.26674 -3.23375 0
M  V30 4563 C 423.395 0.67069 -4.22712 0
M  V30 4564 C 422.721 1.82017 -5.02766 0
M  V30 4565 C 424.021 -0.358268 -5.2107 0
M  V30 4566 H 425.715 -0.48187 -2.95497 0
M  V30 4567 H 423.261 -0.233182 -1.42099 0
M  V30 4568 H 425.214 1.80006 -3.81019 0
M  V30 4569 H 423.938 1.99818 -2.58341 0
M  V30 4570 H 422.597 0.158878 -3.66256 0
M  V30 4571 H 422.245 2.54002 -4.34157 0
M  V30 4572 H 421.945 1.42727 -5.70003 0
M  V30 4573 H 423.469 2.35725 -5.63264 0
M  V30 4574 H 424.883 0.0880081 -5.73232 0
M  V30 4575 H 423.28 -0.66861 -5.96364 0
M  V30 4576 H 424.35 -1.26367 -4.68145 0
M  V30 4577 N 425.693 1.55336 -0.266172 0
M  V30 4578 C 426.64 2.22172 0.625165 0
M  V30 4579 C 427.61 1.19211 1.15663 0
M  V30 4580 O 428.795 1.47723 1.20758 0
M  V30 4581 C 425.935 2.93972 1.8076 0
M  V30 4582 C 425.048 4.11632 1.31084 0
M  V30 4583 C 424.183 4.71099 2.45436 0
M  V30 4584 C 423.222 5.8097 1.92718 0
M  V30 4585 N 422.359 6.34538 3.00509 0
M  V30 4586 H 427.199 2.9796 0.0485582 0
M  V30 4587 H 424.736 1.47095 0.0122024 0
M  V30 4588 H 426.694 3.33811 2.50251 0
M  V30 4589 H 425.324 2.20623 2.35638 0
M  V30 4590 H 424.376 3.76975 0.509326 0
M  V30 4591 H 425.688 4.90893 0.884633 0
M  V30 4592 H 424.842 5.13612 3.22936 0
M  V30 4593 H 423.581 3.91096 2.91368 0
M  V30 4594 H 422.586 5.37916 1.13695 0
M  V30 4595 H 423.811 6.62836 1.47733 0
M  V30 4596 H 421.757 5.57433 3.45839 0
M  V30 4597 H 421.674 7.09046 2.62279 0
M  V30 4598 H 422.942 6.81709 3.78011 0
M  V30 4599 N 427.171 -0.0066808 1.57599 0
M  V30 4600 C 428.587 -0.36267 1.55425 0
M  V30 4601 C 428.787 -1.75209 0.995187 0
M  V30 4602 O 427.843 -2.44616 0.626058 0
M  V30 4603 C 429.156 -0.244017 2.99708 0
M  V30 4604 C 430.704 -0.319451 3.11366 0
M  V30 4605 C 431.179 -0.229998 4.57422 0
M  V30 4606 N 432.67 -0.288105 4.62303 0
M  V30 4607 C 433.405 -0.242127 5.72889 0
M  V30 4608 N 432.901 -0.147133 6.92644 0
M  V30 4609 N 434.694 -0.293502 5.61333 0
M  V30 4610 H 426.845 0.902314 1.92281 0
M  V30 4611 H 429.108 0.34525 0.882896 0
M  V30 4612 H 428.814 0.711678 3.44424 0
M  V30 4613 H 428.688 -1.02877 3.629 0
M  V30 4614 H 431.075 -1.26559 2.66584 0
M  V30 4615 H 431.156 0.495055 2.50964 0
M  V30 4616 H 430.8 0.712566 5.02877 0
M  V30 4617 H 430.73 -1.0629 5.15761 0
M  V30 4618 H 433.221 -0.363126 3.76151 0
M  V30 4619 H 433.534 -0.117763 7.7271 0
M  V30 4620 H 431.879 -0.112857 6.94908 0
M  V30 4621 H 435.07 -0.365864 4.66668 0
M  V30 4622 H 435.243 -0.254204 6.47501 0
M  V30 4623 N 428.649 -1.55105 -0.279332 0
M  V30 4624 C 429.898 -1.74618 -1.00952 0
M  V30 4625 C 430.211 -0.551096 -1.87676 0
M  V30 4626 O 431.417 -0.628507 -2.64125 0
M  V30 4627 C 429.873 -3.09025 -1.84476 0
M  V30 4628 C 429.481 -4.36081 -1.0265 0
M  V30 4629 C 431.225 -3.37891 -2.56963 0
M  V30 4630 C 429.132 -5.6153 -1.85576 0
M  V30 4631 H 428.062 -0.650868 -0.38064 0
M  V30 4632 H 430.713 -1.81569 -0.265475 0
M  V30 4633 H 429.095 -2.96095 -2.62952 0
M  V30 4634 H 430.269 -4.59909 -0.286354 0
M  V30 4635 H 428.584 -4.14312 -0.416464 0
M  V30 4636 H 431.181 -4.28822 -3.19399 0
M  V30 4637 H 431.524 -2.57737 -3.26921 0
M  V30 4638 H 432.057 -3.5189 -1.85522 0
M  V30 4639 H 428.796 -6.44413 -1.2005 0
M  V30 4640 H 428.316 -5.41854 -2.57204 0
M  V30 4641 H 429.995 -5.99594 -2.43096 0
M  V30 4642 N 430.127 0.543554 -1.4793 0
M  V30 4643 C 431.538 1.12561 -1.48953 0
M  V30 4644 C 431.889 1.94578 -0.251754 0
M  V30 4645 O 431.014 2.0665 0.642255 0
M  V30 4646 C 431.609 2.04801 -2.69892 0
M  V30 4647 C 430.168 2.58251 -2.73831 0
M  V30 4648 C 429.315 1.34918 -2.42265 0
M  V30 4649 H 432.266 0.32947 -1.55242 0
M  V30 4650 H 432.287 2.88886 -2.47639 0
M  V30 4651 H 431.799 1.4508 -3.59963 0
M  V30 4652 H 429.9 3.21732 -1.87934 0
M  V30 4653 H 430.013 2.98312 -3.74895 0
M  V30 4654 H 428.377 1.66046 -1.93134 0
M  V30 4655 H 429.16 0.769693 -3.3456 0
M  V30 4656 N 431.605 1.3629 0.791371 0
M  V30 4657 C 432.854 1.29742 1.54434 0
M  V30 4658 C 433.167 -0.121729 1.95221 0
M  V30 4659 O 434.373 -0.309579 2.69729 0
M  V30 4660 C 432.829 2.27623 2.78776 0
M  V30 4661 C 432.437 3.74963 2.45166 0
M  V30 4662 C 434.181 2.30047 3.56761 0
M  V30 4663 C 432.088 4.64626 3.65891 0
M  V30 4664 H 431.018 0.482113 0.579727 0
M  V30 4665 H 433.669 1.61642 0.868565 0
M  V30 4666 H 432.051 1.88714 3.48142 0
M  V30 4667 H 433.225 4.22596 1.83709 0
M  V30 4668 H 431.54 3.75295 1.80396 0
M  V30 4669 H 434.137 2.94247 4.46456 0
M  V30 4670 H 434.48 1.30846 3.95203 0
M  V30 4671 H 435.013 2.67563 2.94372 0
M  V30 4672 H 431.752 5.64883 3.32547 0
M  V30 4673 H 431.272 4.2171 4.26521 0
M  V30 4674 H 432.951 4.80801 4.32943 0
M  V30 4675 N 433.083 -1.0153 1.20538 0
M  V30 4676 C 433.993 -2.13557 0.971113 0
M  V30 4677 C 435.009 -1.73845 -0.0734366 0
M  V30 4678 O 436.185 -2.01075 0.114299 0
M  V30 4679 C 433.25 -3.42661 0.527639 0
M  V30 4680 C 432.311 -3.96608 1.64319 0
M  V30 4681 C 431.544 -5.1955 1.22078 0
M  V30 4682 O 431.767 -5.70329 0.0900198 0
M  V30 4683 O 430.701 -5.66681 2.02871 0
M  V30 4684 H 434.527 -2.3619 1.90913 0
M  V30 4685 H 432.112 -1.11946 0.989362 0
M  V30 4686 H 433.994 -4.20404 0.289621 0
M  V30 4687 H 432.669 -3.21441 -0.381779 0
M  V30 4688 H 431.576 -3.20139 1.93551 0
M  V30 4689 H 432.909 -4.22219 2.52966 0
M  V30 4690 N 434.561 -1.01147 -1.20859 0
M  V30 4691 C 435.838 -0.613136 -1.85742 0
M  V30 4692 C 436.218 0.909004 -1.90526 0
M  V30 4693 O 435.566 1.79862 -1.40932 0
M  V30 4694 C 435.776 -1.255 -3.25654 0
M  V30 4695 C 437.124 -1.3672 -4.01986 0
M  V30 4696 O 438.148 -1.21082 -3.34989 0
M  V30 4697 O 437.007 -1.6194 -5.21956 0
M  V30 4698 H 434.101 -0.210878 -0.799662 0
M  V30 4699 H 436.647 -1.10853 -1.2849 0
M  V30 4700 H 435.419 -2.29532 -3.16908 0
M  V30 4701 H 435.042 -0.746369 -3.90532 0
M  V30 4702 N 436.039 1.36541 -0.78704 0
M  V30 4703 C 437.287 1.98911 -0.357633 0
M  V30 4704 C 437.608 1.62778 1.07371 0
M  V30 4705 O 436.878 0.900612 1.73971 0
M  V30 4706 H 435.458 0.735734 -0.129246 0
M  V30 4707 H 438.12 1.66776 -1.00855 0
M  V30 4708 H 437.216 3.08874 -0.447549 0
M  V30 4709 N 437.518 0.538854 1.48102 0
M  V30 4710 C 438.743 0.0102694 2.07397 0
M  V30 4711 C 439.168 -1.26562 1.39153 0
M  V30 4712 O 438.526 -1.75357 0.460387 0
M  V30 4713 C 438.574 -0.187602 3.60112 0
M  V30 4714 O 437.678 -1.25432 3.92862 0
M  V30 4715 H 437.019 0.0430975 0.6626 0
M  V30 4716 H 439.549 0.749301 1.90385 0
M  V30 4717 H 439.559 -0.407517 4.0596 0
M  V30 4718 H 438.234 0.744386 4.09184 0
M  V30 4719 H 436.811 -1.01636 3.58782 0
M  V30 4720 N 438.996 -1.55193 0.274407 0
M  V30 4721 C 440.244 -1.99187 -0.341902 0
M  V30 4722 C 440.565 -1.16422 -1.56431 0
M  V30 4723 O 439.835 -0.253573 -1.94252 0
M  V30 4724 H 438.415 -0.735721 -0.129317 0
M  V30 4725 H 441.077 -1.91168 0.379578 0
M  V30 4726 H 440.173 -3.05629 -0.632253 0
M  V30 4727 N 440.474 -0.00167713 -1.576 0
M  V30 4728 C 441.384 1.00548 -2.1196 0
M  V30 4729 C 442.4 1.3758 -1.06526 0
M  V30 4730 O 443.576 1.46278 -1.38436 0
M  V30 4731 C 440.641 2.27809 -2.6135 0
M  V30 4732 C 439.702 1.97074 -3.81393 0
M  V30 4733 C 438.935 3.18267 -4.28417 0
M  V30 4734 O 439.158 4.30009 -3.74765 0
M  V30 4735 O 438.092 3.02167 -5.20556 0
M  V30 4736 H 441.918 0.573373 -2.98238 0
M  V30 4737 H 439.503 0.217255 -1.47812 0
M  V30 4738 H 441.385 3.02568 -2.93309 0
M  V30 4739 H 440.06 2.70254 -1.78169 0
M  V30 4740 H 438.967 1.19785 -3.54404 0
M  V30 4741 H 440.3 1.59464 -4.65652 0
M  V30 4742 N 441.952 1.55251 0.271103 0
M  V30 4743 C 443.198 1.76207 1.00394 0
M  V30 4744 C 443.531 0.562604 1.85872 0
M  V30 4745 O 442.806 -0.439785 1.89463 0
M  V30 4746 C 443.089 3.06828 1.8849 0
M  V30 4747 C 442.942 4.37134 1.05992 0
M  V30 4748 C 444.261 3.33503 2.87165 0
M  V30 4749 H 441.38 0.641086 0.363562 0
M  V30 4750 H 444.022 1.87982 0.276189 0
M  V30 4751 H 442.172 2.96921 2.5054 0
M  V30 4752 H 443.844 4.59001 0.459978 0
M  V30 4753 H 442.087 4.32275 0.363443 0
M  V30 4754 H 442.758 5.2486 1.70955 0
M  V30 4755 H 445.234 3.43215 2.3525 0
M  V30 4756 H 444.11 4.2616 3.45946 0
M  V30 4757 H 444.371 2.53235 3.62387 0
M  V30 4758 N 443.43 -0.535701 1.48216 0
M  V30 4759 C 444.676 -1.29375 1.56173 0
M  V30 4760 C 445.009 -1.92804 0.232429 0
M  V30 4761 O 444.284 -1.78992 -0.761048 0
M  V30 4762 C 444.567 -2.38747 2.69577 0
M  V30 4763 C 444.42 -1.80046 4.12193 0
M  V30 4764 C 445.739 -3.40551 2.78771 0
M  V30 4765 H 442.858 -0.469027 0.568491 0
M  V30 4766 H 445.5 -0.597358 1.80365 0
M  V30 4767 H 443.65 -2.98147 2.4908 0
M  V30 4768 H 445.322 -1.24742 4.44114 0
M  V30 4769 H 443.565 -1.10609 4.19462 0
M  V30 4770 H 444.236 -2.59212 4.87353 0
M  V30 4771 H 446.712 -2.91099 2.97322 0
M  V30 4772 H 445.588 -4.1448 3.59857 0
M  V30 4773 H 445.849 -4.00746 1.86696 0
M  V30 4774 N 444.908 -1.36708 -0.784132 0
M  V30 4775 C 445.838 -1.34153 -1.91116 0
M  V30 4776 C 446.819 -0.212121 -1.68772 0
M  V30 4777 O 448.004 -0.410581 -1.8981 0
M  V30 4778 C 445.134 -1.13535 -3.28218 0
M  V30 4779 C 444.088 -2.23356 -3.65097 0
M  V30 4780 C 443.414 -1.87875 -5.00607 0
M  V30 4781 C 444.714 -3.65473 -3.73131 0
M  V30 4782 H 446.408 -2.28459 -1.93512 0
M  V30 4783 H 443.954 -1.09973 -0.929618 0
M  V30 4784 H 445.907 -1.10381 -4.06687 0
M  V30 4785 H 444.631 -0.156804 -3.26223 0
M  V30 4786 H 443.29 -2.25645 -2.88929 0
M  V30 4787 H 442.938 -0.885814 -4.95139 0
M  V30 4788 H 442.638 -2.61406 -5.26252 0
M  V30 4789 H 444.162 -1.86286 -5.81489 0
M  V30 4790 H 445.576 -3.65382 -4.41779 0
M  V30 4791 H 443.973 -4.37953 -4.10265 0
M  V30 4792 H 445.043 -3.99995 -2.74102 0
M  V30 4793 N 446.386 1.0089 -1.21074 0
M  V30 4794 C 447.611 1.78727 -1.05221 0
M  V30 4795 C 448.036 1.83932 0.393795 0
M  V30 4796 O 447.394 1.28004 1.28393 0
M  V30 4797 C 447.442 3.20665 -1.64944 0
M  V30 4798 O 446.546 4.02632 -0.892273 0
M  V30 4799 H 445.887 0.550973 -0.370574 0
M  V30 4800 H 448.417 1.26847 -1.60534 0
M  V30 4801 H 448.427 3.71352 -1.69002 0
M  V30 4802 H 447.102 3.16191 -2.70177 0
M  V30 4803 H 445.679 3.61207 -0.926492 0
M  V30 4804 N 447.864 1.01787 1.20321 0
M  V30 4805 C 449.28 0.732951 1.41774 0
M  V30 4806 C 449.48 -0.686883 1.89431 0
M  V30 4807 O 448.536 -1.45446 2.06402 0
M  V30 4808 C 449.849 1.75973 2.43832 0
M  V30 4809 C 451.397 1.77802 2.57596 0
M  V30 4810 C 451.872 2.7941 3.62897 0
M  V30 4811 N 453.363 2.78157 3.70382 0
M  V30 4812 C 454.098 3.53434 4.51521 0
M  V30 4813 N 453.594 4.38392 5.36455 0
M  V30 4814 N 455.387 3.42026 4.46066 0
M  V30 4815 H 447.538 1.93447 0.877035 0
M  V30 4816 H 449.801 0.835712 0.447536 0
M  V30 4817 H 449.507 2.77699 2.15815 0
M  V30 4818 H 449.381 1.57292 3.4284 0
M  V30 4819 H 451.768 0.767602 2.84942 0
M  V30 4820 H 451.849 2.00557 1.58779 0
M  V30 4821 H 451.493 3.80616 3.36295 0
M  V30 4822 H 451.423 2.53916 4.61339 0
M  V30 4823 H 453.914 2.16531 3.09714 0
M  V30 4824 H 454.227 4.92596 5.95457 0
M  V30 4825 H 452.572 4.4247 5.35953 0
M  V30 4826 H 455.763 2.75075 3.78749 0
M  V30 4827 H 455.936 4.00946 5.09064 0
M  V30 4828 N 449.342 -1.36122 0.79427 0
M  V30 4829 C 450.289 -2.29982 0.194101 0
M  V30 4830 C 451.259 -1.52214 -0.664833 0
M  V30 4831 O 452.444 -1.80702 -0.612498 0
M  V30 4832 C 449.584 -3.38706 -0.661244 0
M  V30 4833 C 448.697 -4.31456 0.216766 0
M  V30 4834 C 447.832 -5.27265 -0.645411 0
M  V30 4835 C 446.871 -6.11653 0.233756 0
M  V30 4836 N 446.008 -6.99636 -0.587682 0
M  V30 4837 H 450.848 -2.80722 0.999965 0
M  V30 4838 H 448.385 -1.38172 0.504677 0
M  V30 4839 H 450.343 -4.00394 -1.17219 0
M  V30 4840 H 448.973 -2.89274 -1.43249 0
M  V30 4841 H 448.025 -3.7088 0.845724 0
M  V30 4842 H 449.337 -4.90724 0.893973 0
M  V30 4843 H 448.491 -5.94266 -1.22198 0
M  V30 4844 H 447.23 -4.68463 -1.35623 0
M  V30 4845 H 446.235 -5.4361 0.82269 0
M  V30 4846 H 447.46 -6.72531 0.942247 0
M  V30 4847 H 445.406 -6.43337 -1.2827 0
M  V30 4848 H 445.323 -7.55993 0.0317402 0
M  V30 4849 H 446.591 -7.71001 -1.14792 0
M  V30 4850 N 450.82 -0.546701 -1.47814 0
M  V30 4851 C 452.066 -0.0187684 -2.02791 0
M  V30 4852 C 452.399 1.32338 -1.42128 0
M  V30 4853 O 451.674 1.85867 -0.573023 0
M  V30 4854 C 451.957 0.0854985 -3.59998 0
M  V30 4855 C 451.81 -1.283 -4.31114 0
M  V30 4856 C 453.129 0.80412 -4.32691 0
M  V30 4857 H 450.248 -0.0082946 -0.736953 0
M  V30 4858 H 452.89 -0.706962 -1.76358 0
M  V30 4859 H 451.04 0.671609 -3.82651 0
M  V30 4860 H 452.712 -1.91151 -4.19832 0
M  V30 4861 H 450.955 -1.86049 -3.91878 0
M  V30 4862 H 451.626 -1.16287 -5.39612 0
M  V30 4863 H 454.102 0.306576 -4.14969 0
M  V30 4864 H 452.978 0.846011 -5.42341 0
M  V30 4865 H 453.239 1.85802 -4.01161 0
M  V30 4866 N 452.299 1.55045 -0.282633 0
M  V30 4867 C 453.229 2.2579 0.595066 0
M  V30 4868 C 454.21 1.25074 1.15284 0
M  V30 4869 O 455.395 1.5381 1.18559 0
M  V30 4870 C 452.525 2.98472 1.77572 0
M  V30 4871 C 451.479 4.0618 1.34914 0
M  V30 4872 C 450.805 4.66477 2.6135 0
M  V30 4873 C 452.105 5.1996 0.493821 0
M  V30 4874 H 453.799 2.994 0.00505653 0
M  V30 4875 H 451.345 1.44 0.000992001 0
M  V30 4876 H 453.298 3.46677 2.39568 0
M  V30 4877 H 452.022 2.2241 2.39168 0
M  V30 4878 H 450.681 3.58797 0.752338 0
M  V30 4879 H 450.329 3.87074 3.2122 0
M  V30 4880 H 450.029 5.39207 2.33516 0
M  V30 4881 H 451.553 5.17435 3.24181 0
M  V30 4882 H 452.967 5.64172 1.01898 0
M  V30 4883 H 451.364 5.99299 0.310047 0
M  V30 4884 H 452.434 4.82462 -0.485593 0
M  V30 4885 N 453.777 0.010035 1.57597 0
M  V30 4886 C 454.707 -0.976857 2.12084 0
M  V30 4887 C 455.688 -1.35191 1.03235 0
M  V30 4888 O 456.873 -1.43389 1.3097 0
M  V30 4889 C 454.003 -2.26548 2.63236 0
M  V30 4890 C 452.957 -2.03175 3.76701 0
M  V30 4891 C 452.283 -3.38138 4.14206 0
M  V30 4892 C 453.583 -1.38625 5.03568 0
M  V30 4893 H 455.277 -0.523145 2.94794 0
M  V30 4894 H 452.823 -0.250195 1.4181 0
M  V30 4895 H 454.776 -2.95952 2.99984 0
M  V30 4896 H 453.5 -2.74051 1.77661 0
M  V30 4897 H 452.159 -1.36195 3.40362 0
M  V30 4898 H 451.807 -3.83363 3.25641 0
M  V30 4899 H 451.507 -3.23312 4.90656 0
M  V30 4900 H 453.031 -4.08841 4.53521 0
M  V30 4901 H 454.445 -1.98 5.38023 0
M  V30 4902 H 452.842 -1.34256 5.84889 0
M  V30 4903 H 453.912 -0.356722 4.83586 0
M  V30 4904 N 455.255 -1.55392 -0.262866 0
M  V30 4905 C 456.532 -1.67204 -1.01499 0
M  V30 4906 C 456.912 -0.545186 -2.03939 0
M  V30 4907 O 456.26 0.453467 -2.23955 0
M  V30 4908 C 456.47 -3.06847 -1.6627 0
M  V30 4909 C 457.818 -3.64928 -2.17054 0
M  V30 4910 O 458.842 -3.09545 -1.76239 0
M  V30 4911 O 457.701 -4.61984 -2.91947 0
M  V30 4912 H 454.795 -0.679467 -0.471438 0
M  V30 4913 H 457.341 -1.67729 -0.257918 0
M  V30 4914 H 456.113 -3.80309 -0.920915 0
M  V30 4915 H 455.736 -3.10266 -2.48638 0
M  V30 4916 N 456.733 0.527833 -1.48498 0
M  V30 4917 C 457.981 1.28101 -1.56316 0
M  V30 4918 C 458.302 1.9352 -0.239781 0
M  V30 4919 O 457.572 1.81433 0.738849 0
M  V30 4920 H 456.152 0.475793 -0.575873 0
M  V30 4921 H 458.814 0.614052 -1.84974 0
M  V30 4922 H 457.91 2.05916 -2.34532 0
M  V30 4923 N 458.211 1.37122 0.776871 0
M  V30 4924 C 459.457 1.32243 1.53752 0
M  V30 4925 C 459.79 -0.0944745 1.9397 0
M  V30 4926 O 459.065 -1.05068 1.6368 0
M  V30 4927 C 459.348 2.25681 2.80607 0
M  V30 4928 C 459.201 3.76127 2.46676 0
M  V30 4929 C 460.52 2.17657 3.82509 0
M  V30 4930 H 457.639 0.481704 0.557791 0
M  V30 4931 H 460.281 1.6778 0.891612 0
M  V30 4932 H 458.431 1.95505 3.35723 0
M  V30 4933 H 460.103 4.16877 1.97513 0
M  V30 4934 H 458.346 3.94946 1.79443 0
M  V30 4935 H 459.017 4.36933 3.37333 0
M  V30 4936 H 461.493 2.44245 3.36873 0
M  V30 4937 H 460.369 2.85185 4.69 0
M  V30 4938 H 460.63 1.16785 4.26396 0
M  V30 4939 N 459.689 -1.00246 1.21608 0
M  V30 4940 C 460.621 -2.09244 0.935401 0
M  V30 4941 C 461.634 -1.62592 -0.0823594 0
M  V30 4942 O 462.823 -1.77865 0.150456 0
M  V30 4943 C 459.923 -3.36724 0.383453 0
M  V30 4944 C 459.096 -4.1245 1.45615 0
M  V30 4945 C 458.155 -5.18219 0.912991 0
M  V30 4946 O 457.181 -5.46337 1.59701 0
M  V30 4947 N 458.383 -5.7987 -0.270478 0
M  V30 4948 H 461.148 -2.33905 1.87373 0
M  V30 4949 H 458.709 -1.16748 1.12167 0
M  V30 4950 H 460.701 -4.047 0.00562157 0
M  V30 4951 H 459.271 -3.09201 -0.459758 0
M  V30 4952 H 458.491 -3.39241 2.00772 0
M  V30 4953 H 459.779 -4.59819 2.17817 0
M  V30 4954 H 459.177 -5.59381 -0.843195 0
M  V30 4955 H 457.734 -6.49126 -0.589794 0
M  V30 4956 N 461.167 -1.02423 -1.1978 0
M  V30 4957 C 462.115 -0.594474 -2.24875 0
M  V30 4958 C 463.109 0.370598 -1.65296 0
M  V30 4959 O 464.315 0.239684 -1.78397 0
M  V30 4960 H 460.69 -0.173961 -0.731602 0
M  V30 4961 H 462.661 -1.4916 -2.58445 0
M  V30 4962 C 461.41 0.0436512 -3.47673 0
M  V30 4963 H 460.733 -0.689963 -3.93801 0
M  V30 4964 H 462.173 0.307362 -4.22884 0
M  V30 4965 C 460.632 1.28881 -3.11274 0
M  V30 4966 O 461.162 2.38135 -3.23503 0
M  V30 4967 N 459.368 1.1758 -2.6575 0
M  V30 4968 H 458.915 0.286769 -2.55999 0
M  V30 4969 H 458.873 2.00988 -2.41767 0
M  V30 4970 N 462.645 1.35699 -0.801477 0
M  V30 4971 C 464.056 1.81415 -0.441073 0
M  V30 4972 C 464.407 1.66595 1.03636 0
M  V30 4973 O 463.532 1.19369 1.80499 0
M  V30 4974 C 464.127 3.29369 -0.793819 0
M  V30 4975 C 462.686 3.73248 -0.486083 0
M  V30 4976 C 461.833 2.57775 -1.02213 0
M  V30 4977 H 464.784 1.23749 -0.993572 0
M  V30 4978 H 464.805 3.80395 -0.0894158 0
M  V30 4979 H 464.317 3.40123 -1.86917 0
M  V30 4980 H 462.418 3.68046 0.580735 0
M  V30 4981 H 462.531 4.68222 -1.01513 0
M  V30 4982 H 460.895 2.50788 -0.444712 0
M  V30 4983 H 461.678 2.71309 -2.10348 0
M  V30 4984 N 464.123 0.554532 1.47522 0
M  V30 4985 C 465.539 0.214107 1.58157 0
M  V30 4986 C 465.739 -1.28331 1.55349 0
M  V30 4987 O 464.795 -2.06329 1.45549 0
M  V30 4988 C 466.108 0.838391 2.88776 0
M  V30 4989 C 467.656 0.809374 3.02354 0
M  V30 4990 C 468.131 1.41268 4.35669 0
M  V30 4991 N 469.622 1.37574 4.42298 0
M  V30 4992 C 470.357 1.8122 5.4401 0
M  V30 4993 N 469.853 2.3271 6.52547 0
M  V30 4994 N 471.646 1.72307 5.35039 0
M  V30 4995 H 463.797 1.52744 1.4759 0
M  V30 4996 H 466.06 0.636812 0.702264 0
M  V30 4997 H 465.766 1.89065 2.96559 0
M  V30 4998 H 465.64 0.329847 3.75755 0
M  V30 4999 H 468.027 -0.234187 2.94169 0
M  V30 5000 H 468.108 1.35565 2.16924 0
M  V30 5001 H 467.752 2.45529 4.4461 0
M  V30 5002 H 467.682 0.841871 5.19827 0
M  V30 5003 H 470.173 0.999081 3.64454 0
M  V30 5004 H 470.486 2.63944 7.26329 0
M  V30 5005 H 468.831 2.36719 6.53444 0
M  V30 5006 H 472.022 1.3186 4.49144 0
M  V30 5007 H 472.195 2.06641 6.14169 0
M  V30 5008 N 465.601 -1.54893 0.290851 0
M  V30 5009 C 466.564 -2.21824 -0.576784 0
M  V30 5010 C 467.564 -1.20104 -1.06919 0
M  V30 5011 O 468.754 -1.44906 -0.966843 0
M  V30 5012 C 465.886 -2.89662 -1.79747 0
M  V30 5013 H 467.079 -2.99899 0.00784051 0
M  V30 5014 H 464.632 -1.56245 0.0415934 0
M  V30 5015 H 465.367 -2.15639 -2.42219 0
M  V30 5016 H 465.152 -3.64219 -1.45214 0
M  V30 5017 H 466.642 -3.4075 -2.4141 0
M  V30 5018 N 467.08 -0.0183926 -1.57589 0
M  V30 5019 C 467.99 0.982943 -2.13015 0
M  V30 5020 C 469.006 1.36443 -1.07979 0
M  V30 5021 O 470.182 1.44802 -1.3998 0
M  V30 5022 C 467.247 2.25024 -2.63752 0
M  V30 5023 C 466.308 1.93018 -3.83461 0
M  V30 5024 C 465.541 3.13706 -4.31769 0
M  V30 5025 O 465.764 4.2601 -3.79305 0
M  V30 5026 O 464.698 2.96629 -5.23732 0
M  V30 5027 H 468.524 0.541709 -2.9883 0
M  V30 5028 H 466.109 0.201565 -1.48034 0
M  V30 5029 H 467.991 2.99441 -2.96502 0
M  V30 5030 H 466.666 2.68349 -1.81026 0
M  V30 5031 H 465.573 1.16019 -3.55655 0
M  V30 5032 H 466.906 1.54516 -4.67317 0
M  V30 5033 N 468.558 1.5553 0.254621 0
M  V30 5034 C 469.835 1.6774 1.00611 0
M  V30 5035 C 470.215 0.555993 2.03647 0
M  V30 5036 O 469.563 -0.441583 2.24193 0
M  V30 5037 C 469.773 3.07725 1.6464 0
M  V30 5038 C 471.121 3.66074 2.15116 0
M  V30 5039 O 472.145 3.10476 1.74595 0
M  V30 5040 O 471.004 4.63526 2.89493 0
M  V30 5041 H 468.098 0.681958 0.467828 0
M  V30 5042 H 470.644 1.67863 0.24902 0
M  V30 5043 H 469.416 3.80792 0.900734 0
M  V30 5044 H 469.039 3.1158 2.46989 0
M  V30 5045 N 470.036 -0.519951 1.48776 0
M  V30 5046 C 470.966 -1.63253 1.66945 0
M  V30 5047 C 471.947 -1.62014 0.518224 0
M  V30 5048 O 473.132 -1.79053 0.751919 0
M  V30 5049 C 470.262 -3.0181 1.71836 0
M  V30 5050 C 469.216 -3.17911 2.8656 0
M  V30 5051 C 468.542 -4.5763 2.76548 0
M  V30 5052 C 469.842 -2.99729 4.27738 0
M  V30 5053 H 471.536 -1.48302 2.6009 0
M  V30 5054 H 469.082 -0.712026 1.25165 0
M  V30 5055 H 471.035 -3.79525 1.83135 0
M  V30 5056 H 469.759 -3.17806 0.752775 0
M  V30 5057 H 468.418 -2.42616 2.74833 0
M  V30 5058 H 468.066 -4.70476 1.77937 0
M  V30 5059 H 467.766 -4.69346 3.53536 0
M  V30 5060 H 469.29 -5.37431 2.89828 0
M  V30 5061 H 470.704 -3.67228 4.40246 0
M  V30 5062 H 469.101 -3.22932 5.05801 0
M  V30 5063 H 470.171 -1.96047 4.43502 0
M  V30 5064 N 471.514 -1.37532 -0.769588 0
M  V30 5065 C 472.76 -1.33057 -1.53048 0
M  V30 5066 C 473.093 0.0841865 -1.94017 0
M  V30 5067 O 472.368 1.04198 -1.64235 0
M  V30 5068 C 472.651 -2.27166 -2.79406 0
M  V30 5069 C 472.504 -3.77429 -2.44677 0
M  V30 5070 C 473.823 -2.19683 -3.81349 0
M  V30 5071 H 470.942 -0.484655 -0.555228 0
M  V30 5072 H 473.584 -1.68251 -0.882702 0
M  V30 5073 H 471.734 -1.97283 -3.34682 0
M  V30 5074 H 473.406 -4.17918 -1.953 0
M  V30 5075 H 471.649 -3.95892 -1.77346 0
M  V30 5076 H 472.32 -4.38716 -3.35011 0
M  V30 5077 H 474.796 -2.46029 -3.35573 0
M  V30 5078 H 473.672 -2.87668 -4.67481 0
M  V30 5079 H 473.933 -1.19045 -4.25771 0
M  V30 5080 N 472.992 0.995999 -1.22138 0
M  V30 5081 C 474.24 1.73167 -1.042 0
M  V30 5082 C 474.561 1.90329 0.42423 0
M  V30 5083 O 473.831 1.4607 1.30539 0
M  V30 5084 H 472.411 0.641593 -0.38258 0
M  V30 5085 H 475.073 1.19974 -1.53598 0
M  V30 5086 H 474.169 2.72734 -1.51731 0
M  V30 5087 N 474.47 1.03057 1.19235 0
M  V30 5088 C 475.417 0.612832 2.22515 0
M  V30 5089 C 476.387 -0.374224 1.61829 0
M  V30 5090 O 477.572 -0.270501 1.88873 0
M  V30 5091 C 474.712 -0.028475 3.45088 0
M  V30 5092 C 473.825 1.00483 4.20151 0
M  V30 5093 C 472.96 0.333102 5.30155 0
M  V30 5094 C 471.999 1.3522 5.96977 0
M  V30 5095 N 471.136 0.70616 6.9854 0
M  V30 5096 H 475.976 1.49812 2.57605 0
M  V30 5097 H 473.513 0.749658 1.26564 0
M  V30 5098 H 475.471 -0.417548 4.15105 0
M  V30 5099 H 474.101 -0.877334 3.10649 0
M  V30 5100 H 473.153 1.51194 3.49062 0
M  V30 5101 H 474.465 1.77929 4.65986 0
M  V30 5102 H 473.619 -0.110725 6.06599 0
M  V30 5103 H 472.358 -0.473547 4.85396 0
M  V30 5104 H 471.363 1.80627 5.19282 0
M  V30 5105 H 472.588 2.16037 6.4382 0
M  V30 5106 H 470.534 -0.0803667 6.55951 0
M  V30 5107 H 470.451 1.41848 7.42573 0
M  V30 5108 H 471.719 0.286391 7.78974 0
M  V30 5109 N 475.948 -1.35272 0.808662 0
M  V30 5110 C 477.173 -2.03477 0.401475 0
M  V30 5111 C 477.598 -1.60537 -0.980279 0
M  V30 5112 O 476.956 -0.78304 -1.63518 0
M  V30 5113 C 477.004 -3.57181 0.495354 0
M  V30 5114 O 476.108 -4.09474 -0.490397 0
M  V30 5115 H 475.449 -0.642561 0.167366 0
M  V30 5116 H 477.979 -1.72824 1.09512 0
M  V30 5117 H 477.989 -4.06356 0.365912 0
M  V30 5118 H 476.664 -3.87784 1.5032 0
M  V30 5119 H 475.241 -3.71516 -0.321023 0
M  V30 5120 N 477.426 -0.562348 -1.47226 0
M  V30 5121 C 478.356 0.170627 -2.32876 0
M  V30 5122 C 479.337 0.903748 -1.44106 0
M  V30 5123 O 480.522 0.883206 -1.72954 0
M  V30 5124 C 477.652 1.19786 -3.25989 0
M  V30 5125 C 476.606 0.580875 -4.2404 0
M  V30 5126 C 475.932 1.71311 -5.06514 0
M  V30 5127 C 477.232 -0.468714 -5.20193 0
M  V30 5128 H 478.926 -0.544441 -2.94408 0
M  V30 5129 H 476.472 -0.263271 -1.41573 0
M  V30 5130 H 478.425 1.71884 -3.84752 0
M  V30 5131 H 477.149 1.94294 -2.62521 0
M  V30 5132 H 475.808 0.0811538 -3.6651 0
M  V30 5133 H 475.456 2.44736 -4.39447 0
M  V30 5134 H 475.156 1.30604 -5.72902 0
M  V30 5135 H 476.68 2.23725 -5.68137 0
M  V30 5136 H 478.094 -0.0336028 -5.7329 0
M  V30 5137 H 476.491 -0.794957 -5.94811 0
M  V30 5138 H 477.561 -1.36269 -4.65359 0
M  V30 5139 N 478.904 1.54736 -0.299062 0
M  V30 5140 C 480.134 2.04215 0.312992 0
M  V30 5141 C 480.542 1.17596 1.48215 0
M  V30 5142 O 479.885 0.193835 1.82674 0
M  V30 5143 C 479.947 3.49696 0.833862 0
M  V30 5144 C 479.611 4.56518 -0.20977 0
M  V30 5145 C 480.608 5.09442 -1.03756 0
M  V30 5146 C 478.293 5.01073 -0.35091 0
M  V30 5147 C 480.287 6.05459 -1.99244 0
M  V30 5148 C 477.974 5.9691 -1.30924 0
M  V30 5149 C 478.972 6.48987 -2.1285 0
M  V30 5150 O 478.66 7.42947 -3.07059 0
M  V30 5151 H 478.392 0.672128 0.0722494 0
M  V30 5152 H 480.946 2.00718 -0.436043 0
M  V30 5153 H 479.176 3.5051 1.63339 0
M  V30 5154 H 480.865 3.82381 1.36159 0
M  V30 5155 H 481.631 4.75816 -0.939376 0
M  V30 5156 H 477.51 4.60168 0.276813 0
M  V30 5157 H 481.054 6.46031 -2.63229 0
M  V30 5158 H 476.951 6.29953 -1.40815 0
M  V30 5159 H 477.719 7.60743 -3.02015 0
M  V30 5160 N 480.382 0.0267497 1.57577 0
M  V30 5161 C 481.628 -0.653371 1.91987 0
M  V30 5162 C 481.961 -1.71915 0.903263 0
M  V30 5163 O 481.236 -1.94358 -0.0743387 0
M  V30 5164 C 481.519 -1.272 3.36886 0
M  V30 5165 C 481.372 -0.215938 4.49281 0
M  V30 5166 C 482.691 -2.19069 3.81703 0
M  V30 5167 H 479.81 -0.236047 0.698177 0
M  V30 5168 H 482.452 0.0835236 1.89816 0
M  V30 5169 H 480.602 -1.90005 3.38866 0
M  V30 5170 H 482.274 0.41449 4.59434 0
M  V30 5171 H 480.517 0.458855 4.31366 0
M  V30 5172 H 481.188 -0.688347 5.47691 0
M  V30 5173 H 483.664 -1.66253 3.81444 0
M  V30 5174 H 482.54 -2.59307 4.83788 0
M  V30 5175 H 482.801 -3.08087 3.17072 0
M  V30 5176 N 481.861 -1.55662 -0.24637 0
M  V30 5177 C 483.086 -1.81914 -0.996093 0
M  V30 5178 C 483.511 -0.603875 -1.78143 0
M  V30 5179 O 482.869 0.447091 -1.75701 0
M  V30 5180 C 482.917 -3.05908 -1.90925 0
M  V30 5181 O 482.021 -2.82861 -3.00105 0
M  V30 5182 H 481.362 -0.600481 -0.283406 0
M  V30 5183 H 483.892 -2.02848 -0.267199 0
M  V30 5184 H 483.902 -3.35356 -2.3238 0
M  V30 5185 H 482.577 -3.93999 -1.33183 0
M  V30 5186 H 481.154 -2.64583 -2.62775 0
M  V30 5187 N 483.339 0.512053 -1.4905 0
M  V30 5188 C 484.302 1.59704 -1.64399 0
M  V30 5189 C 485.302 1.52285 -0.516317 0
M  V30 5190 O 486.492 1.55635 -0.782527 0
M  V30 5191 C 483.624 2.9935 -1.63102 0
M  V30 5192 H 484.817 1.47428 -2.61161 0
M  V30 5193 H 482.37 0.735469 -1.37915 0
M  V30 5194 H 483.105 3.17116 -0.678836 0
M  V30 5195 H 482.89 3.06144 -2.44986 0
M  V30 5196 H 484.38 3.782 -1.77072 0
M  V30 5197 N 484.817 1.37938 0.762283 0
M  V30 5198 C 486.045 1.36883 1.55147 0
M  V30 5199 C 486.46 -0.0435348 1.8875 0
M  V30 5200 O 485.817 -1.00786 1.52146 0
M  V30 5201 C 485.868 2.21624 2.85596 0
M  V30 5202 O 485.589 3.57358 2.5343 0
M  V30 5203 C 487.09 2.28653 3.7978 0
M  V30 5204 H 484.31 0.468521 0.480343 0
M  V30 5205 H 486.854 1.81404 0.944079 0
M  V30 5206 H 485.009 1.80588 3.42734 0
M  V30 5207 H 485.423 4.01883 3.37032 0
M  V30 5208 H 486.897 2.9225 4.68288 0
M  V30 5209 H 487.374 1.29767 4.19592 0
M  V30 5210 H 487.98 2.70043 3.28568 0
M  V30 5211 N 486.295 -0.989507 1.22664 0
M  V30 5212 C 487.541 -1.7321 1.05481 0
M  V30 5213 C 487.874 -1.89852 -0.408635 0
M  V30 5214 O 487.149 -1.44416 -1.30285 0
M  V30 5215 C 487.432 -3.1357 1.77047 0
M  V30 5216 C 487.285 -3.04555 3.31008 0
M  V30 5217 C 488.604 -4.12812 1.5256 0
M  V30 5218 H 485.723 -0.628697 0.384589 0
M  V30 5219 H 488.365 -1.15258 1.51049 0
M  V30 5220 H 486.515 -3.63046 1.3831 0
M  V30 5221 H 488.187 -2.62674 3.7921 0
M  V30 5222 H 486.43 -2.41278 3.6051 0
M  V30 5223 H 487.101 -4.03894 3.76263 0
M  V30 5224 H 489.577 -3.72106 1.86215 0
M  V30 5225 H 488.453 -5.09132 2.05124 0
M  V30 5226 H 488.714 -4.39711 0.458936 0
M  V30 5227 N 487.773 -1.03688 -1.18687 0
M  V30 5228 C 489.022 -0.733235 -1.879 0
M  V30 5229 C 489.335 0.741745 -1.8099 0
M  V30 5230 O 490.541 1.15875 -2.4553 0
M  V30 5231 C 488.997 -1.26127 -3.37076 0
M  V30 5232 C 488.605 -2.76461 -3.52524 0
M  V30 5233 C 490.349 -1.03398 -4.11715 0
M  V30 5234 C 488.256 -3.22642 -4.95637 0
M  V30 5235 H 487.186 -0.270584 -0.703776 0
M  V30 5236 H 489.837 -1.25222 -1.34133 0
M  V30 5237 H 488.219 -0.670165 -3.90288 0
M  V30 5238 H 489.393 -3.41296 -3.09602 0
M  V30 5239 H 487.708 -2.97559 -2.91286 0
M  V30 5240 H 490.305 -1.3542 -5.17267 0
M  V30 5241 H 490.648 0.0289246 -4.1629 0
M  V30 5242 H 491.181 -1.5895 -3.64664 0
M  V30 5243 H 487.92 -4.28296 -4.96228 0
M  V30 5244 H 487.44 -2.62539 -5.39289 0
M  V30 5245 H 489.119 -3.16444 -5.64333 0
M  V30 5246 N 489.251 1.34841 -0.815825 0
M  V30 5247 C 490.181 2.32187 -0.247298 0
M  V30 5248 C 491.162 1.5791 0.632344 0
M  V30 5249 O 492.347 1.8593 0.560698 0
M  V30 5250 C 489.477 3.42122 0.597466 0
M  V30 5251 C 488.431 4.27602 -0.184446 0
M  V30 5252 C 487.757 5.28942 0.782609 0
M  V30 5253 C 489.057 5.03502 -1.38865 0
M  V30 5254 H 490.751 2.79985 -1.06061 0
M  V30 5255 H 488.297 1.34611 -0.511461 0
M  V30 5256 H 490.25 4.09232 1.00533 0
M  V30 5257 H 488.974 2.92956 1.44376 0
M  V30 5258 H 487.633 3.62085 -0.573592 0
M  V30 5259 H 487.281 4.7604 1.62466 0
M  V30 5260 H 486.981 5.87008 0.263695 0
M  V30 5261 H 488.505 5.98922 1.18848 0
M  V30 5262 H 489.919 5.63506 -1.05518 0
M  V30 5263 H 488.316 5.71108 -1.8427 0
M  V30 5264 H 489.386 4.33608 -2.17054 0
M  V30 5265 N 490.729 0.570148 1.46925 0
M  V30 5266 C 491.679 -0.190921 2.27199 0
M  V30 5267 C 492.663 -0.873457 1.35128 0
M  V30 5268 O 493.855 -0.769627 1.59392 0
M  V30 5269 C 490.984 -1.21204 3.21192 0
M  V30 5270 C 490.07 -0.532261 4.20747 0
M  V30 5271 N 490.461 0.405038 5.04176 0
M  V30 5272 C 488.759 -0.784582 4.39045 0
M  V30 5273 C 489.46 0.801149 5.76157 0
M  V30 5274 N 488.436 0.153082 5.43384 0
M  V30 5275 H 492.238 0.529535 2.8909 0
M  V30 5276 H 489.752 0.391019 1.57622 0
M  V30 5277 H 491.749 -1.77135 3.77398 0
M  V30 5278 H 490.409 -1.93345 2.6086 0
M  V30 5279 H 491.42 0.779903 5.11994 0
M  V30 5280 H 488.097 -1.49352 3.89872 0
M  V30 5281 H 489.487 1.57208 6.5325 0
M  V30 5282 N 492.207 -1.54576 0.307264 0
M  V30 5283 C 493.432 -2.05139 -0.305379 0
M  V30 5284 C 493.857 -1.18278 -1.46259 0
M  V30 5285 O 493.215 -0.188243 -1.8032 0
M  V30 5286 C 493.263 -3.53066 -0.733283 0
M  V30 5287 O 492.367 -3.69206 -1.83741 0
M  V30 5288 H 491.708 -0.661444 -0.0582105 0
M  V30 5289 H 494.238 -1.99569 0.450931 0
M  V30 5290 H 494.248 -3.95034 -1.02039 0
M  V30 5291 H 492.923 -4.15746 0.113198 0
M  V30 5292 H 491.5 -3.39143 -1.55037 0
M  V30 5293 N 493.685 -0.035106 -1.57561 0
M  V30 5294 C 494.933 0.64096 -1.91667 0
M  V30 5295 C 495.254 1.72323 -0.912681 0
M  V30 5296 O 494.524 1.95849 0.0449089 0
M  V30 5297 H 493.104 0.239743 -0.707483 0
M  V30 5298 H 495.766 -0.084321 -1.94718 0
M  V30 5299 H 494.862 1.08987 -2.92452 0
M  V30 5300 N 495.163 1.55791 0.238111 0
M  V30 5301 C 496.388 1.8244 0.986432 0
M  V30 5302 C 496.813 0.613314 1.7782 0
M  V30 5303 O 496.171 -0.437767 1.75935 0
M  V30 5304 C 496.219 3.06917 1.893 0
M  V30 5305 O 495.323 2.84449 2.98601 0
M  V30 5306 H 494.664 0.601975 0.280218 0
M  V30 5307 H 497.194 2.02987 0.256437 0
M  V30 5308 H 497.204 3.36583 2.30598 0
M  V30 5309 H 495.879 3.947 1.31091 0
M  V30 5310 H 494.456 2.65972 2.61368 0
M  V30 5311 N 496.642 -0.504142 1.49319 0
M  V30 5312 C 497.919 -1.26548 1.49147 0
M  V30 5313 C 498.299 -2.09977 0.21744 0
M  V30 5314 O 497.647 -2.14028 -0.800269 0
M  V30 5315 C 497.857 -2.12489 2.76857 0
M  V30 5316 C 499.205 -2.7178 3.26222 0
M  V30 5317 O 500.229 -2.22758 2.77952 0
M  V30 5318 O 499.088 -3.61015 4.10281 0
M  V30 5319 H 496.182 -0.572495 0.596806 0
M  V30 5320 H 498.728 -0.51867 1.61579 0
M  V30 5321 H 497.5 -1.50796 3.61077 0
M  V30 5322 H 497.123 -2.94368 2.6727 0
M  V30 5323 N 498.12 -1.38341 -0.754957 0
M  V30 5324 C 499.053 -1.29837 -1.87663 0
M  V30 5325 C 500.031 -0.175659 -1.61648 0
M  V30 5326 O 501.215 -0.352745 -1.8517 0
M  V30 5327 C 498.342 -1.01141 -3.23246 0
M  V30 5328 C 497.388 -2.15331 -3.6815 0
M  V30 5329 S 498.221 -3.77459 -3.79849 0
M  V30 5330 C 499.377 -3.50948 -5.18253 0
M  V30 5331 H 499.61 -2.24771 -1.9459 0
M  V30 5332 H 497.143 -1.24161 -0.917796 0
M  V30 5333 H 499.101 -0.852687 -4.01546 0
M  V30 5334 H 497.762 -0.0792784 -3.14 0
M  V30 5335 H 496.955 -1.90795 -4.6649 0
M  V30 5336 H 496.557 -2.27304 -2.97 0
M  V30 5337 H 498.849 -3.06977 -6.03963 0
M  V30 5338 H 499.792 -4.48677 -5.47809 0
M  V30 5339 H 500.2 -2.85492 -4.86985 0
M  V30 5340 N 499.598 0.982988 -1.23187 0
M  V30 5341 C 500.844 1.72648 -1.06398 0
M  V30 5342 C 501.177 1.90066 0.398561 0
M  V30 5343 O 500.452 1.45105 1.29518 0
M  V30 5344 C 500.735 3.12627 -1.78707 0
M  V30 5345 C 500.588 3.02795 -3.32618 0
M  V30 5346 C 501.907 4.11997 -1.54747 0
M  V30 5347 H 499.026 0.626649 -0.387918 0
M  V30 5348 H 501.668 1.14455 -1.51658 0
M  V30 5349 H 499.818 3.62308 -1.40234 0
M  V30 5350 H 501.49 2.60659 -3.80598 0
M  V30 5351 H 499.733 2.39362 -3.61785 0
M  V30 5352 H 500.404 4.01893 -3.78399 0
M  V30 5353 H 502.88 3.71114 -1.88186 0
M  V30 5354 H 501.756 5.08037 -2.07821 0
M  V30 5355 H 502.017 4.39462 -0.482249 0
M  V30 5356 N 501.076 1.04316 1.18135 0
M  V30 5357 C 502.008 0.594444 2.21357 0
M  V30 5358 C 503.021 -0.337215 1.59269 0
M  V30 5359 O 504.21 -0.131337 1.78016 0
M  V30 5360 C 501.31 -0.151251 3.38562 0
M  V30 5361 C 500.483 0.788907 4.30227 0
M  V30 5362 C 499.542 0.0860572 5.2613 0
M  V30 5363 O 498.568 0.717302 5.64662 0
M  V30 5364 N 499.77 -1.17969 5.68387 0
M  V30 5365 H 502.535 1.48227 2.60478 0
M  V30 5366 H 500.096 0.92396 1.32946 0
M  V30 5367 H 502.088 -0.631352 3.99745 0
M  V30 5368 H 500.658 -0.940639 2.98112 0
M  V30 5369 H 499.878 1.44882 3.6661 0
M  V30 5370 H 501.166 1.42738 4.88368 0
M  V30 5371 H 500.564 -1.71302 5.3914 0
M  V30 5372 H 499.121 -1.60402 6.31755 0
M  V30 5373 N 502.554 -1.34406 0.822964 0
M  V30 5374 C 503.517 -2.2783 0.250271 0
M  V30 5375 C 504.517 -1.50288 -0.571854 0
M  V30 5376 O 505.707 -1.69825 -0.387952 0
M  V30 5377 C 502.839 -3.34663 -0.649137 0
M  V30 5378 H 504.032 -2.79992 1.07444 0
M  V30 5379 H 501.585 -1.44539 0.594829 0
M  V30 5380 H 502.32 -2.87714 -1.49637 0
M  V30 5381 H 502.105 -3.92052 -0.0611199 0
M  V30 5382 H 503.595 -4.04349 -1.04363 0
M  V30 5383 N 504.032 -0.577932 -1.46621 0
M  V30 5384 C 504.942 0.160651 -2.34049 0
M  V30 5385 C 505.958 0.890911 -1.49462 0
M  V30 5386 O 507.134 0.855166 -1.82343 0
M  V30 5387 C 504.199 1.16447 -3.26559 0
M  V30 5388 C 503.26 0.4394 -4.27045 0
M  V30 5389 C 502.493 1.3954 -5.15135 0
M  V30 5390 O 502.716 2.63162 -5.06065 0
M  V30 5391 O 501.65 0.908585 -5.95003 0
M  V30 5392 H 505.476 -0.557057 -2.98547 0
M  V30 5393 H 503.061 -0.338369 -1.45518 0
M  V30 5394 H 504.943 1.7434 -3.83645 0
M  V30 5395 H 503.618 1.86373 -2.64663 0
M  V30 5396 H 502.525 -0.181247 -3.73661 0
M  V30 5397 H 503.858 -0.218799 -4.91713 0
M  V30 5398 N 505.51 1.54411 -0.315457 0
M  V30 5399 C 506.926 1.59556 0.037464 0
M  V30 5400 C 507.126 1.33217 1.5118 0
M  V30 5401 O 506.182 1.11264 2.26664 0
M  V30 5402 C 507.495 2.98372 -0.373477 0
M  V30 5403 C 509.043 3.11324 -0.323452 0
M  V30 5404 C 509.518 4.52472 -0.709433 0
M  V30 5405 N 511.009 4.58437 -0.662524 0
M  V30 5406 C 511.744 5.65751 -0.933474 0
M  V30 5407 N 511.24 6.81039 -1.27114 0
M  V30 5408 N 513.033 5.55489 -0.859573 0
M  V30 5409 H 505.184 1.6979 -1.27614 0
M  V30 5410 H 507.447 0.793732 -0.518356 0
M  V30 5411 H 507.153 3.22618 -1.40037 0
M  V30 5412 H 507.027 3.76264 0.265615 0
M  V30 5413 H 509.414 2.86818 0.694223 0
M  V30 5414 H 509.495 2.35555 -0.997367 0
M  V30 5415 H 509.139 4.7771 -1.72498 0
M  V30 5416 H 509.069 5.26598 -0.0132923 0
M  V30 5417 H 511.56 3.75636 -0.413065 0
M  V30 5418 H 511.873 7.58816 -1.46348 0
M  V30 5419 H 510.218 6.82555 -1.30932 0
M  V30 5420 H 513.409 4.64299 -0.595324 0
M  V30 5421 H 513.582 6.39036 -1.0741 0
M  V30 5422 N 506.988 0.0434614 1.5754 0
M  V30 5423 C 508.213 -0.645358 1.97104 0
M  V30 5424 C 508.638 -1.64037 0.920521 0
M  V30 5425 O 507.996 -1.80922 -0.11708 0
M  V30 5426 C 508.044 -1.31547 3.35749 0
M  V30 5427 O 507.148 -2.43103 3.33129 0
M  V30 5428 H 506.489 -0.168403 0.64229 0
M  V30 5429 H 509.019 0.109573 2.04306 0
M  V30 5430 H 509.029 -1.66895 3.72304 0
M  V30 5431 H 507.704 -0.586205 4.11748 0
M  V30 5432 H 506.281 -2.0976 3.0831 0
M  V30 5433 N 508.466 -1.55915 -0.229846 0
M  V30 5434 C 509.714 -1.7819 -0.953565 0
M  V30 5435 C 510.035 -0.610504 -1.85197 0
M  V30 5436 O 509.305 0.372988 -1.92316 0
M  V30 5437 H 507.885 -0.657208 -0.355087 0
M  V30 5438 H 510.547 -1.9337 -0.243693 0
M  V30 5439 H 509.643 -2.70011 -1.56527 0
M  V30 5440 N 509.944 0.496216 -1.49584 0
M  V30 5441 C 511.193 1.24668 -1.58558 0
M  V30 5442 C 511.506 1.9359 -0.279703 0
M  V30 5443 O 512.712 2.70365 -0.248048 0
M  V30 5444 C 511.168 2.26388 -2.79779 0
M  V30 5445 C 510.776 1.63384 -4.17145 0
M  V30 5446 C 512.52 3.02233 -2.98086 0
M  V30 5447 C 510.427 2.63243 -5.29582 0
M  V30 5448 H 509.357 0.468995 -0.590389 0
M  V30 5449 H 512.008 0.519985 -1.75978 0
M  V30 5450 H 510.39 3.02241 -2.55863 0
M  V30 5451 H 511.564 0.93491 -4.51216 0
M  V30 5452 H 509.879 0.999121 -4.04236 0
M  V30 5453 H 512.476 3.76919 -3.79257 0
M  V30 5454 H 512.819 3.60132 -2.08831 0
M  V30 5455 H 513.352 2.33495 -3.22063 0
M  V30 5456 H 510.091 2.10119 -6.20911 0
M  V30 5457 H 509.611 3.31363 -4.99959 0
M  V30 5458 H 511.29 3.25575 -5.59115 0
M  V30 5459 N 511.423 1.38739 0.74761 0
M  V30 5460 C 512.834 1.31507 1.32524 0
M  V30 5461 C 513.185 -0.0263963 1.96182 0
M  V30 5462 O 512.31 -0.92849 1.95469 0
M  V30 5463 C 512.905 2.38162 2.40966 0
M  V30 5464 C 511.464 2.34489 2.94434 0
M  V30 5465 C 510.611 2.20712 1.67873 0
M  V30 5466 H 513.562 1.4901 0.546043 0
M  V30 5467 H 513.583 2.04222 3.21051 0
M  V30 5468 H 513.095 3.35783 1.94605 0
M  V30 5469 H 511.196 1.40467 3.45108 0
M  V30 5470 H 511.309 3.28861 3.48407 0
M  V30 5471 H 509.673 1.67667 1.91729 0
M  V30 5472 H 510.456 3.20285 1.23582 0
M  V30 5473 N 512.901 -0.976442 1.23707 0
M  V30 5474 C 514.15 -1.71254 1.06559 0
M  V30 5475 C 514.463 -1.91528 -0.397024 0
M  V30 5476 O 515.669 -2.62625 -0.688518 0
M  V30 5477 C 514.125 -3.08207 1.8584 0
M  V30 5478 C 513.733 -2.95806 3.36456 0
M  V30 5479 C 515.477 -3.85749 1.77194 0
M  V30 5480 C 513.384 -4.28015 4.08114 0
M  V30 5481 H 512.314 -0.642171 0.395136 0
M  V30 5482 H 514.965 -1.08877 1.4771 0
M  V30 5483 H 513.347 -3.71363 1.37498 0
M  V30 5484 H 514.521 -2.41716 3.92314 0
M  V30 5485 H 512.836 -2.31736 3.45959 0
M  V30 5486 H 515.433 -4.83633 2.28041 0
M  V30 5487 H 515.776 -4.09752 0.735477 0
M  V30 5488 H 516.309 -3.29303 2.23169 0
M  V30 5489 H 513.048 -4.09208 5.12083 0
M  V30 5490 H 512.568 -4.81955 3.57043 0
M  V30 5491 H 514.247 -4.96681 4.14629 0
M  V30 5492 N 514.379 -1.04941 -1.1758 0
M  V30 5493 C 515.625 -0.759112 -1.88057 0
M  V30 5494 C 515.958 0.711918 -1.8068 0
M  V30 5495 O 515.233 1.52035 -1.21308 0
M  V30 5496 C 515.516 -1.237 -3.38187 0
M  V30 5497 C 515.369 -2.77078 -3.54327 0
M  V30 5498 C 516.688 -0.834014 -4.32125 0
M  V30 5499 H 513.807 -0.277237 -0.682868 0
M  V30 5500 H 516.449 -1.30296 -1.38286 0
M  V30 5501 H 514.599 -0.774337 -3.80705 0
M  V30 5502 H 516.271 -3.31449 -3.20842 0
M  V30 5503 H 514.514 -3.16477 -2.96689 0
M  V30 5504 H 515.185 -3.05577 -4.59703 0
M  V30 5505 H 517.661 -1.23228 -3.97434 0
M  V30 5506 H 516.537 -1.19603 -5.35711 0
M  V30 5507 H 516.798 0.262195 -4.41322 0
M  V30 5508 N 515.857 1.33968 -0.830081 0
M  V30 5509 C 517.085 2.0228 -0.434773 0
M  V30 5510 C 517.5 1.62487 0.961419 0
M  V30 5511 O 516.857 0.833849 1.62337 0
M  V30 5512 C 516.908 3.5751 -0.535625 0
M  V30 5513 O 516.629 3.95864 -1.87679 0
M  V30 5514 C 518.13 4.43091 -0.136137 0
M  V30 5515 H 515.35 0.648151 -0.173613 0
M  V30 5516 H 517.894 1.71089 -1.12022 0
M  V30 5517 H 516.049 3.87266 0.101817 0
M  V30 5518 H 516.463 4.9056 -1.85609 0
M  V30 5519 H 517.937 5.51398 -0.257772 0
M  V30 5520 H 518.414 4.29433 0.921076 0
M  V30 5521 H 519.02 4.18677 -0.747662 0
M  V30 5522 N 517.335 0.585699 1.46312 0
M  V30 5523 C 518.56 0.0762461 2.0726 0
M  V30 5524 C 518.985 -1.22071 1.43109 0
M  V30 5525 O 518.343 -1.73804 0.515942 0
M  V30 5526 C 518.391 -0.0729404 3.60526 0
M  V30 5527 O 517.495 -1.1287 3.96654 0
M  V30 5528 H 516.836 0.0641558 0.660893 0
M  V30 5529 H 519.366 0.809492 1.87905 0
M  V30 5530 H 519.376 -0.278158 4.07051 0
M  V30 5531 H 518.051 0.874188 4.06609 0
M  V30 5532 H 516.628 -0.901703 3.61834 0
M  V30 5533 N 518.813 -1.54241 0.323641 0
M  V30 5534 C 520.224 -1.85975 -0.164405 0
M  V30 5535 C 520.575 -1.24529 -1.51615 0
M  V30 5536 O 519.7 -0.551351 -2.09258 0
M  V30 5537 C 520.295 -3.37424 -0.305091 0
M  V30 5538 C 518.854 -3.69107 -0.737358 0
M  V30 5539 C 518.001 -2.76942 0.140884 0
M  V30 5540 H 520.952 -1.49088 0.543922 0
M  V30 5541 H 520.973 -3.63147 -1.13598 0
M  V30 5542 H 520.485 -3.82116 0.678876 0
M  V30 5543 H 518.586 -3.29947 -1.73107 0
M  V30 5544 H 518.699 -4.76035 -0.541053 0
M  V30 5545 H 517.063 -2.51795 -0.383572 0
M  V30 5546 H 517.846 -3.24461 1.12162 0
M  V30 5547 N 520.291 -0.0518155 -1.57515 0
M  V30 5548 C 521.521 0.63048 -1.96745 0
M  V30 5549 C 521.929 1.64875 -0.928054 0
M  V30 5550 O 521.272 1.83449 0.0960678 0
M  V30 5551 C 521.334 1.37381 -3.32215 0
M  V30 5552 C 520.998 0.511298 -4.54131 0
M  V30 5553 C 521.995 -0.222884 -5.19422 0
M  V30 5554 C 519.68 0.442035 -5.00351 0
M  V30 5555 C 521.674 -1.01476 -6.2927 0
M  V30 5556 C 519.361 -0.35353 -6.10077 0
M  V30 5557 C 520.359 -1.08062 -6.74397 0
M  V30 5558 O 520.047 -1.8631 -7.82013 0
M  V30 5559 H 519.779 0.177126 -0.652382 0
M  V30 5560 H 522.333 -0.114726 -2.05079 0
M  V30 5561 H 520.563 2.16466 -3.20436 0
M  V30 5562 H 522.252 1.9464 -3.56188 0
M  V30 5563 H 523.018 -0.178846 -4.8467 0
M  V30 5564 H 518.897 0.997562 -4.50077 0
M  V30 5565 H 522.441 -1.58279 -6.79407 0
M  V30 5566 H 518.338 -0.399205 -6.44264 0
M  V30 5567 H 519.106 -1.78528 -7.98793 0
M  V30 5568 N 521.769 1.56035 0.221574 0
M  V30 5569 C 522.701 1.889 1.29805 0
M  V30 5570 C 523.714 0.777269 1.43047 0
M  V30 5571 O 524.903 1.05557 1.43945 0
M  V30 5572 C 522.003 2.0825 2.67367 0
M  V30 5573 C 521.176 3.39267 2.76073 0
M  V30 5574 C 520.235 3.48049 3.94649 0
M  V30 5575 O 519.261 4.2108 3.82988 0
M  V30 5576 N 520.463 2.79191 5.08953 0
M  V30 5577 H 523.228 2.81831 1.01938 0
M  V30 5578 H 520.789 1.5658 0.411612 0
M  V30 5579 H 522.781 2.11441 3.45072 0
M  V30 5580 H 521.351 1.21944 2.87834 0
M  V30 5581 H 520.571 3.48175 1.84846 0
M  V30 5582 H 521.859 4.25575 2.7886 0
M  V30 5583 H 521.257 2.19635 5.21322 0
M  V30 5584 H 519.814 2.88043 5.84701 0
M  V30 5585 N 523.247 -0.488276 1.49845 0
M  V30 5586 C 524.496 -1.23826 1.59217 0
M  V30 5587 C 524.809 -1.93439 0.289966 0
M  V30 5588 O 526.015 -2.70229 0.262382 0
M  V30 5589 C 524.471 -2.24902 2.80976 0
M  V30 5590 C 524.079 -1.6117 4.18005 0
M  V30 5591 C 525.823 -3.00648 2.99685 0
M  V30 5592 C 523.73 -2.60431 5.3097 0
M  V30 5593 H 522.66 -0.465858 0.592868 0
M  V30 5594 H 525.311 -0.510645 1.76252 0
M  V30 5595 H 523.693 -3.0088 2.57463 0
M  V30 5596 H 524.867 -0.910968 4.51706 0
M  V30 5597 H 523.182 -0.97767 4.0476 0
M  V30 5598 H 525.779 -3.74903 3.81251 0
M  V30 5599 H 526.122 -3.5902 2.10738 0
M  V30 5600 H 526.655 -2.31784 3.23297 0
M  V30 5601 H 523.394 -2.06823 6.22017 0
M  V30 5602 H 522.914 -3.28707 5.01709 0
M  V30 5603 H 524.593 -3.22606 5.60834 0
M  V30 5604 N 524.725 -1.39134 -0.740242 0
M  V30 5605 C 525.675 -1.33928 -1.84519 0
M  V30 5606 C 526.659 -0.221097 -1.59374 0
M  V30 5607 O 527.851 -0.458195 -1.70967 0
M  V30 5608 C 524.98 -1.17991 -3.22387 0
M  V30 5609 C 524.066 -2.34488 -3.53378 0
M  V30 5610 N 524.457 -3.59954 -3.5534 0
M  V30 5611 C 522.755 -2.27331 -3.83714 0
M  V30 5612 C 523.456 -4.36962 -3.83978 0
M  V30 5613 N 522.432 -3.66482 -4.01487 0
M  V30 5614 H 526.234 -2.28907 -1.84333 0
M  V30 5615 H 523.748 -1.32555 -0.938237 0
M  V30 5616 H 525.745 -1.12345 -4.01478 0
M  V30 5617 H 524.405 -0.23957 -3.23815 0
M  V30 5618 H 525.416 -3.93448 -3.36778 0
M  V30 5619 H 522.093 -1.41531 -3.92779 0
M  V30 5620 H 523.483 -5.45692 -3.92008 0
M  V30 5621 N 526.204 0.969867 -1.24223 0
M  V30 5622 C 527.451 1.71256 -1.08063 0
M  V30 5623 C 527.779 1.90734 0.380872 0
M  V30 5624 O 527.034 1.46469 1.29789 0
M  V30 5625 C 527.333 3.10883 -1.76314 0
M  V30 5626 C 526.999 3.11252 -3.26241 0
M  V30 5627 C 525.661 3.1106 -3.67144 0
M  V30 5628 C 528.013 3.05751 -4.22097 0
M  V30 5629 C 525.341 3.03097 -5.02344 0
M  V30 5630 C 527.693 2.9933 -5.57301 0
M  V30 5631 C 526.357 2.97466 -5.97554 0
M  V30 5632 H 525.627 0.62667 -0.395431 0
M  V30 5633 H 528.274 1.13422 -1.54297 0
M  V30 5634 H 526.579 3.72168 -1.22468 0
M  V30 5635 H 528.276 3.67138 -1.61277 0
M  V30 5636 H 524.866 3.12165 -2.93685 0
M  V30 5637 H 529.05 3.05031 -3.91497 0
M  V30 5638 H 524.306 3.00013 -5.32731 0
M  V30 5639 H 528.48 2.94033 -6.31283 0
M  V30 5640 H 526.107 2.91051 -7.02277 0
M  V30 5641 N 527.682 1.05563 1.17022 0
M  V30 5642 C 528.91 0.78845 1.91288 0
M  V30 5643 C 529.325 -0.656318 1.77025 0
M  V30 5644 O 528.682 -1.44869 1.10992 0
M  V30 5645 C 528.733 1.16444 3.42232 0
M  V30 5646 O 528.454 2.5525 3.5606 0
M  V30 5647 C 529.955 0.923937 4.33565 0
M  V30 5648 H 527.175 0.286389 0.606813 0
M  V30 5649 H 529.719 1.4073 1.48375 0
M  V30 5650 H 527.874 0.590266 3.82877 0
M  V30 5651 H 528.288 2.70097 4.49609 0
M  V30 5652 H 529.762 1.23672 5.37968 0
M  V30 5653 H 530.239 -0.140688 4.38975 0
M  V30 5654 H 530.845 1.48214 3.98639 0
M  V30 5655 N 529.16 -1.33526 0.837174 0
M  V30 5656 C 530.107 -2.29248 0.267169 0
M  V30 5657 C 531.077 -1.54252 -0.616071 0
M  V30 5658 O 532.262 -1.82559 -0.554699 0
M  V30 5659 C 529.402 -3.40638 -0.553152 0
M  V30 5660 C 528.515 -4.30548 0.353921 0
M  V30 5661 C 527.65 -5.29051 -0.477339 0
M  V30 5662 C 526.689 -6.106 0.42823 0
M  V30 5663 N 525.826 -7.01152 -0.364801 0
M  V30 5664 H 530.666 -2.77398 1.08877 0
M  V30 5665 H 528.203 -1.36496 0.54838 0
M  V30 5666 H 530.161 -4.03921 -1.04422 0
M  V30 5667 H 528.791 -2.93685 -1.33973 0
M  V30 5668 H 527.843 -3.68001 0.963289 0
M  V30 5669 H 529.155 -4.87631 1.04964 0
M  V30 5670 H 528.309 -5.97853 -1.0323 0
M  V30 5671 H 527.048 -4.72541 -1.2065 0
M  V30 5672 H 526.053 -5.40718 0.995219 0
M  V30 5673 H 527.278 -6.69193 1.15573 0
M  V30 5674 H 525.224 -6.47092 -1.07738 0
M  V30 5675 H 525.141 -7.5551 0.272238 0
M  V30 5676 H 526.409 -7.74263 -0.902054 0
M  V30 5677 N 530.638 -0.59345 -1.46 0
M  V30 5678 C 531.866 -0.0890934 -2.06708 0
M  V30 5679 C 532.281 1.2205 -1.44046 0
M  V30 5680 O 531.638 1.74029 -0.549551 0
M  V30 5681 C 531.689 0.0720263 -3.61428 0
M  V30 5682 O 531.41 -1.18574 -4.21748 0
M  V30 5683 C 532.911 0.609487 -4.3909 0
M  V30 5684 H 530.131 -0.0623628 -0.668096 0
M  V30 5685 H 532.675 -0.817171 -1.87464 0
M  V30 5686 H 530.83 0.750369 -3.80063 0
M  V30 5687 H 531.244 -1.0064 -5.14754 0
M  V30 5688 H 532.718 0.671363 -5.47902 0
M  V30 5689 H 533.195 1.62878 -4.07882 0
M  V30 5690 H 533.801 -0.03434 -4.25286 0
M  V30 5691 N 532.116 1.54067 -0.331816 0
M  V30 5692 C 533.527 1.86059 0.15454 0
M  V30 5693 C 533.878 1.25331 1.50952 0
M  V30 5694 O 533.003 0.562441 2.08963 0
M  V30 5695 C 533.598 3.37581 0.287192 0
M  V30 5696 C 532.157 3.69493 0.717773 0
M  V30 5697 C 531.304 2.76863 -0.155569 0
M  V30 5698 H 534.255 1.48797 -0.55182 0
M  V30 5699 H 534.276 3.63744 1.11671 0
M  V30 5700 H 533.788 3.81751 -0.699131 0
M  V30 5701 H 531.889 3.3086 1.71354 0
M  V30 5702 H 532.002 4.76315 0.5158 0
M  V30 5703 H 530.366 2.51995 0.370213 0
M  V30 5704 H 531.149 3.23861 -1.13881 0
M  V30 5705 N 533.594 0.0601682 1.57485 0
M  V30 5706 C 534.541 -0.91112 2.12055 0
M  V30 5707 C 535.511 -1.30298 1.03013 0
M  V30 5708 O 536.696 -1.39087 1.30612 0
M  V30 5709 C 533.836 -2.1775 2.67729 0
M  V30 5710 C 532.949 -1.83933 3.90887 0
M  V30 5711 C 532.084 -3.05096 4.34845 0
M  V30 5712 C 531.123 -2.67241 5.5068 0
M  V30 5713 N 530.26 -3.81127 5.8965 0
M  V30 5714 H 535.1 -0.43888 2.9475 0
M  V30 5715 H 532.637 -0.204995 1.45665 0
M  V30 5716 H 534.595 -2.91866 2.98111 0
M  V30 5717 H 533.225 -2.62535 1.87816 0
M  V30 5718 H 532.277 -0.999287 3.6704 0
M  V30 5719 H 533.589 -1.52074 4.75052 0
M  V30 5720 H 532.743 -3.87502 4.66827 0
M  V30 5721 H 531.482 -3.40139 3.49509 0
M  V30 5722 H 530.487 -1.83254 5.18361 0
M  V30 5723 H 531.712 -2.3338 6.37738 0
M  V30 5724 H 529.658 -4.15954 5.07266 0
M  V30 5725 H 529.575 -3.52997 6.68528 0
M  V30 5726 H 530.843 -4.64145 6.2625 0
M  V30 5727 N 535.072 -1.5615 -0.213296 0
M  V30 5728 C 536.302 -1.83372 -0.951757 0
M  V30 5729 C 536.71 -0.638158 -1.78113 0
M  V30 5730 O 536.053 0.402609 -1.79234 0
M  V30 5731 C 536.115 -3.04444 -1.91192 0
M  V30 5732 C 535.779 -4.39107 -1.26627 0
M  V30 5733 C 536.776 -5.15794 -0.652087 0
M  V30 5734 C 534.461 -4.85834 -1.27556 0
M  V30 5735 C 536.455 -6.37376 -0.055814 0
M  V30 5736 C 534.142 -6.07356 -0.675451 0
M  V30 5737 C 535.14 -6.82967 -0.0666367 0
M  V30 5738 O 534.828 -8.0219 0.524119 0
M  V30 5739 H 534.56 -0.613398 -0.284111 0
M  V30 5740 H 537.114 -2.04096 -0.231112 0
M  V30 5741 H 535.344 -2.79559 -2.67178 0
M  V30 5742 H 537.033 -3.18466 -2.51662 0
M  V30 5743 H 537.799 -4.80796 -0.637172 0
M  V30 5744 H 533.678 -4.26949 -1.73883 0
M  V30 5745 H 537.222 -6.96334 0.420004 0
M  V30 5746 H 533.119 -6.41825 -0.687806 0
M  V30 5747 H 533.887 -8.17426 0.419243 0
M  V30 5748 N 536.55 0.480323 -1.50102 0
M  V30 5749 C 537.797 1.23307 -1.60629 0
M  V30 5750 C 538.125 1.92135 -0.302375 0
M  V30 5751 O 537.38 1.82321 0.711154 0
M  V30 5752 C 537.679 2.30708 -2.72963 0
M  V30 5753 C 537.345 1.79195 -4.13763 0
M  V30 5754 C 536.007 1.64867 -4.52076 0
M  V30 5755 C 538.359 1.40878 -5.018 0
M  V30 5756 C 535.687 1.10631 -5.76175 0
M  V30 5757 C 538.039 0.880872 -6.26437 0
M  V30 5758 C 536.703 0.724146 -6.6356 0
M  V30 5759 H 535.973 0.451211 -0.587784 0
M  V30 5760 H 538.62 0.53051 -1.84005 0
M  V30 5761 H 536.925 3.06834 -2.43639 0
M  V30 5762 H 538.622 2.88692 -2.78313 0
M  V30 5763 H 535.212 1.91313 -3.83533 0
M  V30 5764 H 539.396 1.50786 -4.7284 0
M  V30 5765 H 534.652 0.972263 -6.0362 0
M  V30 5766 H 538.826 0.575269 -6.9402 0
M  V30 5767 H 536.453 0.301722 -7.59601 0
M  V30 5768 N 538.028 1.39524 0.732853 0
M  V30 5769 C 538.975 1.38416 1.84688 0
M  V30 5770 C 539.945 0.243539 1.64305 0
M  V30 5771 O 541.13 0.438979 1.85681 0
M  V30 5772 C 538.27 1.23555 3.22224 0
M  V30 5773 C 537.383 2.47179 3.54298 0
M  V30 5774 C 536.518 2.2489 4.81246 0
M  V30 5775 C 535.557 3.44178 5.0617 0
M  V30 5776 N 534.694 3.21192 6.24323 0
M  V30 5777 H 539.534 2.33645 1.84971 0
M  V30 5778 H 537.071 1.16059 0.903804 0
M  V30 5779 H 539.029 1.12949 4.0162 0
M  V30 5780 H 537.659 0.31954 3.21215 0
M  V30 5781 H 536.711 2.68379 2.69587 0
M  V30 5782 H 538.023 3.36022 3.68633 0
M  V30 5783 H 537.177 2.11538 5.68627 0
M  V30 5784 H 535.916 1.33443 4.69089 0
M  V30 5785 H 534.921 3.58025 4.17251 0
M  V30 5786 H 536.146 4.36528 5.20212 0
M  V30 5787 H 534.092 2.32413 6.1345 0
M  V30 5788 H 534.009 4.03594 6.39256 0
M  V30 5789 H 535.277 3.1154 7.14537 0
M  V30 5790 N 539.506 -0.963266 1.24736 0
M  V30 5791 C 540.917 -1.52145 1.08207 0
M  V30 5792 C 541.268 -1.93142 -0.345061 0
M  V30 5793 O 540.393 -1.77769 -1.23399 0
M  V30 5794 C 540.988 -2.76486 1.95808 0
M  V30 5795 C 539.547 -3.28646 1.8349 0
M  V30 5796 C 538.694 -2.01529 1.90476 0
M  V30 5797 H 541.645 -0.781083 1.38148 0
M  V30 5798 H 541.666 -3.49986 1.49297 0
M  V30 5799 H 541.178 -2.46617 2.99669 0
M  V30 5800 H 539.279 -3.63357 0.824787 0
M  V30 5801 H 539.392 -3.97246 2.67829 0
M  V30 5802 H 537.756 -2.16442 1.34258 0
M  V30 5803 H 538.539 -1.7402 2.95926 0
M  V30 5804 N 540.985 -1.06182 -1.16461 0
M  V30 5805 C 542.233 -0.776326 -1.86595 0
M  V30 5806 C 542.554 0.69921 -1.82033 0
M  V30 5807 O 541.824 1.50579 -1.2531 0
M  V30 5808 H 540.404 -0.284184 -0.690832 0
M  V30 5809 H 543.066 -1.34308 -1.41235 0
M  V30 5810 H 542.162 -1.10022 -2.92064 0
M  V30 5811 N 542.463 1.3308 -0.844243 0
M  V30 5812 C 543.396 2.27075 -0.226279 0
M  V30 5813 C 544.374 1.49911 0.629716 0
M  V30 5814 O 545.558 1.79068 0.588803 0
M  V30 5815 C 542.685 3.31767 0.681782 0
M  V30 5816 C 541.731 4.26384 -0.0994565 0
M  V30 5817 S 542.564 5.15186 -1.46094 0
M  V30 5818 C 543.72 6.23405 -0.558319 0
M  V30 5819 H 543.953 2.79141 -1.02312 0
M  V30 5820 H 541.486 1.40452 -0.641292 0
M  V30 5821 H 543.444 3.92566 1.20008 0
M  V30 5822 H 542.105 2.78507 1.45234 0
M  V30 5823 H 541.298 5.00514 0.591733 0
M  V30 5824 H 540.9 3.69949 -0.548991 0
M  V30 5825 H 543.192 6.77069 0.241672 0
M  V30 5826 H 544.135 6.96619 -1.26995 0
M  V30 5827 H 544.543 5.64333 -0.13728 0
M  V30 5828 N 543.941 0.601185 1.45683 0
M  V30 5829 C 545.352 0.179659 1.85834 0
M  V30 5830 C 545.703 -1.26189 1.50236 0
M  V30 5831 O 544.828 -1.95587 0.925987 0
M  V30 5832 C 545.423 0.319277 3.37292 0
M  V30 5833 C 543.982 -0.0475092 3.7637 0
M  V30 5834 C 543.129 0.646692 2.69654 0
M  V30 5835 H 546.08 0.808268 1.36575 0
M  V30 5836 H 546.101 -0.4503 3.77826 0
M  V30 5837 H 545.613 1.36855 3.6317 0
M  V30 5838 H 543.714 -1.0962 3.5611 0
M  V30 5839 H 543.827 0.34168 4.7788 0
M  V30 5840 H 542.191 0.0849971 2.54558 0
M  V30 5841 H 542.974 1.69797 2.98369 0
M  V30 5842 N 545.419 -1.53889 0.339982 0
M  V30 5843 C 546.666 -2.00855 -0.257621 0
M  V30 5844 C 546.994 -1.22788 -1.50842 0
M  V30 5845 O 546.249 -0.302567 -1.93347 0
M  V30 5846 C 546.548 -3.51968 -0.620735 0
M  V30 5847 C 546.214 -4.47741 0.532771 0
M  V30 5848 C 544.876 -4.73645 0.849339 0
M  V30 5849 C 547.228 -5.04551 1.3068 0
M  V30 5850 C 544.556 -5.53614 1.94237 0
M  V30 5851 C 546.908 -5.85713 2.39005 0
M  V30 5852 C 545.572 -6.09912 2.71225 0
M  V30 5853 H 544.842 -0.734979 -0.0942703 0
M  V30 5854 H 547.489 -1.85714 0.467159 0
M  V30 5855 H 545.794 -3.64921 -1.42618 0
M  V30 5856 H 547.491 -3.85762 -1.09495 0
M  V30 5857 H 544.081 -4.27711 0.275973 0
M  V30 5858 H 548.265 -4.84507 1.07549 0
M  V30 5859 H 543.521 -5.7059 2.19628 0
M  V30 5860 H 547.695 -6.28748 2.99415 0
M  V30 5861 H 545.322 -6.71665 3.56047 0
M  V30 5862 N 546.897 -0.0685191 -1.57451 0
M  V30 5863 C 548.174 0.642167 -1.84758 0
M  V30 5864 C 548.554 1.87991 -0.960344 0
M  V30 5865 O 547.902 2.28485 -0.0257894 0
M  V30 5866 C 548.112 0.982946 -3.34872 0
M  V30 5867 C 549.46 1.35784 -4.02303 0
M  V30 5868 O 550.484 1.07477 -3.39598 0
M  V30 5869 O 549.343 1.88681 -5.12895 0
M  V30 5870 H 546.437 0.318625 -0.763156 0
M  V30 5871 H 548.983 -0.0992015 -1.6941 0
M  V30 5872 H 547.755 0.10372 -3.91163 0
M  V30 5873 H 547.378 1.78119 -3.55471 0
M  V30 5874 N 548.375 1.56261 0.205012 0
M  V30 5875 C 549.305 1.96779 1.257 0
M  V30 5876 C 550.286 0.838309 1.48008 0
M  V30 5877 O 551.471 1.10189 1.59913 0
M  V30 5878 C 548.601 2.29876 2.60335 0
M  V30 5879 C 547.555 3.45469 2.52656 0
M  V30 5880 C 546.881 3.64215 3.91473 0
M  V30 5881 C 548.181 4.79954 2.06014 0
M  V30 5882 H 549.875 2.84904 0.920338 0
M  V30 5883 H 547.421 1.37072 0.441277 0
M  V30 5884 H 549.374 2.56814 3.34102 0
M  V30 5885 H 548.098 1.38622 2.95722 0
M  V30 5886 H 546.757 3.18605 1.81345 0
M  V30 5887 H 546.405 2.70309 4.24196 0
M  V30 5888 H 546.105 4.41973 3.87213 0
M  V30 5889 H 547.629 3.93519 4.66878 0
M  V30 5890 H 549.043 5.05989 2.69533 0
M  V30 5891 H 547.44 5.61111 2.12777 0
M  V30 5892 H 548.51 4.74201 1.01297 0
M  V30 5893 N 549.853 -0.472356 1.50355 0
M  V30 5894 C 550.786 -1.58923 1.63764 0
M  V30 5895 C 551.764 -1.55173 0.485793 0
M  V30 5896 O 552.948 -1.74815 0.705132 0
M  V30 5897 C 550.075 -2.97497 1.61905 0
M  V30 5898 C 549.121 -3.19405 2.82635 0
M  V30 5899 S 549.954 -2.99441 4.43954 0
M  V30 5900 C 551.11 -4.40359 4.44786 0
M  V30 5901 H 551.343 -1.47309 2.58239 0
M  V30 5902 H 548.876 -0.659601 1.39602 0
M  V30 5903 H 550.834 -3.77389 1.61518 0
M  V30 5904 H 549.495 -3.06502 0.686683 0
M  V30 5905 H 548.688 -4.20636 2.77636 0
M  V30 5906 H 548.29 -2.47283 2.80583 0
M  V30 5907 H 550.582 -5.32969 4.1827 0
M  V30 5908 H 551.525 -4.50403 5.46391 0
M  V30 5909 H 551.933 -4.22378 3.74509 0
M  V30 5910 N 551.331 -1.39911 -0.725443 0
M  V30 5911 C 552.577 -1.37858 -1.48738 0
M  V30 5912 C 552.91 0.0224187 -1.94187 0
M  V30 5913 O 552.185 0.989204 -1.67466 0
M  V30 5914 C 552.468 -2.3594 -2.72038 0
M  V30 5915 C 552.321 -3.85023 -2.32546 0
M  V30 5916 C 553.64 -2.31704 -3.74167 0
M  V30 5917 H 550.759 -0.502074 -0.539528 0
M  V30 5918 H 553.401 -1.70974 -0.828728 0
M  V30 5919 H 551.551 -2.0783 -3.28236 0
M  V30 5920 H 553.223 -4.2392 -1.81905 0
M  V30 5921 H 551.466 -4.01334 -1.64661 0
M  V30 5922 H 552.137 -4.49152 -3.20884 0
M  V30 5923 H 554.613 -2.5658 -3.27576 0
M  V30 5924 H 553.489 -3.02395 -4.58092 0
M  V30 5925 H 553.75 -1.3253 -4.21768 0
M  V30 5926 N 552.809 0.956637 -1.25245 0
M  V30 5927 C 554.056 1.701 -1.09874 0
M  V30 5928 C 554.384 1.91128 0.36062 0
M  V30 5929 O 553.639 1.47837 1.28229 0
M  V30 5930 C 553.938 3.08996 -1.79601 0
M  V30 5931 C 553.604 3.07774 -3.29523 0
M  V30 5932 C 552.266 3.07149 -3.70423 0
M  V30 5933 C 554.618 3.01257 -4.25316 0
M  V30 5934 C 551.946 2.97752 -5.0553 0
M  V30 5935 C 554.298 2.93403 -5.60444 0
M  V30 5936 C 552.962 2.91111 -6.00675 0
M  V30 5937 H 552.232 0.62244 -0.402056 0
M  V30 5938 H 554.879 1.1178 -1.55491 0
M  V30 5939 H 553.184 3.70848 -1.26408 0
M  V30 5940 H 554.881 3.65407 -1.65162 0
M  V30 5941 H 551.471 3.09032 -2.9698 0
M  V30 5942 H 555.655 3.00861 -3.9471 0
M  V30 5943 H 550.911 2.94346 -5.35883 0
M  V30 5944 H 555.085 2.87321 -6.34366 0
M  V30 5945 H 552.712 2.83586 -7.05325 0
M  V30 5946 N 554.287 1.06798 1.15896 0
M  V30 5947 C 555.533 0.788934 1.86825 0
M  V30 5948 C 555.866 -0.683084 1.8179 0
M  V30 5949 O 555.141 -1.50086 1.23711 0
M  V30 5950 C 555.424 1.29065 3.36176 0
M  V30 5951 C 555.277 2.8268 3.49874 0
M  V30 5952 C 556.596 0.902655 4.30744 0
M  V30 5953 H 553.715 0.288066 0.678371 0
M  V30 5954 H 556.357 1.32479 1.36195 0
M  V30 5955 H 554.507 0.834806 3.79425 0
M  V30 5956 H 556.179 3.36511 3.15528 0
M  V30 5957 H 554.422 3.21157 2.91617 0
M  V30 5958 H 555.093 3.12852 4.54783 0
M  V30 5959 H 557.569 1.29535 3.95424 0
M  V30 5960 H 556.445 1.28111 5.3374 0
M  V30 5961 H 556.706 -0.191951 4.41683 0
M  V30 5962 N 555.766 -1.3263 0.851289 0
M  V30 5963 C 556.994 -2.01563 0.466899 0
M  V30 5964 C 557.409 -1.63996 -0.935447 0
M  V30 5965 O 556.766 -0.85957 -1.6099 0
M  V30 5966 C 556.817 -3.56613 0.592433 0
M  V30 5967 O 556.538 -3.92828 1.93954 0
M  V30 5968 C 558.039 -4.42818 0.206612 0
M  V30 5969 H 555.259 -0.645307 0.183902 0
M  V30 5970 H 557.803 -1.69285 1.1473 0
M  V30 5971 H 555.958 -3.87379 -0.0401936 0
M  V30 5972 H 556.372 -4.87545 1.9339 0
M  V30 5973 H 557.846 -5.50918 0.345462 0
M  V30 5974 H 558.323 -4.30844 -0.85264 0
M  V30 5975 H 558.929 -4.17434 0.814176 0
M  V30 5976 N 557.244 -0.608902 -1.45362 0
M  V30 5977 C 558.192 0.121639 -2.32282 0
M  V30 5978 C 559.186 0.858301 -1.46046 0
M  V30 5979 O 560.392 0.773718 -1.62523 0
M  V30 5980 H 556.767 0.058086 -0.749753 0
M  V30 5981 H 558.738 -0.629866 -2.91677 0
M  V30 5982 C 557.487 1.1047 -3.29684 0
M  V30 5983 H 556.81 0.547278 -3.96036 0
M  V30 5984 H 558.25 1.58576 -3.9323 0
M  V30 5985 C 556.709 2.17891 -2.56954 0
M  V30 5986 O 557.239 3.25652 -2.35189 0
M  V30 5987 N 555.445 1.93211 -2.17066 0
M  V30 5988 H 554.992 1.05584 -2.34967 0
M  V30 5989 H 554.95 2.6529 -1.68727 0
M  V30 5990 N 558.722 1.53707 -0.348139 0
M  V30 5991 C 560.133 1.86213 0.134797 0
M  V30 5992 C 560.484 1.26925 1.49614 0
M  V30 5993 O 559.609 0.584573 2.08355 0
M  V30 5994 C 560.204 3.37866 0.251371 0
M  V30 5995 C 558.763 3.70233 0.678543 0
M  V30 5996 C 557.91 2.76683 -0.184925 0
M  V30 5997 H 560.861 1.48204 -0.567571 0
M  V30 5998 H 560.882 3.64908 1.07806 0
M  V30 5999 H 560.394 3.80988 -0.739581 0
M  V30 6000 H 558.495 3.32659 1.67835 0
M  V30 6001 H 558.608 4.76836 0.465251 0
M  V30 6002 H 556.972 2.52374 0.343465 0
M  V30 6003 H 557.755 3.22635 -1.1731 0
M  V30 6004 N 560.2 0.0768682 1.57412 0
M  V30 6005 C 561.477 -0.632359 1.85096 0
M  V30 6006 C 561.857 -1.87479 0.9703 0
M  V30 6007 O 561.205 -2.28469 0.0379062 0
M  V30 6008 C 561.415 -0.965174 3.35388 0
M  V30 6009 C 562.763 -1.33648 4.03018 0
M  V30 6010 O 563.787 -1.05675 3.40164 0
M  V30 6011 O 562.646 -1.85959 5.13889 0
M  V30 6012 H 559.74 -0.314574 0.764835 0
M  V30 6013 H 562.286 0.108184 1.69355 0
M  V30 6014 H 561.058 -0.0829745 3.91212 0
M  V30 6015 H 560.681 -1.76231 3.5641 0
M  V30 6016 N 561.678 -1.56367 -0.196722 0
M  V30 6017 C 562.926 -1.80172 -0.915554 0
M  V30 6018 C 563.247 -0.649649 -1.8386 0
M  V30 6019 O 562.517 0.332111 -1.93064 0
M  V30 6020 H 561.097 -0.664592 -0.341067 0
M  V30 6021 H 563.759 -1.93844 -0.202622 0
M  V30 6022 H 562.855 -2.7327 -1.50764 0
M  V30 6023 N 563.156 0.464375 -1.50603 0
M  V30 6024 C 564.381 1.24372 -1.65971 0
M  V30 6025 C 564.806 1.84901 -0.345453 0
M  V30 6026 O 564.164 1.67596 0.691457 0
M  V30 6027 C 564.212 2.32331 -2.7578 0
M  V30 6028 O 563.316 3.37146 -2.375 0
M  V30 6029 H 562.657 0.365604 -0.554283 0
M  V30 6030 H 565.187 0.55183 -1.97018 0
M  V30 6031 H 565.197 2.77539 -2.99059 0
M  V30 6032 H 563.872 1.87648 -3.71162 0
M  V30 6033 H 562.449 2.97602 -2.24694 0
M  V30 6034 N 564.634 1.40294 0.718013 0
M  V30 6035 C 566.045 1.34289 1.29705 0
M  V30 6036 C 566.396 0.0152228 1.96194 0
M  V30 6037 O 565.521 -0.88682 1.97394 0
M  V30 6038 C 566.116 2.43219 2.3586 0
M  V30 6039 C 564.675 2.40682 2.89394 0
M  V30 6040 C 563.822 2.24223 1.63154 0
M  V30 6041 H 566.773 1.50135 0.514312 0
M  V30 6042 H 566.794 2.10986 3.16647 0
M  V30 6043 H 566.306 3.39836 1.87439 0
M  V30 6044 H 564.407 1.47756 3.42051 0
M  V30 6045 H 564.52 3.36177 3.41353 0
M  V30 6046 H 562.884 1.71696 1.88129 0
M  V30 6047 H 563.667 3.22834 1.16761 0
M  V30 6048 N 566.112 -0.949982 1.2575 0
M  V30 6049 C 567.075 -2.02894 1.06615 0
M  V30 6050 C 568.075 -1.60791 0.0173905 0
M  V30 6051 O 569.265 -1.72249 0.260003 0
M  V30 6052 C 566.397 -3.35219 0.619751 0
M  V30 6053 H 567.59 -2.21302 2.02399 0
M  V30 6054 H 565.143 -1.12772 1.08223 0
M  V30 6055 H 565.878 -3.22508 -0.340486 0
M  V30 6056 H 565.663 -3.67129 1.37692 0
M  V30 6057 H 567.153 -4.14505 0.507443 0
M  V30 6058 N 567.59 -1.07411 -1.15328 0
M  V30 6059 C 568.82 -0.817595 -1.89734 0
M  V30 6060 C 569.228 0.63297 -1.78298 0
M  V30 6061 O 568.571 1.44594 -1.13306 0
M  V30 6062 C 568.633 -1.14748 -3.40695 0
M  V30 6063 C 568.297 -2.59876 -3.75917 0
M  V30 6064 C 569.294 -3.58122 -3.76888 0
M  V30 6065 C 566.979 -2.95469 -4.06206 0
M  V30 6066 C 568.973 -4.89996 -4.07655 0
M  V30 6067 C 566.66 -4.2754 -4.36638 0
M  V30 6068 C 567.658 -5.24614 -4.37344 0
M  V30 6069 O 567.346 -6.54312 -4.67045 0
M  V30 6070 H 567.078 -0.295175 -0.608151 0
M  V30 6071 H 569.632 -1.43409 -1.47048 0
M  V30 6072 H 567.862 -0.47395 -3.83785 0
M  V30 6073 H 569.551 -0.873397 -3.96392 0
M  V30 6074 H 570.317 -3.31966 -3.53587 0
M  V30 6075 H 566.196 -2.20558 -4.04815 0
M  V30 6076 H 569.74 -5.65759 -4.08121 0
M  V30 6077 H 565.637 -4.53449 -4.59407 0
M  V30 6078 H 566.405 -6.59473 -4.84807 0
M  V30 6079 N 569.068 1.32177 -0.85831 0
M  V30 6080 C 570.484 1.49873 -0.548656 0
M  V30 6081 C 570.684 1.79278 0.919874 0
M  V30 6082 O 569.74 1.86451 1.70271 0
M  V30 6083 C 571.053 2.64043 -1.4388 0
M  V30 6084 C 572.601 2.77928 -1.43961 0
M  V30 6085 C 573.076 3.95182 -2.31506 0
M  V30 6086 N 574.567 4.0245 -2.29321 0
M  V30 6087 C 575.302 4.9242 -2.93786 0
M  V30 6088 N 574.798 5.87373 -3.67376 0
M  V30 6089 N 576.591 4.85572 -2.83155 0
M  V30 6090 H 568.742 1.11357 -1.80868 0
M  V30 6091 H 571.005 0.549175 -0.772729 0
M  V30 6092 H 570.711 2.49055 -2.48324 0
M  V30 6093 H 570.585 3.59912 -1.12885 0
M  V30 6094 H 572.972 2.92338 -0.402813 0
M  V30 6095 H 573.053 1.82762 -1.78974 0
M  V30 6096 H 572.697 3.81531 -3.35256 0
M  V30 6097 H 572.627 4.89633 -1.93823 0
M  V30 6098 H 575.118 3.34507 -1.75822 0
M  V30 6099 H 575.431 6.52728 -4.13722 0
M  V30 6100 H 573.776 5.87388 -3.71484 0
M  V30 6101 H 576.967 4.10363 -2.25211 0
M  V30 6102 H 577.14 5.55486 -3.33676 0
M  V30 6103 N 570.547 0.616602 1.45037 0
M  V30 6104 C 571.793 0.115501 2.02471 0
M  V30 6105 C 572.126 -1.25406 1.4828 0
M  V30 6106 O 571.401 -1.82922 0.661051 0
M  V30 6107 C 571.684 0.0863588 3.59996 0
M  V30 6108 C 571.537 1.48723 4.24501 0
M  V30 6109 C 572.856 -0.596762 4.36035 0
M  V30 6110 H 569.975 0.0434461 0.735718 0
M  V30 6111 H 572.617 0.7903 1.72784 0
M  V30 6112 H 570.767 -0.488277 3.85419 0
M  V30 6113 H 572.439 2.10964 4.10234 0
M  V30 6114 H 570.682 2.04534 3.82555 0
M  V30 6115 H 571.353 1.419 5.3345 0
M  V30 6116 H 573.829 -0.10824 4.15959 0
M  V30 6117 H 572.705 -0.586289 5.4576 0
M  V30 6118 H 572.966 -1.66451 4.09569 0
M  V30 6119 N 572.025 -1.5352 0.356285 0
M  V30 6120 C 573.436 -1.86282 -0.12492 0
M  V30 6121 C 573.787 -1.27717 -1.48939 0
M  V30 6122 O 572.912 -0.595614 -2.08042 0
M  V30 6123 C 573.507 -3.37995 -0.23345 0
M  V30 6124 C 572.066 -3.70588 -0.658899 0
M  V30 6125 C 571.213 -2.76581 0.199596 0
M  V30 6126 H 574.164 -1.47901 0.575423 0
M  V30 6127 H 574.185 -3.65475 -1.0587 0
M  V30 6128 H 573.697 -3.8059 0.759776 0
M  V30 6129 H 571.798 -3.33544 -1.66069 0
M  V30 6130 H 571.911 -4.77076 -0.439957 0
M  V30 6131 H 570.275 -2.52552 -0.330076 0
M  V30 6132 H 571.058 -3.22008 1.19019 0
M  V30 6133 N 573.503 -0.0852151 -1.57369 0
M  V30 6134 C 574.749 0.581666 -1.94279 0
M  V30 6135 C 575.082 1.68444 -0.966446 0
M  V30 6136 O 574.357 1.945 0.00215277 0
M  V30 6137 C 574.64 1.14609 -3.41375 0
M  V30 6138 C 574.493 0.0490414 -4.49773 0
M  V30 6139 C 575.812 2.04751 -3.8957 0
M  V30 6140 H 572.931 0.209972 -0.706456 0
M  V30 6141 H 575.573 -0.153915 -1.89376 0
M  V30 6142 H 573.723 1.77297 -3.45685 0
M  V30 6143 H 575.395 -0.584721 -4.57579 0
M  V30 6144 H 573.638 -0.618638 -4.29366 0
M  V30 6145 H 574.309 0.484601 -5.49869 0
M  V30 6146 H 576.785 1.51981 -3.87351 0
M  V30 6147 H 575.661 2.41173 -4.93079 0
M  V30 6148 H 575.922 2.96107 -3.28288 0
M  V30 6149 N 574.981 1.5647 0.188427 0
M  V30 6150 C 575.944 1.9421 1.21718 0
M  V30 6151 C 576.944 0.823901 1.38089 0
M  V30 6152 O 578.134 1.09122 1.35787 0
M  V30 6153 C 575.266 2.22197 2.58537 0
M  V30 6154 H 576.459 2.86252 0.894418 0
M  V30 6155 H 574.012 1.50263 0.430211 0
M  V30 6156 H 574.747 1.32814 2.95856 0
M  V30 6157 H 574.532 3.03688 2.48025 0
M  V30 6158 H 576.022 2.52376 3.3271 0
M  V30 6159 N 576.459 -0.456382 1.50847 0
M  V30 6160 C 577.705 -1.20914 1.62811 0
M  V30 6161 C 578.038 -1.91301 0.334304 0
M  V30 6162 O 577.313 -1.82775 -0.665098 0
M  V30 6163 C 577.596 -2.24122 2.81853 0
M  V30 6164 C 577.449 -1.57944 4.21158 0
M  V30 6165 C 578.768 -3.25295 2.96431 0
M  V30 6166 H 575.887 -0.438233 0.592554 0
M  V30 6167 H 578.529 -0.50091 1.83278 0
M  V30 6168 H 576.679 -2.84524 2.64534 0
M  V30 6169 H 578.351 -1.01025 4.50102 0
M  V30 6170 H 576.594 -0.882185 4.24735 0
M  V30 6171 H 577.265 -2.33014 5.00408 0
M  V30 6172 H 579.741 -2.7493 3.12335 0
M  V30 6173 H 578.617 -3.94822 3.81322 0
M  V30 6174 H 578.878 -3.90286 2.07676 0
M  V30 6175 N 577.937 -1.40673 -0.710563 0
M  V30 6176 C 578.869 -1.37256 -1.83558 0
M  V30 6177 C 579.882 -0.277133 -1.60424 0
M  V30 6178 O 581.071 -0.537831 -1.70205 0
M  V30 6179 C 578.171 -1.1144 -3.20054 0
M  V30 6180 C 577.344 -2.32734 -3.70342 0
M  V30 6181 C 576.403 -2.03002 -4.85465 0
M  V30 6182 O 575.429 -2.75912 -4.97857 0
M  V30 6183 N 576.631 -1.01105 -5.71627 0
M  V30 6184 H 579.396 -2.34215 -1.86985 0
M  V30 6185 H 576.957 -1.35091 -0.892301 0
M  V30 6186 H 578.949 -0.895265 -3.94673 0
M  V30 6187 H 577.519 -0.231307 -3.11743 0
M  V30 6188 H 576.739 -2.70446 -2.86798 0
M  V30 6189 H 578.027 -3.13584 -4.00678 0
M  V30 6190 H 577.425 -0.407303 -5.64232 0
M  V30 6191 H 575.982 -0.85182 -6.4621 0
M  V30 6192 N 579.415 0.9433 -1.26252 0
M  V30 6193 C 580.663 1.68592 -1.11451 0
M  V30 6194 C 580.984 1.91957 0.343123 0
M  V30 6195 O 580.254 1.51475 1.24226 0
M  V30 6196 H 578.834 0.624789 -0.409448 0
M  V30 6197 H 581.496 1.13351 -1.58548 0
M  V30 6198 H 580.592 2.66054 -1.63162 0
M  V30 6199 N 580.893 1.08022 1.14757 0
M  V30 6200 C 581.803 0.718292 2.23333 0
M  V30 6201 C 582.819 -0.273477 1.71837 0
M  V30 6202 O 583.995 -0.118406 2.01052 0
M  V30 6203 C 581.06 0.128855 3.4646 0
M  V30 6204 C 580.121 1.17473 4.12915 0
M  V30 6205 C 579.354 0.61333 5.30164 0
M  V30 6206 O 579.577 -0.568458 5.6756 0
M  V30 6207 O 578.511 1.3615 5.86299 0
M  V30 6208 H 582.337 1.62394 2.56636 0
M  V30 6209 H 579.922 0.853628 1.22611 0
M  V30 6210 H 581.804 -0.197249 4.20938 0
M  V30 6211 H 580.479 -0.750014 3.14891 0
M  V30 6212 H 579.386 1.5533 3.40328 0
M  V30 6213 H 580.719 2.02574 4.48581 0
M  V30 6214 N 582.371 -1.3172 0.865308 0
M  V30 6215 C 583.648 -1.91574 0.394789 0
M  V30 6216 C 584.028 -1.78769 -1.12271 0
M  V30 6217 O 583.376 -1.19245 -1.94918 0
M  V30 6218 C 583.586 -3.37957 0.870982 0
M  V30 6219 C 584.934 -4.15073 0.894384 0
M  V30 6220 O 585.958 -3.4672 0.816325 0
M  V30 6221 O 584.817 -5.37151 1.00651 0
M  V30 6222 H 581.911 -0.818649 0.117229 0
M  V30 6223 H 584.457 -1.4042 0.952913 0
M  V30 6224 H 583.229 -3.41269 1.91444 0
M  V30 6225 H 582.852 -3.96534 0.290907 0
M  V30 6226 N 583.85 -0.624285 -1.44708 0
M  V30 6227 C 585.077 -0.132919 -2.06473 0
M  V30 6228 C 585.493 1.18967 -1.46602 0
M  V30 6229 O 584.85 1.72824 -0.586341 0
M  V30 6230 C 584.901 -0.00465418 -3.615 0
M  V30 6231 O 584.622 -1.27494 -4.19138 0
M  V30 6232 C 586.123 0.516213 -4.40284 0
M  V30 6233 H 583.343 -0.0765201 -0.666623 0
M  V30 6234 H 585.887 -0.856751 -1.85688 0
M  V30 6235 H 584.042 0.669583 -3.8157 0
M  V30 6236 H 584.456 -1.11536 -5.12504 0
M  V30 6237 H 585.93 0.554994 -5.49203 0
M  V30 6238 H 586.407 1.5419 -4.11245 0
M  V30 6239 H 587.013 -0.124542 -4.25118 0
M  V30 6240 N 585.328 1.53329 -0.364422 0
M  V30 6241 C 586.574 2.01537 0.225969 0
M  V30 6242 C 586.907 1.25128 1.48515 0
M  V30 6243 O 586.182 0.344653 1.91422 0
M  V30 6244 C 586.465 3.56339 0.519092 0
M  V30 6245 C 586.318 4.43441 -0.753639 0
M  V30 6246 C 587.637 4.19833 1.32015 0
M  V30 6247 H 584.756 0.732573 0.0806548 0
M  V30 6248 H 587.398 1.83597 -0.489084 0
M  V30 6249 H 585.548 3.71756 1.12825 0
M  V30 6250 H 587.22 4.39823 -1.39116 0
M  V30 6251 H 585.463 4.11457 -1.37424 0
M  V30 6252 H 586.134 5.49699 -0.503517 0
M  V30 6253 H 588.61 4.08242 0.804859 0
M  V30 6254 H 587.486 5.28177 1.49399 0
M  V30 6255 H 587.747 3.75821 2.32832 0
M  V30 6256 N 586.806 0.0935595 1.57322 0
M  V30 6257 C 587.738 -0.895923 2.10964 0
M  V30 6258 C 588.751 -1.24705 1.04654 0
M  V30 6259 O 589.94 -1.20044 1.32105 0
M  V30 6260 C 587.04 -2.20546 2.57318 0
M  V30 6261 C 586.213 -2.0299 3.87445 0
M  V30 6262 C 585.272 -3.17443 4.19662 0
M  V30 6263 O 584.298 -2.91474 4.88909 0
M  V30 6264 N 585.5 -4.43168 3.74943 0
M  V30 6265 H 588.265 -0.437788 2.96485 0
M  V30 6266 H 585.826 -0.0915863 1.61641 0
M  V30 6267 H 587.818 -2.9606 2.75917 0
M  V30 6268 H 586.388 -2.57789 1.76816 0
M  V30 6269 H 585.608 -1.11815 3.78009 0
M  V30 6270 H 586.896 -1.88535 4.7258 0
M  V30 6271 H 586.294 -4.67149 3.19043 0
M  V30 6272 H 584.851 -5.15637 3.987 0
M  V30 6273 N 588.284 -1.56567 -0.180126 0
M  V30 6274 C 589.509 -1.85975 -0.918041 0
M  V30 6275 C 589.934 -0.678888 -1.75422 0
M  V30 6276 O 589.292 0.372168 -1.77439 0
M  V30 6277 C 589.34 -3.13731 -1.77779 0
M  V30 6278 O 588.444 -2.95335 -2.87838 0
M  V30 6279 H 587.785 -0.61196 -0.257683 0
M  V30 6280 H 590.315 -2.03798 -0.180923 0
M  V30 6281 H 590.325 -3.4491 -2.17948 0
M  V30 6282 H 589 -3.99293 -1.16352 0
M  V30 6283 H 587.577 -2.7549 -2.51316 0
M  V30 6284 N 589.762 0.448376 -1.51087 0
M  V30 6285 C 590.692 1.55102 -1.74544 0
M  V30 6286 C 591.673 1.59357 -0.594932 0
M  V30 6287 O 592.858 1.75261 -0.836491 0
M  V30 6288 C 589.988 2.93268 -1.86041 0
M  V30 6289 C 588.942 3.03877 -3.01402 0
M  V30 6290 C 588.268 4.43914 -2.98068 0
M  V30 6291 C 589.568 2.7898 -4.41551 0
M  V30 6292 H 591.262 1.35724 -2.66869 0
M  V30 6293 H 588.808 0.651498 -1.28419 0
M  V30 6294 H 590.761 3.70356 -2.01034 0
M  V30 6295 H 589.485 3.13853 -0.903548 0
M  V30 6296 H 588.144 2.29227 -2.86096 0
M  V30 6297 H 587.792 4.6145 -2.00182 0
M  V30 6298 H 587.492 4.51944 -3.75527 0
M  V30 6299 H 589.016 5.22991 -3.1514 0
M  V30 6300 H 590.43 3.45805 -4.57265 0
M  V30 6301 H 588.827 2.98431 -5.20633 0
M  V30 6302 H 589.897 1.74663 -4.5235 0
M  V30 6303 N 591.24 1.41047 0.703093 0
M  V30 6304 C 592.468 1.4334 1.49202 0
M  V30 6305 C 592.883 0.0365596 1.88765 0
M  V30 6306 O 592.24 -0.942419 1.56284 0
M  V30 6307 C 592.291 2.33538 2.75939 0
M  V30 6308 O 592.012 3.67786 2.38045 0
M  V30 6309 C 593.513 2.44555 3.6974 0
M  V30 6310 H 590.733 0.488472 0.460039 0
M  V30 6311 H 593.277 1.85245 0.86629 0
M  V30 6312 H 591.432 1.94962 3.34766 0
M  V30 6313 H 591.846 4.15816 3.19683 0
M  V30 6314 H 593.32 3.11849 4.55471 0
M  V30 6315 H 593.797 1.47447 4.1371 0
M  V30 6316 H 594.403 2.83735 3.16819 0
M  V30 6317 N 592.718 -0.936591 1.26751 0
M  V30 6318 C 593.65 -2.03991 1.045 0
M  V30 6319 C 594.663 -1.628 0.00394261 0
M  V30 6320 O 595.852 -1.76817 0.244526 0
M  V30 6321 C 592.952 -3.34218 0.561403 0
M  V30 6322 C 592.125 -4.04151 1.67274 0
M  V30 6323 C 591.184 -5.12651 1.1864 0
M  V30 6324 O 590.21 -5.37104 1.88437 0
M  V30 6325 N 591.412 -5.80488 0.037278 0
M  V30 6326 H 594.177 -2.23644 1.99508 0
M  V30 6327 H 591.738 -1.10638 1.18198 0
M  V30 6328 H 593.73 -4.04101 0.220136 0
M  V30 6329 H 592.3 -3.11203 -0.295211 0
M  V30 6330 H 591.52 -3.28121 2.18472 0
M  V30 6331 H 592.808 -4.47626 2.41885 0
M  V30 6332 H 592.206 -5.63064 -0.545494 0
M  V30 6333 H 590.763 -6.5134 -0.244877 0
M  V30 6334 N 594.196 -1.08629 -1.14182 0
M  V30 6335 C 595.444 -0.815731 -1.84906 0
M  V30 6336 C 595.765 0.660441 -1.83475 0
M  V30 6337 O 595.035 1.47888 -1.28476 0
M  V30 6338 H 593.615 -0.298773 -0.684648 0
M  V30 6339 H 596.277 -1.37274 -1.38354 0
M  V30 6340 H 595.373 -1.16193 -2.89665 0
M  V30 6341 N 595.674 1.31259 -0.872281 0
M  V30 6342 C 596.951 1.91362 -0.404943 0
M  V30 6343 C 597.331 1.79362 1.11321 0
M  V30 6344 O 596.679 1.20277 1.94283 0
M  V30 6345 C 596.889 3.3749 -0.888893 0
M  V30 6346 C 598.237 4.14593 -0.916384 0
M  V30 6347 O 599.261 3.46282 -0.834701 0
M  V30 6348 O 598.12 5.3661 -1.03498 0
M  V30 6349 H 595.214 0.818016 -0.121569 0
M  V30 6350 H 597.76 1.39912 -0.960346 0
M  V30 6351 H 596.532 3.40249 -1.93251 0
M  V30 6352 H 596.155 3.96375 -0.311932 0
M  V30 6353 N 597.152 0.631951 1.44375 0
M  V30 6354 C 598.4 0.136497 2.01639 0
M  V30 6355 C 598.721 -1.24637 1.49969 0
M  V30 6356 O 597.991 -1.82827 0.70363 0
M  V30 6357 H 596.571 0.0474703 0.74549 0
M  V30 6358 H 599.233 0.818837 1.76865 0
M  V30 6359 H 598.329 0.104817 3.11924 0
M  V30 6360 N 598.631 -1.53133 0.372548 0
M  V30 6361 C 599.877 -2.01654 -0.215277 0
M  V30 6362 C 600.21 -1.25914 -1.47849 0
M  V30 6363 O 599.485 -0.3548 -1.91237 0
M  V30 6364 C 599.768 -3.56609 -0.500187 0
M  V30 6365 C 599.621 -4.43036 0.777145 0
M  V30 6366 C 600.94 -4.20528 -1.29786 0
M  V30 6367 H 598.059 -0.732991 -0.0767686 0
M  V30 6368 H 600.701 -1.83335 0.498814 0
M  V30 6369 H 598.851 -3.7235 -1.10852 0
M  V30 6370 H 600.523 -4.39079 1.41447 0
M  V30 6371 H 598.766 -4.10723 1.39604 0
M  V30 6372 H 599.437 -5.49424 0.532662 0
M  V30 6373 H 601.913 -4.08663 -0.783198 0
M  V30 6374 H 600.789 -5.28962 -1.46596 0
M  V30 6375 H 601.05 -3.77051 -2.30836 0
M  V30 6376 N 600.109 -0.101901 -1.5727 0
M  V30 6377 C 601.072 0.840129 -2.13247 0
M  V30 6378 C 602.072 1.20625 -1.06331 0
M  V30 6379 O 603.262 1.13456 -1.32186 0
M  V30 6380 C 600.394 2.13372 -2.65867 0
M  V30 6381 H 601.587 0.353945 -2.97804 0
M  V30 6382 H 599.14 0.147167 -1.55606 0
M  V30 6383 H 599.875 2.66461 -1.84849 0
M  V30 6384 H 599.66 1.88085 -3.44044 0
M  V30 6385 H 601.15 2.80748 -3.09145 0
M  V30 6386 N 601.587 1.56661 0.17182 0
M  V30 6387 C 602.534 1.96371 1.21273 0
M  V30 6388 C 603.504 0.82756 1.44016 0
M  V30 6389 O 604.689 1.08764 1.56764 0
M  V30 6390 C 601.829 2.32838 2.54716 0
M  V30 6391 C 600.942 3.59628 2.39356 0
M  V30 6392 C 600.077 3.85311 3.65662 0
M  V30 6393 C 599.116 5.0545 3.45234 0
M  V30 6394 N 598.253 5.27268 4.63608 0
M  V30 6395 H 603.093 2.85106 0.86709 0
M  V30 6396 H 600.63 1.41073 0.416744 0
M  V30 6397 H 602.588 2.52004 3.3249 0
M  V30 6398 H 601.218 1.47214 2.87277 0
M  V30 6399 H 600.27 3.4838 1.52761 0
M  V30 6400 H 601.582 4.4756 2.20207 0
M  V30 6401 H 600.736 4.04841 4.51872 0
M  V30 6402 H 599.475 2.95753 3.8779 0
M  V30 6403 H 598.48 4.85819 2.5741 0
M  V30 6404 H 599.705 5.96538 3.24529 0
M  V30 6405 H 597.651 4.40662 4.85956 0
M  V30 6406 H 597.568 6.09422 4.4737 0
M  V30 6407 H 598.836 5.51277 5.51103 0
M  V30 6408 N 603.065 -0.440357 1.51323 0
M  V30 6409 C 603.995 -1.54174 1.75364 0
M  V30 6410 C 604.976 -1.59039 0.603375 0
M  V30 6411 O 606.161 -1.74815 0.845774 0
M  V30 6412 C 603.291 -2.92277 1.87593 0
M  V30 6413 C 602.245 -3.02274 3.03009 0
M  V30 6414 C 601.571 -4.42327 3.00418 0
M  V30 6415 C 602.871 -2.76634 4.43024 0
M  V30 6416 H 604.565 -1.34307 2.67585 0
M  V30 6417 H 602.111 -0.644678 1.28763 0
M  V30 6418 H 604.064 -3.69284 2.02995 0
M  V30 6419 H 602.788 -3.13369 0.920179 0
M  V30 6420 H 601.447 -2.27706 2.87307 0
M  V30 6421 H 601.095 -4.60382 2.02626 0
M  V30 6422 H 600.795 -4.49946 3.77918 0
M  V30 6423 H 602.319 -5.21312 3.17909 0
M  V30 6424 H 603.733 -3.43376 4.59093 0
M  V30 6425 H 602.13 -2.95666 5.22208 0
M  V30 6426 H 603.2 -1.72262 4.5327 0
M  V30 6427 N 604.543 -1.41418 -0.695603 0
M  V30 6428 C 605.768 -1.44329 -1.48942 0
M  V30 6429 C 606.193 -0.0501579 -1.88033 0
M  V30 6430 O 605.551 0.946598 -1.54626 0
M  V30 6431 C 605.599 -2.3578 -2.72837 0
M  V30 6432 O 604.703 -1.81482 -3.70322 0
M  V30 6433 H 604.044 -0.489838 -0.44828 0
M  V30 6434 H 606.574 -1.85878 -0.855014 0
M  V30 6435 H 606.584 -2.51654 -3.21145 0
M  V30 6436 H 605.259 -3.37005 -2.43722 0
M  V30 6437 H 603.836 -1.75058 -3.29255 0
M  V30 6438 N 606.021 0.929856 -1.27246 0
M  V30 6439 C 607.27 1.67182 -1.12842 0
M  V30 6440 C 607.583 1.9287 0.325666 0
M  V30 6441 O 608.789 2.64999 0.590572 0
M  V30 6442 C 607.245 3.01097 -1.97151 0
M  V30 6443 C 606.853 2.83115 -3.47203 0
M  V30 6444 C 608.597 3.78907 -1.91389 0
M  V30 6445 C 606.504 4.12573 -4.23719 0
M  V30 6446 H 605.434 0.627064 -0.418697 0
M  V30 6447 H 608.085 1.0332 -1.51649 0
M  V30 6448 H 606.467 3.66004 -1.51186 0
M  V30 6449 H 607.641 2.26989 -4.01015 0
M  V30 6450 H 605.956 2.18736 -3.54321 0
M  V30 6451 H 608.553 4.74837 -2.45834 0
M  V30 6452 H 608.896 4.0674 -0.887047 0
M  V30 6453 H 609.429 3.20794 -2.35237 0
M  V30 6454 H 606.168 3.8992 -5.26918 0
M  V30 6455 H 605.688 4.68371 -3.74685 0
M  V30 6456 H 607.367 4.8095 -4.32777 0
M  V30 6457 N 607.499 1.09233 1.13605 0
M  V30 6458 C 608.447 0.724572 2.21027 0
M  V30 6459 C 609.441 -0.273595 1.67176 0
M  V30 6460 O 610.647 -0.135266 1.79491 0
M  V30 6461 H 607.022 0.216319 0.720215 0
M  V30 6462 H 608.993 1.63975 2.49309 0
M  V30 6463 C 607.742 0.159126 3.47336 0
M  V30 6464 H 607.065 0.918387 3.89109 0
M  V30 6465 H 608.505 -0.0602851 4.23957 0
M  V30 6466 C 606.964 -1.10514 3.18258 0
M  V30 6467 O 607.494 -2.18869 3.36837 0
M  V30 6468 N 605.7 -1.01886 2.72154 0
M  V30 6469 H 605.247 -0.137027 2.57235 0
M  V30 6470 H 605.205 -1.8655 2.53074 0
M  V30 6471 N 608.977 -1.30795 0.87923 0
M  V30 6472 C 610.205 -2.00527 0.509548 0
M  V30 6473 C 610.62 -1.65944 -0.90045 0
M  V30 6474 O 609.977 -0.893525 -1.5913 0
M  V30 6475 C 610.028 -3.55276 0.667943 0
M  V30 6476 O 609.749 -3.88625 2.02242 0
M  V30 6477 C 611.25 -4.4228 0.300494 0
M  V30 6478 H 608.47 -0.641261 0.197549 0
M  V30 6479 H 611.014 -1.66813 1.18295 0
M  V30 6480 H 609.169 -3.87377 0.0419843 0
M  V30 6481 H 609.583 -4.83334 2.03688 0
M  V30 6482 H 611.057 -5.50061 0.462242 0
M  V30 6483 H 611.534 -4.32556 -0.76106 0
M  V30 6484 H 612.14 -4.15613 0.902536 0
M  V30 6485 N 610.455 -0.639598 -1.44038 0
M  V30 6486 C 611.405 0.0823038 -2.27851 0
M  V30 6487 C 612.389 0.807991 -1.39141 0
M  V30 6488 O 613.581 0.692702 -1.62882 0
M  V30 6489 C 610.71 1.05742 -3.26609 0
M  V30 6490 C 609.796 0.330911 -4.22807 0
M  V30 6491 N 610.187 -0.645126 -5.01669 0
M  V30 6492 C 608.485 0.574214 -4.42288 0
M  V30 6493 C 609.186 -1.07513 -5.71678 0
M  V30 6494 N 608.162 -0.412164 -5.42035 0
M  V30 6495 H 611.964 -0.666861 -2.86234 0
M  V30 6496 H 609.478 -0.465777 -1.55577 0
M  V30 6497 H 611.475 1.58927 -3.85419 0
M  V30 6498 H 610.135 1.80679 -2.69787 0
M  V30 6499 H 611.146 -1.02329 -5.0769 0
M  V30 6500 H 607.823 1.30581 -3.96554 0
M  V30 6501 H 609.213 -1.88196 -6.45005 0
M  V30 6502 N 611.933 1.52934 -0.380664 0
M  V30 6503 C 613.344 1.86457 0.0952684 0
M  V30 6504 C 613.695 1.3007 1.46889 0
M  V30 6505 O 612.82 0.628636 2.07068 0
M  V30 6506 C 613.415 3.38323 0.179648 0
M  V30 6507 C 611.974 3.71589 0.599858 0
M  V30 6508 C 611.121 2.76228 -0.243572 0
M  V30 6509 H 614.072 1.46966 -0.59888 0
M  V30 6510 H 614.093 3.67113 1.00042 0
M  V30 6511 H 613.605 3.79333 -0.820228 0
M  V30 6512 H 611.706 3.36144 1.60742 0
M  V30 6513 H 611.819 4.77715 0.364003 0
M  V30 6514 H 610.183 2.53045 0.289855 0
M  V30 6515 H 610.966 3.20074 -1.24127 0
M  V30 6516 N 613.412 0.11024 1.57214 0
M  V30 6517 C 614.637 -0.561179 1.99664 0
M  V30 6518 C 615.062 -1.59985 0.989266 0
M  V30 6519 O 614.42 -1.81255 -0.0402399 0
M  V30 6520 C 614.468 -1.17189 3.41027 0
M  V30 6521 O 613.572 -2.28755 3.4314 0
M  V30 6522 H 612.913 -0.14101 0.648855 0
M  V30 6523 H 615.443 0.196128 2.03658 0
M  V30 6524 H 615.453 -1.50954 3.79047 0
M  V30 6525 H 614.128 -0.411041 4.13864 0
M  V30 6526 H 612.705 -1.96495 3.16929 0
M  V30 6527 N 614.89 -1.56749 -0.16351 0
M  V30 6528 C 615.822 -1.93587 -1.22705 0
M  V30 6529 C 616.835 -0.829824 -1.40063 0
M  V30 6530 O 618.024 -1.10826 -1.39928 0
M  V30 6531 C 615.124 -2.1803 -2.59454 0
M  V30 6532 C 614.297 -3.4928 -2.63292 0
M  V30 6533 C 613.356 -3.62457 -3.8146 0
M  V30 6534 O 612.382 -4.35004 -3.67096 0
M  V30 6535 N 613.584 -2.97888 -4.9824 0
M  V30 6536 H 616.349 -2.8542 -0.914081 0
M  V30 6537 H 613.91 -1.58 -0.353214 0
M  V30 6538 H 615.902 -2.24102 -3.36987 0
M  V30 6539 H 614.472 -1.32543 -2.8311 0
M  V30 6540 H 613.692 -3.54795 -1.71796 0
M  V30 6541 H 614.98 -4.35632 -2.62873 0
M  V30 6542 H 614.378 -2.38833 -5.12811 0
M  V30 6543 H 612.935 -3.09545 -5.73607 0
M  V30 6544 N 616.368 0.432326 -1.51554 0
M  V30 6545 C 617.315 1.52512 -1.7323 0
M  V30 6546 C 618.285 1.55863 -0.5741 0
M  V30 6547 O 619.47 1.72796 -0.809093 0
M  V30 6548 C 616.61 2.90183 -1.86783 0
M  V30 6549 C 615.723 2.96322 -3.14352 0
M  V30 6550 C 614.858 4.25147 -3.18471 0
M  V30 6551 C 613.897 4.25172 -4.40335 0
M  V30 6552 N 613.034 5.45529 -4.41975 0
M  V30 6553 H 617.874 1.33332 -2.66508 0
M  V30 6554 H 615.411 0.647613 -1.32077 0
M  V30 6555 H 617.369 3.70071 -1.92623 0
M  V30 6556 H 615.999 3.0791 -0.969087 0
M  V30 6557 H 615.051 2.09066 -3.17798 0
M  V30 6558 H 616.363 2.92203 -4.04251 0
M  V30 6559 H 615.517 5.13411 -3.23255 0
M  V30 6560 H 614.256 4.31929 -2.2647 0
M  V30 6561 H 613.261 3.353 -4.35723 0
M  V30 6562 H 614.486 4.20049 -5.33606 0
M  V30 6563 H 612.432 5.53024 -3.52847 0
M  V30 6564 H 612.349 5.43311 -5.25689 0
M  V30 6565 H 613.617 6.35812 -4.50958 0
M  V30 6566 N 617.846 1.41785 0.688094 0
M  V30 6567 C 619.257 1.3701 1.26828 0
M  V30 6568 C 619.608 0.056835 1.96118 0
M  V30 6569 O 618.733 -0.84475 1.99231 0
M  V30 6570 C 619.328 2.48168 2.30648 0
M  V30 6571 C 617.887 2.46766 2.84224 0
M  V30 6572 C 617.034 2.27633 1.58361 0
M  V30 6573 H 619.985 1.51192 0.482351 0
M  V30 6574 H 620.006 2.17655 3.121 0
M  V30 6575 H 619.518 3.43735 1.80188 0
M  V30 6576 H 617.619 1.54978 3.3884 0
M  V30 6577 H 617.732 3.43342 3.34145 0
M  V30 6578 H 616.096 1.75648 1.84445 0
M  V30 6579 H 616.879 3.25238 1.09887 0
M  V30 6580 N 619.324 -0.923095 1.27737 0
M  V30 6581 C 620.254 -2.04124 1.13383 0
M  V30 6582 C 621.235 -1.70066 0.0340658 0
M  V30 6583 O 622.42 -1.93068 0.209383 0
M  V30 6584 C 619.55 -3.3831 0.785097 0
M  V30 6585 C 618.504 -3.86496 1.8386 0
M  V30 6586 C 617.83 -5.1754 1.34373 0
M  V30 6587 C 619.13 -4.09381 3.24353 0
M  V30 6588 H 620.824 -2.1639 2.06919 0
M  V30 6589 H 618.37 -1.03976 0.996243 0
M  V30 6590 H 620.323 -4.16016 0.671485 0
M  V30 6591 H 619.047 -3.2607 -0.185969 0
M  V30 6592 H 617.706 -3.10987 1.9412 0
M  V30 6593 H 617.354 -5.01696 0.361989 0
M  V30 6594 H 617.054 -5.50751 2.04811 0
M  V30 6595 H 618.578 -5.97811 1.24315 0
M  V30 6596 H 619.992 -4.77641 3.17067 0
M  V30 6597 H 618.389 -4.53906 3.92542 0
M  V30 6598 H 619.459 -3.14515 3.69064 0
M  V30 6599 N 620.802 -1.09834 -1.13024 0
M  V30 6600 C 622.027 -0.85909 -1.88771 0
M  V30 6601 C 622.452 0.584402 -1.78791 0
M  V30 6602 O 621.81 1.41101 -1.13842 0
M  V30 6603 C 621.858 -1.30427 -3.36186 0
M  V30 6604 O 620.962 -0.465368 -4.09766 0
M  V30 6605 H 620.303 -0.310786 -0.586778 0
M  V30 6606 H 622.833 -1.46355 -1.42973 0
M  V30 6607 H 622.843 -1.2915 -3.8702 0
M  V30 6608 H 621.518 -2.3555 -3.42767 0
M  V30 6609 H 620.095 -0.542814 -3.68928 0
M  V30 6610 N 622.28 1.30327 -0.886154 0
M  V30 6611 C 623.529 1.95373 -0.501243 0
M  V30 6612 C 623.842 1.70722 0.954634 0
M  V30 6613 O 625.048 2.29761 1.44644 0
M  V30 6614 C 623.504 3.49828 -0.845493 0
M  V30 6615 C 623.112 3.83296 -2.31922 0
M  V30 6616 C 624.856 4.2118 -0.529838 0
M  V30 6617 C 622.763 5.30935 -2.60504 0
M  V30 6618 H 621.693 0.731274 -0.183722 0
M  V30 6619 H 624.344 1.48258 -1.08129 0
M  V30 6620 H 622.726 3.95522 -0.19452 0
M  V30 6621 H 623.9 3.48508 -3.01461 0
M  V30 6622 H 622.215 3.2505 -2.60253 0
M  V30 6623 H 624.812 5.29825 -0.720401 0
M  V30 6624 H 625.155 4.12902 0.530828 0
M  V30 6625 H 625.688 3.81173 -1.13806 0
M  V30 6626 H 622.427 5.44265 -3.65316 0
M  V30 6627 H 621.947 5.67019 -1.95575 0
M  V30 6628 H 623.626 5.98381 -2.46066 0
M  V30 6629 N 623.758 0.647228 1.43697 0
M  V30 6630 C 624.986 0.16575 2.06235 0
M  V30 6631 C 625.401 -1.1662 1.48476 0
M  V30 6632 O 624.758 -1.7187 0.613762 0
M  V30 6633 C 624.809 0.0621651 3.61447 0
M  V30 6634 O 624.53 1.34146 4.17057 0
M  V30 6635 C 626.031 -0.446102 4.4105 0
M  V30 6636 H 623.251 0.0871158 0.665321 0
M  V30 6637 H 625.795 0.886183 1.84301 0
M  V30 6638 H 623.95 -0.608794 3.82587 0
M  V30 6639 H 624.364 1.19675 5.10664 0
M  V30 6640 H 625.838 -0.46755 5.50016 0
M  V30 6641 H 626.315 -1.47627 4.13646 0
M  V30 6642 H 626.921 0.192159 4.24866 0
M  V30 6643 N 625.236 -1.5273 0.388769 0
M  V30 6644 C 626.482 -2.01871 -0.193877 0
M  V30 6645 C 626.815 -1.27475 -1.46505 0
M  V30 6646 O 626.09 -0.375063 -1.90849 0
M  V30 6647 C 626.373 -3.5712 -0.462336 0
M  V30 6648 C 626.226 -4.42186 0.824091 0
M  V30 6649 C 627.545 -4.21881 -1.25319 0
M  V30 6650 H 624.664 -0.733764 -0.0689899 0
M  V30 6651 H 627.306 -1.82796 0.518231 0
M  V30 6652 H 625.456 -3.73504 -1.06896 0
M  V30 6653 H 627.128 -4.37554 1.46096 0
M  V30 6654 H 625.371 -4.09219 1.43952 0
M  V30 6655 H 626.042 -5.48828 0.590905 0
M  V30 6656 H 628.518 -4.0947 -0.73981 0
M  V30 6657 H 627.394 -5.30487 -1.40977 0
M  V30 6658 H 627.655 -3.79478 -2.26824 0
M  V30 6659 N 626.714 -0.118576 -1.57153 0
M  V30 6660 C 628.13 0.238014 -1.57815 0
M  V30 6661 C 628.33 1.66747 -1.13127 0
M  V30 6662 O 627.386 2.38867 -0.818462 0
M  V30 6663 C 628.699 0.00508207 -3.007 0
M  V30 6664 C 630.247 0.0710139 -3.12919 0
M  V30 6665 C 630.722 -0.13422 -4.57803 0
M  V30 6666 N 632.213 -0.0801755 -4.63131 0
M  V30 6667 C 632.948 -0.213885 -5.73001 0
M  V30 6668 N 632.444 -0.403742 -6.91623 0
M  V30 6669 N 634.237 -0.15349 -5.6189 0
M  V30 6670 H 626.388 -1.05226 -1.84503 0
M  V30 6671 H 628.651 -0.414318 -0.852669 0
M  V30 6672 H 628.357 -0.983125 -3.3768 0
M  V30 6673 H 628.231 0.73714 -3.69927 0
M  V30 6674 H 630.618 1.04975 -2.75798 0
M  V30 6675 H 630.699 -0.692918 -2.46236 0
M  V30 6676 H 630.343 -1.10992 -4.95624 0
M  V30 6677 H 630.273 0.649692 -5.22577 0
M  V30 6678 H 632.764 0.0630689 -3.77847 0
M  V30 6679 H 633.077 -0.496645 -7.71202 0
M  V30 6680 H 631.422 -0.43971 -6.93608 0
M  V30 6681 H 634.613 -0.00613174 -4.681 0
M  V30 6682 H 634.786 -0.261138 -6.47474 0
M  V30 6683 N 628.193 1.56834 0.155195 0
M  V30 6684 C 629.421 1.87049 0.884326 0
M  V30 6685 C 629.836 0.705839 1.7511 0
M  V30 6686 O 629.193 -0.324641 1.79589 0
M  V30 6687 C 629.244 3.1644 1.74781 0
M  V30 6688 O 628.965 4.28417 0.915978 0
M  V30 6689 C 630.466 3.60113 2.58522 0
M  V30 6690 H 627.686 0.620196 0.25612 0
M  V30 6691 H 630.23 2.03946 0.150445 0
M  V30 6692 H 628.385 3.01321 2.43484 0
M  V30 6693 H 628.799 5.02353 1.50803 0
M  V30 6694 H 630.273 4.53508 3.14698 0
M  V30 6695 H 630.75 2.85005 3.34169 0
M  V30 6696 H 631.356 3.77898 1.95124 0
M  V30 6697 N 629.671 -0.424282 1.51781 0
M  V30 6698 C 630.618 -1.51591 1.74037 0
M  V30 6699 C 631.588 -1.55556 0.582358 0
M  V30 6700 O 632.773 -1.72364 0.818245 0
M  V30 6701 C 629.913 -2.89188 1.8832 0
M  V30 6702 C 629.026 -2.9465 3.1592 0
M  V30 6703 C 628.161 -4.23452 3.20721 0
M  V30 6704 C 627.2 -4.22831 4.42584 0
M  V30 6705 N 626.337 -5.43178 4.44862 0
M  V30 6706 H 631.177 -1.31917 2.67212 0
M  V30 6707 H 628.714 -0.640599 1.32419 0
M  V30 6708 H 630.672 -3.69044 1.94583 0
M  V30 6709 H 629.302 -3.07392 0.985402 0
M  V30 6710 H 628.354 -2.07378 3.18902 0
M  V30 6711 H 629.666 -2.90055 4.05795 0
M  V30 6712 H 628.82 -5.1169 3.25973 0
M  V30 6713 H 627.559 -4.30722 2.28757 0
M  V30 6714 H 626.564 -3.32984 4.37495 0
M  V30 6715 H 627.789 -4.17213 5.35826 0
M  V30 6716 H 625.735 -5.51145 3.55775 0
M  V30 6717 H 625.652 -5.40515 5.28563 0
M  V30 6718 H 626.92 -6.33412 4.54324 0
M  V30 6719 N 631.149 -1.42148 -0.680565 0
M  V30 6720 C 632.096 -1.45175 -1.79424 0
M  V30 6721 C 633.066 -0.304352 -1.63288 0
M  V30 6722 O 634.251 -0.507591 -1.83924 0
M  V30 6723 C 631.391 -1.35429 -3.17416 0
M  V30 6724 C 630.504 -2.60158 -3.4488 0
M  V30 6725 C 629.639 -2.42596 -4.72568 0
M  V30 6726 C 628.678 -3.62727 -4.93047 0
M  V30 6727 N 627.815 -3.44143 -6.11973 0
M  V30 6728 H 632.655 -2.40349 -1.76172 0
M  V30 6729 H 630.192 -1.19334 -0.860107 0
M  V30 6730 H 632.15 -1.27777 -3.97151 0
M  V30 6731 H 630.78 -0.438536 -3.19807 0
M  V30 6732 H 629.832 -2.78199 -2.5944 0
M  V30 6733 H 631.144 -3.49473 -3.55908 0
M  V30 6734 H 630.298 -2.32497 -5.60384 0
M  V30 6735 H 629.037 -1.50761 -4.63813 0
M  V30 6736 H 628.042 -3.73264 -4.03676 0
M  V30 6737 H 629.267 -4.55534 -5.03652 0
M  V30 6738 H 627.213 -2.5502 -6.04401 0
M  V30 6739 H 627.13 -4.27041 -6.23836 0
M  V30 6740 H 628.398 -3.37845 -7.02482 0
M  V30 6741 N 632.627 0.916307 -1.28225 0
M  V30 6742 C 633.559 2.02303 -1.07732 0
M  V30 6743 C 634.572 1.62773 -0.0298421 0
M  V30 6744 O 635.761 1.76406 -0.272626 0
M  V30 6745 C 632.861 3.33282 -0.614504 0
M  V30 6746 C 632.034 4.01439 -1.73682 0
M  V30 6747 C 631.093 5.10698 -1.26781 0
M  V30 6748 O 630.119 5.34038 -1.96958 0
M  V30 6749 N 631.321 5.80355 -0.129624 0
M  V30 6750 H 634.086 2.20442 -2.03041 0
M  V30 6751 H 631.647 1.08744 -1.19943 0
M  V30 6752 H 633.639 4.03699 -0.284397 0
M  V30 6753 H 632.209 3.11633 0.245664 0
M  V30 6754 H 631.429 3.24604 -2.23665 0
M  V30 6755 H 632.717 4.43721 -2.48976 0
M  V30 6756 H 632.115 5.6386 0.455847 0
M  V30 6757 H 630.672 6.51647 0.141224 0
M  V30 6758 N 634.105 1.10431 1.1244 0
M  V30 6759 C 635.015 0.765502 2.21759 0
M  V30 6760 C 636.031 -0.236966 1.72379 0
M  V30 6761 O 637.207 -0.0757329 2.01258 0
M  V30 6762 C 634.272 0.202316 3.46109 0
M  V30 6763 C 633.333 1.26205 4.1033 0
M  V30 6764 C 632.566 0.725648 5.28744 0
M  V30 6765 O 632.789 -0.447942 5.68638 0
M  V30 6766 O 631.723 1.48555 5.83279 0
M  V30 6767 H 635.549 1.67801 2.53133 0
M  V30 6768 H 633.134 0.879443 1.20773 0
M  V30 6769 H 635.016 -0.107918 4.21262 0
M  V30 6770 H 633.691 -0.683052 3.16411 0
M  V30 6771 H 632.598 1.62514 3.36957 0
M  V30 6772 H 633.931 2.12044 4.44183 0
M  V30 6773 N 635.583 -1.29855 0.893053 0
M  V30 6774 C 636.513 -2.3035 0.382249 0
M  V30 6775 C 637.494 -1.61328 -0.539203 0
M  V30 6776 O 638.679 -1.88882 -0.451342 0
M  V30 6777 C 635.809 -3.45024 -0.396983 0
M  V30 6778 C 634.763 -4.258 0.433437 0
M  V30 6779 C 634.089 -5.32605 -0.472889 0
M  V30 6780 C 635.389 -4.94549 1.67984 0
M  V30 6781 H 637.083 -2.73325 1.22205 0
M  V30 6782 H 634.629 -1.314 0.589073 0
M  V30 6783 H 636.582 -4.14398 -0.765024 0
M  V30 6784 H 635.306 -3.00875 -1.2705 0
M  V30 6785 H 633.965 -3.58125 0.783723 0
M  V30 6786 H 633.613 -4.84702 -1.34435 0
M  V30 6787 H 633.313 -5.87547 0.0789958 0
M  V30 6788 H 634.837 -6.04832 -0.837269 0
M  V30 6789 H 636.251 -5.56395 1.38192 0
M  V30 6790 H 634.648 -5.59393 2.17254 0
M  V30 6791 H 635.718 -4.20215 2.41965 0
M  V30 6792 N 637.061 -0.65484 -1.43351 0
M  V30 6793 C 638.286 -0.175046 -2.0666 0
M  V30 6794 C 638.711 1.15104 -1.4877 0
M  V30 6795 O 638.069 1.71144 -0.598279 0
M  V30 6796 C 638.117 -0.0991544 -3.60464 0
M  V30 6797 O 637.221 0.938169 -4.01587 0
M  V30 6798 H 636.562 -0.0956148 -0.65708 0
M  V30 6799 H 639.092 -0.898222 -1.83829 0
M  V30 6800 H 639.102 0.083632 -4.07914 0
M  V30 6801 H 637.777 -1.06719 -4.01975 0
M  V30 6802 H 636.354 0.72804 -3.65724 0
M  V30 6803 N 638.539 1.52521 -0.396863 0
M  V30 6804 C 639.449 2.30403 0.44178 0
M  V30 6805 C 640.465 1.37625 1.06468 0
M  V30 6806 O 641.641 1.70697 1.06886 0
M  V30 6807 C 638.706 3.1013 1.54986 0
M  V30 6808 C 637.767 4.18628 0.951279 0
M  V30 6809 C 637 4.94543 2.00655 0
M  V30 6810 O 637.223 4.70629 3.22281 0
M  V30 6811 O 636.157 5.797 1.61962 0
M  V30 6812 H 639.983 3.03087 -0.192892 0
M  V30 6813 H 637.568 1.48537 -0.16038 0
M  V30 6814 H 639.45 3.59816 2.19341 0
M  V30 6815 H 638.125 2.40251 2.16935 0
M  V30 6816 H 637.032 3.73119 0.270773 0
M  V30 6817 H 638.365 4.90763 0.375887 0
M  V30 6818 N 640.017 0.126909 1.57088 0
M  V30 6819 C 640.98 -0.806097 2.14557 0
M  V30 6820 C 641.98 -1.18918 1.08236 0
M  V30 6821 O 643.17 -1.11339 1.33975 0
M  V30 6822 C 640.302 -2.09116 2.69227 0
M  V30 6823 H 641.495 -0.306522 2.98329 0
M  V30 6824 H 639.048 -0.122393 1.5582 0
M  V30 6825 H 639.783 -2.63486 1.89065 0
M  V30 6826 H 639.568 -1.82588 3.46993 0
M  V30 6827 H 641.058 -2.75794 3.13572 0
M  V30 6828 N 641.495 -1.56914 -0.146875 0
M  V30 6829 C 642.405 -2.0154 -1.20079 0
M  V30 6830 C 643.421 -0.930838 -1.47008 0
M  V30 6831 O 644.597 -1.24032 -1.58676 0
M  V30 6832 C 641.662 -2.38715 -2.51428 0
M  V30 6833 C 640.723 -3.6112 -2.32145 0
M  V30 6834 C 639.956 -3.96512 -3.57231 0
M  V30 6835 O 640.179 -3.32566 -4.63418 0
M  V30 6836 O 639.113 -4.89758 -3.49887 0
M  V30 6837 H 642.939 -2.91506 -0.851924 0
M  V30 6838 H 640.524 -1.45106 -0.355607 0
M  V30 6839 H 642.406 -2.63485 -3.28867 0
M  V30 6840 H 641.081 -1.51903 -2.85845 0
M  V30 6841 H 639.988 -3.41536 -1.52656 0
M  V30 6842 H 641.321 -4.48549 -2.02644 0
M  V30 6843 N 642.974 0.416227 -1.52004 0
M  V30 6844 C 643.906 1.52552 -1.71058 0
M  V30 6845 C 644.919 1.51693 -0.59102 0
M  V30 6846 O 646.108 1.56087 -0.865973 0
M  V30 6847 C 643.208 2.91455 -1.72937 0
M  V30 6848 C 642.381 3.16584 -3.01816 0
M  V30 6849 C 641.44 4.35322 -2.95603 0
M  V30 6850 O 640.466 4.32947 -3.6952 0
M  V30 6851 N 641.668 5.40049 -2.12903 0
M  V30 6852 H 644.433 1.36604 -2.66757 0
M  V30 6853 H 641.994 0.60544 -1.50153 0
M  V30 6854 H 643.986 3.68944 -1.66321 0
M  V30 6855 H 642.556 3.00895 -0.847418 0
M  V30 6856 H 641.776 2.27203 -3.22137 0
M  V30 6857 H 643.064 3.30213 -3.87088 0
M  V30 6858 H 642.462 5.44823 -1.52265 0
M  V30 6859 H 641.019 6.16308 -2.1215 0
M  V30 6860 N 644.452 1.42507 0.673017 0
M  V30 6861 C 645.415 1.4582 1.76831 0
M  V30 6862 C 646.415 0.345542 1.57043 0
M  V30 6863 O 647.605 0.606447 1.63303 0
M  V30 6864 C 644.737 1.29158 3.15485 0
M  V30 6865 H 645.93 2.43345 1.7528 0
M  V30 6866 H 643.483 1.28981 0.882817 0
M  V30 6867 H 644.218 0.325626 3.22661 0
M  V30 6868 H 644.003 2.09797 3.31252 0
M  V30 6869 H 645.493 1.34363 3.95394 0
M  V30 6870 N 645.93 -0.909495 1.28709 0
M  V30 6871 C 647.158 -1.69272 1.18973 0
M  V30 6872 C 647.573 -1.87123 -0.251048 0
M  V30 6873 O 646.93 -1.40127 -1.16922 0
M  V30 6874 C 646.981 -3.08257 1.88839 0
M  V30 6875 O 646.702 -2.91228 3.27289 0
M  V30 6876 C 648.203 -4.02642 1.85457 0
M  V30 6877 H 645.423 -0.528999 0.412797 0
M  V30 6878 H 647.967 -1.13803 1.69909 0
M  V30 6879 H 646.122 -3.6053 1.41762 0
M  V30 6880 H 646.536 -3.79223 3.6234 0
M  V30 6881 H 648.01 -4.97613 2.38925 0
M  V30 6882 H 648.487 -4.31327 0.827893 0
M  V30 6883 H 649.093 -3.56298 2.32233 0
M  V30 6884 N 647.408 -1.11026 -1.11852 0
M  V30 6885 C 648.824 -0.843294 -1.35502 0
M  V30 6886 C 649.024 0.534179 -1.9429 0
M  V30 6887 O 648.08 1.28585 -2.17307 0
M  V30 6888 C 649.393 -1.94793 -2.29077 0
M  V30 6889 C 650.941 -1.97709 -2.42652 0
M  V30 6890 C 651.416 -3.07364 -3.39546 0
M  V30 6891 N 652.907 -3.0671 -3.47107 0
M  V30 6892 C 653.642 -3.88197 -4.22008 0
M  V30 6893 N 653.138 -4.79635 -4.99922 0
M  V30 6894 N 654.931 -3.76391 -4.17476 0
M  V30 6895 H 647.082 -1.99805 -0.720538 0
M  V30 6896 H 649.345 -0.868633 -0.379711 0
M  V30 6897 H 649.051 -2.93971 -1.93065 0
M  V30 6898 H 648.925 -1.84039 -3.29256 0
M  V30 6899 H 651.312 -0.991604 -2.77941 0
M  V30 6900 H 651.393 -2.1254 -1.4234 0
M  V30 6901 H 651.037 -4.06136 -3.04985 0
M  V30 6902 H 650.967 -2.89774 -4.39703 0
M  V30 6903 H 653.458 -2.40457 -2.91528 0
M  V30 6904 H 653.771 -5.38357 -5.54429 0
M  V30 6905 H 652.116 -4.8366 -4.99097 0
M  V30 6906 H 655.307 -3.04303 -3.55693 0
M  V30 6907 H 655.48 -4.40131 -4.75593 0
M  V30 6908 N 648.886 1.2938 -0.899927 0
M  V30 6909 C 650.114 1.99691 -0.541386 0
M  V30 6910 C 650.529 1.67355 0.873936 0
M  V30 6911 O 649.886 0.918728 1.57688 0
M  V30 6912 C 649.937 3.54168 -0.72438 0
M  V30 6913 O 649.658 3.85359 -2.08399 0
M  V30 6914 C 651.159 4.41746 -0.370819 0
M  V30 6915 H 648.379 0.638037 -0.207726 0
M  V30 6916 H 650.923 1.6491 -1.20934 0
M  V30 6917 H 649.078 3.87261 -0.103607 0
M  V30 6918 H 649.492 4.80032 -2.11352 0
M  V30 6919 H 650.966 5.49256 -0.549693 0
M  V30 6920 H 651.443 4.33712 0.692148 0
M  V30 6921 H 652.049 4.14125 -0.968543 0
M  V30 6922 N 650.364 0.662433 1.43002 0
M  V30 6923 C 651.297 -0.073459 2.28082 0
M  V30 6924 C 652.275 -0.820869 1.40358 0
M  V30 6925 O 653.459 -0.818545 1.698 0
M  V30 6926 C 650.586 -1.11097 3.19961 0
M  V30 6927 C 649.632 -0.460557 4.24006 0
M  V30 6928 S 650.465 0.772717 5.29896 0
M  V30 6929 C 651.621 -0.264028 6.25343 0
M  V30 6930 H 651.854 0.648227 2.90147 0
M  V30 6931 H 649.387 0.451566 1.47649 0
M  V30 6932 H 651.345 -1.70452 3.73439 0
M  V30 6933 H 650.006 -1.80503 2.57056 0
M  V30 6934 H 649.199 -1.24299 4.88432 0
M  V30 6935 H 648.801 0.0591038 3.73953 0
M  V30 6936 H 651.093 -1.12748 6.68052 0
M  V30 6937 H 652.036 0.345443 7.07257 0
M  V30 6938 H 652.444 -0.603964 5.6126 0
M  V30 6939 N 651.842 -1.52309 0.404946 0
M  V30 6940 C 652.774 -2.24579 -0.45791 0
M  V30 6941 C 653.787 -1.2739 -1.01369 0
M  V30 6942 O 654.976 -1.53363 -0.91335 0
M  V30 6943 C 652.076 -2.9608 -1.64893 0
M  V30 6944 C 651.249 -4.20106 -1.21777 0
M  V30 6945 C 650.308 -4.74468 -2.27523 0
M  V30 6946 O 649.334 -5.37157 -1.88285 0
M  V30 6947 N 650.536 -4.55678 -3.59635 0
M  V30 6948 H 653.301 -2.99265 0.161341 0
M  V30 6949 H 650.862 -1.60228 0.232107 0
M  V30 6950 H 652.854 -3.29344 -2.35191 0
M  V30 6951 H 651.424 -2.24606 -2.17419 0
M  V30 6952 H 650.644 -3.92704 -0.343071 0
M  V30 6953 H 651.932 -5.00658 -0.906596 0
M  V30 6954 H 651.33 -4.05673 -3.94266 0
M  V30 6955 H 649.887 -4.9339 -4.25922 0
M  V30 6956 N 653.32 -0.135238 -1.57019 0
M  V30 6957 C 654.283 0.794707 -2.14981 0
M  V30 6958 C 655.283 1.18342 -1.08866 0
M  V30 6959 O 656.473 1.10627 -1.34563 0
M  V30 6960 C 653.605 2.07685 -2.70333 0
M  V30 6961 H 654.798 0.290696 -2.98488 0
M  V30 6962 H 652.351 0.114128 -1.55883 0
M  V30 6963 H 653.086 2.6248 -1.9046 0
M  V30 6964 H 652.871 1.80745 -3.47957 0
M  V30 6965 H 654.361 2.74127 -3.1503 0
M  V30 6966 N 654.798 1.5699 0.138552 0
M  V30 6967 C 655.728 2.01933 1.17241 0
M  V30 6968 C 656.709 0.90033 1.44319 0
M  V30 6969 O 657.894 1.16872 1.55095 0
M  V30 6970 C 655.024 2.40711 2.50351 0
M  V30 6971 C 653.978 3.55874 2.37776 0
M  V30 6972 C 653.304 3.80491 3.75674 0
M  V30 6973 C 654.604 4.8826 1.85472 0
M  V30 6974 H 656.298 2.88551 0.798672 0
M  V30 6975 H 653.844 1.3882 0.382743 0
M  V30 6976 H 655.797 2.70754 3.22909 0
M  V30 6977 H 654.521 1.5104 2.89576 0
M  V30 6978 H 653.18 3.2601 1.67669 0
M  V30 6979 H 652.828 2.88057 4.12349 0
M  V30 6980 H 652.528 4.57998 3.68119 0
M  V30 6981 H 654.052 4.12967 4.49767 0
M  V30 6982 H 655.466 5.16965 2.4783 0
M  V30 6983 H 653.863 5.69631 1.88787 0
M  V30 6984 H 654.933 4.78071 0.810935 0
M  V30 6985 N 656.276 -0.40816 1.52223 0
M  V30 6986 C 657.687 -0.986929 1.58482 0
M  V30 6987 C 658.038 -1.91521 0.425917 0
M  V30 6988 O 657.163 -2.11593 -0.453593 0
M  V30 6989 C 657.758 -1.7967 2.87235 0
M  V30 6990 C 656.317 -2.32549 2.9597 0
M  V30 6991 C 655.464 -1.12558 2.53428 0
M  V30 6992 H 658.415 -0.188362 1.57578 0
M  V30 6993 H 658.436 -2.65417 2.72642 0
M  V30 6994 H 657.948 -1.12082 3.71563 0
M  V30 6995 H 656.049 -3.03505 2.16137 0
M  V30 6996 H 656.162 -2.63348 4.00231 0
M  V30 6997 H 654.526 -1.47984 2.07299 0
M  V30 6998 H 655.309 -0.465351 3.40131 0
M  V30 6999 N 657.755 -1.42862 -0.66545 0
M  V30 7000 C 658.985 -1.47032 -1.45138 0
M  V30 7001 C 659.393 -0.0829977 -1.89018 0
M  V30 7002 O 658.736 0.914551 -1.59316 0
M  V30 7003 C 658.798 -2.34302 -2.72659 0
M  V30 7004 C 658.462 -3.82034 -2.50796 0
M  V30 7005 C 659.459 -4.73453 -2.14799 0
M  V30 7006 C 657.144 -4.26397 -2.655 0
M  V30 7007 C 659.138 -6.07228 -1.93785 0
M  V30 7008 C 656.825 -5.6023 -2.44103 0
M  V30 7009 C 657.823 -6.50462 -2.08299 0
M  V30 7010 O 657.511 -7.8182 -1.87116 0
M  V30 7011 H 657.243 -0.501969 -0.452772 0
M  V30 7012 H 659.797 -1.88137 -0.82423 0
M  V30 7013 H 658.027 -1.88063 -3.37889 0
M  V30 7014 H 659.716 -2.29818 -3.34572 0
M  V30 7015 H 660.482 -4.4046 -2.03026 0
M  V30 7016 H 656.361 -3.56448 -2.92345 0
M  V30 7017 H 659.905 -6.7762 -1.65763 0
M  V30 7018 H 655.802 -5.92793 -2.55475 0
M  V30 7019 H 656.57 -7.93274 -2.01639 0
M  V30 7020 N 659.233 0.902656 -1.29189 0
M  V30 7021 C 660.458 1.69167 -1.19989 0
M  V30 7022 C 660.883 1.86607 0.236495 0
M  V30 7023 O 660.241 1.38425 1.17082 0
M  V30 7024 C 660.289 3.05532 -1.91527 0
M  V30 7025 O 659.393 3.93621 -1.2303 0
M  V30 7026 H 658.734 0.517584 -0.415936 0
M  V30 7027 H 661.264 1.12785 -1.70706 0
M  V30 7028 H 661.274 3.55693 -1.99866 0
M  V30 7029 H 659.949 2.92156 -2.96003 0
M  V30 7030 H 658.526 3.52055 -1.22928 0
M  V30 7031 N 660.711 1.11618 1.11262 0
M  V30 7032 C 661.939 0.888739 1.8684 0
M  V30 7033 C 662.354 -0.561558 1.80255 0
M  V30 7034 O 661.711 -1.38782 1.18515 0
M  V30 7035 C 661.762 1.34422 3.35579 0
M  V30 7036 O 661.483 2.73766 3.42029 0
M  V30 7037 C 662.984 1.15246 4.28058 0
M  V30 7038 H 660.204 0.318152 0.590779 0
M  V30 7039 H 662.748 1.48398 1.40707 0
M  V30 7040 H 660.903 0.79239 3.7921 0
M  V30 7041 H 661.317 2.9355 4.34659 0
M  V30 7042 H 662.791 1.52015 5.30656 0
M  V30 7043 H 663.268 0.0922007 4.39103 0
M  V30 7044 H 663.874 1.69136 3.90222 0
M  V30 7045 N 662.189 -1.289 0.906776 0
M  V30 7046 C 663.435 -1.95558 0.53712 0
M  V30 7047 C 663.768 -1.71262 -0.915582 0
M  V30 7048 O 663.043 -1.02961 -1.65013 0
M  V30 7049 C 663.326 -3.50198 0.838645 0
M  V30 7050 C 663.179 -3.83923 2.34357 0
M  V30 7051 C 664.498 -4.38861 0.329988 0
M  V30 7052 H 661.617 -0.710289 0.196617 0
M  V30 7053 H 664.259 -1.52392 1.13475 0
M  V30 7054 H 662.409 -3.87096 0.330024 0
M  V30 7055 H 664.081 -3.56933 2.92227 0
M  V30 7056 H 662.324 -3.31215 2.80141 0
M  V30 7057 H 662.995 -4.91883 2.5051 0
M  V30 7058 H 665.471 -4.08996 0.765609 0
M  V30 7059 H 664.347 -5.45931 0.570105 0
M  V30 7060 H 664.608 -4.35352 -0.769511 0
M  V30 7061 N 663.667 -0.670007 -1.42649 0
M  V30 7062 C 664.915 -0.18991 -2.01206 0
M  V30 7063 C 665.236 1.20617 -1.53221 0
M  V30 7064 O 664.506 1.80898 -0.751856 0
M  V30 7065 H 663.086 -0.0672189 -0.743969 0
M  V30 7066 H 665.748 -0.865442 -1.74631 0
M  V30 7067 H 664.844 -0.187481 -3.11536 0
M  V30 7068 N 665.145 1.52092 -0.413018 0
M  V30 7069 C 666.093 2.28681 0.425199 0
M  V30 7070 C 667.087 1.3353 1.04241 0
M  V30 7071 O 668.293 1.50973 0.980166 0
M  V30 7072 H 664.668 0.735661 0.155906 0
M  V30 7073 H 666.639 2.97418 -0.241926 0
M  V30 7074 C 665.388 3.1235 1.5275 0
M  V30 7075 H 664.711 3.85439 1.06191 0
M  V30 7076 H 666.151 3.69038 2.08774 0
M  V30 7077 C 664.61 2.26161 2.49706 0
M  V30 7078 O 665.14 1.90452 3.53682 0
M  V30 7079 N 663.346 1.89854 2.20008 0
M  V30 7080 H 662.893 2.19092 1.35486 0
M  V30 7081 H 662.851 1.3248 2.85125 0
M  V30 7082 N 666.623 0.143563 1.56945 0
M  V30 7083 C 667.848 -0.518701 2.00809 0
M  V30 7084 C 668.273 -1.5785 1.02298 0
M  V30 7085 O 667.631 -1.813 -0.0017839 0
M  V30 7086 C 667.679 -1.09929 3.43436 0
M  V30 7087 O 666.783 -2.21425 3.47915 0
M  V30 7088 H 666.124 -0.127215 0.6517 0
M  V30 7089 H 668.654 0.239283 2.03196 0
M  V30 7090 H 668.664 -1.4288 3.82164 0
M  V30 7091 H 667.339 -0.323162 4.14643 0
M  V30 7092 H 665.916 -1.89728 3.21026 0
M  V30 7093 N 668.101 -1.57061 -0.130224 0
M  V30 7094 C 669.049 -2.00486 -1.17933 0
M  V30 7095 C 670.043 -0.899933 -1.43519 0
M  V30 7096 O 671.249 -1.08514 -1.43613 0
M  V30 7097 H 667.624 -0.638441 -0.397363 0
M  V30 7098 H 669.595 -2.87848 -0.786501 0
M  V30 7099 C 668.344 -2.41565 -2.50084 0
M  V30 7100 H 667.667 -3.26148 -2.31231 0
M  V30 7101 H 669.107 -2.75757 -3.22078 0
M  V30 7102 C 667.566 -1.27485 -3.11848 0
M  V30 7103 O 668.096 -0.584688 -3.97422 0
M  V30 7104 N 666.302 -1.03478 -2.71552 0
M  V30 7105 H 665.849 -1.59779 -2.02061 0
M  V30 7106 H 665.807 -0.27341 -3.13209 0
M  V30 7107 N 669.579 0.400081 -1.52437 0
M  V30 7108 C 670.527 1.50851 -1.7705 0
M  V30 7109 C 671.521 1.56928 -0.637969 0
M  V30 7110 O 672.727 1.60226 -0.820212 0
M  V30 7111 H 669.102 0.50186 -0.560036 0
M  V30 7112 H 671.073 1.27281 -2.69893 0
M  V30 7113 C 669.822 2.88117 -1.94638 0
M  V30 7114 H 669.145 2.84187 -2.81208 0
M  V30 7115 H 670.585 3.64942 -2.15855 0
M  V30 7116 C 669.044 3.29206 -0.715899 0
M  V30 7117 O 669.574 4.01544 0.111944 0
M  V30 7118 N 667.78 2.85363 -0.549191 0
M  V30 7119 H 667.327 2.26664 -1.22397 0
M  V30 7120 H 667.285 3.13214 0.27278 0
M  V30 7121 N 671.057 1.43213 0.657864 0
M  V30 7122 C 672.287 1.478 1.44356 0
M  V30 7123 C 672.695 0.0930206 1.88971 0
M  V30 7124 O 672.038 -0.906089 1.59799 0
M  V30 7125 C 672.1 2.35745 2.71412 0
M  V30 7126 C 671.764 3.83359 2.48767 0
M  V30 7127 C 672.761 4.74585 2.12285 0
M  V30 7128 C 670.446 4.27799 2.63235 0
M  V30 7129 C 672.44 6.08247 1.90562 0
M  V30 7130 C 670.127 5.61516 2.41128 0
M  V30 7131 C 671.125 6.51557 2.04847 0
M  V30 7132 O 670.813 7.82802 1.82967 0
M  V30 7133 H 670.545 0.504363 0.450104 0
M  V30 7134 H 673.099 1.88572 0.814241 0
M  V30 7135 H 671.329 1.89852 3.36887 0
M  V30 7136 H 673.018 2.31589 3.33348 0
M  V30 7137 H 673.784 4.41531 2.00687 0
M  V30 7138 H 669.663 3.57993 2.90451 0
M  V30 7139 H 673.207 6.78489 1.62168 0
M  V30 7140 H 669.104 5.94139 2.52327 0
M  V30 7141 H 669.872 7.94332 1.97429 0
M  V30 7142 N 672.536 -0.895792 1.29666 0
M  V30 7143 C 673.466 -2.01673 1.17688 0
M  V30 7144 C 674.447 -1.69955 0.0701317 0
M  V30 7145 O 675.632 -1.9258 0.250289 0
M  V30 7146 C 672.762 -3.36568 0.856681 0
M  V30 7147 C 671.716 -3.82509 1.92017 0
M  V30 7148 C 671.042 -5.14574 1.4532 0
M  V30 7149 C 672.342 -4.02409 3.32963 0
M  V30 7150 H 674.036 -2.11953 2.11463 0
M  V30 7151 H 671.582 -1.01839 1.01807 0
M  V30 7152 H 673.535 -4.14498 0.759577 0
M  V30 7153 H 672.259 -3.26391 -0.116763 0
M  V30 7154 H 670.918 -3.068 2.00673 0
M  V30 7155 H 670.566 -5.00815 0.468325 0
M  V30 7156 H 670.266 -5.46283 2.16447 0
M  V30 7157 H 671.79 -5.9504 1.36968 0
M  V30 7158 H 673.204 -4.70808 3.27127 0
M  V30 7159 H 671.601 -4.45478 4.02082 0
M  V30 7160 H 672.671 -3.06616 3.75652 0
M  V30 7161 N 674.014 -1.12206 -1.10668 0
M  V30 7162 C 674.964 -0.75669 -2.15077 0
M  V30 7163 C 675.948 0.243154 -1.59052 0
M  V30 7164 O 677.14 0.0490268 -1.76932 0
M  V30 7165 C 674.269 -0.210303 -3.42655 0
M  V30 7166 C 673.355 -1.23829 -4.05619 0
M  V30 7167 N 673.746 -2.43513 -4.43323 0
M  V30 7168 C 672.044 -1.08309 -4.32649 0
M  V30 7169 C 672.745 -3.09138 -4.92756 0
M  V30 7170 N 671.721 -2.36593 -4.89413 0
M  V30 7171 H 675.523 -1.66747 -2.42018 0
M  V30 7172 H 673.037 -1.00248 -1.27765 0
M  V30 7173 H 675.034 0.0696287 -4.16842 0
M  V30 7174 H 673.694 0.694967 -3.17176 0
M  V30 7175 H 674.705 -2.80912 -4.35097 0
M  V30 7176 H 671.382 -0.234919 -4.16839 0
M  V30 7177 H 672.772 -4.11049 -5.31496 0
M  V30 7178 N 675.492 1.28418 -0.913599 0
M  V30 7179 C 676.422 2.29713 -0.418847 0
M  V30 7180 C 677.403 1.62165 0.513469 0
M  V30 7181 O 678.588 1.89576 0.421235 0
M  V30 7182 C 675.718 3.45612 0.342042 0
M  V30 7183 C 674.672 4.25056 -0.501123 0
M  V30 7184 C 673.998 5.3329 0.388097 0
M  V30 7185 C 675.298 4.91814 -1.75831 0
M  V30 7186 H 676.992 2.71346 -1.26538 0
M  V30 7187 H 674.538 1.30446 -0.609903 0
M  V30 7188 H 676.491 4.15562 0.699 0
M  V30 7189 H 675.215 3.02858 1.22248 0
M  V30 7190 H 673.874 3.56833 -0.840598 0
M  V30 7191 H 673.522 4.8678 1.26707 0
M  V30 7192 H 673.222 5.87347 -0.172459 0
M  V30 7193 H 674.746 6.06088 0.74094 0
M  V30 7194 H 676.16 5.54126 -1.47026 0
M  V30 7195 H 674.557 5.55866 -2.26126 0
M  V30 7196 H 675.627 4.16313 -2.4862 0
M  V30 7197 N 676.97 0.677563 1.42291 0
M  V30 7198 C 678.195 0.207901 2.06355 0
M  V30 7199 C 678.62 -1.12723 1.50583 0
M  V30 7200 O 677.978 -1.70171 0.62543 0
M  V30 7201 C 678.026 0.156489 3.6026 0
M  V30 7202 O 677.13 -0.874162 4.03029 0
M  V30 7203 H 676.471 0.106056 0.655475 0
M  V30 7204 H 679.001 0.927354 1.82377 0
M  V30 7205 H 679.011 -0.0187258 4.07996 0
M  V30 7206 H 677.686 1.13101 4.00226 0
M  V30 7207 H 676.263 -0.669764 3.66836 0
M  V30 7208 N 678.448 -1.51871 0.421078 0
M  V30 7209 C 679.694 -2.02237 -0.151014 0
M  V30 7210 C 680.027 -1.30554 -1.43768 0
M  V30 7211 O 679.302 -0.41546 -1.90011 0
M  V30 7212 C 679.585 -3.5802 -0.386482 0
M  V30 7213 C 679.438 -4.40339 0.9177 0
M  V30 7214 C 680.757 -4.24444 -1.16342 0
M  V30 7215 H 677.876 -0.735062 -0.0534102 0
M  V30 7216 H 680.518 -1.81656 0.556888 0
M  V30 7217 H 678.668 -3.75688 -0.989494 0
M  V30 7218 H 680.34 -4.34357 1.55344 0
M  V30 7219 H 678.583 -4.06073 1.526 0
M  V30 7220 H 679.254 -5.47451 0.707187 0
M  V30 7221 H 681.73 -4.10948 -0.652788 0
M  V30 7222 H 680.606 -5.33358 -1.29693 0
M  V30 7223 H 680.867 -3.84204 -2.18724 0
M  V30 7224 N 679.926 -0.151884 -1.56866 0
M  V30 7225 C 680.856 0.781943 -2.20018 0
M  V30 7226 C 681.837 1.25347 -1.14987 0
M  V30 7227 O 683.022 1.31015 -1.43348 0
M  V30 7228 C 680.152 2.01928 -2.82564 0
M  V30 7229 C 679.106 1.68434 -3.93464 0
M  V30 7230 C 678.432 2.99472 -4.42968 0
M  V30 7231 C 679.732 0.927244 -5.14003 0
M  V30 7232 H 681.426 0.255607 -2.98307 0
M  V30 7233 H 678.972 0.121502 -1.43486 0
M  V30 7234 H 680.925 2.67741 -3.25411 0
M  V30 7235 H 679.649 2.56943 -2.01614 0
M  V30 7236 H 678.308 1.04998 -3.51242 0
M  V30 7237 H 677.956 3.52488 -3.58834 0
M  V30 7238 H 677.656 2.77823 -5.17772 0
M  V30 7239 H 679.18 3.66348 -4.88489 0
M  V30 7240 H 680.594 1.48756 -5.53665 0
M  V30 7241 H 678.991 0.810513 -5.94601 0
M  V30 7242 H 680.061 -0.0801163 -4.84834 0
M  V30 7243 N 681.404 1.57128 0.121893 0
M  V30 7244 C 682.82 1.52357 0.47534 0
M  V30 7245 C 683.02 0.864417 1.82017 0
M  V30 7246 O 682.076 0.445529 2.48538 0
M  V30 7247 C 683.389 2.97122 0.4625 0
M  V30 7248 C 684.937 3.08196 0.546255 0
M  V30 7249 C 685.412 4.54516 0.563833 0
M  V30 7250 N 686.903 4.58959 0.625353 0
M  V30 7251 C 687.638 5.69585 0.660354 0
M  V30 7252 N 687.134 6.89714 0.653175 0
M  V30 7253 N 688.927 5.57685 0.703143 0
M  V30 7254 H 681.078 1.98364 -0.75931 0
M  V30 7255 H 683.341 0.905777 -0.279772 0
M  V30 7256 H 683.047 3.48706 -0.457943 0
M  V30 7257 H 682.921 3.54406 1.29136 0
M  V30 7258 H 685.308 2.56617 1.45712 0
M  V30 7259 H 685.389 2.53912 -0.310234 0
M  V30 7260 H 685.033 5.06741 -0.342974 0
M  V30 7261 H 684.963 5.06609 1.43716 0
M  V30 7262 H 687.454 3.72489 0.637182 0
M  V30 7263 H 687.767 7.69781 0.682425 0
M  V30 7264 H 686.112 6.92223 0.620646 0
M  V30 7265 H 689.303 4.62744 0.706095 0
M  V30 7266 H 689.476 6.43909 0.726952 0
M  V30 7267 N 682.882 -0.391992 1.52647 0
M  V30 7268 C 684.11 -1.1586 1.71418 0
M  V30 7269 C 684.525 -1.8381 0.431216 0
M  V30 7270 O 683.882 -1.7256 -0.594085 0
M  V30 7271 C 683.933 -2.20888 2.86165 0
M  V30 7272 O 683.654 -1.5571 4.09495 0
M  V30 7273 C 685.155 -3.103 3.1659 0
M  V30 7274 H 682.375 -0.347494 0.574011 0
M  V30 7275 H 684.919 -0.458972 1.99283 0
M  V30 7276 H 683.074 -2.86492 2.6077 0
M  V30 7277 H 683.488 -2.25474 4.73563 0
M  V30 7278 H 684.962 -3.8003 4.00351 0
M  V30 7279 H 685.439 -3.73639 2.30848 0
M  V30 7280 H 686.045 -2.50345 3.43813 0
M  V30 7281 N 684.36 -1.4356 -0.65026 0
M  V30 7282 C 685.27 -1.514 -1.79207 0
M  V30 7283 C 686.286 -0.400895 -1.69319 0
M  V30 7284 O 687.462 -0.655458 -1.90436 0
M  V30 7285 C 684.527 -1.43737 -3.155 0
M  V30 7286 C 683.588 -2.65743 -3.37163 0
M  V30 7287 C 682.821 -2.58436 -4.66954 0
M  V30 7288 O 683.044 -1.63374 -5.46503 0
M  V30 7289 O 681.978 -3.48984 -4.90402 0
M  V30 7290 H 685.804 -2.47825 -1.75547 0
M  V30 7291 H 683.389 -1.25594 -0.809111 0
M  V30 7292 H 685.271 -1.41916 -3.96784 0
M  V30 7293 H 683.946 -0.504488 -3.19745 0
M  V30 7294 H 682.853 -2.73136 -2.55632 0
M  V30 7295 H 684.186 -3.58014 -3.37768 0
M  V30 7296 N 685.838 0.888903 -1.30139 0
M  V30 7297 C 686.768 2.01046 -1.18755 0
M  V30 7298 C 687.749 1.69916 -0.0791438 0
M  V30 7299 O 688.934 1.92445 -0.260498 0
M  V30 7300 C 686.064 3.36109 -0.874518 0
M  V30 7301 C 685.018 3.81486 -1.94043 0
M  V30 7302 C 684.344 5.13796 -1.48047 0
M  V30 7303 C 685.644 4.00637 -3.35093 0
M  V30 7304 H 687.338 2.10828 -2.12584 0
M  V30 7305 H 684.884 1.01298 -1.02346 0
M  V30 7306 H 686.837 4.14089 -0.781548 0
M  V30 7307 H 685.561 3.26449 0.0994519 0
M  V30 7308 H 684.22 3.05731 -2.02297 0
M  V30 7309 H 683.868 5.0056 -0.494878 0
M  V30 7310 H 683.568 5.45127 -2.19341 0
M  V30 7311 H 685.092 5.94305 -1.40121 0
M  V30 7312 H 686.506 4.69067 -3.2962 0
M  V30 7313 H 684.903 4.43339 -4.04438 0
M  V30 7314 H 685.973 3.0462 -3.77273 0
M  V30 7315 N 687.317 1.12792 1.10072 0
M  V30 7316 C 688.733 0.864745 1.34143 0
M  V30 7317 C 688.933 -0.503201 1.95116 0
M  V30 7318 O 687.989 -1.25111 2.19325 0
M  V30 7319 C 689.302 1.98413 2.25949 0
M  V30 7320 C 690.85 2.01545 2.39476 0
M  V30 7321 C 691.325 3.12727 3.34613 0
M  V30 7322 N 692.816 3.12194 3.42183 0
M  V30 7323 C 693.551 3.94862 4.15779 0
M  V30 7324 N 693.047 4.87528 4.92228 0
M  V30 7325 N 694.84 3.82985 4.11435 0
M  V30 7326 H 686.991 2.00926 0.68866 0
M  V30 7327 H 689.254 0.874564 0.365844 0
M  V30 7328 H 688.96 2.97005 1.88364 0
M  V30 7329 H 688.834 1.89254 3.26287 0
M  V30 7330 H 691.221 1.0357 2.76328 0
M  V30 7331 H 691.302 2.14777 1.3894 0
M  V30 7332 H 690.946 4.10936 2.98486 0
M  V30 7333 H 690.876 2.96732 4.35037 0
M  V30 7334 H 693.367 2.45065 2.87666 0
M  V30 7335 H 693.68 5.47109 5.45794 0
M  V30 7336 H 692.025 4.91539 4.9134 0
M  V30 7337 H 695.216 3.09923 3.50807 0
M  V30 7338 H 695.389 4.47641 4.68531 0
M  V30 7339 N 688.795 -1.27931 0.920396 0
M  V30 7340 C 690.206 -1.76707 0.602616 0
M  V30 7341 C 690.557 -1.75249 -0.882159 0
M  V30 7342 O 689.682 -1.35135 -1.69019 0
M  V30 7343 C 690.277 -3.20884 1.08714 0
M  V30 7344 C 688.836 -3.67356 0.820157 0
M  V30 7345 C 687.983 -2.47525 1.25006 0
M  V30 7346 H 690.934 -1.14301 1.10095 0
M  V30 7347 H 690.955 -3.78045 0.431535 0
M  V30 7348 H 690.467 -3.21913 2.1678 0
M  V30 7349 H 688.568 -3.7178 -0.247012 0
M  V30 7350 H 688.681 -4.57181 1.43257 0
M  V30 7351 H 687.045 -2.45765 0.668698 0
M  V30 7352 H 687.828 -2.51269 2.3392 0
M  V30 7353 N 690.273 -0.685099 -1.4193 0
M  V30 7354 C 691.521 -0.21124 -2.00993 0
M  V30 7355 C 691.842 1.18985 -1.54491 0
M  V30 7356 O 691.112 1.8009 -0.771 0
M  V30 7357 H 689.692 -0.0751059 -0.743215 0
M  V30 7358 H 692.354 -0.883915 -1.73704 0
M  V30 7359 H 691.45 -0.220513 -3.1132 0
M  V30 7360 N 691.751 1.51645 -0.429126 0
M  V30 7361 C 692.661 2.31288 0.392809 0
M  V30 7362 C 693.677 1.39852 1.03525 0
M  V30 7363 O 694.853 1.72926 1.03241 0
M  V30 7364 C 691.918 3.13347 1.48372 0
M  V30 7365 C 690.979 4.20551 0.862268 0
M  V30 7366 C 690.212 4.98688 1.9012 0
M  V30 7367 O 690.435 4.77359 3.12225 0
M  V30 7368 O 689.369 5.83005 1.4963 0
M  V30 7369 H 693.195 3.02609 -0.257138 0
M  V30 7370 H 690.78 1.48163 -0.191851 0
M  V30 7371 H 692.662 3.64387 2.1166 0
M  V30 7372 H 691.337 2.44799 2.1179 0
M  V30 7373 H 690.244 3.73609 0.191568 0
M  V30 7374 H 691.577 4.91449 0.271704 0
M  V30 7375 N 693.229 0.160201 1.56784 0
M  V30 7376 C 694.457 -0.494165 2.00912 0
M  V30 7377 C 694.872 -1.57548 1.04038 0
M  V30 7378 O 694.229 -1.82457 0.0394581 0
M  V30 7379 C 694.28 -1.08271 3.44905 0
M  V30 7380 O 694.001 -0.0445704 4.38077 0
M  V30 7381 C 695.502 -1.8164 4.04378 0
M  V30 7382 H 692.722 -0.127498 0.658776 0
M  V30 7383 H 695.266 0.258665 2.02858 0
M  V30 7384 H 693.421 -1.78609 3.4377 0
M  V30 7385 H 693.835 -0.477544 5.22322 0
M  V30 7386 H 695.309 -2.18094 5.07089 0
M  V30 7387 H 695.786 -2.70727 3.45838 0
M  V30 7388 H 696.392 -1.15969 4.09184 0
M  V30 7389 N 694.707 -1.5719 -0.113559 0
M  V30 7390 C 695.637 -2.03772 -1.14013 0
M  V30 7391 C 696.618 -0.923176 -1.42869 0
M  V30 7392 O 697.803 -1.19325 -1.53216 0
M  V30 7393 C 694.933 -2.44663 -2.4649 0
M  V30 7394 C 693.887 -3.59612 -2.32085 0
M  V30 7395 C 693.213 -3.8642 -3.69573 0
M  V30 7396 C 694.513 -4.91149 -1.7768 0
M  V30 7397 H 696.207 -2.89785 -0.752665 0
M  V30 7398 H 693.753 -1.39412 -0.360609 0
M  V30 7399 H 695.706 -2.75857 -3.18561 0
M  V30 7400 H 694.43 -1.55628 -2.87137 0
M  V30 7401 H 693.089 -3.28636 -1.62461 0
M  V30 7402 H 692.737 -2.94581 -4.07715 0
M  V30 7403 H 692.437 -4.63797 -3.60786 0
M  V30 7404 H 693.961 -4.2007 -4.4314 0
M  V30 7405 H 695.375 -5.20843 -2.39574 0
M  V30 7406 H 693.772 -5.72562 -1.79701 0
M  V30 7407 H 694.842 -4.79301 -0.734776 0
M  V30 7408 N 696.185 0.383891 -1.52853 0
M  V30 7409 C 697.133 1.48965 -1.7864 0
M  V30 7410 C 698.127 1.56242 -0.654577 0
M  V30 7411 O 699.333 1.59347 -0.83716 0
M  V30 7412 H 695.708 0.495892 -0.565328 0
M  V30 7413 H 697.679 1.24411 -2.71228 0
M  V30 7414 C 696.428 2.86036 -1.97683 0
M  V30 7415 H 695.751 2.81188 -2.84206 0
M  V30 7416 H 697.191 3.62632 -2.19713 0
M  V30 7417 C 695.65 3.28428 -0.750776 0
M  V30 7418 O 696.18 4.0164 0.0693491 0
M  V30 7419 N 694.386 2.84765 -0.579427 0
M  V30 7420 H 693.933 2.25353 -1.24795 0
M  V30 7421 H 693.891 3.13486 0.239544 0
M  V30 7422 N 697.663 1.43903 0.642637 0
M  V30 7423 C 698.909 1.46296 1.40447 0
M  V30 7424 C 699.242 0.0908361 1.93987 0
M  V30 7425 O 698.517 -0.889884 1.72949 0
M  V30 7426 C 698.8 2.51399 2.57819 0
M  V30 7427 C 698.653 3.97926 2.09702 0
M  V30 7428 C 699.972 2.53125 3.60022 0
M  V30 7429 H 697.091 0.532676 0.509338 0
M  V30 7430 H 699.733 1.75515 0.727635 0
M  V30 7431 H 697.883 2.26614 3.1556 0
M  V30 7432 H 699.555 4.33804 1.5688 0
M  V30 7433 H 697.798 4.10252 1.40982 0
M  V30 7434 H 698.469 4.67096 2.94152 0
M  V30 7435 H 700.945 2.75242 3.12059 0
M  V30 7436 H 699.821 3.28589 4.39682 0
M  V30 7437 H 700.082 1.56895 4.13324 0
M  V30 7438 N 699.141 -0.881989 1.30609 0
M  V30 7439 C 700.089 -2.00942 1.17155 0
M  V30 7440 C 701.083 -1.69198 0.0827154 0
M  V30 7441 O 702.289 -1.78342 0.243775 0
M  V30 7442 H 698.664 -0.658913 0.362406 0
M  V30 7443 H 700.635 -2.09423 2.12567 0
M  V30 7444 C 699.384 -3.36294 0.883273 0
M  V30 7445 H 698.707 -3.61233 1.7132 0
M  V30 7446 H 700.147 -4.15812 0.829255 0
M  V30 7447 C 698.606 -3.34348 -0.413851 0
M  V30 7448 O 699.136 -3.75216 -1.43444 0
M  V30 7449 N 697.342 -2.87459 -0.426082 0
M  V30 7450 H 696.889 -2.54397 0.40493 0
M  V30 7451 H 696.847 -2.8654 -1.29391 0
M  V30 7452 N 700.619 -1.13374 -1.09472 0
M  V30 7453 C 701.866 -0.89519 -1.81639 0
M  V30 7454 C 702.194 0.57868 -1.85692 0
M  V30 7455 O 701.449 1.44426 -1.32059 0
M  V30 7456 C 701.748 -1.42759 -3.2765 0
M  V30 7457 C 701.414 -2.91822 -3.43731 0
M  V30 7458 C 700.076 -3.32521 -3.47827 0
M  V30 7459 C 702.428 -3.87727 -3.48307 0
M  V30 7460 C 699.756 -4.6781 -3.54078 0
M  V30 7461 C 702.108 -5.22859 -3.56091 0
M  V30 7462 C 700.772 -5.63086 -3.58456 0
M  V30 7463 H 700.042 -0.327573 -0.664663 0
M  V30 7464 H 702.689 -1.4156 -1.28969 0
M  V30 7465 H 700.994 -0.827871 -3.82954 0
M  V30 7466 H 702.691 -1.2191 -3.8202 0
M  V30 7467 H 699.281 -2.5935 -3.41226 0
M  V30 7468 H 703.465 -3.57371 -3.44383 0
M  V30 7469 H 698.721 -4.98353 -3.54195 0
M  V30 7470 H 702.895 -5.96989 -3.58577 0
M  V30 7471 H 700.522 -6.67905 -3.63052 0
M  V30 7472 N 702.098 1.27442 -0.927168 0
M  V30 7473 C 703.028 2.29256 -0.443188 0
M  V30 7474 C 704.009 1.62701 0.49624 0
M  V30 7475 O 705.194 1.90013 0.401105 0
M  V30 7476 C 702.324 3.45955 0.305366 0
M  V30 7477 C 701.278 4.24501 -0.546178 0
M  V30 7478 C 700.604 5.33671 0.331512 0
M  V30 7479 C 701.904 4.89921 -1.81037 0
M  V30 7480 H 703.598 2.69988 -1.29409 0
M  V30 7481 H 701.144 1.29792 -0.623705 0
M  V30 7482 H 703.097 4.1628 0.654885 0
M  V30 7483 H 701.821 3.04138 1.19029 0
M  V30 7484 H 700.48 3.55921 -0.878398 0
M  V30 7485 H 700.128 4.88096 1.21537 0
M  V30 7486 H 699.828 5.87131 -0.234746 0
M  V30 7487 H 701.352 6.0684 0.676614 0
M  V30 7488 H 702.766 5.52536 -1.52895 0
M  V30 7489 H 701.163 5.53436 -2.32009 0
M  V30 7490 H 702.233 4.13652 -2.53021 0
M  V30 7491 N 703.576 0.692616 1.41565 0
M  V30 7492 C 704.506 0.0397325 2.33466 0
M  V30 7493 C 705.487 -0.770334 1.51657 0
M  V30 7494 O 706.672 -0.723903 1.80203 0
M  V30 7495 C 703.802 -0.899495 3.3545 0
M  V30 7496 C 702.756 -0.196738 4.27548 0
M  V30 7497 C 702.082 -1.25012 5.19881 0
M  V30 7498 C 703.382 0.935158 5.1386 0
M  V30 7499 H 705.076 0.807296 2.88311 0
M  V30 7500 H 702.622 0.389665 1.38628 0
M  V30 7501 H 704.575 -1.36545 3.98665 0
M  V30 7502 H 703.299 -1.69869 2.78948 0
M  V30 7503 H 701.958 0.249158 3.65752 0
M  V30 7504 H 701.606 -2.04177 4.59696 0
M  V30 7505 H 701.306 -0.784931 5.82334 0
M  V30 7506 H 702.83 -1.71665 5.85972 0
M  V30 7507 H 704.244 0.549619 5.70659 0
M  V30 7508 H 702.641 1.32726 5.85238 0
M  V30 7509 H 703.711 1.77613 4.512 0
M  V30 7510 N 705.054 -1.51416 0.437162 0
M  V30 7511 C 706.47 -1.59349 0.0894459 0
M  V30 7512 C 706.67 -1.44809 -1.40116 0
M  V30 7513 O 705.726 -1.28924 -2.17106 0
M  V30 7514 C 707.039 -2.9446 0.609398 0
M  V30 7515 C 708.587 -3.07769 0.569824 0
M  V30 7516 C 709.062 -4.45404 1.06675 0
M  V30 7517 N 710.553 -4.51723 1.02473 0
M  V30 7518 C 711.288 -5.56544 1.3801 0
M  V30 7519 N 710.784 -6.68784 1.80831 0
M  V30 7520 N 712.577 -5.46901 1.29828 0
M  V30 7521 H 704.728 -1.59112 1.40703 0
M  V30 7522 H 706.991 -0.750031 0.579791 0
M  V30 7523 H 706.697 -3.1047 1.65231 0
M  V30 7524 H 706.571 -3.77184 0.0342236 0
M  V30 7525 H 708.958 -2.91428 -0.464107 0
M  V30 7526 H 709.039 -2.26885 1.1814 0
M  V30 7527 H 708.683 -4.62492 2.09914 0
M  V30 7528 H 708.613 -5.24827 0.431712 0
M  V30 7529 H 711.104 -3.71165 0.710258 0
M  V30 7530 H 711.417 -7.44787 2.06185 0
M  V30 7531 H 709.762 -6.69992 1.84757 0
M  V30 7532 H 712.953 -4.581 0.962397 0
M  V30 7533 H 713.126 -6.2848 1.57851 0
M  V30 7534 N 706.532 -0.168513 -1.56696 0
M  V30 7535 C 707.465 0.801477 -2.13662 0
M  V30 7536 C 708.443 1.22786 -1.06594 0
M  V30 7537 O 709.627 1.32014 -1.34554 0
M  V30 7538 C 706.754 2.07896 -2.6739 0
M  V30 7539 C 705.8 1.79681 -3.86803 0
M  V30 7540 S 706.633 0.968556 -5.26668 0
M  V30 7541 C 707.789 2.25676 -5.83799 0
M  V30 7542 H 708.022 0.317121 -2.95604 0
M  V30 7543 H 705.555 0.0461132 -1.54331 0
M  V30 7544 H 707.513 2.81272 -2.98992 0
M  V30 7545 H 706.174 2.53445 -1.85539 0
M  V30 7546 H 705.367 2.74461 -4.22714 0
M  V30 7547 H 704.969 1.14402 -3.56073 0
M  V30 7548 H 707.261 3.2116 -5.96542 0
M  V30 7549 H 708.204 1.94238 -6.80939 0
M  V30 7550 H 708.612 2.37308 -5.12197 0
M  V30 7551 N 708.01 1.57248 0.105221 0
M  V30 7552 C 709.287 1.76566 0.841647 0
M  V30 7553 C 709.667 0.747566 1.9742 0
M  V30 7554 O 709.015 -0.225886 2.27381 0
M  V30 7555 C 709.225 3.22016 1.3456 0
M  V30 7556 C 710.573 3.84911 1.79244 0
M  V30 7557 O 711.597 3.25703 1.44207 0
M  V30 7558 O 710.456 4.89008 2.43995 0
M  V30 7559 H 707.55 0.723443 0.400698 0
M  V30 7560 H 710.096 1.69472 0.0878893 0
M  V30 7561 H 708.868 3.87644 0.533685 0
M  V30 7562 H 708.491 3.33703 2.16167 0
M  V30 7563 N 709.488 -0.375779 1.53054 0
M  V30 7564 C 710.904 -0.716764 1.426 0
M  V30 7565 C 711.104 -1.93651 0.556931 0
M  V30 7566 O 710.16 -2.52475 0.0354461 0
M  V30 7567 C 711.473 -0.939499 2.85646 0
M  V30 7568 C 713.021 -1.04015 2.95212 0
M  V30 7569 C 713.496 -1.29543 4.39298 0
M  V30 7570 N 714.987 -1.36335 4.42682 0
M  V30 7571 C 715.722 -1.57778 5.51266 0
M  V30 7572 N 715.218 -1.76604 6.69913 0
M  V30 7573 N 717.011 -1.60065 5.38828 0
M  V30 7574 H 709.162 0.42664 2.08071 0
M  V30 7575 H 711.425 0.128758 0.939215 0
M  V30 7576 H 711.131 -0.115189 3.51511 0
M  V30 7577 H 711.005 -1.85048 3.2869 0
M  V30 7578 H 713.392 -1.85501 2.29507 0
M  V30 7579 H 713.473 -0.106785 2.55577 0
M  V30 7580 H 713.117 -0.485611 5.05573 0
M  V30 7581 H 713.047 -2.24184 4.76497 0
M  V30 7582 H 715.538 -1.23441 3.5717 0
M  V30 7583 H 715.851 -1.9251 7.48438 0
M  V30 7584 H 714.196 -1.73802 6.72917 0
M  V30 7585 H 717.387 -1.44917 4.45103 0
M  V30 7586 H 717.56 -1.76435 6.23518 0
M  V30 7587 N 710.966 -1.44241 -0.634997 0
M  V30 7588 C 711.929 -1.50457 -1.72903 0
M  V30 7589 C 712.929 -0.387058 -1.56072 0
M  V30 7590 O 714.119 -0.649531 -1.61638 0
M  V30 7591 C 711.251 -1.37477 -3.1195 0
M  V30 7592 H 712.444 -2.47907 -1.68767 0
M  V30 7593 H 709.997 -1.31276 -0.84831 0
M  V30 7594 H 710.732 -0.41106 -3.21684 0
M  V30 7595 H 710.517 -2.18506 -3.25573 0
M  V30 7596 H 712.007 -1.44799 -3.91692 0
M  V30 7597 N 712.444 0.87505 -1.31075 0
M  V30 7598 C 713.394 1.96933 -1.14898 0
M  V30 7599 C 714.378 1.60783 -0.0613703 0
M  V30 7600 O 715.57 1.74678 -0.285751 0
M  V30 7601 C 712.699 3.3253 -0.853166 0
M  V30 7602 C 711.785 3.74963 -1.98151 0
M  V30 7603 N 712.176 3.89403 -3.22799 0
M  V30 7604 C 710.474 4.04436 -1.8801 0
M  V30 7605 C 711.175 4.25563 -3.96574 0
M  V30 7606 N 710.151 4.3597 -3.24701 0
M  V30 7607 H 713.953 2.06201 -2.09424 0
M  V30 7608 H 711.467 1.06551 -1.22558 0
M  V30 7609 H 713.464 4.10666 -0.718266 0
M  V30 7610 H 712.124 3.24592 0.0839218 0
M  V30 7611 H 713.135 3.74266 -3.57974 0
M  V30 7612 H 709.812 4.04915 -1.01733 0
M  V30 7613 H 711.202 4.44375 -5.03965 0
M  V30 7614 N 713.922 1.13953 1.08869 0
M  V30 7615 C 714.832 0.835666 2.19212 0
M  V30 7616 C 715.848 -0.182005 1.73045 0
M  V30 7617 O 717.024 -0.0116661 2.01397 0
M  V30 7618 C 714.089 0.312325 3.4529 0
M  V30 7619 C 713.15 1.39196 4.06107 0
M  V30 7620 C 712.383 0.893496 5.26168 0
M  V30 7621 O 712.606 -0.266807 5.69776 0
M  V30 7622 O 711.54 1.67037 5.78258 0
M  V30 7623 H 715.366 1.75769 2.47667 0
M  V30 7624 H 712.951 0.917421 1.17914 0
M  V30 7625 H 714.833 0.0261582 4.21392 0
M  V30 7626 H 713.508 -0.582042 3.18424 0
M  V30 7627 H 712.415 1.73152 3.31616 0
M  V30 7628 H 713.748 2.26068 4.37212 0
M  V30 7629 N 715.4 -1.26948 0.933913 0
M  V30 7630 C 716.363 -2.24889 0.442457 0
M  V30 7631 C 717.363 -1.54594 -0.442426 0
M  V30 7632 O 718.553 -1.72502 -0.242629 0
M  V30 7633 C 715.685 -3.3896 -0.363173 0
M  V30 7634 H 716.878 -2.69879 1.30787 0
M  V30 7635 H 714.431 -1.38978 0.715187 0
M  V30 7636 H 715.166 -2.99361 -1.24714 0
M  V30 7637 H 714.951 -3.9116 0.271366 0
M  V30 7638 H 716.441 -4.11739 -0.697186 0
M  V30 7639 N 716.879 -0.700114 -1.41195 0
M  V30 7640 C 717.826 -0.0376652 -2.30769 0
M  V30 7641 C 718.796 0.766544 -1.47354 0
M  V30 7642 O 719.981 0.73365 -1.76131 0
M  V30 7643 C 717.121 0.889452 -3.33441 0
M  V30 7644 C 716.234 0.076373 -4.31932 0
M  V30 7645 C 715.369 1.00155 -5.21673 0
M  V30 7646 C 714.408 0.181644 -6.1183 0
M  V30 7647 N 713.545 1.06087 -6.94039 0
M  V30 7648 H 718.385 -0.80726 -2.86858 0
M  V30 7649 H 715.922 -0.409798 -1.41277 0
M  V30 7650 H 717.88 1.44107 -3.91522 0
M  V30 7651 H 716.51 1.6254 -2.78892 0
M  V30 7652 H 715.562 -0.592223 -3.75762 0
M  V30 7653 H 716.874 -0.559076 -4.95657 0
M  V30 7654 H 716.028 1.62223 -5.8461 0
M  V30 7655 H 714.767 1.67085 -4.58186 0
M  V30 7656 H 713.772 -0.452085 -5.47938 0
M  V30 7657 H 714.997 -0.483925 -6.77374 0
M  V30 7658 H 712.943 1.7161 -6.33156 0
M  V30 7659 H 712.86 0.481094 -7.54468 0
M  V30 7660 H 714.128 1.66822 -7.6144 0
M  V30 7661 N 718.357 1.51182 -0.445186 0
M  V30 7662 C 719.606 2.01342 0.120189 0
M  V30 7663 C 719.919 1.33353 1.43095 0
M  V30 7664 O 721.125 1.74525 2.07974 0
M  V30 7665 C 719.581 3.58925 0.264732 0
M  V30 7666 C 719.189 4.35855 -1.03606 0
M  V30 7667 C 720.933 4.17208 0.783455 0
M  V30 7668 C 718.84 5.85162 -0.856731 0
M  V30 7669 H 717.77 0.752426 0.0486922 0
M  V30 7670 H 720.421 1.74221 -0.576143 0
M  V30 7671 H 718.803 3.82525 1.02425 0
M  V30 7672 H 719.977 4.23997 -1.80452 0
M  V30 7673 H 718.292 3.89062 -1.48391 0
M  V30 7674 H 720.889 5.26475 0.934239 0
M  V30 7675 H 721.232 3.76892 1.768 0
M  V30 7676 H 721.765 3.97715 0.0820346 0
M  V30 7677 H 718.504 6.29904 -1.81388 0
M  V30 7678 H 718.024 5.99663 -0.128206 0
M  V30 7679 H 719.703 6.44963 -0.513027 0
M  V30 7680 N 719.835 0.176821 1.56605 0
M  V30 7681 C 721.251 -0.179278 1.5859 0
M  V30 7682 C 721.451 -1.62433 1.19238 0
M  V30 7683 O 720.507 -2.35665 0.906552 0
M  V30 7684 C 721.82 0.106524 3.00511 0
M  V30 7685 C 723.368 0.0451731 3.12967 0
M  V30 7686 C 723.843 0.304038 4.5699 0
M  V30 7687 N 725.334 0.252008 4.62514 0
M  V30 7688 C 726.069 0.426404 5.71812 0
M  V30 7689 N 725.565 0.660155 6.89648 0
M  V30 7690 N 727.358 0.361926 5.60934 0
M  V30 7691 H 719.509 1.12001 1.8047 0
M  V30 7692 H 721.772 0.445679 0.836704 0
M  V30 7693 H 721.478 1.10778 3.33798 0
M  V30 7694 H 721.352 -0.599337 3.72408 0
M  V30 7695 H 723.739 -0.946662 2.79504 0
M  V30 7696 H 723.82 0.78383 2.43495 0
M  V30 7697 H 723.464 1.29311 4.91163 0
M  V30 7698 H 723.394 -0.455294 5.24628 0
M  V30 7699 H 725.885 0.0772102 3.77821 0
M  V30 7700 H 726.198 0.782529 7.68828 0
M  V30 7701 H 724.543 0.696835 6.91498 0
M  V30 7702 H 727.734 0.17986 4.67754 0
M  V30 7703 H 727.907 0.501263 6.46058 0
M  V30 7704 N 721.313 -1.57302 -0.09688 0
M  V30 7705 C 722.543 -1.89926 -0.813114 0
M  V30 7706 C 722.951 -0.76852 -1.72888 0
M  V30 7707 O 722.294 0.268549 -1.81726 0
M  V30 7708 C 722.356 -3.17787 -1.68082 0
M  V30 7709 C 722.02 -4.4729 -0.937061 0
M  V30 7710 C 723.017 -5.1921 -0.267687 0
M  V30 7711 C 720.702 -4.93957 -0.911671 0
M  V30 7712 C 722.696 -6.36034 0.417129 0
M  V30 7713 C 720.383 -6.10693 -0.223068 0
M  V30 7714 C 721.381 -6.8158 0.440155 0
M  V30 7715 O 721.069 -7.96092 1.11772 0
M  V30 7716 H 720.801 -0.632783 -0.237828 0
M  V30 7717 H 723.355 -2.05248 -0.0790818 0
M  V30 7718 H 721.585 -2.98607 -2.45705 0
M  V30 7719 H 723.274 -3.36257 -2.27346 0
M  V30 7720 H 724.04 -4.84198 -0.278774 0
M  V30 7721 H 719.919 -4.38671 -1.41734 0
M  V30 7722 H 723.463 -6.91301 0.93537 0
M  V30 7723 H 719.36 -6.45159 -0.209821 0
M  V30 7724 H 720.128 -8.12064 1.02443 0
M  V30 7725 N 722.791 0.367657 -1.53252 0
M  V30 7726 C 724.021 1.12955 -1.72988 0
M  V30 7727 C 724.429 1.8358 -0.457708 0
M  V30 7728 O 723.772 1.74336 0.579006 0
M  V30 7729 C 723.834 2.20545 -2.83902 0
M  V30 7730 C 723.498 1.69704 -4.24323 0
M  V30 7731 C 724.495 1.16223 -5.06743 0
M  V30 7732 C 722.18 1.7528 -4.70725 0
M  V30 7733 C 724.174 0.689935 -6.33655 0
M  V30 7734 C 721.861 1.27662 -5.97617 0
M  V30 7735 C 722.859 0.746083 -6.78913 0
M  V30 7736 O 722.547 0.276925 -8.03423 0
M  V30 7737 H 722.279 0.343753 -0.582074 0
M  V30 7738 H 724.833 0.433106 -2.00782 0
M  V30 7739 H 723.063 2.93676 -2.51577 0
M  V30 7740 H 724.752 2.82111 -2.91836 0
M  V30 7741 H 725.518 1.11256 -4.72067 0
M  V30 7742 H 721.397 2.15515 -4.07522 0
M  V30 7743 H 724.941 0.275164 -6.97057 0
M  V30 7744 H 720.838 1.32322 -6.31792 0
M  V30 7745 H 721.606 0.396445 -8.17539 0
M  V30 7746 N 724.269 1.44576 0.627338 0
M  V30 7747 C 725.497 1.51048 1.41394 0
M  V30 7748 C 725.912 0.136568 1.88305 0
M  V30 7749 O 725.269 -0.858251 1.6106 0
M  V30 7750 C 725.32 2.47837 2.63172 0
M  V30 7751 O 725.041 3.79887 2.18215 0
M  V30 7752 C 726.542 2.63811 3.56257 0
M  V30 7753 H 723.762 0.512171 0.4335 0
M  V30 7754 H 726.306 1.89576 0.766878 0
M  V30 7755 H 724.461 2.12433 3.23961 0
M  V30 7756 H 724.875 4.32177 2.97192 0
M  V30 7757 H 726.349 3.35554 4.38301 0
M  V30 7758 H 726.826 1.69169 4.05313 0
M  V30 7759 H 727.432 3.0013 3.01333 0
M  V30 7760 N 725.747 -0.868086 1.31537 0
M  V30 7761 C 726.977 -1.65162 1.24118 0
M  V30 7762 C 727.385 -1.88187 -0.195558 0
M  V30 7763 O 726.728 -1.44154 -1.13866 0
M  V30 7764 C 726.79 -3.04119 1.91708 0
M  V30 7765 C 726.454 -3.04194 3.4105 0
M  V30 7766 C 727.451 -2.82016 4.36764 0
M  V30 7767 C 725.136 -3.25256 3.82772 0
M  V30 7768 C 727.13 -2.80881 5.72175 0
M  V30 7769 C 724.817 -3.23749 5.18295 0
M  V30 7770 C 725.815 -3.01589 6.12808 0
M  V30 7771 O 725.503 -2.9993 7.45853 0
M  V30 7772 H 725.235 -0.521597 0.430015 0
M  V30 7773 H 727.789 -1.09165 1.73989 0
M  V30 7774 H 726.019 -3.61849 1.36389 0
M  V30 7775 H 727.708 -3.64701 1.78179 0
M  V30 7776 H 728.474 -2.65525 4.05859 0
M  V30 7777 H 724.353 -3.41534 3.09638 0
M  V30 7778 H 727.897 -2.63503 6.45919 0
M  V30 7779 H 723.794 -3.39781 5.48834 0
M  V30 7780 H 724.562 -3.15979 7.55049 0
M  V30 7781 N 727.225 -1.14528 -1.08264 0
M  V30 7782 C 728.155 -0.856356 -2.1723 0
M  V30 7783 C 729.136 0.189251 -1.69044 0
M  V30 7784 O 730.321 0.0456119 -1.94146 0
M  V30 7785 C 727.451 -0.334662 -3.45684 0
M  V30 7786 C 726.405 -1.31588 -4.0727 0
M  V30 7787 C 725.731 -0.653428 -5.30692 0
M  V30 7788 C 727.031 -2.67866 -4.48381 0
M  V30 7789 H 728.725 -1.76755 -2.41657 0
M  V30 7790 H 726.271 -0.851287 -1.16143 0
M  V30 7791 H 728.224 -0.120128 -4.21229 0
M  V30 7792 H 726.948 0.611967 -3.20815 0
M  V30 7793 H 725.607 -1.51661 -3.33758 0
M  V30 7794 H 725.255 0.299054 -5.0211 0
M  V30 7795 H 724.955 -1.30817 -5.72853 0
M  V30 7796 H 726.479 -0.448453 -6.08951 0
M  V30 7797 H 727.893 -2.51692 -5.15096 0
M  V30 7798 H 726.29 -3.29627 -5.01464 0
M  V30 7799 H 727.36 -3.24632 -3.60198 0
M  V30 7800 N 728.703 1.26451 -0.940633 0
M  V30 7801 C 729.952 1.93071 -0.583656 0
M  V30 7802 C 730.265 1.74618 0.881366 0
M  V30 7803 O 731.471 2.35689 1.34769 0
M  V30 7804 C 729.927 3.45927 -0.993106 0
M  V30 7805 C 729.535 3.73115 -2.4797 0
M  V30 7806 C 731.279 4.18554 -0.707998 0
M  V30 7807 C 729.186 5.19408 -2.82788 0
M  V30 7808 H 728.116 0.722824 -0.214572 0
M  V30 7809 H 730.767 1.43538 -1.1432 0
M  V30 7810 H 729.149 3.94341 -0.362099 0
M  V30 7811 H 730.323 3.35408 -3.15971 0
M  V30 7812 H 728.638 3.13719 -2.73805 0
M  V30 7813 H 731.235 5.26293 -0.94447 0
M  V30 7814 H 731.578 4.14782 0.355225 0
M  V30 7815 H 732.111 3.76003 -1.2987 0
M  V30 7816 H 728.85 5.28281 -3.88071 0
M  V30 7817 H 728.37 5.58214 -2.19449 0
M  V30 7818 H 730.049 5.87407 -2.71224 0
M  V30 7819 N 730.181 0.707592 1.40822 0
M  V30 7820 C 731.114 -0.000859377 2.282 0
M  V30 7821 C 732.092 -0.7758 1.42899 0
M  V30 7822 O 733.276 -0.76411 1.72318 0
M  V30 7823 C 730.403 -1.00861 3.23334 0
M  V30 7824 C 729.449 -0.32543 4.25257 0
M  V30 7825 S 730.282 0.940908 5.27169 0
M  V30 7826 C 731.438 -0.0649459 6.25866 0
M  V30 7827 H 731.671 0.740207 2.87938 0
M  V30 7828 H 729.204 0.498311 1.46138 0
M  V30 7829 H 731.162 -1.58485 3.78672 0
M  V30 7830 H 729.823 -1.72233 2.62668 0
M  V30 7831 H 729.016 -1.08697 4.92139 0
M  V30 7832 H 728.618 0.178044 3.73576 0
M  V30 7833 H 730.91 -0.914377 6.71301 0
M  V30 7834 H 731.853 0.570276 7.058 0
M  V30 7835 H 732.261 -0.425098 5.62897 0
M  V30 7836 N 731.66 -1.50943 0.453197 0
M  V30 7837 C 732.608 -2.29728 -0.364419 0
M  V30 7838 C 733.602 -1.36246 -1.00664 0
M  V30 7839 O 734.808 -1.53518 -0.939794 0
M  V30 7840 H 731.183 -0.739536 -0.136347 0
M  V30 7841 H 733.154 -2.96672 0.320696 0
M  V30 7842 C 731.903 -3.1629 -1.44415 0
M  V30 7843 H 731.226 -3.88119 -0.959343 0
M  V30 7844 H 732.666 -3.74444 -1.98917 0
M  V30 7845 C 731.125 -2.32702 -2.43622 0
M  V30 7846 O 731.655 -1.99763 -3.48508 0
M  V30 7847 N 729.861 -1.95621 -2.14897 0
M  V30 7848 H 729.408 -2.22607 -1.29629 0
M  V30 7849 H 729.366 -1.39993 -2.81513 0
M  V30 7850 N 733.138 -0.185124 -1.56509 0
M  V30 7851 C 734.085 0.739729 -2.18624 0
M  V30 7852 C 735.055 1.217 -1.13042 0
M  V30 7853 O 736.24 1.28268 -1.41251 0
M  V30 7854 C 733.38 1.95787 -2.84186 0
M  V30 7855 C 732.493 1.52289 -4.04267 0
M  V30 7856 C 731.628 2.69576 -4.57714 0
M  V30 7857 C 730.667 2.22636 -5.70175 0
M  V30 7858 N 729.804 3.33065 -6.18071 0
M  V30 7859 H 734.644 0.203269 -2.97306 0
M  V30 7860 H 732.181 0.0885946 -1.46833 0
M  V30 7861 H 734.139 2.67253 -3.20361 0
M  V30 7862 H 732.769 2.4678 -2.08085 0
M  V30 7863 H 731.821 0.704458 -3.7382 0
M  V30 7864 H 733.133 1.13843 -4.85635 0
M  V30 7865 H 732.287 3.4918 -4.96143 0
M  V30 7866 H 731.026 3.1129 -3.75433 0
M  V30 7867 H 730.031 1.41483 -5.31284 0
M  V30 7868 H 731.256 1.81964 -6.54267 0
M  V30 7869 H 729.202 3.74328 -5.38715 0
M  V30 7870 H 729.119 2.98756 -6.94464 0
M  V30 7871 H 730.387 4.12912 -6.61153 0
M  V30 7872 N 734.616 1.57351 0.0885366 0
M  V30 7873 C 735.864 1.86051 0.789262 0
M  V30 7874 C 736.185 0.774763 1.78948 0
M  V30 7875 O 735.455 -0.198324 1.94894 0
M  V30 7876 H 734.035 0.686508 0.294475 0
M  V30 7877 H 736.697 1.94779 0.0686055 0
M  V30 7878 H 735.793 2.83007 1.31581 0
M  V30 7879 N 736.094 -0.359525 1.53444 0
M  V30 7880 C 737.51 -0.701599 1.43352 0
M  V30 7881 C 737.71 -1.93049 0.577439 0
M  V30 7882 O 736.766 -2.52423 0.0622224 0
M  V30 7883 C 738.079 -0.90915 2.86627 0
M  V30 7884 C 739.627 -1.00878 2.96298 0
M  V30 7885 C 740.102 -1.24876 4.40647 0
M  V30 7886 N 741.593 -1.31632 4.44103 0
M  V30 7887 C 742.328 -1.51922 5.52908 0
M  V30 7888 N 741.824 -1.69489 6.71748 0
M  V30 7889 N 743.617 -1.54341 5.40496 0
M  V30 7890 H 735.768 0.448685 2.07607 0
M  V30 7891 H 738.031 0.138713 0.937797 0
M  V30 7892 H 737.737 -0.0778997 3.51614 0
M  V30 7893 H 737.611 -1.81551 3.30634 0
M  V30 7894 H 739.998 -1.83057 2.31461 0
M  V30 7895 H 740.079 -0.0796721 2.55676 0
M  V30 7896 H 739.723 -0.431961 5.0606 0
M  V30 7897 H 739.653 -2.19118 4.78848 0
M  V30 7898 H 742.144 -1.19646 3.5846 0
M  V30 7899 H 742.457 -1.84561 7.50438 0
M  V30 7900 H 740.802 -1.66655 6.74723 0
M  V30 7901 H 743.993 -1.40188 4.46615 0
M  V30 7902 H 744.166 -1.69812 6.25354 0
M  V30 7903 N 737.572 -1.44907 -0.619662 0
M  V30 7904 C 738.502 -1.55488 -1.742 0
M  V30 7905 C 739.483 -0.407143 -1.65156 0
M  V30 7906 O 740.668 -0.628743 -1.8374 0
M  V30 7907 C 737.798 -1.5097 -3.1277 0
M  V30 7908 C 736.752 -2.64337 -3.36615 0
M  V30 7909 C 736.078 -2.44872 -4.75333 0
M  V30 7910 C 737.378 -4.06423 -3.28051 0
M  V30 7911 H 739.072 -2.49432 -1.65602 0
M  V30 7912 H 736.618 -1.20047 -0.795281 0
M  V30 7913 H 738.571 -1.56971 -3.91073 0
M  V30 7914 H 737.295 -0.535486 -3.2218 0
M  V30 7915 H 735.954 -2.57744 -2.60698 0
M  V30 7916 H 735.602 -1.45617 -4.81461 0
M  V30 7917 H 735.302 -3.20888 -4.92244 0
M  V30 7918 H 736.826 -2.52709 -5.55851 0
M  V30 7919 H 738.24 -4.14324 -3.96243 0
M  V30 7920 H 736.637 -4.82733 -3.56495 0
M  V30 7921 H 737.707 -4.29183 -2.25676 0
M  V30 7922 N 739.05 0.861098 -1.31996 0
M  V30 7923 C 739.98 1.98482 -1.22993 0
M  V30 7924 C 740.961 1.6971 -0.115168 0
M  V30 7925 O 742.146 1.91849 -0.30126 0
M  V30 7926 C 739.276 3.34179 -0.945615 0
M  V30 7927 C 738.23 3.77284 -2.02091 0
M  V30 7928 C 737.556 5.1054 -1.58912 0
M  V30 7929 C 738.856 3.93439 -3.43515 0
M  V30 7930 H 740.55 2.06271 -2.17008 0
M  V30 7931 H 738.096 0.991043 -1.04472 0
M  V30 7932 H 740.049 4.12338 -0.869206 0
M  V30 7933 H 738.773 3.26586 0.0301849 0
M  V30 7934 H 737.432 3.01371 -2.08737 0
M  V30 7935 H 737.08 4.99397 -0.600942 0
M  V30 7936 H 736.78 5.40352 -2.30854 0
M  V30 7937 H 738.304 5.91199 -1.52696 0
M  V30 7938 H 739.718 4.6197 -3.39495 0
M  V30 7939 H 738.115 4.34661 -4.13751 0
M  V30 7940 H 739.185 2.96548 -3.8365 0
M  V30 7941 N 740.528 1.15101 1.07655 0
M  V30 7942 C 741.475 0.844958 2.14777 0
M  V30 7943 C 742.445 -0.200798 1.64882 0
M  V30 7944 O 743.63 -0.0690278 1.90675 0
M  V30 7945 C 740.77 0.337018 3.4345 0
M  V30 7946 C 739.883 1.44398 4.07153 0
M  V30 7947 C 739.018 0.892487 5.23649 0
M  V30 7948 C 738.057 1.9766 5.79307 0
M  V30 7949 N 737.194 1.44171 6.87138 0
M  V30 7950 H 742.034 1.76242 2.40297 0
M  V30 7951 H 739.571 0.879435 1.17917 0
M  V30 7952 H 741.529 0.024256 4.17193 0
M  V30 7953 H 740.159 -0.543531 3.18191 0
M  V30 7954 H 739.211 1.87299 3.31094 0
M  V30 7955 H 740.523 2.26262 4.4453 0
M  V30 7956 H 739.677 0.532083 6.04362 0
M  V30 7957 H 738.416 0.0429854 4.87681 0
M  V30 7958 H 737.421 2.34586 4.97242 0
M  V30 7959 H 738.646 2.82982 6.17331 0
M  V30 7960 H 736.592 0.614518 6.53115 0
M  V30 7961 H 736.509 2.19665 7.23383 0
M  V30 7962 H 737.777 1.10945 7.71564 0
M  V30 7963 N 742.006 -1.2595 0.947325 0
M  V30 7964 C 742.969 -2.24407 0.466285 0
M  V30 7965 C 743.969 -1.55054 -0.426005 0
M  V30 7966 O 745.159 -1.7275 -0.224319 0
M  V30 7967 C 742.291 -3.39326 -0.327201 0
M  V30 7968 H 743.484 -2.68477 1.33642 0
M  V30 7969 H 741.037 -1.38211 0.729887 0
M  V30 7970 H 741.772 -3.00667 -1.21532 0
M  V30 7971 H 741.557 -3.9085 0.312839 0
M  V30 7972 H 743.047 -4.12455 -0.653477 0
M  V30 7973 N 743.484 -0.715051 -1.40445 0
M  V30 7974 C 744.732 -0.253826 -2.005 0
M  V30 7975 C 745.053 1.15681 -1.5698 0
M  V30 7976 O 744.323 1.78414 -0.809027 0
M  V30 7977 H 742.903 -0.0908537 -0.741454 0
M  V30 7978 H 745.565 -0.920561 -1.7179 0
M  V30 7979 H 744.661 -0.286499 -3.10782 0
M  V30 7980 N 744.962 1.50701 -0.461195 0
M  V30 7981 C 746.378 1.59187 -0.114786 0
M  V30 7982 C 746.578 1.4702 1.37794 0
M  V30 7983 O 745.634 1.32361 2.15027 0
M  V30 7984 C 746.947 2.93453 -0.656167 0
M  V30 7985 C 748.495 3.06824 -0.618715 0
M  V30 7986 C 748.97 4.4365 -1.13747 0
M  V30 7987 N 750.461 4.50035 -1.09646 0
M  V30 7988 C 751.196 5.54278 -1.46846 0
M  V30 7989 N 750.692 6.65822 -1.91448 0
M  V30 7990 N 752.485 5.44767 -1.38512 0
M  V30 7991 H 744.636 1.56853 -1.43216 0
M  V30 7992 H 746.899 0.740712 -0.59165 0
M  V30 7993 H 746.605 3.07802 -1.7015 0
M  V30 7994 H 746.479 3.77082 -0.0942261 0
M  V30 7995 H 748.866 2.92129 0.417685 0
M  V30 7996 H 748.947 2.24976 -1.21734 0
M  V30 7997 H 748.591 4.59093 -2.17245 0
M  V30 7998 H 748.521 5.24074 -0.515153 0
M  V30 7999 H 751.012 3.69988 -0.769217 0
M  V30 8000 H 751.325 7.41413 -2.18007 0
M  V30 8001 H 749.67 6.66968 -1.95393 0
M  V30 8002 H 752.861 4.56511 -1.03516 0
M  V30 8003 H 753.034 6.25889 -1.6783 0
M  V30 8004 N 746.441 0.193421 1.56409 0
M  V30 8005 C 747.373 -0.759944 2.16235 0
M  V30 8006 C 748.386 -1.17797 1.12373 0
M  V30 8007 O 749.575 -1.11399 1.39472 0
M  V30 8008 C 746.675 -2.03735 2.70823 0
M  V30 8009 C 745.848 -1.77939 3.9957 0
M  V30 8010 C 744.907 -2.90111 4.39001 0
M  V30 8011 O 743.933 -2.59791 5.06456 0
M  V30 8012 N 745.135 -4.18426 4.02368 0
M  V30 8013 H 747.9 -0.248348 2.98669 0
M  V30 8014 H 745.461 0.0113966 1.61896 0
M  V30 8015 H 747.453 -2.77914 2.94187 0
M  V30 8016 H 746.023 -2.46022 1.92852 0
M  V30 8017 H 745.243 -0.875491 3.84355 0
M  V30 8018 H 746.531 -1.58099 4.83614 0
M  V30 8019 H 745.929 -4.45913 3.48106 0
M  V30 8020 H 744.486 -4.89237 4.30686 0
M  V30 8021 N 747.919 -1.57396 -0.0801906 0
M  V30 8022 C 749.165 -1.87113 -0.782083 0
M  V30 8023 C 749.498 -0.78458 -1.77646 0
M  V30 8024 O 748.773 0.205993 -1.93406 0
M  V30 8025 C 749.056 -3.27483 -1.49756 0
M  V30 8026 C 748.909 -4.46782 -0.520171 0
M  V30 8027 C 750.228 -3.65965 -2.44454 0
M  V30 8028 H 747.347 -0.680559 -0.282858 0
M  V30 8029 H 749.989 -1.89946 -0.0454139 0
M  V30 8030 H 748.139 -3.25199 -2.12551 0
M  V30 8031 H 749.811 -4.61187 0.101919 0
M  V30 8032 H 748.054 -4.33485 0.165219 0
M  V30 8033 H 748.725 -5.41761 -1.05824 0
M  V30 8034 H 751.201 -3.69289 -1.91742 0
M  V30 8035 H 750.077 -4.65086 -2.91524 0
M  V30 8036 H 750.338 -2.95446 -3.28883 0
M  V30 8037 N 749.397 0.351382 -1.53633 0
M  V30 8038 C 750.813 0.693987 -1.43722 0
M  V30 8039 C 751.013 1.9274 -0.587669 0
M  V30 8040 O 750.069 2.52387 -0.0756082 0
M  V30 8041 C 751.382 0.893937 -2.87105 0
M  V30 8042 C 752.93 0.993051 -2.96829 0
M  V30 8043 C 753.405 1.22537 -4.41303 0
M  V30 8044 N 754.896 1.29275 -4.44795 0
M  V30 8045 C 755.631 1.48988 -5.53706 0
M  V30 8046 N 755.127 1.65924 -6.72637 0
M  V30 8047 N 756.92 1.51472 -5.41306 0
M  V30 8048 H 749.071 -0.459688 -2.07366 0
M  V30 8049 H 751.334 -0.143684 -0.937048 0
M  V30 8050 H 751.04 0.0592517 -3.5165 0
M  V30 8051 H 750.914 1.79795 -3.31592 0
M  V30 8052 H 753.301 1.81827 -2.32429 0
M  V30 8053 H 753.382 0.0661119 -2.55715 0
M  V30 8054 H 753.026 0.405117 -5.06282 0
M  V30 8055 H 752.956 2.16575 -4.80003 0
M  V30 8056 H 755.447 1.17743 -3.59089 0
M  V30 8057 H 755.76 1.80578 -7.51406 0
M  V30 8058 H 754.105 1.63075 -6.75597 0
M  V30 8059 H 757.296 1.37818 -4.47352 0
M  V30 8060 H 757.469 1.66493 -6.26246 0
M  V30 8061 N 750.875 1.45233 0.611969 0
M  V30 8062 C 751.785 1.56098 1.7513 0
M  V30 8063 C 752.801 0.445646 1.68196 0
M  V30 8064 O 753.977 0.705718 1.88631 0
M  V30 8065 C 751.042 1.52052 3.11579 0
M  V30 8066 C 750.103 2.74589 3.29999 0
M  V30 8067 C 749.336 2.70726 4.59938 0
M  V30 8068 O 749.559 1.77806 5.41979 0
M  V30 8069 O 748.493 3.61864 4.80976 0
M  V30 8070 H 752.319 2.52392 1.68914 0
M  V30 8071 H 749.904 1.27695 0.775528 0
M  V30 8072 H 751.786 1.52387 3.92882 0
M  V30 8073 H 750.461 0.589085 3.18295 0
M  V30 8074 H 749.368 2.79817 2.48301 0
M  V30 8075 H 750.701 3.66843 3.28157 0
M  V30 8076 N 752.353 -0.854086 1.3245 0
M  V30 8077 C 753.764 -1.42427 1.20712 0
M  V30 8078 C 754.115 -1.95371 -0.18013 0
M  V30 8079 O 753.24 -1.87587 -1.07889 0
M  V30 8080 C 753.835 -2.58897 2.18536 0
M  V30 8081 C 752.394 -3.11913 2.10683 0
M  V30 8082 C 751.541 -1.84661 2.06871 0
M  V30 8083 H 754.492 -0.661192 1.4427 0
M  V30 8084 H 754.513 -3.36074 1.78422 0
M  V30 8085 H 754.025 -2.20333 3.19492 0
M  V30 8086 H 752.126 -3.55059 1.12977 0
M  V30 8087 H 752.239 -3.73119 3.00532 0
M  V30 8088 H 750.603 -2.04285 1.52118 0
M  V30 8089 H 751.386 -1.48314 3.09609 0
M  V30 8090 N 753.831 -1.1567 -1.07043 0
M  V30 8091 C 755.079 -0.931673 -1.79344 0
M  V30 8092 C 755.4 0.542421 -1.87304 0
M  V30 8093 O 754.67 1.39418 -1.37621 0
M  V30 8094 H 753.25 -0.34171 -0.664262 0
M  V30 8095 H 755.912 -1.45795 -1.29344 0
M  V30 8096 H 755.008 -1.34379 -2.81689 0
M  V30 8097 N 755.309 1.25446 -0.953992 0
M  V30 8098 C 756.241 2.25111 -0.431004 0
M  V30 8099 C 757.254 1.56377 0.452764 0
M  V30 8100 O 758.443 1.76579 0.261144 0
M  V30 8101 C 755.543 3.3655 0.39839 0
M  V30 8102 C 754.716 4.34843 -0.472229 0
M  V30 8103 C 753.775 5.25351 0.29886 0
M  V30 8104 O 752.801 5.68396 -0.302522 0
M  V30 8105 N 754.003 5.5824 1.59211 0
M  V30 8106 H 756.768 2.70619 -1.28785 0
M  V30 8107 H 754.329 1.39346 -0.824281 0
M  V30 8108 H 756.321 3.94059 0.921941 0
M  V30 8109 H 754.891 2.90436 1.15609 0
M  V30 8110 H 754.111 3.76222 -1.17689 0
M  V30 8111 H 755.399 4.97497 -1.06648 0
M  V30 8112 H 754.797 5.25172 2.10264 0
M  V30 8113 H 753.354 6.18336 2.06164 0
M  V30 8114 N 756.787 0.722489 1.40064 0
M  V30 8115 C 758.064 0.191829 1.94657 0
M  V30 8116 C 758.444 -1.30389 1.66018 0
M  V30 8117 O 757.792 -2.06342 0.981588 0
M  V30 8118 C 758.002 0.511978 3.45224 0
M  V30 8119 C 759.35 0.454426 4.22161 0
M  V30 8120 O 760.374 0.448438 3.53366 0
M  V30 8121 O 759.233 0.437986 5.44742 0
M  V30 8122 H 756.327 0.0307821 0.826427 0
M  V30 8123 H 758.873 0.800493 1.49634 0
M  V30 8124 H 757.645 1.54622 3.59455 0
M  V30 8125 H 757.268 -0.126296 3.97399 0
M  V30 8126 N 758.265 -1.50454 0.469181 0
M  V30 8127 C 759.195 -2.31353 -0.31592 0
M  V30 8128 C 760.176 -1.38172 -0.992094 0
M  V30 8129 O 761.361 -1.67093 -0.989633 0
M  V30 8130 C 758.491 -3.1786 -1.39937 0
M  V30 8131 C 757.445 -4.19578 -0.844909 0
M  V30 8132 C 756.771 -4.9481 -2.0265 0
M  V30 8133 C 758.071 -5.22106 0.142499 0
M  V30 8134 H 759.765 -2.97237 0.359269 0
M  V30 8135 H 757.311 -1.42942 0.174224 0
M  V30 8136 H 759.264 -3.7325 -1.95607 0
M  V30 8137 H 757.988 -2.49858 -2.1033 0
M  V30 8138 H 756.647 -3.65285 -0.310189 0
M  V30 8139 H 756.295 -4.23282 -2.71737 0
M  V30 8140 H 755.995 -5.63613 -1.66174 0
M  V30 8141 H 757.519 -5.53035 -2.58815 0
M  V30 8142 H 758.933 -5.72378 -0.324966 0
M  V30 8143 H 757.33 -5.98618 0.421441 0
M  V30 8144 H 758.4 -4.7297 1.06901 0
M  V30 8145 N 759.743 -0.201713 -1.56304 0
M  V30 8146 C 760.989 0.435952 -1.98059 0
M  V30 8147 C 761.322 1.60811 -1.08873 0
M  V30 8148 O 760.597 1.9398 -0.142128 0
M  V30 8149 C 760.88 0.889706 -3.48936 0
M  V30 8150 C 760.733 -0.284725 -4.48898 0
M  V30 8151 C 762.052 1.7529 -4.03685 0
M  V30 8152 H 759.171 0.15699 -0.720085 0
M  V30 8153 H 761.813 -0.293965 -1.87712 0
M  V30 8154 H 759.963 1.51166 -3.57884 0
M  V30 8155 H 761.635 -0.922531 -4.51981 0
M  V30 8156 H 759.878 -0.935427 -4.23594 0
M  V30 8157 H 760.549 0.0753865 -5.51949 0
M  V30 8158 H 763.025 1.2283 -3.97558 0
M  V30 8159 H 761.901 2.03933 -5.0961 0
M  V30 8160 H 762.162 2.70939 -3.49348 0
M  V30 8161 N 761.222 1.57436 0.0718424 0
M  V30 8162 C 762.468 1.87525 0.772149 0
M  V30 8163 C 762.801 0.79399 1.77227 0
M  V30 8164 O 762.076 -0.195733 1.93513 0
M  V30 8165 C 762.359 3.28272 1.48018 0
M  V30 8166 C 762.212 4.47052 0.49647 0
M  V30 8167 C 763.531 3.67256 2.42509 0
M  V30 8168 H 760.65 0.682049 0.279245 0
M  V30 8169 H 763.292 1.89967 0.03534 0
M  V30 8170 H 761.442 3.26321 2.10824 0
M  V30 8171 H 763.114 4.61127 -0.126375 0
M  V30 8172 H 761.357 4.33392 -0.188205 0
M  V30 8173 H 762.028 5.42315 1.02949 0
M  V30 8174 H 764.504 3.70301 1.89781 0
M  V30 8175 H 763.38 4.66626 2.89053 0
M  V30 8176 H 763.641 2.97186 3.27312 0
M  V30 8177 N 762.7 -0.34323 1.53817 0
M  V30 8178 C 763.63 -1.42709 1.84814 0
M  V30 8179 C 764.611 -1.5488 0.703297 0
M  V30 8180 O 765.796 -1.69082 0.955237 0
M  V30 8181 C 762.926 -2.79756 2.05801 0
M  V30 8182 C 761.88 -2.82392 3.21619 0
M  V30 8183 C 761.206 -4.22326 3.2794 0
M  V30 8184 C 762.506 -2.479 4.59721 0
M  V30 8185 H 764.2 -1.17018 2.75585 0
M  V30 8186 H 761.746 -0.561485 1.32602 0
M  V30 8187 H 763.699 -3.55627 2.26069 0
M  V30 8188 H 762.423 -3.06883 1.11761 0
M  V30 8189 H 761.082 -2.08974 3.01207 0
M  V30 8190 H 760.73 -4.46564 2.31494 0
M  V30 8191 H 760.43 -4.25001 4.05768 0
M  V30 8192 H 761.954 -5.00039 3.50419 0
M  V30 8193 H 763.368 -3.13484 4.80001 0
M  V30 8194 H 761.765 -2.61857 5.39954 0
M  V30 8195 H 762.835 -1.43087 4.63308 0
M  V30 8196 N 764.178 -1.45556 -0.604258 0
M  V30 8197 C 765.589 -1.44171 -1.18624 0
M  V30 8198 C 765.94 -0.171081 -1.95453 0
M  V30 8199 O 765.065 0.727156 -2.03817 0
M  V30 8200 C 765.66 -2.61193 -2.15786 0
M  V30 8201 C 764.219 -2.62918 -2.69353 0
M  V30 8202 C 763.366 -2.36479 -1.4482 0
M  V30 8203 H 766.317 -1.53747 -0.393381 0
M  V30 8204 H 766.338 -2.35481 -2.98879 0
M  V30 8205 H 765.85 -3.53656 -1.59841 0
M  V30 8206 H 763.951 -1.7447 -3.29228 0
M  V30 8207 H 764.064 -3.6224 -3.13559 0
M  V30 8208 H 762.428 -1.86103 -1.73891 0
M  V30 8209 H 763.211 -3.31091 -0.907376 0
M  V30 8210 N 765.656 0.84705 -1.32902 0
M  V30 8211 C 766.586 1.97166 -1.25091 0
M  V30 8212 C 767.567 1.69578 -0.133161 0
M  V30 8213 O 768.752 1.91519 -0.321591 0
M  V30 8214 C 765.882 3.33157 -0.981006 0
M  V30 8215 C 764.836 3.75119 -2.06082 0
M  V30 8216 C 764.162 5.08826 -1.64318 0
M  V30 8217 C 765.462 3.89774 -3.47669 0
M  V30 8218 H 767.156 2.03958 -2.19184 0
M  V30 8219 H 764.702 0.979907 -1.05517 0
M  V30 8220 H 766.655 4.11393 -0.912891 0
M  V30 8221 H 765.379 3.266 -0.00445559 0
M  V30 8222 H 764.038 2.9914 -2.11921 0
M  V30 8223 H 763.686 4.98732 -0.653876 0
M  V30 8224 H 763.386 5.37873 -2.36572 0
M  V30 8225 H 764.91 5.89546 -1.58958 0
M  V30 8226 H 766.324 4.58343 -3.44376 0
M  V30 8227 H 764.721 4.30248 -4.18338 0
M  V30 8228 H 765.791 2.92463 -3.86773 0
M  V30 8229 N 767.134 1.16236 1.06428 0
M  V30 8230 C 768.359 0.967688 1.83441 0
M  V30 8231 C 768.784 -0.479167 1.81894 0
M  V30 8232 O 768.142 -1.34224 1.21875 0
M  V30 8233 C 768.19 1.49806 3.2801 0
M  V30 8234 O 767.294 0.703481 4.06356 0
M  V30 8235 H 766.635 0.344468 0.56766 0
M  V30 8236 H 769.165 1.54442 1.34197 0
M  V30 8237 H 769.175 1.51495 3.78831 0
M  V30 8238 H 767.85 2.55133 3.2845 0
M  V30 8239 H 766.427 0.756986 3.65136 0
M  V30 8240 N 768.612 -1.24939 0.960631 0
M  V30 8241 C 769.861 -1.92118 0.614298 0
M  V30 8242 C 770.174 -1.75998 -0.853474 0
M  V30 8243 O 771.38 -2.37804 -1.31003 0
M  V30 8244 C 769.836 -3.44303 1.04801 0
M  V30 8245 C 769.444 -3.69123 2.53875 0
M  V30 8246 C 771.188 -4.17375 0.774497 0
M  V30 8247 C 769.095 -5.14843 2.91016 0
M  V30 8248 H 768.025 -0.719319 0.226045 0
M  V30 8249 H 770.676 -1.41701 1.16589 0
M  V30 8250 H 769.058 -3.93715 0.42479 0
M  V30 8251 H 770.232 -3.30339 3.21267 0
M  V30 8252 H 768.547 -3.09323 2.78762 0
M  V30 8253 H 771.144 -5.24723 1.02808 0
M  V30 8254 H 771.487 -4.15294 -0.289192 0
M  V30 8255 H 772.02 -3.7389 1.35835 0
M  V30 8256 H 768.759 -5.2204 3.96427 0
M  V30 8257 H 768.279 -5.54652 2.28302 0
M  V30 8258 H 769.958 -5.83017 2.80535 0
M  V30 8259 N 770.09 -0.729906 -1.39679 0
M  V30 8260 C 771.318 -0.285709 -2.04918 0
M  V30 8261 C 771.733 1.07765 -1.55023 0
M  V30 8262 O 771.09 1.67999 -0.712923 0
M  V30 8263 C 771.141 -0.272793 -3.60469 0
M  V30 8264 O 770.862 -1.58233 -4.08527 0
M  V30 8265 C 772.363 0.188199 -4.429 0
M  V30 8266 H 769.583 -0.125758 -0.65911 0
M  V30 8267 H 772.127 -0.992129 -1.78821 0
M  V30 8268 H 770.282 0.384699 -3.85485 0
M  V30 8269 H 770.696 -1.49245 -5.02818 0
M  V30 8270 H 772.17 0.14608 -5.51807 0
M  V30 8271 H 772.647 1.2326 -4.21549 0
M  V30 8272 H 773.253 -0.439541 -4.23023 0
M  V30 8273 N 771.568 1.50203 -0.477153 0
M  V30 8274 C 772.796 2.0677 0.0732489 0
M  V30 8275 C 773.211 1.34033 1.32968 0
M  V30 8276 O 772.568 0.411412 1.77802 0
M  V30 8277 C 772.619 3.59751 0.35518 0
M  V30 8278 O 772.34 4.29747 -0.851425 0
M  V30 8279 C 773.841 4.3296 0.951877 0
M  V30 8280 H 771.061 0.670929 -0.00978923 0
M  V30 8281 H 773.605 1.93293 -0.667676 0
M  V30 8282 H 771.76 3.7301 1.04605 0
M  V30 8283 H 772.174 5.2106 -0.599708 0
M  V30 8284 H 773.648 5.40952 1.09888 0
M  V30 8285 H 774.125 3.93856 1.94356 0
M  V30 8286 H 774.731 4.24246 0.299208 0
M  V30 8287 N 773.046 0.209999 1.56195 0
M  V30 8288 C 774.323 -0.473214 1.89789 0
M  V30 8289 C 774.703 -1.78581 1.1257 0
M  V30 8290 O 774.051 -2.27325 0.231398 0
M  V30 8291 C 774.261 -0.677458 3.42362 0
M  V30 8292 C 775.609 -0.990114 4.12895 0
M  V30 8293 O 776.633 -0.764655 3.47896 0
M  V30 8294 O 775.492 -1.41737 5.278 0
M  V30 8295 H 772.586 -0.248622 0.788743 0
M  V30 8296 H 775.132 0.251324 1.67829 0
M  V30 8297 H 773.904 0.248878 3.90508 0
M  V30 8298 H 773.527 -1.45391 3.70064 0
M  V30 8299 N 774.524 -1.57472 -0.0634922 0
M  V30 8300 C 775.771 -1.87654 -0.761066 0
M  V30 8301 C 776.099 -0.802847 -1.77157 0
M  V30 8302 O 775.354 0.200244 -1.94673 0
M  V30 8303 C 775.653 -3.24521 -1.49736 0
M  V30 8304 C 775.319 -4.46532 -0.626065 0
M  V30 8305 C 773.981 -4.7965 -0.385978 0
M  V30 8306 C 776.333 -5.21195 -0.0224001 0
M  V30 8307 C 773.661 -5.84837 0.467118 0
M  V30 8308 C 776.013 -6.27286 0.818198 0
M  V30 8309 C 774.677 -6.58899 1.06808 0
M  V30 8310 H 773.947 -0.686675 -0.278494 0
M  V30 8311 H 776.594 -1.91488 -0.0216348 0
M  V30 8312 H 774.899 -3.16516 -2.30921 0
M  V30 8313 H 776.596 -3.45111 -2.04204 0
M  V30 8314 H 773.186 -4.20618 -0.823325 0
M  V30 8315 H 777.37 -4.95917 -0.194985 0
M  V30 8316 H 772.626 -6.07725 0.669375 0
M  V30 8317 H 776.8 -6.84298 1.29265 0
M  V30 8318 H 774.427 -7.40233 1.73088 0
M  V30 8319 N 776.003 0.335068 -1.53997 0
M  V30 8320 C 777.252 1.07182 -1.70865 0
M  V30 8321 C 777.565 1.89541 -0.483078 0
M  V30 8322 O 778.771 2.66219 -0.532879 0
M  V30 8323 C 777.227 1.95497 -3.02174 0
M  V30 8324 C 776.835 1.18304 -4.32097 0
M  V30 8325 C 778.579 2.68978 -3.28407 0
M  V30 8326 C 776.486 2.05699 -5.54474 0
M  V30 8327 H 775.416 0.403857 -0.636722 0
M  V30 8328 H 778.067 0.33076 -1.80494 0
M  V30 8329 H 776.449 2.73456 -2.86423 0
M  V30 8330 H 777.623 0.451969 -4.58578 0
M  V30 8331 H 775.938 0.565556 -4.12541 0
M  V30 8332 H 778.535 3.34651 -4.17029 0
M  V30 8333 H 778.878 3.36 -2.45784 0
M  V30 8334 H 779.411 1.98087 -3.44973 0
M  V30 8335 H 776.15 1.43204 -6.39666 0
M  V30 8336 H 775.67 2.76572 -5.32229 0
M  V30 8337 H 777.349 2.64554 -5.90441 0
M  V30 8338 N 777.481 1.45874 0.596531 0
M  V30 8339 C 778.892 1.44798 1.17857 0
M  V30 8340 C 779.243 0.181443 1.95359 0
M  V30 8341 O 778.368 -0.716336 2.042 0
M  V30 8342 C 778.963 2.62333 2.14398 0
M  V30 8343 C 777.522 2.64342 2.67955 0
M  V30 8344 C 776.669 2.37244 1.43564 0
M  V30 8345 H 779.62 1.53954 0.385222 0
M  V30 8346 H 779.641 2.37063 2.97626 0
M  V30 8347 H 779.153 3.54499 1.57963 0
M  V30 8348 H 777.254 1.76213 3.28298 0
M  V30 8349 H 777.367 3.63897 3.11634 0
M  V30 8350 H 775.731 1.87022 1.72901 0
M  V30 8351 H 776.514 3.31568 0.889805 0
M  V30 8352 N 778.959 -0.83999 1.33349 0
M  V30 8353 C 780.184 -1.63249 1.27924 0
M  V30 8354 C 780.609 -1.87523 -0.147193 0
M  V30 8355 O 779.967 -1.43853 -1.10345 0
M  V30 8356 C 780.015 -2.96046 2.05886 0
M  V30 8357 O 779.119 -3.87303 1.4167 0
M  V30 8358 H 778.46 -0.49715 0.440157 0
M  V30 8359 H 780.99 -1.04512 1.75893 0
M  V30 8360 H 781 -3.45752 2.16609 0
M  V30 8361 H 779.675 -2.77701 3.09605 0
M  V30 8362 H 778.252 -3.45789 1.39585 0
M  V30 8363 N 780.437 -1.16799 -1.0581 0
M  V30 8364 C 781.684 -0.952524 -1.78699 0
M  V30 8365 C 782.012 0.51931 -1.87439 0
M  V30 8366 O 781.267 1.40151 -1.36587 0
M  V30 8367 C 781.566 -1.53111 -3.22942 0
M  V30 8368 C 781.232 -3.0261 -3.34273 0
M  V30 8369 C 779.894 -3.43418 -3.37072 0
M  V30 8370 C 782.246 -3.98611 -3.35795 0
M  V30 8371 C 779.574 -4.78838 -3.39015 0
M  V30 8372 C 781.926 -5.33923 -3.39277 0
M  V30 8373 C 780.59 -5.74205 -3.40361 0
M  V30 8374 H 779.86 -0.348553 -0.653905 0
M  V30 8375 H 782.507 -1.45591 -1.244 0
M  V30 8376 H 780.812 -0.949286 -3.80126 0
M  V30 8377 H 782.509 -1.34002 -3.77948 0
M  V30 8378 H 779.099 -2.70075 -3.32803 0
M  V30 8379 H 783.283 -3.68146 -3.32839 0
M  V30 8380 H 778.539 -5.09369 -3.38161 0
M  V30 8381 H 782.713 -6.08094 -3.39403 0
M  V30 8382 H 780.34 -6.79117 -3.4162 0
M  V30 8383 N 781.915 1.24427 -0.967243 0
M  V30 8384 C 783.331 1.44684 -0.6737 0
M  V30 8385 C 783.531 1.86429 0.764625 0
M  V30 8386 O 782.587 2.00211 1.53857 0
M  V30 8387 C 783.9 2.509 -1.6574 0
M  V30 8388 C 785.448 2.64728 -1.66998 0
M  V30 8389 C 785.923 3.7414 -2.64165 0
M  V30 8390 N 787.414 3.81567 -2.62604 0
M  V30 8391 C 788.149 4.6575 -3.34462 0
M  V30 8392 N 787.645 5.54124 -4.15835 0
M  V30 8393 N 789.438 4.59827 -3.23288 0
M  V30 8394 H 781.589 0.956276 -1.89655 0
M  V30 8395 H 783.852 0.48171 -0.816492 0
M  V30 8396 H 783.558 2.27113 -2.68538 0
M  V30 8397 H 783.432 3.4905 -1.42981 0
M  V30 8398 H 785.819 2.87872 -0.649121 0
M  V30 8399 H 785.9 1.66936 -1.93819 0
M  V30 8400 H 785.544 3.51745 -3.66384 0
M  V30 8401 H 785.474 4.71444 -2.34623 0
M  V30 8402 H 787.965 3.18403 -2.03539 0
M  V30 8403 H 788.278 6.15316 -4.67553 0
M  V30 8404 H 786.623 5.53791 -4.19929 0
M  V30 8405 H 789.814 3.898 -2.59179 0
M  V30 8406 H 789.987 5.25208 -3.79553 0
M  V30 8407 N 783.393 0.737304 1.3929 0
M  V30 8408 C 784.323 0.113988 2.33222 0
M  V30 8409 C 785.304 -0.721695 1.54031 0
M  V30 8410 O 786.489 -0.666206 1.82415 0
M  V30 8411 C 783.619 -0.792319 3.38141 0
M  V30 8412 C 782.573 -0.0606178 4.27957 0
M  V30 8413 C 781.899 -1.08409 5.23595 0
M  V30 8414 C 783.199 1.09817 5.10625 0
M  V30 8415 H 784.893 0.898611 2.85596 0
M  V30 8416 H 782.439 0.433571 1.37318 0
M  V30 8417 H 784.392 -1.23793 4.02807 0
M  V30 8418 H 783.116 -1.60908 2.84211 0
M  V30 8419 H 781.775 0.365393 3.64775 0
M  V30 8420 H 781.423 -1.89449 4.6596 0
M  V30 8421 H 781.123 -0.599269 5.84536 0
M  V30 8422 H 782.647 -1.52936 5.91137 0
M  V30 8423 H 784.061 0.730892 5.68622 0
M  V30 8424 H 782.458 1.51278 5.80719 0
M  V30 8425 H 783.528 1.91878 4.45321 0
M  V30 8426 N 784.871 -1.49948 0.485112 0
M  V30 8427 C 786.117 -2.02695 -0.0651022 0
M  V30 8428 C 786.45 -1.36534 -1.38102 0
M  V30 8429 O 785.725 -0.495677 -1.88078 0
M  V30 8430 C 786.008 -3.59337 -0.234285 0
M  V30 8431 C 785.861 -4.3605 1.10364 0
M  V30 8432 C 787.18 -4.28996 -0.982351 0
M  V30 8433 H 784.299 -0.736666 -0.0221856 0
M  V30 8434 H 786.941 -1.7913 0.633433 0
M  V30 8435 H 785.091 -3.79546 -0.829262 0
M  V30 8436 H 786.763 -4.27377 1.73627 0
M  V30 8437 H 785.006 -3.99236 1.69686 0
M  V30 8438 H 785.677 -5.43959 0.938743 0
M  V30 8439 H 788.153 -4.13346 -0.477904 0
M  V30 8440 H 787.029 -5.38379 -1.06955 0
M  V30 8441 H 787.29 -3.93135 -2.02231 0
M  V30 8442 N 786.349 -0.21828 -1.56081 0
M  V30 8443 C 787.312 0.679633 -2.18892 0
M  V30 8444 C 788.312 1.12405 -1.14986 0
M  V30 8445 O 789.502 1.03339 -1.40238 0
M  V30 8446 C 786.634 1.93063 -2.80962 0
M  V30 8447 H 787.827 0.132066 -2.99609 0
M  V30 8448 H 785.38 0.0313374 -1.56269 0
M  V30 8449 H 786.115 2.52015 -2.04106 0
M  V30 8450 H 785.9 1.62046 -3.57048 0
M  V30 8451 H 787.39 2.57043 -3.29118 0
M  V30 8452 N 787.827 1.57504 0.0551401 0
M  V30 8453 C 789.057 1.92015 0.762472 0
M  V30 8454 C 789.465 0.814088 1.7079 0
M  V30 8455 O 788.808 -0.220273 1.82375 0
M  V30 8456 C 788.87 3.22132 1.59598 0
M  V30 8457 C 788.534 4.49617 0.818141 0
M  V30 8458 C 789.531 5.19738 0.129933 0
M  V30 8459 C 787.216 4.96201 0.780387 0
M  V30 8460 C 789.21 6.34704 -0.585616 0
M  V30 8461 C 786.897 6.11069 0.0610756 0
M  V30 8462 C 787.895 6.80174 -0.62071 0
M  V30 8463 O 787.583 7.92849 -1.3284 0
M  V30 8464 H 787.315 0.638866 0.220967 0
M  V30 8465 H 789.869 2.05385 0.0246362 0
M  V30 8466 H 788.099 3.05016 2.37701 0
M  V30 8467 H 789.788 3.42166 2.18351 0
M  V30 8468 H 790.554 4.84767 0.150299 0
M  V30 8469 H 786.433 4.42275 1.30054 0
M  V30 8470 H 789.977 6.88578 -1.11833 0
M  V30 8471 H 785.874 6.45488 0.0386945 0
M  V30 8472 H 786.642 8.09062 -1.23938 0
M  V30 8473 N 789.305 -0.326896 1.54172 0
M  V30 8474 C 790.535 -1.08328 1.75922 0
M  V30 8475 C 790.943 -1.82302 0.50622 0
M  V30 8476 O 790.286 -1.7581 -0.532581 0
M  V30 8477 C 790.348 -2.1294 2.8965 0
M  V30 8478 C 790.012 -1.58394 4.28673 0
M  V30 8479 C 791.009 -1.02747 5.09646 0
M  V30 8480 C 788.694 -1.62737 4.75207 0
M  V30 8481 C 790.688 -0.52169 6.35261 0
M  V30 8482 C 788.375 -1.11772 6.00791 0
M  V30 8483 C 789.373 -0.565819 6.80652 0
M  V30 8484 O 789.061 -0.0638146 8.03875 0
M  V30 8485 H 788.793 -0.3282 0.590983 0
M  V30 8486 H 791.347 -0.37972 2.0186 0
M  V30 8487 H 789.577 -2.86903 2.59275 0
M  V30 8488 H 791.266 -2.74274 2.99213 0
M  V30 8489 H 792.032 -0.987007 4.74851 0
M  V30 8490 H 787.911 -2.04635 4.13093 0
M  V30 8491 H 791.455 -0.0902544 6.97542 0
M  V30 8492 H 787.352 -1.15524 6.35078 0
M  V30 8493 H 788.12 -0.17955 8.18303 0
M  V30 8494 N 790.784 -1.46188 -0.588786 0
M  V30 8495 C 792.012 -1.54743 -1.37339 0
M  V30 8496 C 792.427 -0.186446 -1.87877 0
M  V30 8497 O 791.784 0.815247 -1.63279 0
M  V30 8498 C 791.835 -2.54727 -2.56508 0
M  V30 8499 O 791.556 -3.85539 -2.08066 0
M  V30 8500 C 793.057 -2.73163 -3.49137 0
M  V30 8501 H 790.277 -0.523484 -0.419768 0
M  V30 8502 H 792.821 -1.91543 -0.716345 0
M  V30 8503 H 790.976 -2.20948 -3.18215 0
M  V30 8504 H 791.39 -4.39905 -2.85629 0
M  V30 8505 H 792.864 -3.47057 -4.2925 0
M  V30 8506 H 793.341 -1.79856 -4.00685 0
M  V30 8507 H 793.947 -3.08014 -2.9327 0
M  V30 8508 N 792.262 0.832906 -1.33792 0
M  V30 8509 C 793.192 1.95828 -1.27176 0
M  V30 8510 C 794.173 1.69427 -0.15114 0
M  V30 8511 O 795.358 1.91167 -0.341886 0
M  V30 8512 C 792.488 3.32098 -1.01629 0
M  V30 8513 C 791.442 3.72912 -2.10049 0
M  V30 8514 C 790.768 5.07054 -1.69706 0
M  V30 8515 C 792.068 3.86064 -3.51783 0
M  V30 8516 H 793.762 2.01622 -2.21334 0
M  V30 8517 H 791.308 0.96866 -1.0655 0
M  V30 8518 H 793.261 4.10402 -0.956474 0
M  V30 8519 H 791.985 3.26577 -0.0390956 0
M  V30 8520 H 790.644 2.96876 -2.15082 0
M  V30 8521 H 790.292 4.9801 -0.706737 0
M  V30 8522 H 789.992 5.35333 -2.42264 0
M  V30 8523 H 791.516 5.87827 -1.65202 0
M  V30 8524 H 792.93 4.54665 -3.49218 0
M  V30 8525 H 791.327 4.25787 -4.22878 0
M  V30 8526 H 792.397 2.88344 -3.89854 0
M  V30 8527 N 793.74 1.17359 1.05189 0
M  V30 8528 C 794.989 0.956412 1.77583 0
M  V30 8529 C 795.302 -0.516018 1.88671 0
M  V30 8530 O 796.508 -0.851401 2.57805 0
M  V30 8531 C 794.964 1.66203 3.19225 0
M  V30 8532 C 794.572 3.17299 3.16267 0
M  V30 8533 C 796.316 1.52725 3.96075 0
M  V30 8534 C 794.223 3.8055 4.52698 0
M  V30 8535 H 793.153 0.354204 0.665624 0
M  V30 8536 H 795.804 1.40612 1.17901 0
M  V30 8537 H 794.186 1.14006 3.79234 0
M  V30 8538 H 795.36 3.76431 2.65776 0
M  V30 8539 H 793.675 3.3079 2.52917 0
M  V30 8540 H 796.272 1.97351 4.96947 0
M  V30 8541 H 796.615 0.477803 4.13549 0
M  V30 8542 H 797.148 2.02139 3.42614 0
M  V30 8543 H 793.887 4.85492 4.4043 0
M  V30 8544 H 793.407 3.26206 5.03339 0
M  V30 8545 H 795.086 3.82757 5.21638 0
M  V30 8546 N 795.218 -1.23913 0.973828 0
M  V30 8547 C 796.466 -1.91771 0.637817 0
M  V30 8548 C 796.787 -1.76434 -0.830435 0
M  V30 8549 O 796.057 -1.13965 -1.59339 0
M  V30 8550 H 794.637 -0.709761 0.232912 0
M  V30 8551 H 797.299 -1.50677 1.23622 0
M  V30 8552 H 796.395 -2.99327 0.883731 0
M  V30 8553 N 796.696 -0.74468 -1.38897 0
M  V30 8554 C 797.659 -0.11945 -2.28889 0
M  V30 8555 C 798.659 0.656942 -1.46768 0
M  V30 8556 O 799.849 0.484525 -1.67326 0
M  V30 8557 C 796.981 0.839635 -3.30398 0
M  V30 8558 H 798.174 -0.912414 -2.85683 0
M  V30 8559 H 795.727 -0.511119 -1.47707 0
M  V30 8560 H 796.462 1.6586 -2.78677 0
M  V30 8561 H 796.247 0.285432 -3.9106 0
M  V30 8562 H 797.737 1.27337 -3.97712 0
M  V30 8563 N 798.174 1.49689 -0.493057 0
M  V30 8564 C 799.399 2.07331 0.0535114 0
M  V30 8565 C 799.824 1.35196 1.30781 0
M  V30 8566 O 799.182 0.406246 1.7669 0
M  V30 8567 C 799.23 3.59364 0.29825 0
M  V30 8568 O 798.334 3.88819 1.37454 0
M  V30 8569 H 797.675 0.663612 -0.0227018 0
M  V30 8570 H 800.205 1.926 -0.690402 0
M  V30 8571 H 800.215 4.04515 0.532159 0
M  V30 8572 H 798.89 4.1128 -0.618207 0
M  V30 8573 H 797.467 3.55487 1.12621 0
M  V30 8574 N 799.652 0.226554 1.55963 0
M  V30 8575 C 800.9 -0.402991 1.98041 0
M  V30 8576 C 801.221 -1.59938 1.11557 0
M  V30 8577 O 800.491 -1.9494 0.193719 0
M  V30 8578 H 799.071 -0.15188 0.731397 0
M  V30 8579 H 801.733 0.320613 1.92245 0
M  V30 8580 H 800.829 -0.725937 3.0354 0
M  V30 8581 N 801.13 -1.57531 -0.0467866 0
M  V30 8582 C 802.062 -2.02156 -1.08007 0
M  V30 8583 C 803.075 -0.931434 -1.33522 0
M  V30 8584 O 804.264 -1.209 -1.31321 0
M  V30 8585 C 801.364 -2.36675 -2.42566 0
M  V30 8586 C 800.537 -3.67848 -2.36658 0
M  V30 8587 C 799.596 -3.89754 -3.53523 0
M  V30 8588 O 798.622 -4.61036 -3.33818 0
M  V30 8589 N 799.824 -3.34025 -4.74771 0
M  V30 8590 H 802.589 -2.91414 -0.699845 0
M  V30 8591 H 800.15 -1.60185 -0.235041 0
M  V30 8592 H 802.142 -2.48482 -3.19435 0
M  V30 8593 H 800.712 -1.53178 -2.72498 0
M  V30 8594 H 799.932 -3.66561 -1.45005 0
M  V30 8595 H 801.22 -4.53931 -2.29835 0
M  V30 8596 H 800.618 -2.76214 -4.93683 0
M  V30 8597 H 799.175 -3.51241 -5.49066 0
M  V30 8598 N 802.608 0.318715 -1.54344 0
M  V30 8599 C 804.024 0.663345 -1.45162 0
M  V30 8600 C 804.224 1.9145 -0.62842 0
M  V30 8601 O 803.28 2.5217 -0.129126 0
M  V30 8602 C 804.593 0.832836 -2.88937 0
M  V30 8603 C 806.141 0.929866 -2.98869 0
M  V30 8604 C 806.616 1.13149 -4.43803 0
M  V30 8605 N 808.107 1.19811 -4.47437 0
M  V30 8606 C 808.842 1.37209 -5.56742 0
M  V30 8607 N 808.338 1.51619 -6.76006 0
M  V30 8608 N 810.131 1.39956 -5.44398 0
M  V30 8609 H 802.282 -0.50357 -2.06344 0
M  V30 8610 H 804.545 -0.163528 -0.933789 0
M  V30 8611 H 804.251 -0.0153519 -3.51697 0
M  V30 8612 H 804.125 1.72721 -3.35332 0
M  V30 8613 H 806.512 1.76855 -2.36233 0
M  V30 8614 H 806.593 0.0118561 -2.55797 0
M  V30 8615 H 806.237 0.297636 -5.07027 0
M  V30 8616 H 806.167 2.06345 -4.84489 0
M  V30 8617 H 808.658 1.101 -3.61506 0
M  V30 8618 H 808.971 1.64599 -7.55067 0
M  V30 8619 H 807.316 1.48708 -6.78904 0
M  V30 8620 H 810.507 1.28298 -4.50175 0
M  V30 8621 H 810.68 1.53172 -6.29637 0
M  V30 8622 N 804.086 1.46499 0.581025 0
M  V30 8623 C 804.996 1.59778 1.71779 0
M  V30 8624 C 806.012 0.481223 1.67213 0
M  V30 8625 O 807.188 0.74557 1.87091 0
M  V30 8626 C 804.253 1.58626 3.08283 0
M  V30 8627 C 803.314 2.81527 3.241 0
M  V30 8628 C 802.547 2.80421 4.54092 0
M  V30 8629 O 802.77 1.89262 5.38085 0
M  V30 8630 O 801.704 3.71984 4.73193 0
M  V30 8631 H 805.53 2.55918 1.63523 0
M  V30 8632 H 803.115 1.29311 0.748267 0
M  V30 8633 H 804.997 1.60686 3.89561 0
M  V30 8634 H 803.672 0.656467 3.16973 0
M  V30 8635 H 802.579 2.85021 2.42309 0
M  V30 8636 H 803.912 3.73721 3.20302 0
M  V30 8637 N 805.565 -0.825799 1.34232 0
M  V30 8638 C 806.811 -1.58419 1.26614 0
M  V30 8639 C 807.144 -1.93503 -0.164341 0
M  V30 8640 O 806.419 -1.59785 -1.109 0
M  V30 8641 C 806.702 -2.8856 2.15418 0
M  V30 8642 C 806.555 -2.60075 3.66989 0
M  V30 8643 C 807.874 -3.90107 2.03726 0
M  V30 8644 H 804.993 -0.574794 0.461282 0
M  V30 8645 H 807.635 -0.951519 1.64457 0
M  V30 8646 H 805.785 -3.42553 1.83275 0
M  V30 8647 H 807.457 -2.12414 4.09485 0
M  V30 8648 H 805.7 -1.93565 3.88221 0
M  V30 8649 H 806.371 -3.52866 4.24488 0
M  V30 8650 H 808.847 -3.45459 2.31942 0
M  V30 8651 H 807.723 -4.78976 2.68092 0
M  V30 8652 H 807.984 -4.30329 1.01337 0
M  V30 8653 N 807.043 -1.17915 -1.04565 0
M  V30 8654 C 808.289 -0.972863 -1.77942 0
M  V30 8655 C 808.622 0.496753 -1.87739 0
M  V30 8656 O 807.897 1.3688 -1.38181 0
M  V30 8657 C 808.18 -1.62227 -3.21488 0
M  V30 8658 C 808.033 -3.16441 -3.19664 0
M  V30 8659 C 809.352 -1.33137 -4.19479 0
M  V30 8660 H 806.471 -0.354843 -0.645953 0
M  V30 8661 H 809.113 -1.45508 -1.22178 0
M  V30 8662 H 807.263 -1.21224 -3.69103 0
M  V30 8663 H 808.935 -3.66544 -2.80077 0
M  V30 8664 H 807.178 -3.48863 -2.57832 0
M  V30 8665 H 807.849 -3.57012 -4.21006 0
M  V30 8666 H 810.325 -1.68654 -3.80388 0
M  V30 8667 H 809.201 -1.81151 -5.18146 0
M  V30 8668 H 809.462 -0.253319 -4.41374 0
M  V30 8669 N 808.521 1.23394 -0.980386 0
M  V30 8670 C 809.484 2.23092 -0.525619 0
M  V30 8671 C 810.484 1.56129 0.384745 0
M  V30 8672 O 811.674 1.73284 0.178439 0
M  V30 8673 C 808.806 3.40074 0.23712 0
M  V30 8674 H 809.999 2.64839 -1.40714 0
M  V30 8675 H 807.552 1.36227 -0.766275 0
M  V30 8676 H 808.287 3.03783 1.13518 0
M  V30 8677 H 808.072 3.89883 -0.416356 0
M  V30 8678 H 809.562 4.14043 0.543892 0
M  V30 8679 N 809.999 0.752036 1.385 0
M  V30 8680 C 811.276 0.233075 1.94206 0
M  V30 8681 C 811.656 -1.26838 1.68746 0
M  V30 8682 O 811.004 -2.04214 1.02513 0
M  V30 8683 C 811.214 0.58509 3.44061 0
M  V30 8684 C 812.562 0.543871 4.21102 0
M  V30 8685 O 813.586 0.523291 3.52335 0
M  V30 8686 O 812.445 0.553436 5.4369 0
M  V30 8687 H 809.539 0.0483049 0.825588 0
M  V30 8688 H 812.085 0.832053 1.47902 0
M  V30 8689 H 810.857 1.62212 3.56094 0
M  V30 8690 H 810.48 -0.0419738 3.97578 0
M  V30 8691 N 811.477 -1.49425 0.500989 0
M  V30 8692 C 812.702 -2.07356 -0.0425154 0
M  V30 8693 C 813.127 -1.35887 -1.30063 0
M  V30 8694 O 812.485 -0.41561 -1.76472 0
M  V30 8695 C 812.533 -3.59518 -0.279188 0
M  V30 8696 O 811.637 -3.89542 -1.3539 0
M  V30 8697 H 810.978 -0.663482 0.0262207 0
M  V30 8698 H 813.508 -1.92231 0.700607 0
M  V30 8699 H 813.518 -4.04791 -0.5107 0
M  V30 8700 H 812.193 -4.10946 0.640009 0
M  V30 8701 H 810.77 -3.56079 -1.10734 0
M  V30 8702 N 812.955 -0.234822 -1.55841 0
M  V30 8703 C 814.201 0.393843 -1.98939 0
M  V30 8704 C 814.534 1.58466 -1.1226 0
M  V30 8705 O 813.809 1.93635 -0.183242 0
M  V30 8706 C 814.092 0.815492 -3.50745 0
M  V30 8707 C 813.945 -0.379878 -4.48193 0
M  V30 8708 C 815.264 1.66687 -4.07312 0
M  V30 8709 H 812.383 0.141681 -0.723253 0
M  V30 8710 H 815.025 -0.333716 -1.87046 0
M  V30 8711 H 813.175 1.43541 -3.6101 0
M  V30 8712 H 814.847 -1.0182 -4.49923 0
M  V30 8713 H 813.09 -1.02507 -4.21515 0
M  V30 8714 H 813.761 -0.0417069 -5.51984 0
M  V30 8715 H 816.237 1.14369 -4.00074 0
M  V30 8716 H 815.113 1.93078 -5.13821 0
M  V30 8717 H 815.374 2.63468 -3.55017 0
M  V30 8718 N 814.433 1.57553 0.0384317 0
M  V30 8719 C 815.679 1.89973 0.726772 0
M  V30 8720 C 816.034 0.832381 1.73462 0
M  V30 8721 O 815.327 -0.159975 1.90931 0
M  V30 8722 C 815.521 3.26862 1.44554 0
M  V30 8723 C 815.35 4.46812 0.508814 0
M  V30 8724 C 814.12 5.05124 0.133323 0
M  V30 8725 C 816.318 5.13876 -0.20881 0
M  V30 8726 N 814.3 6.08591 -0.805636 0
M  V30 8727 C 815.671 6.11821 -1.00376 0
M  V30 8728 C 817.726 4.9713 -0.276749 0
M  V30 8729 C 816.429 6.94825 -1.86038 0
M  V30 8730 C 818.455 5.80689 -1.12047 0
M  V30 8731 C 817.817 6.78197 -1.90337 0
M  V30 8732 H 813.916 0.744153 0.240334 0
M  V30 8733 H 816.5 1.94696 -0.0128735 0
M  V30 8734 H 814.671 3.23085 2.1557 0
M  V30 8735 H 816.403 3.46826 2.08552 0
M  V30 8736 H 813.158 4.71022 0.493484 0
M  V30 8737 H 813.582 6.64994 -1.26935 0
M  V30 8738 H 818.224 4.21631 0.314222 0
M  V30 8739 H 815.942 7.69676 -2.46219 0
M  V30 8740 H 819.528 5.69782 -1.17645 0
M  V30 8741 H 818.408 7.41731 -2.54569 0
M  V30 8742 N 815.911 -0.310526 1.54511 0
M  V30 8743 C 817.157 -1.04846 1.73595 0
M  V30 8744 C 817.49 -1.87244 0.515118 0
M  V30 8745 O 816.765 -1.88282 -0.48786 0
M  V30 8746 C 817.048 -1.96237 3.01932 0
M  V30 8747 C 816.901 -1.17082 4.34295 0
M  V30 8748 C 818.22 -2.9556 3.26086 0
M  V30 8749 H 815.339 -0.37976 0.631626 0
M  V30 8750 H 817.981 -0.32394 1.87218 0
M  V30 8751 H 816.131 -2.58015 2.90449 0
M  V30 8752 H 817.803 -0.576643 4.57682 0
M  V30 8753 H 816.046 -0.473336 4.3121 0
M  V30 8754 H 816.717 -1.84257 5.20339 0
M  V30 8755 H 819.193 -2.43908 3.37117 0
M  V30 8756 H 818.069 -3.5668 4.17218 0
M  V30 8757 H 818.33 -3.68715 2.4393 0
M  V30 8758 N 817.389 -1.46805 -0.573248 0
M  V30 8759 C 818.666 -1.43082 -1.33368 0
M  V30 8760 C 819.046 -0.119252 -2.10763 0
M  V30 8761 O 818.394 0.899239 -2.10062 0
M  V30 8762 C 818.604 -2.66643 -2.25172 0
M  V30 8763 C 819.952 -3.13188 -2.86702 0
M  V30 8764 O 820.976 -2.67258 -2.35482 0
M  V30 8765 O 819.835 -3.92994 -3.79761 0
M  V30 8766 H 816.929 -0.569451 -0.599712 0
M  V30 8767 H 819.475 -1.58984 -0.59348 0
M  V30 8768 H 818.247 -3.53649 -1.67475 0
M  V30 8769 H 817.87 -2.53247 -3.06516 0
M  V30 8770 N 818.867 0.818669 -1.34668 0
M  V30 8771 C 820.113 1.57746 -1.27453 0
M  V30 8772 C 820.446 1.93588 0.154077 0
M  V30 8773 O 819.721 1.60371 1.10051 0
M  V30 8774 C 820.004 2.87414 -2.16945 0
M  V30 8775 C 819.857 2.58125 -3.68363 0
M  V30 8776 C 821.176 3.89021 -2.05792 0
M  V30 8777 H 818.295 0.572339 -0.464324 0
M  V30 8778 H 820.937 0.942784 -1.64959 0
M  V30 8779 H 819.087 3.41576 -1.85089 0
M  V30 8780 H 820.759 2.10239 -4.10606 0
M  V30 8781 H 819.002 1.91503 -3.89242 0
M  V30 8782 H 819.673 3.5061 -4.26353 0
M  V30 8783 H 822.149 3.44224 -2.33771 0
M  V30 8784 H 821.025 4.77548 -2.70628 0
M  V30 8785 H 821.286 4.29786 -1.03618 0
M  V30 8786 N 820.346 1.18468 1.03938 0
M  V30 8787 C 821.293 0.912859 2.1198 0
M  V30 8788 C 822.263 -0.14824 1.65437 0
M  V30 8789 O 823.448 -0.008331 1.90798 0
M  V30 8790 C 820.588 0.446114 3.42204 0
M  V30 8791 C 819.701 1.57278 4.02353 0
M  V30 8792 C 818.836 1.05863 5.20544 0
M  V30 8793 C 817.875 2.1599 5.72726 0
M  V30 8794 N 817.012 1.65959 6.82204 0
M  V30 8795 H 821.852 1.83798 2.34569 0
M  V30 8796 H 819.389 0.916504 1.15059 0
M  V30 8797 H 821.347 0.15697 4.16905 0
M  V30 8798 H 819.977 -0.442025 3.19759 0
M  V30 8799 H 819.029 1.97737 3.24968 0
M  V30 8800 H 820.341 2.40289 4.37107 0
M  V30 8801 H 819.495 0.724087 6.02364 0
M  V30 8802 H 818.234 0.198116 4.87297 0
M  V30 8803 H 817.239 2.50287 4.89527 0
M  V30 8804 H 818.464 3.02479 6.08016 0
M  V30 8805 H 816.41 0.82199 6.5083 0
M  V30 8806 H 816.327 2.42567 7.16029 0
M  V30 8807 H 817.595 1.35436 7.67644 0
M  V30 8808 N 821.824 -1.22873 0.986916 0
M  V30 8809 C 823.101 -1.86939 0.575589 0
M  V30 8810 C 823.481 -1.88656 -0.947205 0
M  V30 8811 O 822.829 -1.3728 -1.82665 0
M  V30 8812 C 823.039 -3.28117 1.18914 0
M  V30 8813 C 824.387 -4.04659 1.28593 0
M  V30 8814 O 825.411 -3.3736 1.14308 0
M  V30 8815 O 824.27 -5.25112 1.51391 0
M  V30 8816 H 821.364 -0.803748 0.194724 0
M  V30 8817 H 823.91 -1.30698 1.08241 0
M  V30 8818 H 822.682 -3.21468 2.231 0
M  V30 8819 H 822.305 -3.91956 0.667535 0
M  V30 8820 N 823.302 -0.75937 -1.38099 0
M  V30 8821 C 824.527 -0.327859 -2.04792 0
M  V30 8822 C 824.952 1.03752 -1.56899 0
M  V30 8823 O 824.31 1.66235 -0.723581 0
M  V30 8824 C 824.358 -0.366264 -3.58735 0
M  V30 8825 O 823.462 0.637697 -4.0744 0
M  V30 8826 H 822.803 -0.144092 -0.648177 0
M  V30 8827 H 825.333 -1.03211 -1.7666 0
M  V30 8828 H 825.343 -0.219179 -4.07411 0
M  V30 8829 H 824.018 -1.36243 -3.92951 0
M  V30 8830 H 822.595 0.454749 -3.70117 0
M  V30 8831 N 824.78 1.49157 -0.508906 0
M  V30 8832 C 826.02 2.04376 0.0310623 0
M  V30 8833 C 826.384 1.37946 1.33547 0
M  V30 8834 O 827.585 1.83931 1.96017 0
M  V30 8835 C 825.856 3.56985 0.172191 0
M  V30 8836 S 827.415 4.33728 0.665267 0
M  V30 8837 H 824.233 0.710997 -0.00199266 0
M  V30 8838 H 826.835 1.83119 -0.684674 0
M  V30 8839 H 825.539 4.02874 -0.78234 0
M  V30 8840 H 825.07 3.82661 0.912933 0
M  V30 8841 H 827.085 4.56992 1.9332 0
M  V30 8842 N 826.258 0.243083 1.55714 0
M  V30 8843 C 827.504 -0.383287 1.99145 0
M  V30 8844 C 827.837 -1.57868 1.13098 0
M  V30 8845 O 827.112 -1.93535 0.193509 0
M  V30 8846 C 827.395 -0.796879 3.51172 0
M  V30 8847 C 827.248 0.403642 4.47985 0
M  V30 8848 C 828.567 -1.64525 4.08191 0
M  V30 8849 H 825.686 -0.137843 0.723995 0
M  V30 8850 H 828.328 0.343631 1.86867 0
M  V30 8851 H 826.478 -1.41625 3.61766 0
M  V30 8852 H 828.15 1.04204 4.49376 0
M  V30 8853 H 826.393 1.04741 4.20965 0
M  V30 8854 H 827.064 0.0709794 5.51954 0
M  V30 8855 H 829.54 -1.12246 4.00674 0
M  V30 8856 H 828.416 -1.9035 5.14838 0
M  V30 8857 H 828.677 -2.61582 3.56409 0
M  V30 8858 N 827.736 -1.57571 -0.0300757 0
M  V30 8859 C 828.984 -1.88852 -0.719666 0
M  V30 8860 C 829.305 -0.840645 -1.75949 0
M  V30 8861 O 828.575 0.125854 -1.95495 0
M  V30 8862 H 827.155 -0.696965 -0.268792 0
M  V30 8863 H 829.817 -1.949 0.00373285 0
M  V30 8864 H 828.913 -2.87695 -1.20987 0
M  V30 8865 N 829.214 0.302327 -1.54673 0
M  V30 8866 C 830.439 1.06103 -1.78205 0
M  V30 8867 C 830.864 1.80204 -0.53926 0
M  V30 8868 O 830.222 1.73975 0.510142 0
M  V30 8869 C 830.27 2.01829 -2.98827 0
M  V30 8870 O 829.374 3.10108 -2.71858 0
M  V30 8871 H 828.715 0.30487 -0.589873 0
M  V30 8872 H 831.245 0.340153 -2.01753 0
M  V30 8873 H 831.255 2.44319 -3.2676 0
M  V30 8874 H 829.93 1.473 -3.88942 0
M  V30 8875 H 828.507 2.72142 -2.54937 0
M  V30 8876 N 830.692 1.47107 0.565454 0
M  V30 8877 C 831.622 1.61846 1.68309 0
M  V30 8878 C 832.603 0.468159 1.63531 0
M  V30 8879 O 833.788 0.696504 1.8128 0
M  V30 8880 C 830.918 1.62474 3.06952 0
M  V30 8881 C 829.872 2.76649 3.26572 0
M  V30 8882 C 829.198 2.62345 4.65917 0
M  V30 8883 C 830.498 4.18319 3.12741 0
M  V30 8884 H 832.192 2.55407 1.5623 0
M  V30 8885 H 829.738 1.22916 0.750179 0
M  V30 8886 H 831.691 1.71378 3.84977 0
M  V30 8887 H 830.415 0.654692 3.19971 0
M  V30 8888 H 829.074 2.67242 2.50952 0
M  V30 8889 H 828.722 1.63386 4.75725 0
M  V30 8890 H 828.422 3.38936 4.79996 0
M  V30 8891 H 829.946 2.73165 5.46089 0
M  V30 8892 H 831.36 4.28745 3.80593 0
M  V30 8893 H 829.757 4.95632 3.38333 0
M  V30 8894 H 830.827 4.37263 2.09592 0
M  V30 8895 N 832.17 -0.811516 1.35101 0
M  V30 8896 C 833.416 -1.57068 1.28287 0
M  V30 8897 C 833.749 -1.93667 -0.143808 0
M  V30 8898 O 833.024 -1.60953 -1.09199 0
M  V30 8899 C 833.307 -2.86259 2.18466 0
M  V30 8900 C 833.16 -2.56168 3.69727 0
M  V30 8901 C 834.479 -3.87924 2.07852 0
M  V30 8902 H 831.598 -0.569869 0.467353 0
M  V30 8903 H 834.24 -0.934023 1.65457 0
M  V30 8904 H 832.39 -3.4059 1.86898 0
M  V30 8905 H 834.062 -2.08059 4.11715 0
M  V30 8906 H 832.305 -1.89436 3.90252 0
M  V30 8907 H 832.976 -3.48344 4.28206 0
M  V30 8908 H 835.452 -3.4298 2.35593 0
M  V30 8909 H 834.328 -4.76106 2.73157 0
M  V30 8910 H 834.589 -4.2923 1.05896 0
M  V30 8911 N 833.648 -1.19017 -1.03309 0
M  V30 8912 C 834.894 -0.991681 -1.769 0
M  V30 8913 C 835.227 0.476813 -1.88255 0
M  V30 8914 O 834.502 1.35407 -1.39625 0
M  V30 8915 C 834.785 -1.65627 -3.19749 0
M  V30 8916 C 834.638 -3.19813 -3.1629 0
M  V30 8917 C 835.957 -1.37579 -4.18043 0
M  V30 8918 H 833.076 -0.361674 -0.642153 0
M  V30 8919 H 835.718 -1.46795 -1.20628 0
M  V30 8920 H 833.868 -1.25132 -3.67796 0
M  V30 8921 H 835.54 -3.69494 -2.76174 0
M  V30 8922 H 833.783 -3.51578 -2.54117 0
M  V30 8923 H 834.454 -3.61457 -4.17196 0
M  V30 8924 H 836.93 -1.72679 -3.78578 0
M  V30 8925 H 835.806 -1.86636 -5.16196 0
M  V30 8926 H 836.067 -0.300118 -4.4108 0
M  V30 8927 N 835.127 1.22348 -0.993418 0
M  V30 8928 C 836.074 2.24294 -0.544118 0
M  V30 8929 C 837.044 1.60602 0.42381 0
M  V30 8930 O 838.229 1.87952 0.328453 0
M  V30 8931 C 835.369 3.44837 0.134578 0
M  V30 8932 C 834.482 4.23043 -0.875151 0
M  V30 8933 C 833.617 5.30928 -0.169919 0
M  V30 8934 C 832.656 6.00853 -1.16798 0
M  V30 8935 N 831.793 7.00381 -0.491021 0
M  V30 8936 H 836.633 2.6209 -1.4182 0
M  V30 8937 H 834.17 1.2881 -0.710384 0
M  V30 8938 H 836.128 4.13625 0.544998 0
M  V30 8939 H 834.758 3.07804 0.972446 0
M  V30 8940 H 833.81 3.53546 -1.40389 0
M  V30 8941 H 835.122 4.71237 -1.63516 0
M  V30 8942 H 834.276 6.05972 0.297205 0
M  V30 8943 H 833.015 4.8371 0.622586 0
M  V30 8944 H 832.02 5.24591 -1.64573 0
M  V30 8945 H 833.245 6.50159 -1.96137 0
M  V30 8946 H 831.191 6.55393 0.282037 0
M  V30 8947 H 831.108 7.46584 -1.18947 0
M  V30 8948 H 832.376 7.79486 -0.0467169 0
M  V30 8949 N 836.605 0.766683 1.37694 0
M  V30 8950 C 837.83 0.338715 2.04615 0
M  V30 8951 C 838.255 -1.02918 1.57447 0
M  V30 8952 O 837.613 -1.65849 0.732386 0
M  V30 8953 C 837.661 0.385284 3.58536 0
M  V30 8954 O 836.765 -0.616081 4.07772 0
M  V30 8955 H 836.106 0.147527 0.647404 0
M  V30 8956 H 838.636 1.04146 1.7611 0
M  V30 8957 H 838.646 0.240782 4.07289 0
M  V30 8958 H 837.321 1.38325 3.92223 0
M  V30 8959 H 835.898 -0.435115 3.70353 0
M  V30 8960 N 838.083 -1.48885 0.516809 0
M  V30 8961 C 839.331 -2.02088 -0.0220166 0
M  V30 8962 C 839.652 -1.39735 -1.36011 0
M  V30 8963 O 838.922 -0.558119 -1.87781 0
M  V30 8964 H 837.502 -0.746917 -0.0111255 0
M  V30 8965 H 840.164 -1.8274 0.677647 0
M  V30 8966 H 839.26 -3.11786 -0.140067 0
M  V30 8967 N 839.561 -0.251338 -1.55583 0
M  V30 8968 C 840.493 0.679167 -2.18906 0
M  V30 8969 C 841.506 1.13545 -1.16667 0
M  V30 8970 O 842.695 1.06146 -1.4351 0
M  V30 8971 C 839.795 1.93544 -2.78198 0
M  V30 8972 C 838.968 1.62987 -4.05899 0
M  V30 8973 C 838.027 2.73618 -4.49466 0
M  V30 8974 O 837.053 2.40815 -5.15749 0
M  V30 8975 N 838.255 4.03204 -4.1762 0
M  V30 8976 H 841.02 0.137328 -2.99385 0
M  V30 8977 H 838.581 -0.0714754 -1.61742 0
M  V30 8978 H 840.573 2.66804 -3.04299 0
M  V30 8979 H 839.143 2.38695 -2.0185 0
M  V30 8980 H 838.363 0.732237 -3.8734 0
M  V30 8981 H 839.651 1.40041 -4.89148 0
M  V30 8982 H 839.049 4.32686 -3.64416 0
M  V30 8983 H 837.606 4.72916 -4.48547 0
M  V30 8984 N 841.039 1.57585 0.0217189 0
M  V30 8985 C 842.264 1.94267 0.726309 0
M  V30 8986 C 842.689 0.851904 1.67703 0
M  V30 8987 O 842.047 -0.191792 1.80283 0
M  V30 8988 C 842.095 3.30023 1.45318 0
M  V30 8989 O 841.199 3.22791 2.5667 0
M  V30 8990 H 840.54 0.634777 0.194818 0
M  V30 8991 H 843.07 2.04585 -0.0249985 0
M  V30 8992 H 843.08 3.65084 1.82147 0
M  V30 8993 H 841.755 4.08972 0.755962 0
M  V30 8994 H 840.332 2.99373 2.2233 0
M  V30 8995 N 842.517 -0.29412 1.54831 0
M  V30 8996 C 843.427 -1.3854 1.89325 0
M  V30 8997 C 844.443 -1.55127 0.788133 0
M  V30 8998 O 845.619 -1.6966 1.08524 0
M  V30 8999 C 842.684 -2.72809 2.13954 0
M  V30 9000 C 841.745 -2.65148 3.37631 0
M  V30 9001 C 840.978 -3.93014 3.61076 0
M  V30 9002 O 841.201 -4.927 2.87406 0
M  V30 9003 O 840.135 -3.94491 4.54599 0
M  V30 9004 H 843.961 -1.12289 2.82179 0
M  V30 9005 H 841.546 -0.490793 1.41108 0
M  V30 9006 H 843.428 -3.52238 2.31315 0
M  V30 9007 H 842.103 -2.9889 1.24285 0
M  V30 9008 H 841.01 -1.84168 3.25627 0
M  V30 9009 H 842.343 -2.4402 4.27452 0
M  V30 9010 N 843.995 -1.47404 -0.557645 0
M  V30 9011 C 845.272 -1.44488 -1.31843 0
M  V30 9012 C 845.652 -0.1416 -2.10625 0
M  V30 9013 O 845 0.876908 -2.11004 0
M  V30 9014 C 845.21 -2.69016 -2.22331 0
M  V30 9015 C 846.558 -3.16212 -2.83364 0
M  V30 9016 O 847.582 -2.69741 -2.32634 0
M  V30 9017 O 846.441 -3.96999 -3.75571 0
M  V30 9018 H 843.535 -0.57578 -0.593639 0
M  V30 9019 H 846.081 -1.59605 -0.576584 0
M  V30 9020 H 844.853 -3.55406 -1.63715 0
M  V30 9021 H 844.476 -2.56484 -3.03812 0
M  V30 9022 N 845.473 0.80434 -1.35529 0
M  V30 9023 C 846.889 1.10023 -1.15616 0
M  V30 9024 C 847.089 2.01478 0.0298535 0
M  V30 9025 O 846.145 2.42609 0.699778 0
M  V30 9026 C 847.458 1.72905 -2.46017 0
M  V30 9027 C 849.006 1.85315 -2.52245 0
M  V30 9028 C 849.481 2.51612 -3.82695 0
M  V30 9029 N 850.972 2.59095 -3.83958 0
M  V30 9030 C 851.707 3.11167 -4.81625 0
M  V30 9031 N 851.203 3.63659 -5.89681 0
M  V30 9032 N 852.996 3.09741 -4.6906 0
M  V30 9033 H 845.147 0.196428 -2.1149 0
M  V30 9034 H 847.41 0.149735 -0.9361 0
M  V30 9035 H 847.116 1.13171 -3.32994 0
M  V30 9036 H 846.99 2.72579 -2.6073 0
M  V30 9037 H 849.377 2.44191 -1.65695 0
M  V30 9038 H 849.458 0.844886 -2.41444 0
M  V30 9039 H 849.102 1.93385 -4.69643 0
M  V30 9040 H 849.032 3.5298 -3.90785 0
M  V30 9041 H 851.523 2.21908 -3.05884 0
M  V30 9042 H 851.836 4.01699 -6.60195 0
M  V30 9043 H 850.181 3.61852 -5.9337 0
M  V30 9044 H 853.372 2.68011 -3.83781 0
M  V30 9045 H 853.545 3.50016 -5.45338 0
M  V30 9046 N 846.951 1.19563 1.02676 0
M  V30 9047 C 847.883 0.893054 2.11086 0
M  V30 9048 C 848.896 -0.115101 1.62393 0
M  V30 9049 O 850.085 0.11459 1.78132 0
M  V30 9050 C 847.185 0.315533 3.37428 0
M  V30 9051 C 846.358 1.37276 4.153 0
M  V30 9052 C 845.417 0.808398 5.19953 0
M  V30 9053 O 844.443 1.48661 5.49444 0
M  V30 9054 N 845.645 -0.387253 5.79207 0
M  V30 9055 H 848.41 1.82622 2.37633 0
M  V30 9056 H 845.971 1.09792 1.18984 0
M  V30 9057 H 847.963 -0.0759166 4.04629 0
M  V30 9058 H 846.533 -0.521961 3.08211 0
M  V30 9059 H 845.753 1.93897 3.43217 0
M  V30 9060 H 847.041 2.08509 4.64114 0
M  V30 9061 H 846.439 -0.955725 5.57568 0
M  V30 9062 H 844.996 -0.720457 6.47806 0
M  V30 9063 N 848.429 -1.21819 0.999893 0
M  V30 9064 C 849.84 -1.72517 0.713775 0
M  V30 9065 C 850.191 -1.80505 -0.768922 0
M  V30 9066 O 849.316 -1.45611 -1.60083 0
M  V30 9067 C 849.911 -3.13321 1.28901 0
M  V30 9068 C 848.47 -3.61396 1.05212 0
M  V30 9069 C 847.617 -2.39074 1.40494 0
M  V30 9070 H 850.568 -1.07068 1.17141 0
M  V30 9071 H 850.589 -3.74535 0.671084 0
M  V30 9072 H 850.101 -3.07475 2.36814 0
M  V30 9073 H 848.202 -3.72599 -0.0100732 0
M  V30 9074 H 848.315 -4.47145 1.72042 0
M  V30 9075 H 846.679 -2.41015 0.823642 0
M  V30 9076 H 847.462 -2.35884 2.49427 0
M  V30 9077 N 849.908 -0.773975 -1.37286 0
M  V30 9078 C 851.154 -0.339809 -1.99933 0
M  V30 9079 C 851.487 1.0815 -1.61299 0
M  V30 9080 O 850.762 1.74442 -0.860252 0
M  V30 9081 C 851.045 -0.485919 -3.56806 0
M  V30 9082 C 850.898 -1.9498 -4.05343 0
M  V30 9083 C 852.217 0.108461 -4.39966 0
M  V30 9084 H 849.336 -0.124944 -0.726332 0
M  V30 9085 H 851.978 -0.977433 -1.6293 0
M  V30 9086 H 850.128 0.0569023 -3.88458 0
M  V30 9087 H 851.8 -2.5525 -3.84246 0
M  V30 9088 H 850.043 -2.45784 -3.57453 0
M  V30 9089 H 850.714 -2.00308 -5.14374 0
M  V30 9090 H 853.19 -0.354722 -4.14585 0
M  V30 9091 H 852.066 -0.0238926 -5.48895 0
M  V30 9092 H 852.327 1.19901 -4.25531 0
M  V30 9093 N 851.386 1.48609 -0.524698 0
M  V30 9094 C 852.797 1.86516 -0.0828846 0
M  V30 9095 C 853.148 1.43478 1.33822 0
M  V30 9096 O 852.273 0.823139 2.00133 0
M  V30 9097 C 852.868 3.38495 -0.143639 0
M  V30 9098 C 851.427 3.75615 0.242951 0
M  V30 9099 C 850.574 2.72649 -0.505747 0
M  V30 9100 H 853.525 1.40589 -0.736233 0
M  V30 9101 H 853.546 3.74977 0.645955 0
M  V30 9102 H 853.058 3.69789 -1.17805 0
M  V30 9103 H 851.159 3.49935 1.27971 0
M  V30 9104 H 851.272 4.7901 -0.0929834 0
M  V30 9105 H 849.636 2.54656 0.0473482 0
M  V30 9106 H 850.419 3.06786 -1.54069 0
M  V30 9107 N 852.864 0.259585 1.55447 0
M  V30 9108 C 854.112 -0.360893 1.98852 0
M  V30 9109 C 854.433 -1.57535 1.14924 0
M  V30 9110 O 853.703 -1.94485 0.235025 0
M  V30 9111 H 852.283 -0.136332 0.734454 0
M  V30 9112 H 854.945 0.361319 1.91522 0
M  V30 9113 H 854.041 -0.661388 3.05012 0
M  V30 9114 N 854.342 -1.57594 -0.0133615 0
M  V30 9115 C 855.274 -2.04402 -1.03695 0
M  V30 9116 C 856.287 -0.959546 -1.31516 0
M  V30 9117 O 857.476 -1.23659 -1.28727 0
M  V30 9118 C 854.576 -2.41766 -2.37491 0
M  V30 9119 C 853.749 -3.72785 -2.28802 0
M  V30 9120 C 852.808 -3.97165 -3.45176 0
M  V30 9121 O 851.834 -4.68013 -3.23963 0
M  V30 9122 N 853.036 -3.44021 -4.67579 0
M  V30 9123 H 855.801 -2.92833 -0.637874 0
M  V30 9124 H 853.362 -1.60647 -0.20101 0
M  V30 9125 H 855.354 -2.55201 -3.14093 0
M  V30 9126 H 853.924 -1.58924 -2.69188 0
M  V30 9127 H 853.144 -3.69555 -1.37197 0
M  V30 9128 H 854.432 -4.58704 -2.20154 0
M  V30 9129 H 853.83 -2.86623 -4.87713 0
M  V30 9130 H 852.387 -3.62808 -5.41492 0
M  V30 9131 N 855.82 0.285905 -1.54985 0
M  V30 9132 C 856.752 1.37505 -1.83371 0
M  V30 9133 C 857.765 1.46138 -0.717454 0
M  V30 9134 O 858.954 1.48186 -0.995142 0
M  V30 9135 C 856.054 2.7575 -1.97016 0
M  V30 9136 C 855.227 2.89866 -3.27561 0
M  V30 9137 C 854.286 4.08704 -3.31433 0
M  V30 9138 O 853.312 4.00073 -4.04883 0
M  V30 9139 N 854.514 5.20062 -2.57907 0
M  V30 9140 H 857.279 1.13505 -2.77375 0
M  V30 9141 H 854.84 0.476006 -1.54744 0
M  V30 9142 H 856.832 3.5352 -1.96991 0
M  V30 9143 H 855.402 2.9263 -1.09938 0
M  V30 9144 H 854.622 1.99085 -3.40234 0
M  V30 9145 H 855.91 2.96219 -4.13681 0
M  V30 9146 H 855.308 5.29958 -1.97891 0
M  V30 9147 H 853.865 5.96111 -2.63619 0
M  V30 9148 N 857.298 1.47698 0.54982 0
M  V30 9149 C 858.231 1.55288 1.67215 0
M  V30 9150 C 859.209 0.404533 1.57487 0
M  V30 9151 O 860.393 0.613372 1.78241 0
M  V30 9152 C 857.52 1.46233 3.05505 0
M  V30 9153 C 856.566 2.65662 3.33655 0
M  V30 9154 S 857.399 4.278 3.22098 0
M  V30 9155 C 858.555 4.21311 4.62869 0
M  V30 9156 H 858.788 2.50238 1.60524 0
M  V30 9157 H 856.321 1.35987 0.731227 0
M  V30 9158 H 858.279 1.41696 3.85269 0
M  V30 9159 H 856.94 0.526543 3.09655 0
M  V30 9160 H 856.133 2.55411 4.3449 0
M  V30 9161 H 855.735 2.67359 2.61524 0
M  V30 9162 H 858.027 3.90021 5.53977 0
M  V30 9163 H 858.97 5.22257 4.78177 0
M  V30 9164 H 859.378 3.52063 4.41262 0
M  V30 9165 N 858.776 -0.797141 1.35954 0
M  V30 9166 C 860.004 -1.5858 1.32891 0
M  V30 9167 C 860.419 -1.88578 -0.0915564 0
M  V30 9168 O 859.776 -1.49532 -1.04625 0
M  V30 9169 C 859.827 -2.91143 2.14284 0
M  V30 9170 O 859.548 -2.62442 3.50793 0
M  V30 9171 C 861.049 -3.85476 2.18914 0
M  V30 9172 H 858.269 -0.492111 0.456144 0
M  V30 9173 H 860.813 -0.98994 1.78943 0
M  V30 9174 H 858.968 -3.47219 1.71807 0
M  V30 9175 H 859.382 -3.4715 3.93175 0
M  V30 9176 H 860.856 -4.75574 2.80238 0
M  V30 9177 H 861.333 -4.22758 1.19047 0
M  V30 9178 H 861.939 -3.35334 2.61593 0
M  V30 9179 N 860.254 -1.20106 -1.0204 0
M  V30 9180 C 861.184 -0.970301 -2.12385 0
M  V30 9181 C 862.165 0.099378 -1.69809 0
M  V30 9182 O 863.35 -0.057365 -1.94115 0
M  V30 9183 C 860.48 -0.517431 -3.43424 0
M  V30 9184 C 859.434 -1.52992 -3.99722 0
M  V30 9185 C 858.76 -0.933817 -5.26483 0
M  V30 9186 C 860.06 -2.91257 -4.33551 0
M  V30 9187 H 861.754 -1.89316 -2.31948 0
M  V30 9188 H 859.3 -0.911655 -1.11467 0
M  V30 9189 H 861.253 -0.343243 -4.2 0
M  V30 9190 H 859.977 0.441049 -3.23608 0
M  V30 9191 H 858.636 -1.6914 -3.2525 0
M  V30 9192 H 858.284 0.0324763 -5.0299 0
M  V30 9193 H 857.984 -1.60999 -5.65113 0
M  V30 9194 H 859.508 -0.770614 -6.05718 0
M  V30 9195 H 860.922 -2.78642 -5.0103 0
M  V30 9196 H 859.319 -3.55745 -4.83286 0
M  V30 9197 H 860.389 -3.43269 -3.42483 0
M  V30 9198 N 861.732 1.21287 -1.00634 0
M  V30 9199 C 862.679 2.23705 -0.567876 0
M  V30 9200 C 863.649 1.61043 0.406753 0
M  V30 9201 O 864.834 1.88289 0.308499 0
M  V30 9202 C 861.974 3.44961 0.097996 0
M  V30 9203 C 861.087 4.22091 -0.919972 0
M  V30 9204 C 860.222 5.30718 -0.226222 0
M  V30 9205 C 859.261 5.99581 -1.23165 0
M  V30 9206 N 858.398 6.99821 -0.565278 0
M  V30 9207 H 863.238 2.60571 -1.44592 0
M  V30 9208 H 860.775 1.28049 -0.724006 0
M  V30 9209 H 862.733 4.1418 0.501097 0
M  V30 9210 H 861.363 3.08818 0.939744 0
M  V30 9211 H 860.415 3.52038 -1.44131 0
M  V30 9212 H 861.727 4.69476 -1.68505 0
M  V30 9213 H 860.881 6.06253 0.232917 0
M  V30 9214 H 859.62 4.84343 0.571247 0
M  V30 9215 H 858.625 5.22816 -1.70128 0
M  V30 9216 H 859.85 6.48042 -2.03022 0
M  V30 9217 H 857.796 6.55656 0.212508 0
M  V30 9218 H 857.713 7.4528 -1.26858 0
M  V30 9219 H 858.981 7.79393 -0.129389 0
M  V30 9220 N 863.21 0.781244 1.36873 0
M  V30 9221 C 864.459 0.34652 1.98701 0
M  V30 9222 C 864.772 -1.08555 1.62712 0
M  V30 9223 O 865.978 -1.62213 2.17713 0
M  V30 9224 C 864.434 0.568611 3.5538 0
M  V30 9225 C 864.042 2.01156 4.003 0
M  V30 9226 C 865.786 0.197983 4.24038 0
M  V30 9227 C 863.693 2.18074 5.49725 0
M  V30 9228 H 862.623 0.125821 0.743428 0
M  V30 9229 H 865.274 0.961721 1.56279 0
M  V30 9230 H 863.656 -0.116185 3.9583 0
M  V30 9231 H 864.83 2.73209 3.71071 0
M  V30 9232 H 863.145 2.33967 3.44454 0
M  V30 9233 H 865.742 0.302778 5.33842 0
M  V30 9234 H 866.085 -0.852927 4.07469 0
M  V30 9235 H 866.618 0.835696 3.88923 0
M  V30 9236 H 863.357 3.21519 5.71232 0
M  V30 9237 H 862.877 1.50517 5.80607 0
M  V30 9238 H 864.556 1.98393 6.15832 0
M  V30 9239 N 864.689 -1.48329 0.532571 0
M  V30 9240 C 865.599 -2.33445 -0.232546 0
M  V30 9241 C 866.615 -1.46651 -0.93645 0
M  V30 9242 O 867.791 -1.79627 -0.910834 0
M  V30 9243 C 864.856 -3.22824 -1.26434 0
M  V30 9244 C 863.917 -4.25492 -0.570511 0
M  V30 9245 C 863.15 -5.10601 -1.55315 0
M  V30 9246 O 863.373 -4.97733 -2.78599 0
M  V30 9247 O 862.307 -5.91927 -1.09112 0
M  V30 9248 H 866.133 -3.00119 0.464988 0
M  V30 9249 H 863.718 -1.46489 0.293462 0
M  V30 9250 H 865.6 -3.78103 -1.86055 0
M  V30 9251 H 864.275 -2.58807 -1.94424 0
M  V30 9252 H 863.182 -3.74041 0.0662587 0
M  V30 9253 H 864.515 -4.92154 0.0674904 0
M  V30 9254 N 866.167 -0.267825 -1.55308 0
M  V30 9255 C 867.415 0.350343 -1.9904 0
M  V30 9256 C 867.736 1.56924 -1.15758 0
M  V30 9257 O 867.006 1.94358 -0.245336 0
M  V30 9258 H 865.586 0.132435 -0.735167 0
M  V30 9259 H 868.248 -0.371471 -1.91327 0
M  V30 9260 H 867.344 0.645203 -3.05358 0
M  V30 9261 N 867.645 1.57599 0.00500368 0
M  V30 9262 C 868.922 1.81561 0.727654 0
M  V30 9263 C 869.302 0.871604 1.92266 0
M  V30 9264 O 868.65 -0.0808232 2.28357 0
M  V30 9265 C 868.86 3.29922 1.13809 0
M  V30 9266 C 870.208 3.95531 1.54403 0
M  V30 9267 O 871.232 3.34215 1.23202 0
M  V30 9268 O 870.091 5.03535 2.12402 0
M  V30 9269 H 867.185 0.747462 0.353878 0
M  V30 9270 H 869.731 1.69688 -0.0200667 0
M  V30 9271 H 868.503 3.90253 0.286078 0
M  V30 9272 H 868.126 3.46775 1.94507 0
M  V30 9273 N 869.123 -0.277682 1.55134 0
M  V30 9274 C 870.073 -1.34531 1.8408 0
M  V30 9275 C 871.057 -1.44904 0.699393 0
M  V30 9276 O 872.249 -1.48664 0.960623 0
M  V30 9277 C 869.378 -2.7064 2.11208 0
M  V30 9278 C 868.464 -2.64396 3.31596 0
M  V30 9279 N 868.855 -2.2777 4.51613 0
M  V30 9280 C 867.153 -2.95464 3.34091 0
M  V30 9281 C 867.854 -2.31401 5.33693 0
M  V30 9282 N 866.83 -2.69688 4.71984 0
M  V30 9283 H 870.632 -1.05214 2.74421 0
M  V30 9284 H 868.146 -0.486311 1.54948 0
M  V30 9285 H 870.143 -3.47649 2.301 0
M  V30 9286 H 868.803 -3.00849 1.22148 0
M  V30 9287 H 869.814 -1.99827 4.77797 0
M  V30 9288 H 866.491 -3.30415 2.5521 0
M  V30 9289 H 867.881 -2.05685 6.39643 0
M  V30 9290 N 870.601 -1.47988 -0.541979 0
M  V30 9291 C 871.849 -1.55086 -1.29587 0
M  V30 9292 C 872.17 -0.221304 -1.9374 0
M  V30 9293 O 871.44 0.756128 -1.80719 0
M  V30 9294 H 870.02 -0.571307 -0.481266 0
M  V30 9295 H 872.682 -1.8438 -0.631675 0
M  V30 9296 H 871.778 -2.32556 -2.08144 0
M  V30 9297 N 872.079 0.78992 -1.36375 0
M  V30 9298 C 873.042 1.88414 -1.30509 0
M  V30 9299 C 874.042 1.59384 -0.2129 0
M  V30 9300 O 875.232 1.67805 -0.467651 0
M  V30 9301 C 872.364 3.25188 -1.02302 0
M  V30 9302 H 873.557 1.95031 -2.27822 0
M  V30 9303 H 871.11 0.987664 -1.2114 0
M  V30 9304 H 871.845 3.24254 -0.0544486 0
M  V30 9305 H 871.63 3.47647 -1.81338 0
M  V30 9306 H 873.12 4.05252 -1.00801 0
M  V30 9307 N 873.557 1.20646 1.01402 0
M  V30 9308 C 874.973 0.961866 1.27359 0
M  V30 9309 C 875.173 -0.357083 1.98311 0
M  V30 9310 O 874.229 -1.08498 2.28001 0
M  V30 9311 C 875.542 2.14627 2.10609 0
M  V30 9312 C 877.09 2.18753 2.23866 0
M  V30 9313 C 877.565 3.36686 3.10494 0
M  V30 9314 N 879.056 3.36716 3.18083 0
M  V30 9315 C 879.791 4.24615 3.85343 0
M  V30 9316 N 879.287 5.22697 4.54708 0
M  V30 9317 N 881.08 4.12449 3.81893 0
M  V30 9318 H 873.231 2.05481 0.537721 0
M  V30 9319 H 875.494 0.899292 0.299963 0
M  V30 9320 H 875.2 3.10159 1.65814 0
M  V30 9321 H 875.074 2.12935 3.11349 0
M  V30 9322 H 877.461 1.23782 2.67885 0
M  V30 9323 H 877.542 2.24492 1.22626 0
M  V30 9324 H 877.186 4.31945 2.67181 0
M  V30 9325 H 877.116 3.28185 4.11828 0
M  V30 9326 H 879.607 2.65728 2.68695 0
M  V30 9327 H 879.92 5.86087 5.03708 0
M  V30 9328 H 878.265 5.26631 4.53525 0
M  V30 9329 H 881.456 3.35091 3.26851 0
M  V30 9330 H 881.629 4.81162 4.34035 0
M  V30 9331 N 875.035 -1.20752 1.01276 0
M  V30 9332 C 876.281 -1.90302 0.700924 0
M  V30 9333 C 876.614 -1.78406 -0.767142 0
M  V30 9334 O 875.889 -1.16575 -1.55694 0
M  V30 9335 C 876.172 -3.41831 1.13242 0
M  V30 9336 C 876.025 -3.6268 2.66051 0
M  V30 9337 C 877.344 -4.34486 0.700738 0
M  V30 9338 H 874.463 -0.69107 0.256107 0
M  V30 9339 H 877.105 -1.42227 1.25982 0
M  V30 9340 H 875.255 -3.82906 0.656902 0
M  V30 9341 H 876.927 -3.30882 3.21426 0
M  V30 9342 H 875.17 -3.06281 3.07204 0
M  V30 9343 H 875.841 -4.68882 2.91296 0
M  V30 9344 H 878.317 -4.01036 1.10948 0
M  V30 9345 H 877.193 -5.39136 1.03073 0
M  V30 9346 H 877.454 -4.40307 -0.39778 0
M  V30 9347 N 876.513 -0.788492 -1.36457 0
M  V30 9348 C 877.759 -0.360995 -1.99561 0
M  V30 9349 C 878.092 1.06433 -1.62437 0
M  V30 9350 O 877.367 1.7352 -0.878705 0
M  V30 9351 C 877.65 -0.523735 -3.56271 0
M  V30 9352 C 877.503 -1.99268 -4.03252 0
M  V30 9353 C 878.822 0.0617908 -4.40057 0
M  V30 9354 H 875.941 -0.13264 -0.724966 0
M  V30 9355 H 878.583 -0.994659 -1.61884 0
M  V30 9356 H 876.733 0.0156979 -3.88497 0
M  V30 9357 H 878.405 -2.59311 -3.81518 0
M  V30 9358 H 876.648 -2.49561 -3.54826 0
M  V30 9359 H 877.319 -2.05752 -5.12221 0
M  V30 9360 H 879.795 -0.398674 -4.14186 0
M  V30 9361 H 878.671 -0.0821089 -5.48839 0
M  V30 9362 H 878.932 1.15381 -4.26778 0
M  V30 9363 N 877.991 1.48044 -0.54043 0
M  V30 9364 C 878.921 2.32597 0.205178 0
M  V30 9365 C 879.902 1.42748 0.925041 0
M  V30 9366 O 881.087 1.71624 0.908784 0
M  V30 9367 C 878.217 3.24175 1.24612 0
M  V30 9368 C 877.171 4.23131 0.64376 0
M  V30 9369 C 876.497 5.03915 1.78812 0
M  V30 9370 C 877.797 5.20831 -0.39144 0
M  V30 9371 H 879.491 2.95184 -0.500676 0
M  V30 9372 H 877.037 1.41948 -0.242225 0
M  V30 9373 H 878.99 3.82158 1.77576 0
M  V30 9374 H 877.714 2.59608 1.98169 0
M  V30 9375 H 876.373 3.66349 0.135554 0
M  V30 9376 H 876.021 4.35765 2.51232 0
M  V30 9377 H 875.721 5.709 1.39094 0
M  V30 9378 H 877.245 5.64753 2.32134 0
M  V30 9379 H 878.659 5.73277 0.0515064 0
M  V30 9380 H 877.056 5.95926 -0.706569 0
M  V30 9381 H 878.126 4.6733 -1.29345 0
M  V30 9382 N 879.47 0.276058 1.55163 0
M  V30 9383 C 880.716 -0.340959 1.99913 0
M  V30 9384 C 881.049 -1.55434 1.16422 0
M  V30 9385 O 880.324 -1.93081 0.234517 0
M  V30 9386 C 880.607 -0.722211 3.52783 0
M  V30 9387 C 880.46 0.498575 4.47028 0
M  V30 9388 C 881.779 -1.5583 4.11589 0
M  V30 9389 H 878.898 -0.122455 0.726756 0
M  V30 9390 H 881.54 0.38319 1.86096 0
M  V30 9391 H 879.69 -1.33919 3.64689 0
M  V30 9392 H 881.362 1.13713 4.47065 0
M  V30 9393 H 879.605 1.13646 4.18649 0
M  V30 9394 H 880.276 0.188041 5.5168 0
M  V30 9395 H 882.752 -1.03722 4.02965 0
M  V30 9396 H 881.628 -1.79387 5.1876 0
M  V30 9397 H 881.889 -2.53963 3.61877 0
M  V30 9398 N 880.948 -1.576 0.00335426 0
M  V30 9399 C 881.911 -2.07576 -0.971838 0
M  V30 9400 C 882.911 -0.985796 -1.27038 0
M  V30 9401 O 884.101 -1.24833 -1.21501 0
M  V30 9402 C 881.233 -2.52003 -2.29581 0
M  V30 9403 H 882.426 -2.95008 -0.539481 0
M  V30 9404 H 879.979 -1.54381 -0.244186 0
M  V30 9405 H 880.714 -1.67825 -2.77498 0
M  V30 9406 H 880.499 -3.31609 -2.09231 0
M  V30 9407 H 881.989 -2.90983 -2.99531 0
M  V30 9408 N 882.426 0.269451 -1.5528 0
M  V30 9409 C 883.672 1.00206 -1.76314 0
M  V30 9410 C 884.005 1.85812 -0.564581 0
M  V30 9411 O 883.28 1.89509 0.437769 0
M  V30 9412 C 883.563 1.88163 -3.07029 0
M  V30 9413 C 883.416 1.05527 -4.37246 0
M  V30 9414 C 884.735 2.8681 -3.33808 0
M  V30 9415 H 881.854 0.36288 -0.641473 0
M  V30 9416 H 884.496 0.274188 -1.88011 0
M  V30 9417 H 882.646 2.50224 -2.97187 0
M  V30 9418 H 884.318 0.455094 -4.5905 0
M  V30 9419 H 882.561 0.358842 -4.32313 0
M  V30 9420 H 883.232 1.70397 -5.25042 0
M  V30 9421 H 885.708 2.34884 -3.43466 0
M  V30 9422 H 884.584 3.45492 -4.26528 0
M  V30 9423 H 884.845 3.62118 -2.5362 0
M  V30 9424 N 883.904 1.48273 0.534124 0
M  V30 9425 C 885.181 1.46567 1.29528 0
M  V30 9426 C 885.561 0.17509 2.10373 0
M  V30 9427 O 884.909 -0.843228 2.12372 0
M  V30 9428 C 885.119 2.72519 2.18023 0
M  V30 9429 C 886.467 3.2068 2.78298 0
M  V30 9430 O 887.491 2.73408 2.28313 0
M  V30 9431 O 886.35 4.02924 3.69208 0
M  V30 9432 H 883.444 0.585151 0.584403 0
M  V30 9433 H 885.99 1.60502 0.551119 0
M  V30 9434 H 884.762 3.57965 1.5804 0
M  V30 9435 H 884.385 2.61285 2.99693 0
M  V30 9436 N 885.382 -0.782676 1.36792 0
M  V30 9437 C 886.329 -1.89558 1.31667 0
M  V30 9438 C 887.299 -1.65076 0.184147 0
M  V30 9439 O 888.484 -1.87143 0.371753 0
M  V30 9440 C 885.624 -3.26469 1.11858 0
M  V30 9441 C 884.737 -3.62978 2.34245 0
M  V30 9442 C 883.872 -4.89041 2.07394 0
M  V30 9443 C 882.911 -5.18249 3.25706 0
M  V30 9444 N 882.048 -6.35497 2.98476 0
M  V30 9445 H 886.888 -1.93274 2.26824 0
M  V30 9446 H 884.425 -0.945057 1.12726 0
M  V30 9447 H 886.383 -4.05431 0.983968 0
M  V30 9448 H 885.013 -3.22158 0.203531 0
M  V30 9449 H 884.065 -2.79087 2.58485 0
M  V30 9450 H 885.377 -3.80507 3.22514 0
M  V30 9451 H 884.531 -5.75883 1.90901 0
M  V30 9452 H 883.27 -4.73594 1.16446 0
M  V30 9453 H 882.275 -4.29887 3.4275 0
M  V30 9454 H 883.5 -5.35611 4.1749 0
M  V30 9455 H 881.446 -6.21429 2.10146 0
M  V30 9456 H 881.363 -6.5339 3.80286 0
M  V30 9457 H 882.631 -7.25304 2.85577 0
M  V30 9458 N 886.86 -1.21182 -1.00761 0
M  V30 9459 C 888.108 -1.02543 -1.74153 0
M  V30 9460 C 888.429 0.442372 -1.89916 0
M  V30 9461 O 887.699 1.31927 -1.44818 0
M  V30 9462 H 886.279 -0.37644 -0.645214 0
M  V30 9463 H 888.941 -1.52446 -1.21434 0
M  V30 9464 H 888.037 -1.49122 -2.7417 0
M  V30 9465 N 888.338 1.20213 -1.01915 0
M  V30 9466 C 889.584 1.89928 -0.711007 0
M  V30 9467 C 889.917 1.7881 0.75767 0
M  V30 9468 O 889.192 1.17399 1.55073 0
M  V30 9469 C 889.475 3.41225 -1.15053 0
M  V30 9470 C 889.328 3.61264 -2.67971 0
M  V30 9471 C 890.647 4.34108 -0.72377 0
M  V30 9472 H 887.766 0.689702 -0.259768 0
M  V30 9473 H 890.408 1.41557 -1.26734 0
M  V30 9474 H 888.558 3.82552 -0.677199 0
M  V30 9475 H 890.23 3.29173 -3.23176 0
M  V30 9476 H 888.473 3.04647 -3.08824 0
M  V30 9477 H 889.144 4.67331 -2.93779 0
M  V30 9478 H 891.62 4.00442 -1.13073 0
M  V30 9479 H 890.496 5.38581 -1.05931 0
M  V30 9480 H 890.757 4.40512 0.374424 0
M  V30 9481 N 889.816 0.795718 1.36037 0
M  V30 9482 C 891.063 0.371024 1.99072 0
M  V30 9483 C 891.391 -1.05896 1.63145 0
M  V30 9484 O 890.646 -1.7474 0.881163 0
M  V30 9485 C 890.945 0.489038 3.54038 0
M  V30 9486 C 890.611 1.88075 4.09803 0
M  V30 9487 C 889.273 2.26152 4.24745 0
M  V30 9488 C 891.625 2.79174 4.40126 0
M  V30 9489 C 888.953 3.54718 4.67324 0
M  V30 9490 C 891.305 4.07175 4.8414 0
M  V30 9491 C 889.969 4.45266 4.97287 0
M  V30 9492 H 889.239 0.135767 0.728456 0
M  V30 9493 H 891.886 1.0144 1.62426 0
M  V30 9494 H 890.191 -0.237823 3.91078 0
M  V30 9495 H 891.888 0.141374 4.00751 0
M  V30 9496 H 888.478 1.57488 3.98617 0
M  V30 9497 H 892.662 2.51009 4.28145 0
M  V30 9498 H 887.918 3.84093 4.75691 0
M  V30 9499 H 892.092 4.77875 5.06565 0
M  V30 9500 H 889.719 5.44943 5.30038 0
M  V30 9501 N 891.294 -1.47756 0.548274 0
M  V30 9502 C 892.54 -2.02789 0.0209265 0
M  V30 9503 C 892.873 -1.42268 -1.32187 0
M  V30 9504 O 892.148 -0.575001 -1.85806 0
M  V30 9505 C 892.431 -3.60007 -0.0816674 0
M  V30 9506 C 892.284 -4.30977 1.28759 0
M  V30 9507 C 893.603 -4.32777 -0.799515 0
M  V30 9508 H 890.722 -0.736944 0.00907884 0
M  V30 9509 H 893.364 -1.76282 0.708839 0
M  V30 9510 H 891.514 -3.82722 -0.667537 0
M  V30 9511 H 893.186 -4.19629 1.91597 0
M  V30 9512 H 891.429 -3.9168 1.86466 0
M  V30 9513 H 892.1 -5.39488 1.16861 0
M  V30 9514 H 894.576 -4.15001 -0.30216 0
M  V30 9515 H 893.452 -5.42431 -0.840239 0
M  V30 9516 H 893.713 -4.01358 -1.85375 0
M  V30 9517 N 892.772 -0.284283 -1.55015 0
M  V30 9518 C 893.702 0.592663 -2.25853 0
M  V30 9519 C 894.683 1.15151 -1.25197 0
M  V30 9520 O 895.868 1.18395 -1.53936 0
M  V30 9521 C 892.998 1.77254 -2.98661 0
M  V30 9522 C 891.952 1.34482 -4.06323 0
M  V30 9523 C 891.278 2.60853 -4.66754 0
M  V30 9524 C 892.578 0.488288 -5.20013 0
M  V30 9525 H 894.272 0.00187041 -2.994 0
M  V30 9526 H 891.818 -0.000540402 -1.44 0
M  V30 9527 H 893.771 2.39199 -3.46932 0
M  V30 9528 H 892.495 2.38931 -2.22664 0
M  V30 9529 H 891.154 0.748519 -3.58877 0
M  V30 9530 H 890.802 3.20808 -3.87416 0
M  V30 9531 H 890.502 2.32942 -5.39455 0
M  V30 9532 H 892.026 3.23631 -5.1778 0
M  V30 9533 H 893.44 1.01298 -5.6428 0
M  V30 9534 H 891.837 0.303669 -5.99331 0
M  V30 9535 H 892.907 -0.490727 -4.8241 0
M  V30 9536 N 894.251 1.57596 -0.0117121 0
M  V30 9537 C 895.199 2.1029 0.994035 0
M  V30 9538 C 896.193 1.02549 1.34833 0
M  V30 9539 O 897.399 1.21003 1.3326 0
M  V30 9540 H 893.774 0.671624 0.338268 0
M  V30 9541 H 895.745 2.93761 0.524147 0
M  V30 9542 C 894.494 2.63099 2.27319 0
M  V30 9543 H 893.817 3.45642 2.00927 0
M  V30 9544 H 895.257 3.03635 2.95942 0
M  V30 9545 C 893.716 1.55044 2.99104 0
M  V30 9546 O 894.246 0.940127 3.90544 0
M  V30 9547 N 892.452 1.27506 2.61133 0
M  V30 9548 H 891.999 1.77322 1.86855 0
M  V30 9549 H 891.957 0.554292 3.09475 0
M  V30 9550 N 895.729 -0.261212 1.5542 0
M  V30 9551 C 896.676 -1.32315 1.89107 0
M  V30 9552 C 897.646 -1.48517 0.743767 0
M  V30 9553 O 898.831 -1.62733 0.996123 0
M  V30 9554 C 895.971 -2.67626 2.17877 0
M  V30 9555 C 895.084 -2.59549 3.45338 0
M  V30 9556 C 894.219 -3.87118 3.63748 0
M  V30 9557 C 893.258 -3.736 4.8486 0
M  V30 9558 N 892.395 -4.93029 4.99867 0
M  V30 9559 H 897.235 -1.02886 2.79675 0
M  V30 9560 H 894.772 -0.496812 1.38456 0
M  V30 9561 H 896.73 -3.4637 2.32559 0
M  V30 9562 H 895.36 -2.95232 1.30529 0
M  V30 9563 H 894.412 -1.72452 3.39064 0
M  V30 9564 H 895.724 -2.45465 4.34222 0
M  V30 9565 H 894.878 -4.74305 3.78312 0
M  V30 9566 H 893.617 -4.04084 2.73071 0
M  V30 9567 H 892.622 -2.84797 4.70288 0
M  V30 9568 H 893.847 -3.58143 5.76984 0
M  V30 9569 H 891.793 -5.10383 4.12123 0
M  V30 9570 H 891.71 -4.81521 5.82815 0
M  V30 9571 H 892.978 -5.81754 5.18828 0
M  V30 9572 N 897.207 -1.48554 -0.526253 0
M  V30 9573 C 898.154 -1.63354 -1.63046 0
M  V30 9574 C 899.124 -0.475509 -1.59148 0
M  V30 9575 O 900.309 -0.699453 -1.77517 0
M  V30 9576 C 897.449 -1.68271 -3.01295 0
M  V30 9577 C 896.562 -2.95207 -3.15399 0
M  V30 9578 C 895.697 -2.91262 -4.4423 0
M  V30 9579 C 894.736 -4.12886 -4.51876 0
M  V30 9580 N 893.873 -4.06996 -5.721 0
M  V30 9581 H 898.713 -2.57649 -1.49737 0
M  V30 9582 H 896.25 -1.27769 -0.728938 0
M  V30 9583 H 898.208 -1.69104 -3.81392 0
M  V30 9584 H 896.838 -0.774641 -3.13367 0
M  V30 9585 H 895.89 -3.04102 -2.2853 0
M  V30 9586 H 897.202 -3.85187 -3.1691 0
M  V30 9587 H 896.356 -2.90516 -5.32621 0
M  V30 9588 H 895.095 -1.99016 -4.45246 0
M  V30 9589 H 894.1 -4.13902 -3.61891 0
M  V30 9590 H 895.325 -5.06294 -4.52596 0
M  V30 9591 H 893.271 -3.17573 -5.74006 0
M  V30 9592 H 893.188 -4.90685 -5.75121 0
M  V30 9593 H 894.456 -4.10315 -6.62768 0
M  V30 9594 N 898.685 0.775411 -1.37205 0
M  V30 9595 C 899.633 1.90996 -1.32752 0
M  V30 9596 C 900.627 1.68006 -0.216907 0
M  V30 9597 O 901.833 1.7584 -0.384723 0
M  V30 9598 H 898.208 0.62803 -0.413621 0
M  V30 9599 H 900.179 1.91869 -2.28536 0
M  V30 9600 C 898.928 3.28211 -1.14772 0
M  V30 9601 H 898.251 3.46477 -1.99484 0
M  V30 9602 H 899.691 4.07907 -1.15706 0
M  V30 9603 C 898.15 3.3658 0.146852 0
M  V30 9604 O 898.68 3.85428 1.13173 0
M  V30 9605 N 896.886 2.89936 0.196305 0
M  V30 9606 H 896.433 2.50375 -0.605807 0
M  V30 9607 H 896.391 2.95916 1.06212 0
M  V30 9608 N 900.163 1.21714 1.00117 0
M  V30 9609 C 901.11 0.979837 2.08968 0
M  V30 9610 C 902.08 -0.0955324 1.65825 0
M  V30 9611 O 903.265 0.0523742 1.90728 0
M  V30 9612 C 900.405 0.554758 3.40612 0
M  V30 9613 C 899.518 1.69999 3.97145 0
M  V30 9614 C 898.653 1.2237 5.16913 0
M  V30 9615 C 897.692 2.34101 5.65564 0
M  V30 9616 N 896.829 1.87579 6.76579 0
M  V30 9617 H 901.669 1.91167 2.28602 0
M  V30 9618 H 899.206 0.952645 1.12085 0
M  V30 9619 H 901.164 0.289526 4.16194 0
M  V30 9620 H 899.794 -0.340073 3.21004 0
M  V30 9621 H 898.846 2.07976 3.18512 0
M  V30 9622 H 900.158 2.54074 4.29241 0
M  V30 9623 H 899.312 0.915358 5.99755 0
M  V30 9624 H 898.051 0.353045 4.8642 0
M  V30 9625 H 897.056 2.65734 4.81316 0
M  V30 9626 H 898.281 3.21669 5.98085 0
M  V30 9627 H 896.227 1.02863 6.47885 0
M  V30 9628 H 896.144 2.65225 7.07949 0
M  V30 9629 H 897.412 1.5979 7.62947 0
M  V30 9630 N 901.641 -1.19671 1.02551 0
M  V30 9631 C 902.571 -2.25009 0.623965 0
M  V30 9632 C 903.552 -1.66129 -0.36538 0
M  V30 9633 O 904.737 -1.92599 -0.248842 0
M  V30 9634 C 901.867 -3.47287 -0.0294869 0
M  V30 9635 C 900.821 -4.18818 0.881781 0
M  V30 9636 C 900.147 -5.34618 0.0936189 0
M  V30 9637 C 901.447 -4.73986 2.19396 0
M  V30 9638 H 903.141 -2.58851 1.50454 0
M  V30 9639 H 900.687 -1.24425 0.724872 0
M  V30 9640 H 902.64 -4.20168 -0.322016 0
M  V30 9641 H 901.364 -3.12635 -0.944838 0
M  V30 9642 H 900.023 -3.47815 1.15845 0
M  V30 9643 H 899.671 -4.9621 -0.823661 0
M  V30 9644 H 899.371 -5.83409 0.700568 0
M  V30 9645 H 900.895 -6.10297 -0.192249 0
M  V30 9646 H 902.309 -5.38639 1.96319 0
M  V30 9647 H 900.706 -5.3325 2.75254 0
M  V30 9648 H 901.776 -3.92238 2.85092 0
M  V30 9649 N 903.119 -0.802921 -1.35613 0
M  V30 9650 C 904.347 -0.39393 -2.03115 0
M  V30 9651 C 904.762 0.993961 -1.60517 0
M  V30 9652 O 904.119 1.63984 -0.800973 0
M  V30 9653 C 904.17 -0.463486 -3.58516 0
M  V30 9654 O 903.891 -1.79666 -3.99565 0
M  V30 9655 C 905.392 -0.0468377 -4.43275 0
M  V30 9656 H 902.612 -0.160519 -0.651517 0
M  V30 9657 H 905.156 -1.08552 -1.73311 0
M  V30 9658 H 903.311 0.179821 -3.86982 0
M  V30 9659 H 903.725 -1.75688 -4.942 0
M  V30 9660 H 905.199 -0.146626 -5.51805 0
M  V30 9661 H 905.676 1.00741 -4.2749 0
M  V30 9662 H 906.282 -0.663158 -4.20098 0
M  V30 9663 N 904.597 1.47463 -0.556102 0
M  V30 9664 C 905.529 2.28046 0.22968 0
M  V30 9665 C 906.542 1.3694 0.880409 0
M  V30 9666 O 907.731 1.61773 0.754447 0
M  V30 9667 C 904.831 3.11165 1.34273 0
M  V30 9668 C 904.004 4.30225 0.789004 0
M  V30 9669 C 903.063 4.94948 1.78641 0
M  V30 9670 O 902.089 5.53372 1.33297 0
M  V30 9671 N 903.291 4.89543 3.11974 0
M  V30 9672 H 906.056 2.96125 -0.461558 0
M  V30 9673 H 903.617 1.5708 -0.392105 0
M  V30 9674 H 905.609 3.51331 2.00869 0
M  V30 9675 H 904.179 2.45337 1.93722 0
M  V30 9676 H 903.399 3.94163 -0.0536971 0
M  V30 9677 H 904.687 5.07238 0.398378 0
M  V30 9678 H 904.085 4.43275 3.51459 0
M  V30 9679 H 902.642 5.33732 3.74131 0
M  V30 9680 N 906.075 0.2925 1.54862 0
M  V30 9681 C 907.3 -0.32494 2.04839 0
M  V30 9682 C 907.725 -1.47381 1.16877 0
M  V30 9683 O 907.083 -1.80492 0.171028 0
M  V30 9684 C 907.131 -0.76694 3.5235 0
M  V30 9685 O 906.235 -1.87256 3.67436 0
M  V30 9686 H 905.576 -0.0645195 0.660858 0
M  V30 9687 H 908.106 0.431867 1.9999 0
M  V30 9688 H 908.116 -1.05804 3.94043 0
M  V30 9689 H 906.791 0.0735212 4.15835 0
M  V30 9690 H 905.368 -1.58266 3.37648 0
M  V30 9691 N 907.553 -1.57587 0.0200696 0
M  V30 9692 C 908.5 -2.09667 -0.964791 0
M  V30 9693 C 909.47 -0.99664 -1.32877 0
M  V30 9694 O 910.655 -1.2703 -1.42366 0
M  V30 9695 C 907.795 -2.62101 -2.24493 0
M  V30 9696 C 906.908 -3.8608 -1.93821 0
M  V30 9697 C 906.043 -4.26939 -3.16064 0
M  V30 9698 C 905.082 -5.43701 -2.81169 0
M  V30 9699 N 904.219 -5.79759 -3.9601 0
M  V30 9700 H 909.059 -2.93538 -0.513751 0
M  V30 9701 H 906.596 -1.45096 -0.242 0
M  V30 9702 H 908.554 -2.90587 -2.99358 0
M  V30 9703 H 907.184 -1.81074 -2.6723 0
M  V30 9704 H 906.236 -3.64378 -1.09237 0
M  V30 9705 H 907.548 -4.71028 -1.64115 0
M  V30 9706 H 906.702 -4.56814 -3.99257 0
M  V30 9707 H 905.441 -3.40739 -3.48924 0
M  V30 9708 H 904.446 -5.13529 -1.96387 0
M  V30 9709 H 905.671 -6.31593 -2.49535 0
M  V30 9710 H 903.617 -4.96516 -4.28729 0
M  V30 9711 H 903.534 -6.59327 -3.69896 0
M  V30 9712 H 904.802 -6.14235 -4.79933 0
M  V30 9713 N 909.032 0.252966 -1.55557 0
M  V30 9714 C 910.281 0.979736 -1.76307 0
M  V30 9715 C 910.594 1.86714 -0.582871 0
M  V30 9716 O 911.8 2.6302 -0.673247 0
M  V30 9717 C 910.256 1.79205 -3.12112 0
M  V30 9718 C 909.864 0.952333 -4.37761 0
M  V30 9719 C 911.608 2.51191 -3.42203 0
M  V30 9720 C 909.515 1.76018 -5.64599 0
M  V30 9721 H 908.445 0.369538 -0.657235 0
M  V30 9722 H 911.096 0.234619 -1.81994 0
M  V30 9723 H 909.478 2.57888 -3.00515 0
M  V30 9724 H 910.652 0.208251 -4.60329 0
M  V30 9725 H 908.967 0.346082 -4.14959 0
M  V30 9726 H 911.564 3.12074 -4.34182 0
M  V30 9727 H 911.907 3.22499 -2.63249 0
M  V30 9728 H 912.44 1.79523 -3.54988 0
M  V30 9729 H 909.179 1.09095 -6.46358 0
M  V30 9730 H 908.699 2.4797 -5.46142 0
M  V30 9731 H 910.378 2.32884 -6.03634 0
M  V30 9732 N 910.51 1.48831 0.518367 0
M  V30 9733 C 911.756 1.58649 1.27287 0
M  V30 9734 C 912.111 0.262085 1.90607 0
M  V30 9735 O 911.404 -0.736154 1.76894 0
M  V30 9736 C 911.598 2.67003 2.3758 0
M  V30 9737 C 911.427 4.09851 1.85073 0
M  V30 9738 C 910.197 4.76852 1.67154 0
M  V30 9739 C 912.395 4.95646 1.37256 0
M  V30 9740 N 910.377 6.04075 1.09394 0
M  V30 9741 C 911.748 6.13208 0.915189 0
M  V30 9742 C 913.803 4.8178 1.25666 0
M  V30 9743 C 912.506 7.18431 0.353411 0
M  V30 9744 C 914.532 5.87136 0.708873 0
M  V30 9745 C 913.894 7.03914 0.261642 0
M  V30 9746 H 909.993 0.635017 0.456374 0
M  V30 9747 H 912.577 1.85763 0.583097 0
M  V30 9748 H 910.748 2.41691 3.04039 0
M  V30 9749 H 912.48 2.6644 3.04617 0
M  V30 9750 H 909.235 4.3337 1.91017 0
M  V30 9751 H 909.659 6.71955 0.824917 0
M  V30 9752 H 914.301 3.91826 1.58846 0
M  V30 9753 H 912.019 8.08099 0.00931313 0
M  V30 9754 H 915.605 5.78463 0.622221 0
M  V30 9755 H 914.485 7.84046 -0.155634 0
M  V30 9756 N 911.988 -0.768124 1.37614 0
M  V30 9757 C 913.265 -1.51637 1.23554 0
M  V30 9758 C 913.645 -2.1042 -0.169331 0
M  V30 9759 O 912.993 -1.95834 -1.17735 0
M  V30 9760 C 913.203 -2.59436 2.33439 0
M  V30 9761 C 914.551 -3.2674 2.71157 0
M  V30 9762 O 915.575 -2.69733 2.32642 0
M  V30 9763 O 914.434 -4.29814 3.37524 0
M  V30 9764 H 911.528 -0.671778 0.482332 0
M  V30 9765 H 914.074 -0.804779 1.49403 0
M  V30 9766 H 912.846 -2.14146 3.27502 0
M  V30 9767 H 912.469 -3.38192 2.09073 0
M  V30 9768 N 913.466 -1.22244 -0.994698 0
M  V30 9769 C 914.712 -1.04746 -1.73655 0
M  V30 9770 C 915.045 0.41668 -1.89677 0
M  V30 9771 O 914.32 1.30897 -1.43862 0
M  V30 9772 C 914.603 -1.75716 -3.14318 0
M  V30 9773 C 914.456 -3.29714 -3.05955 0
M  V30 9774 C 915.775 -1.50809 -4.13455 0
M  V30 9775 H 912.894 -0.381921 -0.630322 0
M  V30 9776 H 915.536 -1.50559 -1.15897 0
M  V30 9777 H 913.686 -1.3677 -3.63629 0
M  V30 9778 H 915.358 -3.78093 -2.64279 0
M  V30 9779 H 913.601 -3.59484 -2.42804 0
M  V30 9780 H 914.272 -3.74547 -4.05485 0
M  V30 9781 H 916.748 -1.84636 -3.72892 0
M  V30 9782 H 915.624 -2.02964 -5.09997 0
M  V30 9783 H 915.885 -0.440292 -4.39902 0
M  V30 9784 N 914.944 1.19125 -1.03184 0
M  V30 9785 C 916.19 1.89163 -0.731111 0
M  V30 9786 C 916.523 1.79604 0.738662 0
M  V30 9787 O 915.798 1.19037 1.53819 0
M  V30 9788 C 916.081 3.39986 -1.18666 0
M  V30 9789 C 915.934 3.58401 -2.71788 0
M  V30 9790 C 917.253 4.33316 -0.769772 0
M  V30 9791 H 914.372 0.686908 -0.267069 0
M  V30 9792 H 917.014 1.40205 -1.28229 0
M  V30 9793 H 915.164 3.81813 -0.717736 0
M  V30 9794 H 916.836 3.25727 -3.26649 0
M  V30 9795 H 915.079 3.01355 -3.12038 0
M  V30 9796 H 915.75 4.64189 -2.98719 0
M  V30 9797 H 918.226 3.9922 -1.17314 0
M  V30 9798 H 917.102 5.37427 -1.11637 0
M  V30 9799 H 917.363 4.40884 0.327681 0
M  V30 9800 N 916.422 0.810101 1.35185 0
M  V30 9801 C 917.332 0.224565 2.33523 0
M  V30 9802 C 918.348 -0.634287 1.62027 0
M  V30 9803 O 919.524 -0.545211 1.9388 0
M  V30 9804 C 916.589 -0.614319 3.41214 0
M  V30 9805 C 915.65 0.265435 4.28479 0
M  V30 9806 C 914.883 -0.533506 5.31027 0
M  V30 9807 O 915.106 -1.7679 5.42311 0
M  V30 9808 O 914.04 0.0774573 6.0185 0
M  V30 9809 H 917.866 1.03815 2.85405 0
M  V30 9810 H 915.451 0.571964 1.38018 0
M  V30 9811 H 917.333 -1.09201 4.07005 0
M  V30 9812 H 916.008 -1.40545 2.91597 0
M  V30 9813 H 914.915 0.790343 3.65656 0
M  V30 9814 H 916.248 1.0206 4.81503 0
M  V30 9815 N 917.9 -1.47166 0.563914 0
M  V30 9816 C 918.847 -2.30097 -0.180013 0
M  V30 9817 C 919.817 -1.39473 -0.902019 0
M  V30 9818 O 921.002 -1.68432 -0.896396 0
M  V30 9819 C 918.142 -3.23573 -1.19978 0
M  V30 9820 C 917.255 -4.2929 -0.483149 0
M  V30 9821 C 916.39 -5.0991 -1.48879 0
M  V30 9822 C 915.429 -6.07395 -0.757513 0
M  V30 9823 N 914.566 -6.8095 -1.71031 0
M  V30 9824 H 919.406 -2.93189 0.53329 0
M  V30 9825 H 916.943 -1.4451 0.274814 0
M  V30 9826 H 918.901 -3.76196 -1.80368 0
M  V30 9827 H 917.531 -2.6233 -1.88103 0
M  V30 9828 H 916.583 -3.79671 0.235414 0
M  V30 9829 H 917.895 -4.9872 0.0894075 0
M  V30 9830 H 917.049 -5.66717 -2.16603 0
M  V30 9831 H 915.788 -4.40397 -2.09527 0
M  V30 9832 H 914.793 -5.4976 -0.0663841 0
M  V30 9833 H 916.018 -6.78919 -0.156685 0
M  V30 9834 H 913.964 -6.14162 -2.30524 0
M  V30 9835 H 913.881 -7.46574 -1.19007 0
M  V30 9836 H 915.149 -7.42326 -2.37849 0
M  V30 9837 N 919.378 -0.300708 -1.54705 0
M  V30 9838 C 920.341 0.562648 -2.22187 0
M  V30 9839 C 921.341 1.06152 -1.20782 0
M  V30 9840 O 922.531 0.957596 -1.45519 0
M  V30 9841 C 919.663 1.77899 -2.908 0
M  V30 9842 H 920.856 -0.0269361 -2.99888 0
M  V30 9843 H 918.409 -0.0515412 -1.56215 0
M  V30 9844 H 919.144 2.40841 -2.17177 0
M  V30 9845 H 918.929 1.42892 -3.65136 0
M  V30 9846 H 920.419 2.39236 -3.42281 0
M  V30 9847 N 920.856 1.57574 -0.0284266 0
M  V30 9848 C 922.133 1.83064 0.688979 0
M  V30 9849 C 922.513 0.91219 1.90374 0
M  V30 9850 O 921.861 -0.0323672 2.28477 0
M  V30 9851 C 922.071 3.32262 1.06785 0
M  V30 9852 C 923.419 3.98717 1.45978 0
M  V30 9853 O 924.443 3.36753 1.16085 0
M  V30 9854 O 923.302 5.07927 2.01673 0
M  V30 9855 H 920.396 0.7548 0.337944 0
M  V30 9856 H 922.942 1.69607 -0.0560555 0
M  V30 9857 H 921.714 3.90772 0.203235 0
M  V30 9858 H 921.337 3.50823 1.87107 0
M  V30 9859 N 922.334 -0.244713 1.55689 0
M  V30 9860 C 923.583 -0.970373 1.76824 0
M  V30 9861 C 923.896 -1.86402 0.592764 0
M  V30 9862 O 925.102 -2.62659 0.687186 0
M  V30 9863 C 923.558 -1.77547 3.13058 0
M  V30 9864 C 923.166 -0.929104 4.3826 0
M  V30 9865 C 924.91 -2.49373 3.43531 0
M  V30 9866 C 922.817 -1.73021 5.65524 0
M  V30 9867 H 921.747 -0.366048 0.659185 0
M  V30 9868 H 924.398 -0.224964 1.82116 0
M  V30 9869 H 922.78 -2.56291 3.01879 0
M  V30 9870 H 923.954 -0.183836 4.60433 0
M  V30 9871 H 922.269 -0.324071 4.15137 0
M  V30 9872 H 924.866 -3.09767 4.35831 0
M  V30 9873 H 925.209 -3.21099 2.64955 0
M  V30 9874 H 925.742 -1.77637 3.55935 0
M  V30 9875 H 922.481 -1.05666 6.46927 0
M  V30 9876 H 922.001 -2.45071 5.47449 0
M  V30 9877 H 923.68 -2.2968 6.0486 0
M  V30 9878 N 923.813 -1.49104 -0.510467 0
M  V30 9879 C 925.061 -1.578 -1.26268 0
M  V30 9880 C 925.382 -0.262349 -1.93227 0
M  V30 9881 O 924.652 0.717624 -1.82283 0
M  V30 9882 H 923.232 -0.581387 -0.46904 0
M  V30 9883 H 925.894 -1.85678 -0.592423 0
M  V30 9884 H 924.99 -2.36919 -2.03165 0
M  V30 9885 N 925.291 0.760815 -1.38019 0
M  V30 9886 C 926.531 1.53264 -1.35239 0
M  V30 9887 C 926.895 1.91908 0.0595038 0
M  V30 9888 O 928.096 2.67962 0.212122 0
M  V30 9889 C 926.367 2.75643 -2.27499 0
M  V30 9890 S 927.926 3.6559 -2.42672 0
M  V30 9891 H 924.744 0.52457 -0.479945 0
M  V30 9892 H 927.346 0.893737 -1.73875 0
M  V30 9893 H 926.05 2.4535 -3.28986 0
M  V30 9894 H 925.581 3.44483 -1.89987 0
M  V30 9895 H 927.596 4.68124 -1.64542 0
M  V30 9896 N 926.769 1.22769 0.988202 0
M  V30 9897 C 927.997 1.08155 1.76381 0
M  V30 9898 C 928.412 -0.367573 1.85187 0
M  V30 9899 O 927.769 -1.25455 1.32541 0
M  V30 9900 C 927.82 1.69193 3.19462 0
M  V30 9901 O 927.541 3.08437 3.11125 0
M  V30 9902 C 929.042 1.59915 4.13451 0
M  V30 9903 H 926.262 0.378908 0.553778 0
M  V30 9904 H 928.806 1.6246 1.24206 0
M  V30 9905 H 926.961 1.18939 3.6869 0
M  V30 9906 H 927.375 3.37916 4.0114 0
M  V30 9907 H 928.849 2.07339 5.1158 0
M  V30 9908 H 929.326 0.556546 4.3566 0
M  V30 9909 H 929.932 2.09497 3.70123 0
M  V30 9910 N 928.247 -1.18576 1.03814 0
M  V30 9911 C 929.658 -1.70159 0.768299 0
M  V30 9912 C 930.009 -1.8286 -0.711106 0
M  V30 9913 O 929.134 -1.5063 -1.55369 0
M  V30 9914 C 929.729 -3.09062 1.38804 0
M  V30 9915 C 928.288 -3.57866 1.16656 0
M  V30 9916 C 927.435 -2.34484 1.48029 0
M  V30 9917 H 930.386 -1.03287 1.20488 0
M  V30 9918 H 930.407 -3.72211 0.7899 0
M  V30 9919 H 929.919 -2.99785 2.46476 0
M  V30 9920 H 928.02 -3.72442 0.108471 0
M  V30 9921 H 928.133 -4.41445 1.8618 0
M  V30 9922 H 926.497 -2.38273 0.899902 0
M  V30 9923 H 927.28 -2.27829 2.56805 0
M  V30 9924 N 929.725 -0.817259 -1.34754 0
M  V30 9925 C 930.973 -0.401852 -1.98065 0
M  V30 9926 C 931.294 1.03718 -1.65129 0
M  V30 9927 O 930.564 1.71921 -0.939141 0
M  V30 9928 H 929.144 -0.145603 -0.732672 0
M  V30 9929 H 931.806 -1.04545 -1.64488 0
M  V30 9930 H 930.902 -0.516241 -3.07801 0
M  V30 9931 N 931.203 1.46865 -0.571711 0
M  V30 9932 C 932.428 2.07323 -0.0564655 0
M  V30 9933 C 932.853 1.41938 1.23431 0
M  V30 9934 O 932.211 0.499334 1.74288 0
M  V30 9935 C 932.259 3.6044 0.107339 0
M  V30 9936 O 931.363 3.95558 1.1665 0
M  V30 9937 H 930.704 0.661475 -0.0578465 0
M  V30 9938 H 933.234 1.88669 -0.791524 0
M  V30 9939 H 933.244 4.06767 0.316987 0
M  V30 9940 H 931.919 4.07425 -0.835348 0
M  V30 9941 H 930.496 3.60957 0.936189 0
M  V30 9942 N 932.681 0.308908 1.54543 0
M  V30 9943 C 933.929 -0.297447 1.99899 0
M  V30 9944 C 934.25 -1.53799 1.19878 0
M  V30 9945 O 933.52 -1.93639 0.29678 0
M  V30 9946 H 932.1 -0.112897 0.738419 0
M  V30 9947 H 934.762 0.422067 1.90275 0
M  V30 9948 H 933.858 -0.564016 3.06961 0
M  V30 9949 N 934.159 -1.57557 0.0367827 0
M  V30 9950 C 935.106 -2.10679 -0.942499 0
M  V30 9951 C 936.076 -1.01068 -1.31812 0
M  V30 9952 O 937.261 -1.28533 -1.41011 0
M  V30 9953 C 934.401 -2.64467 -2.21701 0
M  V30 9954 C 933.514 -3.88114 -1.89715 0
M  V30 9955 C 932.649 -4.30268 -3.11518 0
M  V30 9956 C 931.688 -5.46652 -2.75387 0
M  V30 9957 N 930.825 -5.83927 -3.89838 0
M  V30 9958 H 935.665 -2.94066 -0.482588 0
M  V30 9959 H 933.202 -1.45344 -0.226597 0
M  V30 9960 H 935.16 -2.93745 -2.96259 0
M  V30 9961 H 933.79 -1.83898 -2.65295 0
M  V30 9962 H 932.842 -3.65516 -1.05366 0
M  V30 9963 H 934.154 -4.72743 -1.5911 0
M  V30 9964 H 933.308 -4.61023 -3.94389 0
M  V30 9965 H 932.047 -3.44421 -3.4529 0
M  V30 9966 H 931.052 -5.15583 -1.90929 0
M  V30 9967 H 932.277 -6.34204 -2.42822 0
M  V30 9968 H 930.223 -5.01035 -4.23438 0
M  V30 9969 H 930.14 -6.63214 -3.62883 0
M  V30 9970 H 931.408 -6.19291 -4.73391 0
M  V30 9971 N 935.637 0.236453 -1.55816 0
M  V30 9972 C 936.914 0.986463 -1.68903 0
M  V30 9973 C 937.294 2.02984 -0.579722 0
M  V30 9974 O 936.642 2.24693 0.415389 0
M  V30 9975 C 936.852 1.61038 -3.09625 0
M  V30 9976 C 938.2 2.10829 -3.6856 0
M  V30 9977 O 939.224 1.7096 -3.12492 0
M  V30 9978 O 938.083 2.84064 -4.66873 0
M  V30 9979 H 935.177 0.459837 -0.687371 0
M  V30 9980 H 937.723 0.229412 -1.68142 0
M  V30 9981 H 936.495 0.856232 -3.81817 0
M  V30 9982 H 936.118 2.43336 -3.14441 0
M  V30 9983 N 937.115 1.49373 0.502552 0
M  V30 9984 C 938.345 1.62252 1.27898 0
M  V30 9985 C 938.753 0.292555 1.86924 0
M  V30 9986 O 938.096 -0.731823 1.68493 0
M  V30 9987 C 938.158 2.63153 2.4493 0
M  V30 9988 C 937.822 4.07541 2.06784 0
M  V30 9989 C 938.819 4.94392 1.60849 0
M  V30 9990 C 936.504 4.53263 2.16466 0
M  V30 9991 C 938.498 6.25003 1.25098 0
M  V30 9992 C 936.185 5.83888 1.80327 0
M  V30 9993 C 937.183 6.69582 1.34718 0
M  V30 9994 O 936.871 7.97773 0.990661 0
M  V30 9995 H 936.603 0.54918 0.394179 0
M  V30 9996 H 939.157 1.96132 0.610031 0
M  V30 9997 H 937.387 2.2445 3.14895 0
M  V30 9998 H 939.076 2.65578 3.06957 0
M  V30 9999 H 939.842 4.60296 1.52816 0
M  V30 10000 H 935.721 3.86731 2.50919 0
M  V30 10001 H 939.265 6.91844 0.894269 0
M  V30 10002 H 935.162 6.17513 1.8801 0
M  V30 10003 H 935.93 8.1077 1.12227 0
M  V30 10004 N 938.594 -0.753485 1.38421 0
M  V30 10005 C 939.557 -1.84888 1.35459 0
M  V30 10006 C 940.557 -1.58764 0.255083 0
M  V30 10007 O 941.747 -1.66507 0.511978 0
M  V30 10008 C 938.879 -3.22361 1.10888 0
M  V30 10009 H 940.072 -1.88922 2.32913 0
M  V30 10010 H 937.625 -0.955199 1.23716 0
M  V30 10011 H 938.36 -3.23996 0.1404 0
M  V30 10012 H 938.145 -3.42717 1.90492 0
M  V30 10013 H 939.635 -4.02437 1.1151 0
M  V30 10014 N 940.072 -1.23292 -0.981677 0
M  V30 10015 C 941.32 -1.06214 -1.71939 0
M  V30 10016 C 941.641 0.401989 -1.90812 0
M  V30 10017 O 940.911 1.28825 -1.47584 0
M  V30 10018 H 939.491 -0.390042 -0.637084 0
M  V30 10019 H 942.153 -1.54988 -1.18173 0
M  V30 10020 H 941.249 -1.54904 -2.70945 0
M  V30 10021 N 941.55 1.18024 -1.04442 0
M  V30 10022 C 942.796 1.88377 -0.751133 0
M  V30 10023 C 943.129 1.80377 0.719571 0
M  V30 10024 O 942.404 1.20662 1.52548 0
M  V30 10025 C 942.687 3.38708 -1.22265 0
M  V30 10026 C 942.54 3.55499 -2.75574 0
M  V30 10027 C 943.859 4.32475 -0.815688 0
M  V30 10028 H 940.978 0.684037 -0.27434 0
M  V30 10029 H 943.62 1.38837 -1.29709 0
M  V30 10030 H 941.77 3.8103 -0.758192 0
M  V30 10031 H 943.442 3.22244 -3.30086 0
M  V30 10032 H 941.685 2.98028 -3.15217 0
M  V30 10033 H 942.356 4.60994 -3.03625 0
M  V30 10034 H 944.832 3.97953 -1.21542 0
M  V30 10035 H 943.708 5.36213 -1.17331 0
M  V30 10036 H 943.969 4.41207 0.280901 0
M  V30 10037 N 943.028 0.824394 1.34319 0
M  V30 10038 C 944.275 0.413167 1.9824 0
M  V30 10039 C 944.603 -1.02412 1.65354 0
M  V30 10040 O 943.858 -1.72831 0.91803 0
M  V30 10041 C 944.157 0.564024 3.52921 0
M  V30 10042 C 943.823 1.96725 4.05722 0
M  V30 10043 C 942.485 2.35111 4.19853 0
M  V30 10044 C 944.837 2.88447 4.34106 0
M  V30 10045 C 942.165 3.64551 4.59695 0
M  V30 10046 C 944.517 4.17353 4.75394 0
M  V30 10047 C 943.181 4.55714 4.8773 0
M  V30 10048 H 942.451 0.151188 0.725412 0
M  V30 10049 H 945.098 1.04863 1.60238 0
M  V30 10050 H 943.403 -0.154816 3.91494 0
M  V30 10051 H 945.1 0.226347 4.00361 0
M  V30 10052 H 941.69 1.65908 3.95187 0
M  V30 10053 H 945.874 2.60034 4.22725 0
M  V30 10054 H 941.13 3.94097 4.67437 0
M  V30 10055 H 945.304 4.88512 4.96315 0
M  V30 10056 H 942.931 5.56064 5.1836 0
M  V30 10057 N 944.506 -1.46559 0.579492 0
M  V30 10058 C 945.731 -2.0729 0.0674595 0
M  V30 10059 C 946.156 -1.4259 -1.22677 0
M  V30 10060 O 945.514 -0.50857 -1.74021 0
M  V30 10061 C 945.562 -3.60492 -0.0882227 0
M  V30 10062 O 944.666 -3.96172 -1.14551 0
M  V30 10063 H 944.007 -0.661159 0.0613536 0
M  V30 10064 H 946.537 -1.88247 0.801519 0
M  V30 10065 H 946.547 -4.06929 -0.295411 0
M  V30 10066 H 945.222 -4.06976 0.856943 0
M  V30 10067 H 943.799 -3.61448 -0.917033 0
M  V30 10068 N 945.984 -0.3171 -1.54377 0
M  V30 10069 C 947.261 0.341348 -1.92598 0
M  V30 10070 C 947.641 1.70402 -1.24605 0
M  V30 10071 O 946.989 2.25191 -0.387448 0
M  V30 10072 C 947.199 0.440003 -3.46215 0
M  V30 10073 C 948.547 0.703327 -4.18734 0
M  V30 10074 O 949.571 0.523181 -3.52337 0
M  V30 10075 O 948.43 1.05042 -5.3631 0
M  V30 10076 H 945.524 0.193696 -0.803997 0
M  V30 10077 H 948.07 -0.366341 -1.65699 0
M  V30 10078 H 946.842 -0.517299 -3.87866 0
M  V30 10079 H 946.465 1.19553 -3.792 0
M  V30 10080 N 947.462 1.57535 -0.0451378 0
M  V30 10081 C 948.425 2.1008 0.916461 0
M  V30 10082 C 949.425 1.01913 1.2438 0
M  V30 10083 O 950.615 1.2801 1.18148 0
M  V30 10084 C 947.747 2.58001 2.22818 0
M  V30 10085 H 948.94 2.96334 0.461076 0
M  V30 10086 H 946.493 1.54974 0.203169 0
M  V30 10087 H 947.228 1.75123 2.72951 0
M  V30 10088 H 947.013 3.3704 2.00366 0
M  V30 10089 H 948.503 2.98822 2.9171 0
M  V30 10090 N 948.94 -0.228186 1.55939 0
M  V30 10091 C 950.188 -0.951668 1.78291 0
M  V30 10092 C 950.509 -1.85132 0.612474 0
M  V30 10093 O 949.779 -1.92356 -0.370942 0
M  V30 10094 H 948.359 -0.354388 0.657585 0
M  V30 10095 H 951.021 -0.241635 1.93396 0
M  V30 10096 H 950.117 -1.56239 2.70177 0
M  V30 10097 N 950.418 -1.49637 -0.494624 0
M  V30 10098 C 951.348 -1.69692 -1.60396 0
M  V30 10099 C 952.329 -0.545648 -1.61111 0
M  V30 10100 O 953.514 -0.782202 -1.77751 0
M  V30 10101 C 950.644 -1.76934 -2.9885 0
M  V30 10102 C 949.598 -2.91915 -3.13001 0
M  V30 10103 C 948.924 -2.84276 -4.5287 0
M  V30 10104 C 950.224 -4.32764 -2.92426 0
M  V30 10105 H 951.918 -2.6257 -1.43866 0
M  V30 10106 H 949.464 -1.26355 -0.690679 0
M  V30 10107 H 951.417 -1.8955 -3.76362 0
M  V30 10108 H 950.141 -0.806609 -3.16483 0
M  V30 10109 H 948.8 -2.78911 -2.37916 0
M  V30 10110 H 948.448 -1.85897 -4.67388 0
M  V30 10111 H 948.148 -3.61452 -4.63278 0
M  V30 10112 H 949.672 -2.98909 -5.32434 0
M  V30 10113 H 951.086 -4.46415 -3.59703 0
M  V30 10114 H 949.483 -5.1121 -3.143 0
M  V30 10115 H 950.553 -4.46765 -1.88491 0
M  V30 10116 N 951.896 0.746133 -1.38819 0
M  V30 10117 C 953.124 1.53539 -1.38685 0
M  V30 10118 C 953.539 1.88788 0.0215039 0
M  V30 10119 O 952.896 1.53312 0.990031 0
M  V30 10120 C 952.947 2.8299 -2.24942 0
M  V30 10121 O 952.668 2.49242 -3.60292 0
M  V30 10122 C 954.169 3.77085 -2.3307 0
M  V30 10123 H 951.389 0.474842 -0.474095 0
M  V30 10124 H 953.933 0.922844 -1.82493 0
M  V30 10125 H 952.088 3.40603 -1.84576 0
M  V30 10126 H 952.502 3.32319 -4.05789 0
M  V30 10127 H 953.976 4.64845 -2.97696 0
M  V30 10128 H 954.453 4.18049 -1.34655 0
M  V30 10129 H 955.059 3.25394 -2.73859 0
M  V30 10130 N 953.375 1.23811 0.975125 0
M  V30 10131 C 954.622 1.07336 1.71712 0
M  V30 10132 C 954.95 -0.388954 1.90571 0
M  V30 10133 O 954.205 -1.30409 1.45918 0
M  V30 10134 C 954.504 1.74994 3.11628 0
M  V30 10135 C 954.17 3.24918 3.12632 0
M  V30 10136 C 952.832 3.65822 3.12614 0
M  V30 10137 C 955.184 4.20797 3.07538 0
M  V30 10138 C 952.512 5.01054 3.05224 0
M  V30 10139 C 954.864 5.56027 3.0169 0
M  V30 10140 C 953.528 5.96287 2.99996 0
M  V30 10141 H 952.798 0.392771 0.62834 0
M  V30 10142 H 955.445 1.53815 1.14075 0
M  V30 10143 H 953.75 1.20889 3.72684 0
M  V30 10144 H 955.447 1.5972 3.67819 0
M  V30 10145 H 952.037 2.92359 3.13407 0
M  V30 10146 H 956.221 3.902 3.06688 0
M  V30 10147 H 951.477 5.31454 3.02268 0
M  V30 10148 H 955.651 6.3003 2.96706 0
M  V30 10149 H 953.278 7.01037 2.94025 0
M  V30 10150 N 954.853 -1.17469 1.05066 0
M  V30 10151 C 956.081 -1.9162 0.780334 0
M  V30 10152 C 956.496 -1.76745 -0.663817 0
M  V30 10153 O 955.853 -1.10377 -1.45338 0
M  V30 10154 C 955.904 -3.42723 1.14992 0
M  V30 10155 O 955.625 -3.57139 2.53739 0
M  V30 10156 C 957.126 -4.33952 0.905549 0
M  V30 10157 H 954.346 -0.608022 0.283814 0
M  V30 10158 H 956.89 -1.4897 1.401 0
M  V30 10159 H 955.045 -3.83124 0.57403 0
M  V30 10160 H 955.459 -4.5075 2.68189 0
M  V30 10161 H 956.933 -5.38487 1.21391 0
M  V30 10162 H 957.41 -4.38911 -0.159295 0
M  V30 10163 H 958.016 -3.99263 1.46522 0
M  V30 10164 N 956.331 -0.831506 -1.3388 0
M  V30 10165 C 957.556 -0.435954 -2.02766 0
M  V30 10166 C 957.981 0.952889 -1.62178 0
M  V30 10167 O 957.339 1.62166 -0.810681 0
M  V30 10168 C 957.387 -0.555907 -3.56289 0
M  V30 10169 O 956.491 0.420826 -4.10247 0
M  V30 10170 H 955.832 -0.178248 -0.639628 0
M  V30 10171 H 958.362 -1.1243 -1.70941 0
M  V30 10172 H 958.372 -0.434831 -4.05676 0
M  V30 10173 H 957.047 -1.56881 -3.85177 0
M  V30 10174 H 955.624 0.257919 -3.72007 0
M  V30 10175 N 957.809 1.4625 -0.587256 0
M  V30 10176 C 959.034 2.07252 -0.0784517 0
M  V30 10177 C 959.459 1.43239 1.21919 0
M  V30 10178 O 958.817 0.517791 1.73749 0
M  V30 10179 C 958.865 3.60534 0.0691037 0
M  V30 10180 O 957.969 3.96773 1.12448 0
M  V30 10181 H 957.31 0.660825 -0.064859 0
M  V30 10182 H 959.84 1.87819 -0.811491 0
M  V30 10183 H 959.85 4.0708 0.273826 0
M  V30 10184 H 958.525 4.06516 -0.878514 0
M  V30 10185 H 957.102 3.6193 0.897852 0
M  V30 10186 N 959.287 0.325282 1.54207 0
M  V30 10187 C 960.512 -0.281418 2.05482 0
M  V30 10188 C 960.937 -1.44869 1.19977 0
M  V30 10189 O 960.295 -1.80088 0.209275 0
M  V30 10190 C 960.343 -0.692029 3.53897 0
M  V30 10191 O 959.447 -1.7942 3.71325 0
M  V30 10192 H 958.788 -0.0504872 0.662078 0
M  V30 10193 H 961.318 0.474191 1.99029 0
M  V30 10194 H 961.328 -0.974219 3.96198 0
M  V30 10195 H 960.003 0.161709 4.15586 0
M  V30 10196 H 958.58 -1.51069 3.40929 0
M  V30 10197 N 960.765 -1.57509 0.0534917 0
M  V30 10198 C 962.013 -1.92402 -0.618548 0
M  V30 10199 C 962.334 -0.93273 -1.71246 0
M  V30 10200 O 961.604 0.0220495 -1.95888 0
M  V30 10201 H 960.184 -0.710233 -0.23147 0
M  V30 10202 H 962.846 -1.94606 0.10704 0
M  V30 10203 H 961.942 -2.93704 -1.05566 0
M  V30 10204 N 962.243 0.219913 -1.56058 0
M  V30 10205 C 963.175 1.29604 -1.89038 0
M  V30 10206 C 964.188 1.42964 -0.778791 0
M  V30 10207 O 965.377 1.43832 -1.0571 0
M  V30 10208 C 962.477 2.67145 -2.08534 0
M  V30 10209 C 961.65 2.75712 -3.39561 0
M  V30 10210 C 960.709 3.94279 -3.48469 0
M  V30 10211 O 959.735 3.8254 -4.21487 0
M  V30 10212 N 960.937 5.08655 -2.79732 0
M  V30 10213 H 963.702 1.01638 -2.81939 0
M  V30 10214 H 961.263 0.409945 -1.56624 0
M  V30 10215 H 963.255 3.44847 -2.11808 0
M  V30 10216 H 961.825 2.87704 -1.2225 0
M  V30 10217 H 961.045 1.84475 -3.48371 0
M  V30 10218 H 962.333 2.78407 -4.25872 0
M  V30 10219 H 961.731 5.21088 -2.2019 0
M  V30 10220 H 960.288 5.84394 -2.88665 0
M  V30 10221 N 963.721 1.49897 0.486681 0
M  V30 10222 C 964.653 1.63755 1.60365 0
M  V30 10223 C 965.666 0.519614 1.54285 0
M  V30 10224 O 966.855 0.792219 1.59957 0
M  V30 10225 C 963.955 1.59153 2.99205 0
M  V30 10226 C 963.128 2.8672 3.30319 0
M  V30 10227 C 962.187 2.74974 4.48638 0
M  V30 10228 O 961.213 3.48922 4.49714 0
M  V30 10229 N 962.415 1.87479 5.49392 0
M  V30 10230 H 965.18 2.60094 1.48899 0
M  V30 10231 H 962.741 1.47166 0.674825 0
M  V30 10232 H 964.733 1.4893 3.76301 0
M  V30 10233 H 963.303 0.706133 3.0452 0
M  V30 10234 H 962.523 3.11188 2.41983 0
M  V30 10235 H 963.811 3.71262 3.47911 0
M  V30 10236 H 963.209 1.26684 5.51333 0
M  V30 10237 H 961.766 1.83169 6.25534 0
M  V30 10238 N 965.199 -0.738761 1.39212 0
M  V30 10239 C 966.427 -1.52801 1.39497 0
M  V30 10240 C 966.842 -1.88797 -0.0114917 0
M  V30 10241 O 966.199 -1.53835 -0.981887 0
M  V30 10242 C 966.25 -2.81793 2.2644 0
M  V30 10243 O 965.971 -2.47328 3.61608 0
M  V30 10244 C 967.472 -3.75844 2.35067 0
M  V30 10245 H 964.692 -0.472322 0.476606 0
M  V30 10246 H 967.236 -0.913153 1.8298 0
M  V30 10247 H 965.391 -3.3962 1.8638 0
M  V30 10248 H 965.805 -3.30162 4.07545 0
M  V30 10249 H 967.279 -4.6326 3.00157 0
M  V30 10250 H 967.756 -4.17329 1.3687 0
M  V30 10251 H 968.362 -3.23937 2.75581 0
M  V30 10252 N 966.677 -1.24326 -0.968545 0
M  V30 10253 C 967.64 -1.03591 -2.04454 0
M  V30 10254 C 968.64 0.0064809 -1.60799 0
M  V30 10255 O 969.83 -0.234404 -1.72616 0
M  V30 10256 C 966.962 -0.56992 -3.36102 0
M  V30 10257 H 968.155 -1.99092 -2.24282 0
M  V30 10258 H 965.708 -1.06537 -1.14366 0
M  V30 10259 H 966.443 0.388325 -3.21967 0
M  V30 10260 H 966.228 -1.32227 -3.69132 0
M  V30 10261 H 967.718 -0.445854 -4.15213 0
M  V30 10262 N 968.156 1.1691 -1.05688 0
M  V30 10263 C 969.088 2.20648 -0.620237 0
M  V30 10264 C 970.101 1.59652 0.318604 0
M  V30 10265 O 971.29 1.78157 0.110553 0
M  V30 10266 C 968.39 3.38716 0.111729 0
M  V30 10267 C 967.563 4.29277 -0.839062 0
M  V30 10268 C 966.622 5.25993 -0.147453 0
M  V30 10269 O 965.648 5.63787 -0.783151 0
M  V30 10270 N 966.85 5.69725 1.11327 0
M  V30 10271 H 969.615 2.58731 -1.51256 0
M  V30 10272 H 967.176 1.31858 -0.939412 0
M  V30 10273 H 969.168 4.00455 0.584657 0
M  V30 10274 H 967.738 2.99189 0.905784 0
M  V30 10275 H 966.958 3.64894 -1.4915 0
M  V30 10276 H 968.246 4.86669 -1.48428 0
M  V30 10277 H 967.644 5.41103 1.64999 0
M  V30 10278 H 966.201 6.33584 1.53018 0
M  V30 10279 N 969.634 0.838594 1.33437 0
M  V30 10280 C 971.05 0.526347 1.50671 0
M  V30 10281 C 971.25 -0.946387 1.77893 0
M  V30 10282 O 970.306 -1.7302 1.83903 0
M  V30 10283 C 971.619 1.39945 2.6615 0
M  V30 10284 C 973.167 1.3982 2.80035 0
M  V30 10285 C 973.642 2.25614 3.98576 0
M  V30 10286 N 975.133 2.23322 4.0581 0
M  V30 10287 C 975.868 2.86443 4.96727 0
M  V30 10288 N 975.364 3.58616 5.92762 0
M  V30 10289 N 977.157 2.75915 4.89722 0
M  V30 10290 H 969.308 1.79195 1.1403 0
M  V30 10291 H 971.571 0.764491 0.560586 0
M  V30 10292 H 971.277 2.44599 2.52714 0
M  V30 10293 H 971.151 1.07529 3.61548 0
M  V30 10294 H 973.538 0.35937 2.92904 0
M  V30 10295 H 973.619 1.76241 1.85399 0
M  V30 10296 H 973.263 3.29555 3.86466 0
M  V30 10297 H 973.193 1.86533 4.92456 0
M  V30 10298 H 975.684 1.70836 3.37081 0
M  V30 10299 H 975.997 4.03987 6.58798 0
M  V30 10300 H 974.342 3.62724 5.92838 0
M  V30 10301 H 977.533 2.19094 4.13661 0
M  V30 10302 H 977.706 3.25393 5.60378 0
M  V30 10303 N 971.112 -1.45937 0.595003 0
M  V30 10304 C 972.075 -2.2888 -0.121102 0
M  V30 10305 C 973.075 -1.39075 -0.807149 0
M  V30 10306 O 974.265 -1.61326 -0.657228 0
M  V30 10307 C 971.397 -3.19778 -1.1813 0
M  V30 10308 H 972.59 -2.93673 0.607968 0
M  V30 10309 H 970.143 -1.5225 0.353495 0
M  V30 10310 H 970.878 -2.59759 -1.94154 0
M  V30 10311 H 970.663 -3.85914 -0.693724 0
M  V30 10312 H 972.153 -3.82176 -1.68319 0
M  V30 10313 N 972.59 -0.333456 -1.54032 0
M  V30 10314 C 973.5 0.536674 -2.28379 0
M  V30 10315 C 974.516 1.12068 -1.33104 0
M  V30 10316 O 975.692 1.13853 -1.66131 0
M  V30 10317 C 972.757 1.67677 -3.03456 0
M  V30 10318 C 971.818 1.12357 -4.14336 0
M  V30 10319 C 971.051 2.20933 -4.85823 0
M  V30 10320 O 971.274 3.41466 -4.569 0
M  V30 10321 O 970.208 1.85795 -5.72507 0
M  V30 10322 H 974.034 -0.0674003 -3.03625 0
M  V30 10323 H 971.619 -0.098823 -1.49073 0
M  V30 10324 H 973.501 2.34032 -3.50438 0
M  V30 10325 H 972.176 2.26684 -2.31076 0
M  V30 10326 H 971.083 0.424827 -3.7168 0
M  V30 10327 H 972.416 0.578497 -4.88789 0
M  V30 10328 N 974.068 1.57479 -0.061844 0
M  V30 10329 C 974.998 2.15181 0.9066 0
M  V30 10330 C 975.979 1.07624 1.31724 0
M  V30 10331 O 977.164 1.35614 1.39006 0
M  V30 10332 C 974.294 2.70542 2.17771 0
M  V30 10333 C 973.248 3.83178 1.9068 0
M  V30 10334 C 972.574 4.25099 3.24337 0
M  V30 10335 C 973.874 5.07853 1.21994 0
M  V30 10336 H 975.568 2.96355 0.42594 0
M  V30 10337 H 973.114 1.42556 0.203435 0
M  V30 10338 H 975.067 3.09552 2.85929 0
M  V30 10339 H 973.791 1.86575 2.68062 0
M  V30 10340 H 972.45 3.44656 1.24931 0
M  V30 10341 H 972.098 3.38069 3.72449 0
M  V30 10342 H 971.798 5.01021 3.07005 0
M  V30 10343 H 973.322 4.66718 3.93709 0
M  V30 10344 H 974.736 5.44242 1.80204 0
M  V30 10345 H 973.133 5.88987 1.14954 0
M  V30 10346 H 974.203 4.84497 0.197536 0
M  V30 10347 N 975.546 -0.211634 1.56173 0
M  V30 10348 C 976.478 -1.286 1.89723 0
M  V30 10349 C 977.491 -1.42549 0.786361 0
M  V30 10350 O 978.68 -1.4327 1.06471 0
M  V30 10351 C 975.78 -2.66036 2.09948 0
M  V30 10352 C 974.953 -2.73908 3.41018 0
M  V30 10353 C 974.012 -3.92425 3.50555 0
M  V30 10354 O 973.038 -3.803 4.2351 0
M  V30 10355 N 974.24 -5.07165 2.82426 0
M  V30 10356 H 977.005 -1.00142 2.82474 0
M  V30 10357 H 974.566 -0.401633 1.56839 0
M  V30 10358 H 976.558 -3.43719 2.13634 0
M  V30 10359 H 975.128 -2.87052 1.23774 0
M  V30 10360 H 974.348 -1.82625 3.49345 0
M  V30 10361 H 975.636 -2.76145 4.27342 0
M  V30 10362 H 975.034 -5.19913 2.2295 0
M  V30 10363 H 973.591 -5.82855 2.9176 0
M  V30 10364 N 977.024 -1.50153 -0.478725 0
M  V30 10365 C 978.264 -1.62393 -1.24129 0
M  V30 10366 C 978.628 -0.313774 -1.89419 0
M  V30 10367 O 979.829 -0.311537 -2.66989 0
M  V30 10368 C 978.1 -2.76633 -2.26293 0
M  V30 10369 S 979.659 -3.08961 -3.11591 0
M  V30 10370 H 976.477 -0.572559 -0.421541 0
M  V30 10371 H 979.079 -1.87906 -0.539592 0
M  V30 10372 H 977.783 -3.70319 -1.76896 0
M  V30 10373 H 977.314 -2.53182 -3.01102 0
M  V30 10374 H 979.329 -2.52197 -4.2733 0
M  V30 10375 N 978.502 0.731368 -1.39602 0
M  V30 10376 C 979.913 1.30981 -1.33045 0
M  V30 10377 C 980.264 1.962 0.00349918 0
M  V30 10378 O 979.389 1.96539 0.905615 0
M  V30 10379 C 979.984 2.3817 -2.40958 0
M  V30 10380 C 978.543 2.91678 -2.3791 0
M  V30 10381 C 977.69 1.65286 -2.22656 0
M  V30 10382 H 980.641 0.528615 -1.49637 0
M  V30 10383 H 980.662 3.18645 -2.07955 0
M  V30 10384 H 980.174 1.90673 -3.38032 0
M  V30 10385 H 978.275 3.43446 -1.44485 0
M  V30 10386 H 978.388 3.44545 -3.32904 0
M  V30 10387 H 976.752 1.89759 -1.69893 0
M  V30 10388 H 977.535 1.19836 -3.21705 0
M  V30 10389 N 979.98 1.24838 0.961938 0
M  V30 10390 C 980.912 1.00369 2.06055 0
M  V30 10391 C 981.925 -0.0288583 1.62774 0
M  V30 10392 O 983.114 0.208853 1.77274 0
M  V30 10393 C 980.214 0.493953 3.35281 0
M  V30 10394 C 979.387 1.59097 4.07439 0
M  V30 10395 C 978.446 1.08288 5.14937 0
M  V30 10396 O 977.472 1.77577 5.40791 0
M  V30 10397 N 978.674 -0.0796836 5.80445 0
M  V30 10398 H 981.439 1.94962 2.27618 0
M  V30 10399 H 979 1.15945 1.12997 0
M  V30 10400 H 980.992 0.138675 4.04462 0
M  V30 10401 H 979.562 -0.357851 3.10545 0
M  V30 10402 H 978.782 2.11817 3.32456 0
M  V30 10403 H 980.07 2.32817 4.52409 0
M  V30 10404 H 979.468 -0.658827 5.6185 0
M  V30 10405 H 978.025 -0.376057 6.50714 0
M  V30 10406 N 981.458 -1.16348 1.06306 0
M  V30 10407 C 982.869 -1.68491 0.80422 0
M  V30 10408 C 983.22 -1.84327 -0.672159 0
M  V30 10409 O 982.345 -1.53892 -1.52139 0
M  V30 10410 C 982.94 -3.06048 1.45328 0
M  V30 10411 C 981.499 -3.55311 1.24221 0
M  V30 10412 C 980.646 -2.31291 1.5297 0
M  V30 10413 H 983.597 -1.00708 1.22652 0
M  V30 10414 H 983.618 -3.70451 0.868674 0
M  V30 10415 H 983.13 -2.9449 2.52779 0
M  V30 10416 H 981.231 -3.72128 0.187447 0
M  V30 10417 H 981.344 -4.37397 1.95502 0
M  V30 10418 H 979.708 -2.3631 0.950241 0
M  V30 10419 H 980.491 -2.22331 2.6158 0
M  V30 10420 N 982.937 -0.845659 -1.3299 0
M  V30 10421 C 983.9 -0.288905 -2.27372 0
M  V30 10422 C 984.9 0.546263 -1.51237 0
M  V30 10423 O 986.09 0.359072 -1.70459 0
M  V30 10424 C 983.222 0.59224 -3.35716 0
M  V30 10425 H 984.415 -1.12181 -2.78128 0
M  V30 10426 H 981.968 -0.619276 -1.43508 0
M  V30 10427 H 982.703 1.44732 -2.90212 0
M  V30 10428 H 982.488 -0.00543255 -3.921 0
M  V30 10429 H 983.978 0.974848 -4.06062 0
M  V30 10430 N 984.415 1.45619 -0.602734 0
M  V30 10431 C 985.378 2.28941 0.108962 0
M  V30 10432 C 986.378 1.39501 0.799762 0
M  V30 10433 O 987.568 1.61673 0.648663 0
M  V30 10434 C 984.7 3.204 1.16432 0
M  V30 10435 H 985.893 2.93346 -0.623534 0
M  V30 10436 H 983.446 1.52061 -0.361565 0
M  V30 10437 H 984.181 2.60785 1.92774 0
M  V30 10438 H 983.966 3.86277 0.673248 0
M  V30 10439 H 985.456 3.83063 1.6629 0
M  V30 10440 N 985.893 0.34162 1.53853 0
M  V30 10441 C 987.309 -0.0103769 1.59597 0
M  V30 10442 C 987.509 -1.48897 1.35764 0
M  V30 10443 O 986.565 -2.24743 1.15095 0
M  V30 10444 C 987.878 0.424067 2.97695 0
M  V30 10445 C 989.426 0.376247 3.1073 0
M  V30 10446 C 989.901 0.786129 4.51203 0
M  V30 10447 N 991.392 0.74024 4.57247 0
M  V30 10448 C 992.127 1.02937 5.64085 0
M  V30 10449 N 991.623 1.38655 6.78783 0
M  V30 10450 N 993.416 0.953734 5.5395 0
M  V30 10451 H 985.567 1.30477 1.67599 0
M  V30 10452 H 987.83 0.531753 0.78482 0
M  V30 10453 H 987.536 1.45493 3.20195 0
M  V30 10454 H 987.41 -0.201713 3.7666 0
M  V30 10455 H 989.797 -0.645441 2.87955 0
M  V30 10456 H 989.878 1.0372 2.33828 0
M  V30 10457 H 989.522 1.80582 4.74713 0
M  V30 10458 H 989.452 0.102671 5.265 0
M  V30 10459 H 991.943 0.476763 3.7488 0
M  V30 10460 H 992.256 1.59206 7.56223 0
M  V30 10461 H 990.601 1.42498 6.80235 0
M  V30 10462 H 993.792 0.674044 4.63222 0
M  V30 10463 H 993.965 1.18241 6.37121 0
M  V30 10464 N 987.371 -1.57444 0.0701946 0
M  V30 10465 C 988.787 -1.57009 -0.286431 0
M  V30 10466 C 988.987 -1.07946 -1.70147 0
M  V30 10467 O 988.043 -0.744622 -2.41271 0
M  V30 10468 C 989.356 -3.00542 -0.0975466 0
M  V30 10469 C 990.904 -3.12553 -0.167205 0
M  V30 10470 C 991.379 -4.58 -0.00662047 0
M  V30 10471 N 992.87 -4.63158 -0.0622778 0
M  V30 10472 C 993.605 -5.73388 0.0375831 0
M  V30 10473 N 993.101 -6.92537 0.190873 0
M  V30 10474 N 994.894 -5.62097 -0.0193672 0
M  V30 10475 H 987.045 -1.87651 0.995023 0
M  V30 10476 H 989.308 -0.865006 0.387902 0
M  V30 10477 H 989.014 -3.40543 0.878822 0
M  V30 10478 H 988.888 -3.67485 -0.850547 0
M  V30 10479 H 991.275 -2.72439 -1.13406 0
M  V30 10480 H 991.356 -2.48251 0.616871 0
M  V30 10481 H 991 -4.98803 0.956992 0
M  V30 10482 H 990.93 -5.20332 -0.810081 0
M  V30 10483 H 993.421 -3.77475 -0.179229 0
M  V30 10484 H 993.734 -7.72365 0.25926 0
M  V30 10485 H 992.079 -6.94632 0.226214 0
M  V30 10486 H 995.27 -4.67897 -0.137815 0
M  V30 10487 H 995.443 -6.4797 0.0619121 0
M  V30 10488 N 988.849 0.203349 -1.56283 0
M  V30 10489 C 990.265 0.55384 -1.49682 0
M  V30 10490 C 990.465 1.86261 -0.768701 0
M  V30 10491 O 989.521 2.50517 -0.315824 0
M  V30 10492 C 990.834 0.616216 -2.94318 0
M  V30 10493 C 992.382 0.705611 -3.04943 0
M  V30 10494 C 992.857 0.79917 -4.50974 0
M  V30 10495 N 994.348 0.862916 -4.55091 0
M  V30 10496 C 995.083 0.955334 -5.65386 0
M  V30 10497 N 994.579 1.01057 -6.8539 0
M  V30 10498 N 996.372 0.991884 -5.53279 0
M  V30 10499 H 988.523 -0.655244 -2.0204 0
M  V30 10500 H 990.786 -0.232344 -0.919087 0
M  V30 10501 H 990.492 -0.27619 -3.50614 0
M  V30 10502 H 990.366 1.47371 -3.4722 0
M  V30 10503 H 992.753 1.58845 -2.48701 0
M  V30 10504 H 992.834 -0.177921 -2.5518 0
M  V30 10505 H 992.478 -0.0792841 -5.07838 0
M  V30 10506 H 992.408 1.69838 -4.9846 0
M  V30 10507 H 994.899 0.829812 -3.68677 0
M  V30 10508 H 995.212 1.08137 -7.65197 0
M  V30 10509 H 993.557 0.979384 -6.88065 0
M  V30 10510 H 996.748 0.945514 -4.58451 0
M  V30 10511 H 996.921 1.06045 -6.39264 0
M  V30 10512 N 990.327 1.50405 0.470755 0
M  V30 10513 C 991.743 1.37838 0.804534 0
M  V30 10514 C 991.943 0.434743 1.96754 0
M  V30 10515 O 990.999 -0.122507 2.52203 0
M  V30 10516 C 992.312 2.79212 1.11629 0
M  V30 10517 C 993.86 2.88129 1.22272 0
M  V30 10518 C 994.335 4.30337 1.5676 0
M  V30 10519 N 995.826 4.3329 1.63751 0
M  V30 10520 C 996.561 5.4032 1.91942 0
M  V30 10521 N 996.057 6.57558 2.18151 0
M  V30 10522 N 997.85 5.27764 1.93446 0
M  V30 10523 H 990.001 2.10332 -0.295689 0
M  V30 10524 H 992.264 0.945429 -0.0697733 0
M  V30 10525 H 991.97 3.50103 0.334778 0
M  V30 10526 H 991.844 3.16475 2.0524 0
M  V30 10527 H 994.231 2.17457 1.9949 0
M  V30 10528 H 994.312 2.54409 0.2664 0
M  V30 10529 H 993.956 5.01547 0.800817 0
M  V30 10530 H 993.886 4.61545 2.53543 0
M  V30 10531 H 996.377 3.48752 1.45535 0
M  V30 10532 H 996.69 7.34935 2.38936 0
M  V30 10533 H 995.035 6.60732 2.15542 0
M  V30 10534 H 998.226 4.35169 1.72468 0
M  V30 10535 H 998.399 6.11264 2.15081 0
M  V30 10536 N 991.805 -0.723954 1.39988 0
M  V30 10537 C 993.03 -1.5182 1.41299 0
M  V30 10538 C 993.455 -1.88096 0.0122636 0
M  V30 10539 O 992.813 -1.52687 -0.977559 0
M  V30 10540 C 992.861 -2.77532 2.30235 0
M  V30 10541 O 991.965 -3.73903 1.73984 0
M  V30 10542 H 991.306 -0.458058 0.480707 0
M  V30 10543 H 993.836 -0.892291 1.84118 0
M  V30 10544 H 993.846 -3.2615 2.45132 0
M  V30 10545 H 992.521 -2.50462 3.32026 0
M  V30 10546 H 991.098 -3.32715 1.68389 0
M  V30 10547 N 993.283 -1.25346 -0.955304 0
M  V30 10548 C 994.529 -1.10218 -1.70235 0
M  V30 10549 C 994.862 0.356124 -1.90907 0
M  V30 10550 O 994.137 1.26253 -1.47954 0
M  V30 10551 C 994.42 -1.85627 -3.08569 0
M  V30 10552 C 994.273 -3.39281 -2.95311 0
M  V30 10553 C 995.592 -1.63886 -4.08448 0
M  V30 10554 H 992.711 -0.401781 -0.617852 0
M  V30 10555 H 995.353 -1.5417 -1.11048 0
M  V30 10556 H 993.503 -1.48269 -3.59094 0
M  V30 10557 H 995.175 -3.8631 -2.52116 0
M  V30 10558 H 993.418 -3.67027 -2.31244 0
M  V30 10559 H 994.089 -3.87258 -3.93364 0
M  V30 10560 H 996.565 -1.96406 -3.6683 0
M  V30 10561 H 995.441 -2.19087 -5.03281 0
M  V30 10562 H 995.702 -0.580021 -4.38279 0
M  V30 10563 N 994.761 1.15782 -1.06922 0
M  V30 10564 C 995.693 2.19978 -0.643604 0
M  V30 10565 C 996.706 1.59981 0.301653 0
M  V30 10566 O 997.895 1.78265 0.0916508 0
M  V30 10567 C 994.995 3.38815 0.0757973 0
M  V30 10568 C 994.168 4.28363 -0.884545 0
M  V30 10569 C 993.227 5.25807 -0.203233 0
M  V30 10570 O 992.253 5.62924 -0.842904 0
M  V30 10571 N 993.455 5.70874 1.05279 0
M  V30 10572 H 996.22 2.57112 -1.53992 0
M  V30 10573 H 993.781 1.30855 -0.953344 0
M  V30 10574 H 995.773 4.01052 0.542151 0
M  V30 10575 H 994.343 3.00133 0.874 0
M  V30 10576 H 993.563 3.63292 -1.53012 0
M  V30 10577 H 994.851 4.85067 -1.53581 0
M  V30 10578 H 994.249 5.42822 1.5925 0
M  V30 10579 H 992.806 6.35171 1.46289 0
M  V30 10580 N 996.239 0.8527 1.3254 0
M  V30 10581 C 997.169 0.311234 2.31416 0
M  V30 10582 C 998.15 -0.588557 1.59593 0
M  V30 10583 O 999.335 -0.509211 1.87405 0
M  V30 10584 C 996.465 -0.502892 3.4364 0
M  V30 10585 C 995.419 0.302296 4.26931 0
M  V30 10586 C 994.745 -0.636445 5.30899 0
M  V30 10587 C 996.045 1.52697 4.99481 0
M  V30 10588 H 997.739 1.13742 2.76953 0
M  V30 10589 H 995.285 0.548389 1.33149 0
M  V30 10590 H 997.238 -0.892092 4.11849 0
M  V30 10591 H 995.962 -1.36242 2.96826 0
M  V30 10592 H 994.621 0.673226 3.60365 0
M  V30 10593 H 994.269 -1.49277 4.80339 0
M  V30 10594 H 993.969 -0.101716 5.87512 0
M  V30 10595 H 995.493 -1.02286 6.01972 0
M  V30 10596 H 996.907 1.21017 5.60382 0
M  V30 10597 H 995.304 1.9995 5.65809 0
M  V30 10598 H 996.374 2.28929 4.27457 0
M  V30 10599 N 997.718 -1.45297 0.610449 0
M  V30 10600 C 998.946 -2.0659 0.113211 0
M  V30 10601 C 999.361 -1.4546 -1.20361 0
M  V30 10602 O 998.718 -0.569823 -1.73376 0
M  V30 10603 C 998.769 -3.61488 -0.0298411 0
M  V30 10604 O 998.49 -4.20336 1.23488 0
M  V30 10605 C 999.991 -4.39772 -0.558202 0
M  V30 10606 H 997.211 -0.667322 0.0701555 0
M  V30 10607 H 999.755 -1.86497 0.838993 0
M  V30 10608 H 997.91 -3.80913 -0.705963 0
M  V30 10609 H 998.324 -5.13545 1.0664 0
M  V30 10610 H 999.798 -5.48648 -0.607375 0
M  V30 10611 H 1000.27 -4.09755 -1.58107 0
M  V30 10612 H 1000.88 -4.25217 0.0839704 0
M  V30 10613 N 999.196 -0.349774 -1.5367 0
M  V30 10614 C 1000.11 0.512421 -2.28935 0
M  V30 10615 C 1001.12 1.1065 -1.34286 0
M  V30 10616 O 1002.3 1.12084 -1.67329 0
M  V30 10617 C 999.363 1.64449 -3.05217 0
M  V30 10618 C 998.424 1.07956 -4.15505 0
M  V30 10619 C 997.657 2.15768 -4.88139 0
M  V30 10620 O 997.88 3.366 -4.60496 0
M  V30 10621 O 996.814 1.79712 -5.74445 0
M  V30 10622 H 1000.64 -0.0996001 -3.03537 0
M  V30 10623 H 998.225 -0.114629 -1.4896 0
M  V30 10624 H 1000.11 2.30302 -3.52901 0
M  V30 10625 H 998.782 2.24221 -2.33467 0
M  V30 10626 H 997.689 0.385381 -3.7211 0
M  V30 10627 H 999.022 0.526621 -4.89375 0
M  V30 10628 N 1000.67 1.57404 -0.0785433 0
M  V30 10629 C 1001.62 2.13104 0.88631 0
M  V30 10630 C 1002.59 1.04527 1.29086 0
M  V30 10631 O 1003.78 1.32226 1.37553 0
M  V30 10632 C 1000.92 2.70252 2.14611 0
M  V30 10633 C 1000.03 3.93007 1.79358 0
M  V30 10634 C 999.164 4.38376 3 0
M  V30 10635 C 998.203 5.53761 2.60796 0
M  V30 10636 N 997.34 5.94058 3.74219 0
M  V30 10637 H 1002.18 2.95243 0.404452 0
M  V30 10638 H 999.717 1.45894 0.187982 0
M  V30 10639 H 1001.67 3.01497 2.88367 0
M  V30 10640 H 1000.3 1.90868 2.60326 0
M  V30 10641 H 999.357 3.68181 0.956384 0
M  V30 10642 H 1000.67 4.76795 1.4652 0
M  V30 10643 H 999.823 4.71317 3.82027 0
M  V30 10644 H 998.562 3.53455 3.36037 0
M  V30 10645 H 997.567 5.20464 1.77192 0
M  V30 10646 H 998.792 6.40419 2.25922 0
M  V30 10647 H 996.738 5.12085 4.10005 0
M  V30 10648 H 996.655 6.72602 3.45171 0
M  V30 10649 H 997.923 6.31624 4.56805 0
M  V30 10650 N 1002.15 -0.195058 1.56388 0
M  V30 10651 C 1003.57 -0.545894 1.49974 0
M  V30 10652 C 1003.77 -1.85851 0.778568 0
M  V30 10653 O 1002.82 -2.50346 0.329105 0
M  V30 10654 C 1004.14 -0.600599 2.94641 0
M  V30 10655 C 1005.68 -0.689429 3.05313 0
M  V30 10656 C 1006.16 -0.775243 4.51391 0
M  V30 10657 N 1007.65 -0.838769 4.55542 0
M  V30 10658 C 1008.39 -0.925337 5.65884 0
M  V30 10659 N 1007.88 -0.974204 6.85916 0
M  V30 10660 N 1009.67 -0.962528 5.53798 0
M  V30 10661 H 1001.83 0.66595 2.0169 0
M  V30 10662 H 1004.09 0.237215 0.917842 0
M  V30 10663 H 1003.79 0.29478 3.50462 0
M  V30 10664 H 1003.67 -1.45528 3.47996 0
M  V30 10665 H 1006.06 -1.57524 2.4954 0
M  V30 10666 H 1006.14 0.191451 2.55083 0
M  V30 10667 H 1005.78 0.106215 5.07789 0
M  V30 10668 H 1005.71 -1.67193 4.99354 0
M  V30 10669 H 1008.2 -0.810249 3.69112 0
M  V30 10670 H 1008.51 -1.04077 7.6576 0
M  V30 10671 H 1006.86 -0.942881 6.88574 0
M  V30 10672 H 1010.05 -0.921188 4.58946 0
M  V30 10673 H 1010.22 -1.02653 6.39817 0
M  V30 10674 N 1003.63 -1.50653 -0.462772 0
M  V30 10675 C 1004.56 -1.64773 -1.57877 0
M  V30 10676 C 1005.54 -0.495664 -1.54861 0
M  V30 10677 O 1006.72 -0.716248 -1.74362 0
M  V30 10678 C 1003.85 -1.63796 -2.9646 0
M  V30 10679 C 1002.9 -2.84663 -3.17599 0
M  V30 10680 S 1003.73 -4.45852 -2.96608 0
M  V30 10681 C 1004.89 -4.47581 -4.37518 0
M  V30 10682 H 1005.12 -2.59172 -1.45661 0
M  V30 10683 H 1002.65 -1.40019 -0.650699 0
M  V30 10684 H 1004.61 -1.63918 -3.76353 0
M  V30 10685 H 1003.27 -0.706185 -3.06059 0
M  V30 10686 H 1002.46 -2.80308 -4.1886 0
M  V30 10687 H 1002.07 -2.82152 -2.45492 0
M  V30 10688 H 1004.36 -4.21656 -5.30295 0
M  V30 10689 H 1005.3 -5.49248 -4.46914 0
M  V30 10690 H 1005.71 -3.7719 -4.19985 0
M  V30 10691 N 1005.11 0.71652 -1.4037 0
M  V30 10692 C 1006.39 1.46947 -1.29097 0
M  V30 10693 C 1006.77 2.10903 0.0911182 0
M  V30 10694 O 1006.11 2.00068 1.10385 0
M  V30 10695 C 1006.32 2.50594 -2.42907 0
M  V30 10696 C 1007.67 3.16451 -2.83097 0
M  V30 10697 O 1008.7 2.60913 -2.42493 0
M  V30 10698 O 1007.55 4.16991 -3.53244 0
M  V30 10699 H 1004.65 0.653413 -0.506932 0
M  V30 10700 H 1007.19 0.748774 -1.52287 0
M  V30 10701 H 1005.97 2.01843 -3.35224 0
M  V30 10702 H 1005.59 3.302 -2.21481 0
M  V30 10703 N 1006.59 1.25851 0.948643 0
M  V30 10704 C 1007.53 1.06759 2.04625 0
M  V30 10705 C 1008.5 -0.0251144 1.66081 0
M  V30 10706 O 1009.69 0.133221 1.90334 0
M  V30 10707 C 1006.83 0.698724 3.37952 0
M  V30 10708 C 1005.94 1.8669 3.89578 0
M  V30 10709 C 1005.08 1.44184 5.11258 0
M  V30 10710 C 1004.12 2.57878 5.55126 0
M  V30 10711 N 1003.25 2.16106 6.68014 0
M  V30 10712 H 1008.09 2.00691 2.20289 0
M  V30 10713 H 1005.63 0.999327 1.07944 0
M  V30 10714 H 1007.59 0.465788 4.14592 0
M  V30 10715 H 1006.22 -0.203618 3.22157 0
M  V30 10716 H 1005.27 2.21298 3.09405 0
M  V30 10717 H 1006.58 2.72051 4.18079 0
M  V30 10718 H 1005.74 1.16891 5.95333 0
M  V30 10719 H 1004.47 0.559035 4.84485 0
M  V30 10720 H 1003.48 2.85909 4.69612 0
M  V30 10721 H 1004.7 3.46747 5.83904 0
M  V30 10722 H 1002.65 1.3025 6.42939 0
M  V30 10723 H 1002.57 2.95012 6.96063 0
M  V30 10724 H 1003.84 1.92005 7.55483 0
M  V30 10725 N 1008.06 -1.15214 1.07534 0
M  V30 10726 C 1009.31 -1.86319 0.800814 0
M  V30 10727 C 1009.64 -1.82221 -0.671494 0
M  V30 10728 O 1008.92 -1.24664 -1.49295 0
M  V30 10729 C 1009.2 -3.35347 1.31203 0
M  V30 10730 C 1009.05 -3.48067 2.84902 0
M  V30 10731 C 1010.37 -4.3016 0.930064 0
M  V30 10732 H 1007.49 -0.676523 0.292379 0
M  V30 10733 H 1010.13 -1.35349 1.33344 0
M  V30 10734 H 1008.28 -3.78886 0.858949 0
M  V30 10735 H 1009.96 -3.13379 3.38514 0
M  V30 10736 H 1008.2 -2.89566 3.23008 0
M  V30 10737 H 1008.87 -4.52782 3.15741 0
M  V30 10738 H 1011.35 -3.94591 1.3205 0
M  V30 10739 H 1010.22 -5.32914 1.31507 0
M  V30 10740 H 1010.48 -4.41796 -0.163824 0
M  V30 10741 N 1009.54 -0.859717 -1.32086 0
M  V30 10742 C 1010.79 -0.464662 -1.96686 0
M  V30 10743 C 1011.11 0.98412 -1.68345 0
M  V30 10744 O 1010.38 1.68847 -0.993361 0
M  V30 10745 H 1008.96 -0.168838 -0.727669 0
M  V30 10746 H 1011.62 -1.09726 -1.61079 0
M  V30 10747 H 1010.72 -0.613904 -3.06003 0
M  V30 10748 N 1011.02 1.44971 -0.618145 0
M  V30 10749 C 1011.97 2.30606 0.09449 0
M  V30 10750 C 1012.94 1.42725 0.849633 0
M  V30 10751 O 1014.12 1.71643 0.833266 0
M  V30 10752 C 1011.26 3.27803 1.07886 0
M  V30 10753 C 1010.38 4.30787 0.323488 0
M  V30 10754 C 1009.51 5.15085 1.29851 0
M  V30 10755 C 1008.55 6.09788 0.531561 0
M  V30 10756 N 1007.69 6.86829 1.4564 0
M  V30 10757 H 1012.53 2.91008 -0.641738 0
M  V30 10758 H 1010.06 1.43391 -0.328259 0
M  V30 10759 H 1012.02 3.82631 1.66281 0
M  V30 10760 H 1010.65 2.69131 1.78237 0
M  V30 10761 H 1009.7 3.78536 -0.376164 0
M  V30 10762 H 1011.02 4.98044 -0.274443 0
M  V30 10763 H 1010.17 5.74365 1.95421 0
M  V30 10764 H 1008.91 4.4787 1.93037 0
M  V30 10765 H 1007.91 5.49628 -0.137702 0
M  V30 10766 H 1009.14 6.79033 -0.0953993 0
M  V30 10767 H 1007.08 6.22295 2.07571 0
M  V30 10768 H 1007 7.50477 0.912167 0
M  V30 10769 H 1008.27 7.50642 2.10134 0
M  V30 10770 N 1012.5 0.357919 1.53482 0
M  V30 10771 C 1013.73 -0.234799 2.05261 0
M  V30 10772 C 1014.14 -1.43618 1.23169 0
M  V30 10773 O 1013.48 -1.81801 0.263435 0
M  V30 10774 C 1013.54 -0.699748 3.52624 0
M  V30 10775 C 1013.21 0.383905 4.55385 0
M  V30 10776 C 1014.2 1.23129 5.05109 0
M  V30 10777 C 1011.89 0.541953 4.99368 0
M  V30 10778 C 1013.88 2.22214 5.97411 0
M  V30 10779 C 1011.57 1.53618 5.91477 0
M  V30 10780 C 1012.57 2.37471 6.40388 0
M  V30 10781 O 1012.25 3.35199 7.30682 0
M  V30 10782 H 1011.99 -0.0465364 0.674396 0
M  V30 10783 H 1014.54 0.512355 1.98907 0
M  V30 10784 H 1012.77 -1.49838 3.5649 0
M  V30 10785 H 1014.46 -1.21461 3.87301 0
M  V30 10786 H 1015.23 1.12035 4.71883 0
M  V30 10787 H 1011.1 -0.100929 4.6089 0
M  V30 10788 H 1014.65 2.87702 6.35511 0
M  V30 10789 H 1010.55 1.64763 6.24118 0
M  V30 10790 H 1011.31 3.30838 7.48658 0
M  V30 10791 N 1013.98 -1.5736 0.0868897 0
M  V30 10792 C 1015.39 -1.81356 -0.443499 0
M  V30 10793 C 1015.74 -1.00192 -1.68689 0
M  V30 10794 O 1014.86 -0.228863 -2.15186 0
M  V30 10795 C 1015.46 -3.28941 -0.811387 0
M  V30 10796 C 1014.02 -3.53729 -1.28656 0
M  V30 10797 C 1013.16 -2.75891 -0.279153 0
M  V30 10798 H 1016.12 -1.55594 0.312427 0
M  V30 10799 H 1016.14 -3.41815 -1.6716 0
M  V30 10800 H 1015.65 -3.87987 0.0937598 0
M  V30 10801 H 1013.75 -3.00005 -2.2097 0
M  V30 10802 H 1013.86 -4.62396 -1.25406 0
M  V30 10803 H 1012.23 -2.4311 -0.759595 0
M  V30 10804 H 1013.01 -3.37682 0.618529 0
M  V30 10805 N 1015.45 0.186762 -1.56489 0
M  V30 10806 C 1016.4 1.23141 -1.95205 0
M  V30 10807 C 1017.37 1.44799 -0.81378 0
M  V30 10808 O 1018.56 1.57795 -1.07263 0
M  V30 10809 C 1015.7 2.56926 -2.30397 0
M  V30 10810 C 1014.81 2.42777 -3.57328 0
M  V30 10811 C 1013.94 3.69323 -3.81804 0
M  V30 10812 C 1012.98 3.50041 -5.02133 0
M  V30 10813 N 1012.12 4.68619 -5.2282 0
M  V30 10814 H 1016.96 0.894256 -2.84266 0
M  V30 10815 H 1014.5 0.430187 -1.40669 0
M  V30 10816 H 1016.46 3.3488 -2.4882 0
M  V30 10817 H 1015.09 2.88668 -1.44466 0
M  V30 10818 H 1014.14 1.56078 -3.46906 0
M  V30 10819 H 1015.45 2.24468 -4.45439 0
M  V30 10820 H 1014.6 4.55715 -4.00511 0
M  V30 10821 H 1013.34 3.90595 -2.92039 0
M  V30 10822 H 1012.35 2.62034 -4.8334 0
M  V30 10823 H 1013.57 3.30206 -5.93414 0
M  V30 10824 H 1011.52 4.90139 -4.36005 0
M  V30 10825 H 1011.44 4.53165 -6.05126 0
M  V30 10826 H 1012.7 5.56338 -5.45993 0
M  V30 10827 N 1016.93 1.50896 0.454776 0
M  V30 10828 C 1017.84 1.73762 1.5762 0
M  V30 10829 C 1018.86 0.621206 1.62533 0
M  V30 10830 O 1020.03 0.901449 1.801 0
M  V30 10831 C 1017.1 1.84183 2.9373 0
M  V30 10832 C 1016.16 3.07982 2.99075 0
M  V30 10833 C 1015.39 3.17896 4.28693 0
M  V30 10834 O 1015.62 2.34184 5.20109 0
M  V30 10835 O 1014.55 4.10749 4.39964 0
M  V30 10836 H 1018.38 2.68856 1.41245 0
M  V30 10837 H 1015.96 1.35187 0.635984 0
M  V30 10838 H 1017.84 1.93123 3.74542 0
M  V30 10839 H 1016.52 0.922742 3.10269 0
M  V30 10840 H 1015.43 3.04531 2.17282 0
M  V30 10841 H 1016.76 3.99523 2.87476 0
M  V30 10842 N 1018.41 -0.709066 1.40748 0
M  V30 10843 C 1019.34 -1.83583 1.4429 0
M  V30 10844 C 1020.32 -1.67378 0.303067 0
M  V30 10845 O 1021.51 -1.87312 0.512612 0
M  V30 10846 C 1018.64 -3.21599 1.31116 0
M  V30 10847 C 1017.59 -3.52486 2.4277 0
M  V30 10848 C 1016.92 -4.89716 2.14668 0
M  V30 10849 C 1018.22 -3.52824 3.85113 0
M  V30 10850 H 1019.91 -1.80876 2.38588 0
M  V30 10851 H 1017.46 -0.868795 1.14839 0
M  V30 10852 H 1019.41 -4.00123 1.32209 0
M  V30 10853 H 1018.13 -3.24898 0.332965 0
M  V30 10854 H 1016.79 -2.76305 2.40937 0
M  V30 10855 H 1016.44 -4.89625 1.15224 0
M  V30 10856 H 1016.14 -5.11347 2.89478 0
M  V30 10857 H 1017.66 -5.70566 2.17455 0
M  V30 10858 H 1019.08 -4.21377 3.88734 0
M  V30 10859 H 1017.48 -3.85984 4.59496 0
M  V30 10860 H 1018.55 -2.52073 4.14231 0
M  V30 10861 N 1019.89 -1.26353 -0.941956 0
M  V30 10862 C 1021.31 -1.03448 -1.21534 0
M  V30 10863 C 1021.51 0.240855 -2.00055 0
M  V30 10864 O 1020.56 0.950199 -2.33939 0
M  V30 10865 C 1021.87 -2.2654 -1.97737 0
M  V30 10866 C 1023.42 -2.31433 -2.10731 0
M  V30 10867 C 1023.9 -3.54216 -2.90336 0
M  V30 10868 N 1025.39 -3.54688 -2.9791 0
M  V30 10869 C 1026.12 -4.4636 -3.59931 0
M  V30 10870 N 1025.62 -5.48319 -4.2346 0
M  V30 10871 N 1027.41 -4.34013 -3.57196 0
M  V30 10872 H 1019.56 -2.08266 -0.417005 0
M  V30 10873 H 1021.83 -0.915251 -0.247021 0
M  V30 10874 H 1021.53 -3.19299 -1.47449 0
M  V30 10875 H 1021.41 -2.30726 -2.98405 0
M  V30 10876 H 1023.79 -1.3919 -2.60212 0
M  V30 10877 H 1023.87 -2.31259 -1.09329 0
M  V30 10878 H 1023.52 -4.46788 -2.41543 0
M  V30 10879 H 1023.45 -3.51637 -3.91993 0
M  V30 10880 H 1025.94 -2.80942 -2.52745 0
M  V30 10881 H 1026.25 -6.14458 -4.6868 0
M  V30 10882 H 1024.6 -5.52177 -4.22049 0
M  V30 10883 H 1027.79 -3.53578 -3.06758 0
M  V30 10884 H 1027.96 -5.0565 -4.05244 0
M  V30 10885 N 1021.37 1.14642 -1.08144 0
M  V30 10886 C 1022.31 2.1964 -0.708995 0
M  V30 10887 C 1023.28 1.63303 0.303512 0
M  V30 10888 O 1024.47 1.8987 0.18813 0
M  V30 10889 C 1021.61 3.44886 -0.121585 0
M  V30 10890 C 1020.72 4.15386 -1.18654 0
M  V30 10891 C 1019.86 5.28205 -0.56328 0
M  V30 10892 C 1018.9 5.90534 -1.61046 0
M  V30 10893 N 1018.03 6.94809 -1.00919 0
M  V30 10894 H 1022.87 2.50848 -1.6087 0
M  V30 10895 H 1020.41 1.23185 -0.803975 0
M  V30 10896 H 1022.37 4.16528 0.23668 0
M  V30 10897 H 1021 3.14169 0.741445 0
M  V30 10898 H 1020.05 3.42159 -1.66227 0
M  V30 10899 H 1021.36 4.57809 -1.9802 0
M  V30 10900 H 1020.52 6.06507 -0.153109 0
M  V30 10901 H 1019.26 4.86995 0.262066 0
M  V30 10902 H 1018.26 5.10938 -2.03033 0
M  V30 10903 H 1019.49 6.33819 -2.43824 0
M  V30 10904 H 1017.43 6.5568 -0.204894 0
M  V30 10905 H 1017.35 7.35704 -1.73999 0
M  V30 10906 H 1018.62 7.76992 -0.624792 0
M  V30 10907 N 1022.85 0.866709 1.31628 0
M  V30 10908 C 1024.09 0.482479 1.98624 0
M  V30 10909 C 1024.45 -0.946844 1.6703 0
M  V30 10910 O 1025.65 -1.43626 2.27212 0
M  V30 10911 C 1023.92 0.728582 3.49895 0
M  V30 10912 S 1025.48 0.443724 4.36551 0
M  V30 10913 H 1022.3 0.180238 0.687776 0
M  V30 10914 H 1024.9 1.12203 1.60096 0
M  V30 10915 H 1023.6 1.76769 3.70379 0
M  V30 10916 H 1023.14 0.075903 3.93327 0
M  V30 10917 H 1025.15 -0.72534 4.9087 0
M  V30 10918 N 1024.32 -1.44642 0.625825 0
M  V30 10919 C 1025.56 -2.03977 0.131444 0
M  V30 10920 C 1025.93 -1.48122 -1.22163 0
M  V30 10921 O 1027.13 -1.98926 -1.80781 0
M  V30 10922 C 1025.4 -3.57224 0.112032 0
M  V30 10923 S 1026.96 -4.37643 -0.318501 0
M  V30 10924 H 1023.78 -0.70859 0.0584859 0
M  V30 10925 H 1026.38 -1.77099 0.828024 0
M  V30 10926 H 1025.08 -3.95383 1.10001 0
M  V30 10927 H 1024.61 -3.88705 -0.605965 0
M  V30 10928 H 1026.63 -4.70909 -1.56393 0
M  V30 10929 N 1025.8 -0.366053 -1.5329 0
M  V30 10930 C 1026.71 0.488111 -2.29466 0
M  V30 10931 C 1027.73 1.09219 -1.35452 0
M  V30 10932 O 1028.9 1.10303 -1.68509 0
M  V30 10933 C 1025.97 1.61202 -3.06944 0
M  V30 10934 C 1025.03 1.03543 -4.16626 0
M  V30 10935 C 1024.26 2.10578 -4.904 0
M  V30 10936 O 1024.49 3.31697 -4.6404 0
M  V30 10937 O 1023.42 1.73609 -5.76319 0
M  V30 10938 H 1027.25 -0.131789 -3.03414 0
M  V30 10939 H 1024.83 -0.130421 -1.4883 0
M  V30 10940 H 1026.71 2.26546 -3.55324 0
M  V30 10941 H 1025.39 2.21732 -2.35832 0
M  V30 10942 H 1024.29 0.345892 -3.72498 0
M  V30 10943 H 1025.63 0.474687 -4.89906 0
M  V30 10944 N 1027.28 1.57312 -0.0952337 0
M  V30 10945 C 1028.56 1.85822 0.610715 0
M  V30 10946 C 1028.94 0.992114 1.86334 0
M  V30 10947 O 1028.28 0.0645669 2.28409 0
M  V30 10948 C 1028.49 3.36492 0.925967 0
M  V30 10949 C 1029.84 4.0455 1.28936 0
M  V30 10950 O 1030.87 3.41374 1.01698 0
M  V30 10951 O 1029.73 5.16024 1.79949 0
M  V30 10952 H 1026.82 0.768454 0.305626 0
M  V30 10953 H 1029.37 1.69217 -0.127941 0
M  V30 10954 H 1028.14 3.91282 0.0373127 0
M  V30 10955 H 1027.76 3.58443 1.7206 0
M  V30 10956 N 1028.76 -0.17846 1.56586 0
M  V30 10957 C 1030.01 -0.894464 1.81228 0
M  V30 10958 C 1030.33 -1.83089 0.671062 0
M  V30 10959 O 1029.6 -1.93439 -0.309557 0
M  V30 10960 H 1028.18 -0.333288 0.668527 0
M  V30 10961 H 1030.84 -0.179986 1.94067 0
M  V30 10962 H 1029.93 -1.47565 2.75011 0
M  V30 10963 N 1030.24 -1.51135 -0.446768 0
M  V30 10964 C 1031.17 -1.66438 -1.56121 0
M  V30 10965 C 1032.15 -0.512061 -1.54327 0
M  V30 10966 O 1033.33 -0.734702 -1.73593 0
M  V30 10967 C 1030.46 -1.66932 -2.94706 0
M  V30 10968 C 1029.5 -2.88016 -3.14562 0
M  V30 10969 S 1030.34 -4.48973 -2.91863 0
M  V30 10970 C 1031.49 -4.52196 -4.32746 0
M  V30 10971 H 1031.73 -2.60702 -1.42904 0
M  V30 10972 H 1029.26 -1.40701 -0.635812 0
M  V30 10973 H 1031.22 -1.679 -3.74593 0
M  V30 10974 H 1029.88 -0.738607 -3.05292 0
M  V30 10975 H 1029.07 -2.84735 -4.15863 0
M  V30 10976 H 1028.67 -2.8474 -2.42485 0
M  V30 10977 H 1030.96 -4.27256 -5.25793 0
M  V30 10978 H 1031.91 -5.53957 -4.41064 0
M  V30 10979 H 1032.32 -3.81624 -4.15961 0
M  V30 10980 N 1031.71 0.701592 -1.41122 0
M  V30 10981 C 1033.13 1.01143 -1.23459 0
M  V30 10982 C 1033.33 2.01144 -0.11968 0
M  V30 10983 O 1032.39 2.47132 0.517889 0
M  V30 10984 C 1033.7 1.54179 -2.58165 0
M  V30 10985 C 1035.25 1.66093 -2.65296 0
M  V30 10986 C 1035.72 2.22532 -4.00304 0
M  V30 10987 N 1037.21 2.299 -4.0212 0
M  V30 10988 C 1037.95 2.74584 -5.0338 0
M  V30 10989 N 1037.44 3.18917 -6.15032 0
M  V30 10990 N 1039.24 2.74094 -4.90743 0
M  V30 10991 H 1031.39 0.0390087 -2.12364 0
M  V30 10992 H 1033.65 0.0798848 -0.944628 0
M  V30 10993 H 1033.36 0.881587 -3.40472 0
M  V30 10994 H 1033.23 2.52488 -2.80231 0
M  V30 10995 H 1035.62 2.31227 -1.83352 0
M  V30 10996 H 1035.7 0.663461 -2.47046 0
M  V30 10997 H 1035.34 1.58016 -4.82694 0
M  V30 10998 H 1035.27 3.2302 -4.15891 0
M  V30 10999 H 1037.76 1.98607 -3.21502 0
M  V30 11000 H 1038.08 3.5162 -6.88174 0
M  V30 11001 H 1036.42 3.1684 -6.18577 0
M  V30 11002 H 1039.61 2.38804 -4.02604 0
M  V30 11003 H 1039.79 3.086 -5.69798 0
M  V30 11004 N 1033.19 1.2685 0.935242 0
M  V30 11005 C 1034.1 1.10716 2.06831 0
M  V30 11006 C 1035.12 0.0391222 1.73956 0
M  V30 11007 O 1036.29 0.244071 1.99916 0
M  V30 11008 C 1033.36 0.748093 3.38533 0
M  V30 11009 C 1032.42 1.89619 3.85153 0
M  V30 11010 C 1031.65 1.55416 5.1057 0
M  V30 11011 O 1031.88 0.458596 5.68553 0
M  V30 11012 O 1030.81 2.39087 5.52378 0
M  V30 11013 H 1034.64 2.05785 2.23352 0
M  V30 11014 H 1032.22 1.05967 1.05315 0
M  V30 11015 H 1034.1 0.560841 4.17651 0
M  V30 11016 H 1032.78 -0.173142 3.23237 0
M  V30 11017 H 1031.68 2.13845 3.06954 0
M  V30 11018 H 1033.02 2.79737 4.04979 0
M  V30 11019 N 1034.67 -1.14067 1.0875 0
M  V30 11020 C 1035.62 -2.21332 0.715195 0
M  V30 11021 C 1036.61 -1.67059 -0.280679 0
M  V30 11022 O 1037.82 -1.79432 -0.142874 0
M  V30 11023 H 1034.19 -0.721126 0.213264 0
M  V30 11024 H 1036.16 -2.50002 1.62916 0
M  V30 11025 C 1034.91 -3.474 0.144401 0
M  V30 11026 H 1034.24 -3.89495 0.901884 0
M  V30 11027 H 1035.68 -4.23928 -0.0782564 0
M  V30 11028 C 1034.14 -3.17787 -1.11862 0
M  V30 11029 O 1034.67 -3.35906 -2.20295 0
M  V30 11030 N 1032.87 -2.71719 -1.03039 0
M  V30 11031 H 1032.42 -2.57175 -0.14793 0
M  V30 11032 H 1032.38 -2.52281 -1.87621 0
M  V30 11033 N 1036.15 -0.873678 -1.31166 0
M  V30 11034 C 1037.56 -0.53852 -1.78765 0
M  V30 11035 C 1037.91 0.944765 -1.71955 0
M  V30 11036 O 1037.04 1.73781 -1.28954 0
M  V30 11037 C 1037.63 -0.970749 -3.24595 0
M  V30 11038 C 1036.19 -0.687189 -3.70074 0
M  V30 11039 C 1035.34 -1.16001 -2.51871 0
M  V30 11040 H 1038.29 -1.05903 -1.18196 0
M  V30 11041 H 1038.31 -0.294966 -3.79355 0
M  V30 11042 H 1037.82 -2.05034 -3.29519 0
M  V30 11043 H 1035.92 0.380881 -3.70648 0
M  V30 11044 H 1036.03 -1.26682 -4.62048 0
M  V30 11045 H 1034.4 -0.579663 -2.48016 0
M  V30 11046 H 1035.18 -2.2471 -2.59539 0
M  V30 11047 N 1037.63 1.44308 -0.633487 0
M  V30 11048 C 1038.56 2.27887 0.119397 0
M  V30 11049 C 1039.54 1.38676 0.848981 0
M  V30 11050 O 1040.72 1.68116 0.85259 0
M  V30 11051 C 1037.85 3.17658 1.17521 0
M  V30 11052 C 1036.89 4.22992 0.54589 0
M  V30 11053 S 1037.73 5.31345 -0.6658 0
M  V30 11054 C 1038.88 6.24684 0.389965 0
M  V30 11055 H 1039.12 2.91394 -0.589638 0
M  V30 11056 H 1036.65 1.48529 -0.421727 0
M  V30 11057 H 1038.61 3.69929 1.77941 0
M  V30 11058 H 1037.27 2.53367 1.85645 0
M  V30 11059 H 1036.46 4.85828 1.34115 0
M  V30 11060 H 1036.06 3.73996 0.0162506 0
M  V30 11061 H 1038.36 6.65645 1.26185 0
M  V30 11062 H 1039.3 7.07809 -0.202878 0
M  V30 11063 H 1039.71 5.59929 0.716922 0
M  V30 11064 N 1039.1 0.374177 1.53094 0
M  V30 11065 C 1040.52 0.0234783 1.59583 0
M  V30 11066 C 1040.72 -1.45984 1.38892 0
M  V30 11067 O 1039.78 -2.22251 1.19836 0
M  V30 11068 C 1041.09 0.487117 2.96728 0
M  V30 11069 C 1042.64 0.442073 3.09862 0
M  V30 11070 C 1043.11 0.881659 4.49434 0
M  V30 11071 N 1044.6 0.837062 4.55574 0
M  V30 11072 C 1045.34 1.14878 5.61774 0
M  V30 11073 N 1044.83 1.53022 6.75689 0
M  V30 11074 N 1046.63 1.07102 5.51802 0
M  V30 11075 H 1038.78 1.34003 1.64794 0
M  V30 11076 H 1041.04 0.548281 0.773364 0
M  V30 11077 H 1040.75 1.52252 3.17037 0
M  V30 11078 H 1040.62 -0.121772 3.77003 0
M  V30 11079 H 1043.01 -0.584216 2.89259 0
M  V30 11080 H 1043.09 1.08657 2.31576 0
M  V30 11081 H 1042.73 1.90611 4.70776 0
M  V30 11082 H 1042.66 0.214326 5.26164 0
M  V30 11083 H 1045.15 0.556173 3.73785 0
M  V30 11084 H 1045.47 1.75211 7.52676 0
M  V30 11085 H 1043.81 1.56895 6.77059 0
M  V30 11086 H 1047 0.772149 4.61688 0
M  V30 11087 H 1047.18 1.31728 6.3447 0
M  V30 11088 N 1040.58 -1.57259 0.103575 0
M  V30 11089 C 1041.83 -1.94657 -0.558126 0
M  V30 11090 C 1042.16 -0.985886 -1.67662 0
M  V30 11091 O 1041.41 -0.0069745 -1.95699 0
M  V30 11092 C 1041.71 -3.38549 -1.14538 0
M  V30 11093 C 1041.38 -4.50651 -0.149818 0
M  V30 11094 C 1040.04 -4.8104 0.12398 0
M  V30 11095 C 1042.39 -5.18503 0.529497 0
M  V30 11096 C 1039.72 -5.76606 1.08364 0
M  V30 11097 C 1042.07 -6.15099 1.47769 0
M  V30 11098 C 1040.74 -6.43889 1.75963 0
M  V30 11099 H 1040.01 -0.712299 -0.204233 0
M  V30 11100 H 1042.65 -1.90641 0.181208 0
M  V30 11101 H 1040.96 -3.39185 -1.96115 0
M  V30 11102 H 1042.65 -3.6479 -1.66521 0
M  V30 11103 H 1039.24 -4.2697 -0.373404 0
M  V30 11104 H 1043.43 -4.95194 0.331121 0
M  V30 11105 H 1038.68 -5.97223 1.30899 0
M  V30 11106 H 1042.86 -6.66767 2.00983 0
M  V30 11107 H 1040.49 -7.17749 2.50481 0
M  V30 11108 N 1042.06 0.170153 -1.56679 0
M  V30 11109 C 1043.29 0.90618 -1.86556 0
M  V30 11110 C 1043.71 1.74986 -0.690044 0
M  V30 11111 O 1043.07 1.77672 0.360862 0
M  V30 11112 C 1043.12 1.75777 -3.14857 0
M  V30 11113 O 1042.22 2.85952 -2.97162 0
M  V30 11114 H 1041.56 0.253781 -0.613589 0
M  V30 11115 H 1044.09 0.167943 -2.0391 0
M  V30 11116 H 1044.1 2.15747 -3.46291 0
M  V30 11117 H 1042.78 1.13807 -4.00026 0
M  V30 11118 H 1041.35 2.49557 -2.77084 0
M  V30 11119 N 1043.54 1.5137 0.438746 0
M  V30 11120 C 1044.78 1.65627 1.19779 0
M  V30 11121 C 1045.14 0.363885 1.8852 0
M  V30 11122 O 1046.34 0.382215 2.66069 0
M  V30 11123 C 1044.61 2.82536 2.18879 0
M  V30 11124 S 1046.17 3.17113 3.0329 0
M  V30 11125 H 1042.99 0.583535 0.406212 0
M  V30 11126 H 1045.59 1.89271 0.489582 0
M  V30 11127 H 1044.3 3.74879 1.67015 0
M  V30 11128 H 1043.83 2.61077 2.94283 0
M  V30 11129 H 1045.84 2.63439 4.20493 0
M  V30 11130 N 1045.02 -0.694098 1.41492 0
M  V30 11131 C 1045.95 -1.81943 1.39389 0
M  V30 11132 C 1046.96 -1.6009 0.295836 0
M  V30 11133 O 1048.15 -1.69565 0.557658 0
M  V30 11134 C 1045.25 -3.18731 1.15167 0
M  V30 11135 C 1044.42 -3.67601 2.37041 0
M  V30 11136 C 1043.48 -4.83063 2.08654 0
M  V30 11137 O 1042.51 -4.94603 2.81704 0
M  V30 11138 N 1043.71 -5.70409 1.0777 0
M  V30 11139 H 1046.48 -1.84239 2.36381 0
M  V30 11140 H 1044.04 -0.876475 1.36123 0
M  V30 11141 H 1046.03 -3.93602 0.941264 0
M  V30 11142 H 1044.6 -3.11452 0.267673 0
M  V30 11143 H 1043.82 -2.83622 2.73774 0
M  V30 11144 H 1045.11 -3.96991 3.18239 0
M  V30 11145 H 1044.5 -5.63718 0.473123 0
M  V30 11146 H 1043.06 -6.45172 0.927177 0
M  V30 11147 N 1046.49 -1.27344 -0.928501 0
M  V30 11148 C 1047.91 -1.04732 -1.2043 0
M  V30 11149 C 1048.11 0.219623 -2.003 0
M  V30 11150 O 1047.17 0.925333 -2.34934 0
M  V30 11151 C 1048.48 -2.28625 -1.95323 0
M  V30 11152 C 1050.03 -2.33655 -2.08265 0
M  V30 11153 C 1050.5 -3.57275 -2.86563 0
M  V30 11154 N 1051.99 -3.57828 -2.94132 0
M  V30 11155 C 1052.73 -4.50152 -3.55177 0
M  V30 11156 N 1052.22 -5.52779 -4.17621 0
M  V30 11157 N 1054.02 -4.37777 -3.52573 0
M  V30 11158 H 1046.17 -2.08697 -0.394892 0
M  V30 11159 H 1048.43 -0.91782 -0.2373 0
M  V30 11160 H 1048.14 -3.20845 -1.44054 0
M  V30 11161 H 1048.01 -2.33878 -2.95941 0
M  V30 11162 H 1050.4 -1.41942 -2.58721 0
M  V30 11163 H 1050.48 -2.32406 -1.0687 0
M  V30 11164 H 1050.12 -4.49325 -2.3679 0
M  V30 11165 H 1050.05 -3.55775 -3.88242 0
M  V30 11166 H 1052.54 -2.83607 -2.49751 0
M  V30 11167 H 1052.86 -6.19394 -4.62137 0
M  V30 11168 H 1051.2 -5.56622 -4.16169 0
M  V30 11169 H 1054.39 -3.56811 -3.02991 0
M  V30 11170 H 1054.57 -5.09919 -3.99858 0
M  V30 11171 N 1047.97 1.13488 -1.09353 0
M  V30 11172 C 1049.39 1.36739 -0.823086 0
M  V30 11173 C 1049.59 1.93476 0.562963 0
M  V30 11174 O 1048.64 2.15374 1.31796 0
M  V30 11175 C 1049.96 2.31943 -1.91371 0
M  V30 11176 C 1051.51 2.4556 -1.94085 0
M  V30 11177 C 1051.98 3.44072 -3.02289 0
M  V30 11178 N 1053.47 3.51622 -3.01524 0
M  V30 11179 C 1054.21 4.27724 -3.8189 0
M  V30 11180 N 1053.7 5.06987 -4.72161 0
M  V30 11181 N 1055.5 4.23018 -3.70152 0
M  V30 11182 H 1047.65 0.75012 -1.98713 0
M  V30 11183 H 1049.91 0.392564 -0.862901 0
M  V30 11184 H 1049.62 1.97408 -2.91072 0
M  V30 11185 H 1049.49 3.31952 -1.79131 0
M  V30 11186 H 1051.88 2.79382 -0.950234 0
M  V30 11187 H 1051.96 1.45479 -2.10403 0
M  V30 11188 H 1051.6 3.10981 -4.01564 0
M  V30 11189 H 1051.53 4.43956 -2.83214 0
M  V30 11190 H 1054.02 2.95066 -2.36103 0
M  V30 11191 H 1054.34 5.6236 -5.30067 0
M  V30 11192 H 1052.68 5.06222 -4.76197 0
M  V30 11193 H 1055.87 3.60171 -2.98989 0
M  V30 11194 H 1056.04 4.82075 -4.33022 0
M  V30 11195 N 1049.45 0.880621 1.30701 0
M  V30 11196 C 1050.68 0.511682 2.00473 0
M  V30 11197 C 1051.09 -0.898684 1.6604 0
M  V30 11198 O 1050.45 -1.59035 0.895218 0
M  V30 11199 C 1050.5 0.671723 3.55204 0
M  V30 11200 O 1050.22 2.02656 3.8841 0
M  V30 11201 C 1051.72 0.3052 4.42248 0
M  V30 11202 H 1048.94 0.198231 0.64105 0
M  V30 11203 H 1051.49 1.18472 1.66687 0
M  V30 11204 H 1049.64 0.0461066 3.87373 0
M  V30 11205 H 1050.06 2.04202 4.83117 0
M  V30 11206 H 1051.53 0.468095 5.50012 0
M  V30 11207 H 1052.01 -0.756456 4.32637 0
M  V30 11208 H 1052.61 0.906959 4.15517 0
M  V30 11209 N 1050.93 -1.4397 0.641131 0
M  V30 11210 C 1052.35 -1.56607 0.30762 0
M  V30 11211 C 1052.55 -1.62694 -1.18882 0
M  V30 11212 O 1051.6 -1.57541 -1.97325 0
M  V30 11213 C 1052.91 -2.83289 1.00834 0
M  V30 11214 C 1054.46 -2.97016 0.98744 0
M  V30 11215 C 1054.94 -4.26514 1.66882 0
M  V30 11216 N 1056.43 -4.33351 1.63589 0
M  V30 11217 C 1057.16 -5.32292 2.13196 0
M  V30 11218 N 1056.66 -6.37582 2.71038 0
M  V30 11219 N 1058.45 -5.23866 2.03766 0
M  V30 11220 H 1050.6 -1.38262 1.61237 0
M  V30 11221 H 1052.87 -0.663221 0.677378 0
M  V30 11222 H 1052.57 -2.84812 2.06337 0
M  V30 11223 H 1052.45 -3.73134 0.552333 0
M  V30 11224 H 1054.83 -2.95041 -0.0591395 0
M  V30 11225 H 1054.91 -2.08493 1.48203 0
M  V30 11226 H 1054.56 -4.2925 2.71491 0
M  V30 11227 H 1054.49 -5.13912 1.14898 0
M  V30 11228 H 1056.98 -3.5788 1.21368 0
M  V30 11229 H 1057.29 -7.09378 3.06597 0
M  V30 11230 H 1055.64 -6.38239 2.75093 0
M  V30 11231 H 1058.83 -4.40524 1.58291 0
M  V30 11232 H 1059 -6.00819 2.42737 0
M  V30 11233 N 1052.41 -0.382291 -1.52893 0
M  V30 11234 C 1053.65 0.202133 -2.01489 0
M  V30 11235 C 1053.98 1.47399 -1.26901 0
M  V30 11236 O 1053.24 1.92439 -0.355771 0
M  V30 11237 C 1053.54 0.523437 -3.53546 0
M  V30 11238 C 1053.2 -0.656042 -4.46102 0
M  V30 11239 C 1051.86 -0.979633 -4.71123 0
M  V30 11240 C 1054.22 -1.44545 -5.00756 0
M  V30 11241 C 1051.54 -2.0943 -5.48047 0
M  V30 11242 C 1053.9 -2.55066 -5.78899 0
M  V30 11243 C 1052.56 -2.87942 -6.02201 0
M  V30 11244 H 1051.83 0.0739659 -0.737299 0
M  V30 11245 H 1054.48 -0.518196 -1.84356 0
M  V30 11246 H 1052.78 1.325 -3.68715 0
M  V30 11247 H 1054.48 0.988148 -3.88634 0
M  V30 11248 H 1051.07 -0.393818 -4.26787 0
M  V30 11249 H 1055.25 -1.20869 -4.81357 0
M  V30 11250 H 1050.51 -2.3528 -5.64317 0
M  V30 11251 H 1054.68 -3.1664 -6.20252 0
M  V30 11252 H 1052.31 -3.74435 -6.61591 0
M  V30 11253 N 1053.89 1.57202 -0.111913 0
M  V30 11254 C 1055.13 1.94125 0.547573 0
M  V30 11255 C 1055.45 0.997026 1.68282 0
M  V30 11256 O 1056.65 1.26063 2.40459 0
M  V30 11257 C 1055.11 3.44982 1.02545 0
M  V30 11258 C 1054.72 4.47927 -0.0809529 0
M  V30 11259 C 1056.46 3.90837 1.65671 0
M  V30 11260 C 1054.37 5.89955 0.413224 0
M  V30 11261 H 1053.3 0.724651 0.208321 0
M  V30 11262 H 1055.95 1.82507 -0.190625 0
M  V30 11263 H 1054.33 3.5181 1.81785 0
M  V30 11264 H 1055.51 4.52761 -0.857003 0
M  V30 11265 H 1053.82 4.11782 -0.618434 0
M  V30 11266 H 1056.42 4.9436 2.03746 0
M  V30 11267 H 1056.76 3.30417 2.53239 0
M  V30 11268 H 1057.29 3.8678 0.929844 0
M  V30 11269 H 1054.03 6.54113 -0.426238 0
M  V30 11270 H 1053.55 5.88557 1.15591 0
M  V30 11271 H 1055.23 6.41032 0.876756 0
M  V30 11272 N 1055.36 -0.161842 1.56767 0
M  V30 11273 C 1056.59 -0.896274 1.87034 0
M  V30 11274 C 1057.01 -1.74617 0.699314 0
M  V30 11275 O 1056.37 -1.77861 -0.351435 0
M  V30 11276 C 1056.42 -1.74105 3.15784 0
M  V30 11277 O 1055.52 -2.84372 2.98674 0
M  V30 11278 H 1054.86 -0.250523 0.614926 0
M  V30 11279 H 1057.39 -0.157127 2.03996 0
M  V30 11280 H 1057.4 -2.13907 3.4743 0
M  V30 11281 H 1056.08 -1.11684 4.00624 0
M  V30 11282 H 1054.66 -2.48084 2.78404 0
M  V30 11283 N 1056.84 -1.516 -0.430713 0
M  V30 11284 C 1057.77 -1.76342 -1.53054 0
M  V30 11285 C 1058.75 -0.61349 -1.58652 0
M  V30 11286 O 1059.94 -0.856888 -1.74273 0
M  V30 11287 C 1057.07 -1.8945 -2.91077 0
M  V30 11288 C 1056.02 -3.04928 -3.00339 0
M  V30 11289 C 1055.35 -3.03228 -4.40405 0
M  V30 11290 C 1056.65 -4.44777 -2.73808 0
M  V30 11291 H 1058.34 -2.68435 -1.326 0
M  V30 11292 H 1055.89 -1.29171 -0.636466 0
M  V30 11293 H 1057.84 -2.05343 -3.67984 0
M  V30 11294 H 1056.56 -0.940114 -3.12777 0
M  V30 11295 H 1055.22 -2.88751 -2.25872 0
M  V30 11296 H 1054.87 -2.05553 -4.59083 0
M  V30 11297 H 1054.57 -3.80776 -4.47531 0
M  V30 11298 H 1056.1 -3.21222 -5.19277 0
M  V30 11299 H 1057.51 -4.6127 -3.40445 0
M  V30 11300 H 1055.91 -5.2408 -2.92335 0
M  V30 11301 H 1056.98 -4.54358 -1.69372 0
M  V30 11302 N 1058.32 0.686584 -1.41858 0
M  V30 11303 C 1059.57 1.44379 -1.41418 0
M  V30 11304 C 1059.89 1.94981 -0.0273696 0
M  V30 11305 O 1059.16 1.72296 0.932248 0
M  V30 11306 H 1057.74 0.53574 -0.520568 0
M  V30 11307 H 1060.4 0.812056 -1.77177 0
M  V30 11308 H 1059.5 2.30258 -2.10684 0
M  V30 11309 N 1059.8 1.27835 0.921735 0
M  V30 11310 C 1060.71 1.12904 2.05645 0
M  V30 11311 C 1061.72 0.0575704 1.73905 0
M  V30 11312 O 1062.9 0.265261 1.99645 0
M  V30 11313 C 1059.96 0.783957 3.3772 0
M  V30 11314 C 1059.03 1.93694 3.8312 0
M  V30 11315 C 1058.26 1.60823 5.08893 0
M  V30 11316 O 1058.48 0.518873 5.68035 0
M  V30 11317 O 1057.42 2.44932 5.49811 0
M  V30 11318 H 1061.24 2.08143 2.21157 0
M  V30 11319 H 1058.83 1.07078 1.04185 0
M  V30 11320 H 1060.71 0.605107 4.17033 0
M  V30 11321 H 1059.38 -0.138849 3.23402 0
M  V30 11322 H 1058.29 2.17089 3.04669 0
M  V30 11323 H 1059.62 2.84016 4.0199 0
M  V30 11324 N 1061.28 -1.12907 1.09954 0
M  V30 11325 C 1062.24 -2.16673 0.747364 0
M  V30 11326 C 1063.24 -1.59208 -0.225741 0
M  V30 11327 O 1064.43 -1.742 -0.00322482 0
M  V30 11328 C 1061.56 -3.40735 0.106169 0
M  V30 11329 H 1062.75 -2.49341 1.6664 0
M  V30 11330 H 1060.31 -1.27828 0.899421 0
M  V30 11331 H 1061.04 -3.13661 -0.82384 0
M  V30 11332 H 1060.83 -3.83717 0.806434 0
M  V30 11333 H 1062.32 -4.17414 -0.12464 0
M  V30 11334 N 1062.75 -0.88754 -1.30232 0
M  V30 11335 C 1063.99 -0.514017 -1.97831 0
M  V30 11336 C 1064.36 0.920151 -1.68515 0
M  V30 11337 O 1065.56 1.39993 -2.29468 0
M  V30 11338 C 1063.83 -0.784155 -3.48692 0
M  V30 11339 S 1065.39 -0.513119 -4.3579 0
M  V30 11340 H 1062.21 -0.191157 -0.684821 0
M  V30 11341 H 1064.81 -1.14736 -1.58291 0
M  V30 11342 H 1063.51 -1.82639 -3.6752 0
M  V30 11343 H 1063.04 -0.138468 -3.93156 0
M  V30 11344 H 1065.06 0.647155 -4.91962 0
M  V30 11345 N 1064.23 1.43628 -0.648757 0
M  V30 11346 C 1065.18 2.30755 0.0455536 0
M  V30 11347 C 1066.15 1.44495 0.819168 0
M  V30 11348 O 1067.33 1.73372 0.79667 0
M  V30 11349 C 1064.47 3.30017 1.00908 0
M  V30 11350 C 1063.59 4.31376 0.232039 0
M  V30 11351 C 1062.72 5.17723 1.18897 0
M  V30 11352 C 1061.76 6.10778 0.402096 0
M  V30 11353 N 1060.9 6.89763 1.31038 0
M  V30 11354 H 1065.74 2.89581 -0.70332 0
M  V30 11355 H 1063.28 1.42662 -0.3586 0
M  V30 11356 H 1065.23 3.86072 1.58128 0
M  V30 11357 H 1063.86 2.72851 1.72488 0
M  V30 11358 H 1062.92 3.77652 -0.456373 0
M  V30 11359 H 1064.23 4.9735 -0.380023 0
M  V30 11360 H 1063.38 5.78381 1.83194 0
M  V30 11361 H 1062.12 4.51864 1.83494 0
M  V30 11362 H 1061.13 5.49212 -0.254255 0
M  V30 11363 H 1062.35 6.78678 -0.239411 0
M  V30 11364 H 1060.3 6.26557 1.94324 0
M  V30 11365 H 1060.21 7.52243 0.752774 0
M  V30 11366 H 1061.48 7.54931 1.94164 0
M  V30 11367 N 1065.71 0.390394 1.52688 0
M  V30 11368 C 1066.66 -0.444229 2.26485 0
M  V30 11369 C 1067.63 -1.05688 1.28138 0
M  V30 11370 O 1068.81 -1.0847 1.56968 0
M  V30 11371 C 1065.95 -1.56501 3.07574 0
M  V30 11372 C 1065.07 -0.975111 4.20851 0
M  V30 11373 C 1064.2 -2.06704 4.89333 0
M  V30 11374 C 1063.24 -1.45309 5.94602 0
M  V30 11375 N 1062.38 -2.48437 6.56676 0
M  V30 11376 H 1067.22 0.191535 2.97384 0
M  V30 11377 H 1064.75 0.106287 1.46716 0
M  V30 11378 H 1066.71 -2.22558 3.52879 0
M  V30 11379 H 1065.34 -2.17107 2.38881 0
M  V30 11380 H 1064.39 -0.204109 3.79852 0
M  V30 11381 H 1065.71 -0.486465 4.96422 0
M  V30 11382 H 1064.86 -2.80528 5.37949 0
M  V30 11383 H 1063.6 -2.58928 4.13289 0
M  V30 11384 H 1062.6 -0.700091 5.45324 0
M  V30 11385 H 1063.83 -0.938775 6.7258 0
M  V30 11386 H 1061.77 -2.99829 5.83471 0
M  V30 11387 H 1061.69 -2.04331 7.27863 0
M  V30 11388 H 1062.96 -3.21888 7.09935 0
M  V30 11389 N 1067.19 -1.57141 0.120249 0
M  V30 11390 C 1068.43 -1.95527 -0.538245 0
M  V30 11391 C 1068.77 -1.00373 -1.6625 0
M  V30 11392 O 1068.04 -0.0411734 -1.94456 0
M  V30 11393 C 1068.33 -3.43843 -1.06976 0
M  V30 11394 C 1068.18 -4.49771 0.0511596 0
M  V30 11395 C 1069.5 -3.94035 -1.96022 0
M  V30 11396 H 1066.62 -0.710958 -0.194183 0
M  V30 11397 H 1069.26 -1.88986 0.196061 0
M  V30 11398 H 1067.41 -3.49548 -1.69553 0
M  V30 11399 H 1069.08 -4.56163 0.686503 0
M  V30 11400 H 1067.32 -4.27882 0.714127 0
M  V30 11401 H 1067.99 -5.50812 -0.361995 0
M  V30 11402 H 1070.47 -3.9064 -1.43315 0
M  V30 11403 H 1069.35 -4.98329 -2.3013 0
M  V30 11404 H 1069.61 -3.34803 -2.8872 0
M  V30 11405 N 1068.67 0.153526 -1.5685 0
M  V30 11406 C 1069.91 0.867232 -1.8299 0
M  V30 11407 C 1070.24 1.81462 -0.700125 0
M  V30 11408 O 1069.5 1.93207 0.311348 0
M  V30 11409 C 1069.8 1.68066 -3.15418 0
M  V30 11410 C 1069.46 0.880635 -4.42217 0
M  V30 11411 C 1068.12 0.659899 -4.76654 0
M  V30 11412 C 1070.48 0.320698 -5.20212 0
M  V30 11413 C 1067.8 -0.131588 -5.86552 0
M  V30 11414 C 1070.16 -0.457794 -6.30941 0
M  V30 11415 C 1068.82 -0.689168 -6.63933 0
M  V30 11416 H 1068.09 0.317343 -0.669608 0
M  V30 11417 H 1070.74 0.131208 -1.9105 0
M  V30 11418 H 1069.04 2.4866 -3.02779 0
M  V30 11419 H 1070.74 2.23623 -3.32857 0
M  V30 11420 H 1067.33 1.06274 -4.15215 0
M  V30 11421 H 1071.51 0.47853 -4.93988 0
M  V30 11422 H 1066.77 -0.320413 -6.1056 0
M  V30 11423 H 1070.94 -0.898839 -6.90575 0
M  V30 11424 H 1068.57 -1.30433 -7.48927 0
M  V30 11425 N 1070.14 1.51827 0.422667 0
M  V30 11426 C 1071.07 1.77152 1.52117 0
M  V30 11427 C 1072.06 0.621895 1.58324 0
M  V30 11428 O 1073.24 0.866118 1.73816 0
M  V30 11429 C 1070.37 1.90991 2.90068 0
M  V30 11430 C 1069.32 3.06516 2.98717 0
M  V30 11431 C 1068.65 3.05559 4.38791 0
M  V30 11432 C 1069.95 4.46223 2.71445 0
M  V30 11433 H 1071.64 2.69135 1.31175 0
M  V30 11434 H 1069.19 1.29507 0.629607 0
M  V30 11435 H 1071.14 2.07291 3.6689 0
M  V30 11436 H 1069.87 0.956688 3.12274 0
M  V30 11437 H 1068.53 2.89945 2.24338 0
M  V30 11438 H 1068.17 2.07985 4.57986 0
M  V30 11439 H 1067.87 3.83144 4.45505 0
M  V30 11440 H 1069.4 3.23971 5.17566 0
M  V30 11441 H 1070.81 4.63069 3.37994 0
M  V30 11442 H 1069.21 5.25623 2.89552 0
M  V30 11443 H 1070.28 4.5525 1.6696 0
M  V30 11444 N 1071.62 -0.679052 1.4222 0
M  V30 11445 C 1072.9 -1.43473 1.32947 0
M  V30 11446 C 1073.28 -2.11071 -0.0351689 0
M  V30 11447 O 1072.63 -2.02925 -1.05042 0
M  V30 11448 C 1072.84 -2.44065 2.49466 0
M  V30 11449 C 1074.19 -3.08834 2.91387 0
M  V30 11450 O 1075.21 -2.54392 2.49325 0
M  V30 11451 O 1074.07 -4.07478 3.64175 0
M  V30 11452 H 1071.16 -0.639743 0.524078 0
M  V30 11453 H 1073.71 -0.708134 1.54219 0
M  V30 11454 H 1072.48 -1.92884 3.40457 0
M  V30 11455 H 1072.1 -3.24212 2.30158 0
M  V30 11456 N 1073.1 -1.28322 -0.914942 0
M  V30 11457 C 1074.34 -1.16657 -1.6784 0
M  V30 11458 C 1074.7 0.280473 -1.8994 0
M  V30 11459 O 1075.91 0.519801 -2.63726 0
M  V30 11460 C 1074.18 -1.94185 -3.00045 0
M  V30 11461 S 1075.74 -1.98881 -3.91141 0
M  V30 11462 H 1072.55 -0.416232 -0.57643 0
M  V30 11463 H 1075.16 -1.62405 -1.08834 0
M  V30 11464 H 1073.86 -2.98488 -2.81661 0
M  V30 11465 H 1073.39 -1.48982 -3.64099 0
M  V30 11466 H 1075.41 -1.09445 -4.8398 0
M  V30 11467 N 1074.58 1.12322 -1.10551 0
M  V30 11468 C 1075.82 1.85497 -0.858492 0
M  V30 11469 C 1076.18 1.8222 0.604966 0
M  V30 11470 O 1077.38 2.5075 0.968382 0
M  V30 11471 C 1075.65 3.29124 -1.39327 0
M  V30 11472 S 1077.21 4.19659 -1.28186 0
M  V30 11473 H 1074.03 0.639768 -0.31019 0
M  V30 11474 H 1076.63 1.35298 -1.41119 0
M  V30 11475 H 1075.34 3.29069 -2.45238 0
M  V30 11476 H 1074.87 3.84388 -0.837203 0
M  V30 11477 H 1076.88 4.95618 -0.240325 0
M  V30 11478 N 1076.06 0.894434 1.2976 0
M  V30 11479 C 1077 0.357958 2.29829 0
M  V30 11480 C 1078 -0.540093 1.6056 0
M  V30 11481 O 1079.2 -0.423478 1.74948 0
M  V30 11482 H 1075.58 0.0971183 0.745702 0
M  V30 11483 H 1077.55 1.21542 2.72526 0
M  V30 11484 C 1076.3 -0.404126 3.45343 0
M  V30 11485 H 1075.62 0.277671 3.98835 0
M  V30 11486 H 1077.06 -0.744446 4.17413 0
M  V30 11487 C 1075.52 -1.6048 2.96222 0
M  V30 11488 O 1076.05 -2.70414 2.97051 0
M  V30 11489 N 1074.26 -1.44517 2.52117 0
M  V30 11490 H 1073.8 -0.55082 2.51642 0
M  V30 11491 H 1073.76 -2.24987 2.1961 0
M  V30 11492 N 1077.53 -1.43282 0.656365 0
M  V30 11493 C 1078.76 -2.05826 0.178619 0
M  V30 11494 C 1079.17 -1.493 -1.16216 0
M  V30 11495 O 1078.52 -0.620163 -1.72915 0
M  V30 11496 C 1078.58 -3.59496 0.0164101 0
M  V30 11497 C 1078.24 -4.38621 1.28298 0
M  V30 11498 C 1079.24 -4.70477 2.21241 0
M  V30 11499 C 1076.92 -4.78577 1.52544 0
M  V30 11500 C 1078.92 -5.412 3.36721 0
M  V30 11501 C 1076.6 -5.49044 2.68316 0
M  V30 11502 C 1077.6 -5.80279 3.6023 0
M  V30 11503 O 1077.29 -6.49306 4.7398 0
M  V30 11504 H 1077.02 -0.670158 0.0886814 0
M  V30 11505 H 1079.58 -1.84722 0.89816 0
M  V30 11506 H 1077.81 -3.79188 -0.758532 0
M  V30 11507 H 1079.5 -4.03731 -0.419096 0
M  V30 11508 H 1080.26 -4.40125 2.03753 0
M  V30 11509 H 1076.14 -4.5367 0.818816 0
M  V30 11510 H 1079.68 -5.65497 4.08483 0
M  V30 11511 H 1075.58 -5.78813 2.85738 0
M  V30 11512 H 1076.35 -6.67789 4.73286 0
M  V30 11513 N 1079.01 -0.398486 -1.52479 0
M  V30 11514 C 1080.26 0.182046 -2.00877 0
M  V30 11515 C 1080.58 1.47128 -1.2889 0
M  V30 11516 O 1081.78 2.13242 -1.68048 0
M  V30 11517 C 1080.24 0.374978 -3.57941 0
M  V30 11518 C 1079.85 -0.901544 -4.38835 0
M  V30 11519 C 1081.59 0.911378 -4.14601 0
M  V30 11520 C 1079.5 -0.676385 -5.87519 0
M  V30 11521 H 1078.43 0.0718068 -0.750573 0
M  V30 11522 H 1081.08 -0.522297 -1.7591 0
M  V30 11523 H 1079.46 1.14139 -3.79194 0
M  V30 11524 H 1080.63 -1.67329 -4.29346 0
M  V30 11525 H 1078.95 -1.36357 -3.93441 0
M  V30 11526 H 1081.55 1.09569 -5.23353 0
M  V30 11527 H 1081.89 1.88306 -3.71277 0
M  V30 11528 H 1082.42 0.204296 -3.97275 0
M  V30 11529 H 1079.16 -1.61933 -6.35184 0
M  V30 11530 H 1078.68 0.0562542 -5.99774 0
M  V30 11531 H 1080.36 -0.314454 -6.46235 0
M  V30 11532 N 1080.49 1.57075 -0.12858 0
M  V30 11533 C 1081.72 1.99876 0.534544 0
M  V30 11534 C 1082.13 1.00843 1.59612 0
M  V30 11535 O 1081.49 0.00268947 1.825 0
M  V30 11536 C 1081.54 3.42654 1.15198 0
M  V30 11537 O 1081.26 4.37899 0.132823 0
M  V30 11538 C 1082.76 4.00637 1.8975 0
M  V30 11539 H 1079.98 0.656073 0.140744 0
M  V30 11540 H 1082.53 2.03337 -0.217742 0
M  V30 11541 H 1080.68 3.40101 1.85499 0
M  V30 11542 H 1081.1 5.21253 0.582682 0
M  V30 11543 H 1082.57 5.02592 2.28266 0
M  V30 11544 H 1083.05 3.40313 2.7764 0
M  V30 11545 H 1083.65 4.06764 1.2419 0
M  V30 11546 N 1081.97 -0.145205 1.5693 0
M  V30 11547 C 1082.88 -1.19864 2.01667 0
M  V30 11548 C 1083.9 -1.46909 0.932402 0
M  V30 11549 O 1085.07 -1.58543 1.24201 0
M  V30 11550 C 1082.14 -2.51174 2.38982 0
M  V30 11551 C 1081.2 -2.3176 3.61366 0
M  V30 11552 C 1080.43 -3.56809 3.96892 0
M  V30 11553 O 1080.65 -4.63063 3.33059 0
M  V30 11554 O 1079.59 -3.49366 4.9013 0
M  V30 11555 H 1083.41 -0.848821 2.91597 0
M  V30 11556 H 1081 -0.354063 1.45144 0
M  V30 11557 H 1082.88 -3.28587 2.63835 0
M  V30 11558 H 1081.56 -2.85683 1.52207 0
M  V30 11559 H 1080.46 -1.52293 3.41698 0
M  V30 11560 H 1081.8 -2.02167 4.48764 0
M  V30 11561 N 1083.45 -1.52049 -0.414609 0
M  V30 11562 C 1084.38 -1.77956 -1.51175 0
M  V30 11563 C 1085.36 -0.630282 -1.57992 0
M  V30 11564 O 1086.54 -0.875324 -1.73354 0
M  V30 11565 C 1083.67 -1.92527 -2.89051 0
M  V30 11566 C 1082.63 -3.08096 -2.97087 0
M  V30 11567 C 1081.95 -3.07882 -4.37164 0
M  V30 11568 C 1083.25 -4.47656 -2.69075 0
M  V30 11569 H 1084.95 -2.69827 -1.29746 0
M  V30 11570 H 1082.49 -1.29839 -0.62273 0
M  V30 11571 H 1084.45 -2.09234 -3.65786 0
M  V30 11572 H 1083.17 -0.973235 -3.11762 0
M  V30 11573 H 1081.83 -2.91131 -2.22797 0
M  V30 11574 H 1081.48 -2.10411 -4.56877 0
M  V30 11575 H 1081.18 -3.85501 -4.43467 0
M  V30 11576 H 1082.7 -3.26712 -5.15841 0
M  V30 11577 H 1084.12 -4.64855 -3.35534 0
M  V30 11578 H 1082.51 -5.27151 -2.8676 0
M  V30 11579 H 1083.58 -4.56129 -1.64544 0
M  V30 11580 N 1084.93 0.6715 -1.42579 0
M  V30 11581 C 1086.34 0.985019 -1.25577 0
M  V30 11582 C 1086.54 2.00845 -0.162319 0
M  V30 11583 O 1085.6 2.48175 0.465352 0
M  V30 11584 C 1086.91 1.48668 -2.61377 0
M  V30 11585 C 1088.46 1.60429 -2.68759 0
M  V30 11586 C 1088.93 2.13991 -4.04935 0
M  V30 11587 N 1090.42 2.21319 -4.06906 0
M  V30 11588 C 1091.16 2.63845 -5.09091 0
M  V30 11589 N 1090.66 3.05799 -6.21658 0
M  V30 11590 N 1092.45 2.63623 -4.96447 0
M  V30 11591 H 1084.6 -0.00604561 -2.12399 0
M  V30 11592 H 1086.86 0.0598299 -0.94611 0
M  V30 11593 H 1086.57 0.80917 -3.42265 0
M  V30 11594 H 1086.44 2.46487 -2.85524 0
M  V30 11595 H 1088.83 2.27286 -1.88216 0
M  V30 11596 H 1088.91 0.610909 -2.48398 0
M  V30 11597 H 1088.55 1.47741 -4.85937 0
M  V30 11598 H 1088.48 3.14126 -4.2265 0
M  V30 11599 H 1090.98 1.91743 -3.25643 0
M  V30 11600 H 1091.29 3.36944 -6.95477 0
M  V30 11601 H 1089.63 3.03648 -6.25158 0
M  V30 11602 H 1092.82 2.30211 -4.07579 0
M  V30 11603 H 1093 2.96444 -5.76216 0
M  V30 11604 N 1086.4 1.28806 0.908124 0
M  V30 11605 C 1087.82 1.06634 1.18749 0
M  V30 11606 C 1088.02 -0.187729 2.00624 0
M  V30 11607 O 1087.08 -0.88784 2.36376 0
M  V30 11608 C 1088.39 2.31703 1.91661 0
M  V30 11609 C 1089.94 2.36939 2.04521 0
M  V30 11610 C 1090.41 3.61789 2.80843 0
M  V30 11611 N 1091.9 3.62462 2.88402 0
M  V30 11612 C 1092.64 4.55746 3.47971 0
M  V30 11613 N 1092.13 5.59353 4.08774 0
M  V30 11614 N 1093.93 4.43331 3.45564 0
M  V30 11615 H 1086.08 2.09299 0.36164 0
M  V30 11616 H 1088.34 0.921479 0.222668 0
M  V30 11617 H 1088.05 3.23096 1.38931 0
M  V30 11618 H 1087.92 2.38556 2.92183 0
M  V30 11619 H 1090.31 1.4604 2.5643 0
M  V30 11620 H 1090.39 2.34077 1.03159 0
M  V30 11621 H 1090.03 4.53035 2.29612 0
M  V30 11622 H 1089.96 3.61907 3.82532 0
M  V30 11623 H 1092.45 2.87544 2.45208 0
M  V30 11624 H 1092.77 6.26668 4.52224 0
M  V30 11625 H 1091.11 5.63173 4.07261 0
M  V30 11626 H 1094.3 3.61587 2.97276 0
M  V30 11627 H 1094.48 5.16216 3.91695 0
M  V30 11628 N 1087.88 -1.11734 1.11145 0
M  V30 11629 C 1088.81 -2.17438 0.724804 0
M  V30 11630 C 1089.83 -1.6099 -0.242069 0
M  V30 11631 O 1091.02 -1.78482 -0.0254259 0
M  V30 11632 C 1088.12 -3.38863 0.050004 0
M  V30 11633 C 1087.29 -4.24785 1.04292 0
M  V30 11634 C 1086.35 -5.24691 0.398243 0
M  V30 11635 O 1085.37 -5.59408 1.05125 0
M  V30 11636 N 1086.58 -5.74388 -0.840184 0
M  V30 11637 H 1089.34 -2.51219 1.63429 0
M  V30 11638 H 1086.9 -1.27226 1.00125 0
M  V30 11639 H 1088.89 -4.02788 -0.392929 0
M  V30 11640 H 1087.46 -3.0317 -0.762005 0
M  V30 11641 H 1086.68 -3.57363 1.6639 0
M  V30 11642 H 1087.97 -4.79033 1.71478 0
M  V30 11643 H 1087.37 -5.48359 -1.38994 0
M  V30 11644 H 1085.93 -6.40163 -1.22615 0
M  V30 11645 N 1089.36 -0.901303 -1.29284 0
M  V30 11646 C 1090.31 -0.351562 -2.25273 0
M  V30 11647 C 1091.29 0.529276 -1.51946 0
M  V30 11648 O 1092.49 0.371031 -1.73068 0
M  V30 11649 C 1089.61 0.41843 -3.4074 0
M  V30 11650 C 1088.7 -0.47742 -4.21404 0
M  V30 11651 N 1089.09 -1.58537 -4.80312 0
M  V30 11652 C 1087.39 -0.275504 -4.45148 0
M  V30 11653 C 1088.09 -2.14041 -5.40889 0
M  V30 11654 N 1087.07 -1.43324 -5.24365 0
M  V30 11655 H 1090.87 -1.1979 -2.68379 0
M  V30 11656 H 1088.38 -0.752538 -1.43912 0
M  V30 11657 H 1090.38 0.829022 -4.08574 0
M  V30 11658 H 1089.04 1.26201 -2.99171 0
M  V30 11659 H 1090.05 -1.96809 -4.79047 0
M  V30 11660 H 1086.73 0.529581 -4.14128 0
M  V30 11661 H 1088.12 -3.07173 -5.97574 0
M  V30 11662 N 1090.84 1.42931 -0.663954 0
M  V30 11663 C 1091.8 2.29197 0.0117626 0
M  V30 11664 C 1092.8 1.42767 0.739875 0
M  V30 11665 O 1093.99 1.64278 0.579509 0
M  V30 11666 C 1091.12 3.2505 1.02738 0
M  V30 11667 H 1092.32 2.90438 -0.747391 0
M  V30 11668 H 1089.87 1.5039 -0.425733 0
M  V30 11669 H 1090.6 2.68726 1.8154 0
M  V30 11670 H 1090.39 3.88785 0.508809 0
M  V30 11671 H 1091.88 3.89771 1.49893 0
M  V30 11672 N 1092.32 0.406567 1.52266 0
M  V30 11673 C 1093.73 0.0573228 1.59497 0
M  V30 11674 C 1093.93 -1.43005 1.41957 0
M  V30 11675 O 1092.99 -2.19659 1.24523 0
M  V30 11676 C 1094.3 0.549947 2.95628 0
M  V30 11677 C 1095.85 0.5077 3.08855 0
M  V30 11678 C 1096.32 0.976792 4.47463 0
M  V30 11679 N 1097.81 0.933508 4.53696 0
M  V30 11680 C 1098.55 1.26769 5.59211 0
M  V30 11681 N 1098.05 1.6732 6.72292 0
M  V30 11682 N 1099.84 1.18782 5.49406 0
M  V30 11683 H 1091.99 1.37468 1.61914 0
M  V30 11684 H 1094.25 0.564562 0.76156 0
M  V30 11685 H 1093.96 1.58943 3.13736 0
M  V30 11686 H 1093.83 -0.0417767 3.77177 0
M  V30 11687 H 1096.22 -0.522728 2.90433 0
M  V30 11688 H 1096.3 1.13545 2.29219 0
M  V30 11689 H 1095.94 2.00554 4.66627 0
M  V30 11690 H 1095.87 0.325885 5.25591 0
M  V30 11691 H 1098.37 0.635333 3.72521 0
M  V30 11692 H 1098.68 1.91137 7.4879 0
M  V30 11693 H 1097.02 1.71221 6.73579 0
M  V30 11694 H 1100.21 0.869906 4.59946 0
M  V30 11695 H 1100.39 1.45157 6.31533 0
M  V30 11696 N 1093.79 -1.57004 0.136909 0
M  V30 11697 C 1094.76 -2.15066 -0.792419 0
M  V30 11698 C 1095.76 -1.08991 -1.18226 0
M  V30 11699 O 1096.95 -1.34681 -1.10484 0
M  V30 11700 C 1094.08 -2.70554 -2.07397 0
M  V30 11701 H 1095.27 -2.98519 -0.28752 0
M  V30 11702 H 1092.83 -1.55895 -0.112469 0
M  V30 11703 H 1093.56 -1.90739 -2.62277 0
M  V30 11704 H 1093.35 -3.48149 -1.80374 0
M  V30 11705 H 1094.84 -3.15322 -2.73792 0
M  V30 11706 N 1095.27 0.136881 -1.57004 0
M  V30 11707 C 1096.5 0.866405 -1.88436 0
M  V30 11708 C 1096.92 1.73483 -0.727006 0
M  V30 11709 O 1096.28 1.78398 0.323094 0
M  V30 11710 C 1096.33 1.69059 -3.18514 0
M  V30 11711 O 1095.43 2.79584 -3.03161 0
M  V30 11712 H 1094.77 0.240709 -0.618834 0
M  V30 11713 H 1097.3 0.124653 -2.0422 0
M  V30 11714 H 1097.31 2.08353 -3.50789 0
M  V30 11715 H 1095.99 1.05296 -4.0235 0
M  V30 11716 H 1094.57 2.43623 -2.82315 0
M  V30 11717 N 1096.75 1.52266 0.40654 0
M  V30 11718 C 1097.7 1.72175 1.49465 0
M  V30 11719 C 1098.68 0.575668 1.50249 0
M  V30 11720 O 1099.88 0.832835 1.56182 0
M  V30 11721 C 1097.01 1.87818 2.87366 0
M  V30 11722 C 1096.09 3.08305 2.91219 0
M  V30 11723 N 1096.48 4.30967 2.64766 0
M  V30 11724 C 1094.78 3.08192 3.22388 0
M  V30 11725 C 1095.48 5.12455 2.75254 0
M  V30 11726 N 1094.46 4.47758 3.08242 0
M  V30 11727 H 1098.26 2.64653 1.27812 0
M  V30 11728 H 1095.77 1.50334 0.61428 0
M  V30 11729 H 1097.77 2.00198 3.65686 0
M  V30 11730 H 1096.43 0.965414 3.10016 0
M  V30 11731 H 1097.44 4.59397 2.39113 0
M  V30 11732 H 1094.12 2.26662 3.50615 0
M  V30 11733 H 1095.51 6.20186 2.58495 0
M  V30 11734 N 1098.23 -0.663929 1.42933 0
M  V30 11735 C 1099.16 -1.78899 1.50058 0
M  V30 11736 C 1100.14 -1.66329 0.356164 0
M  V30 11737 O 1101.32 -1.85587 0.571944 0
M  V30 11738 C 1098.45 -3.17265 1.41281 0
M  V30 11739 C 1097.41 -3.44584 2.53861 0
M  V30 11740 C 1096.73 -4.82638 2.3014 0
M  V30 11741 C 1098.03 -3.40394 3.96143 0
M  V30 11742 H 1099.73 -1.73194 2.44222 0
M  V30 11743 H 1097.27 -0.83182 1.17545 0
M  V30 11744 H 1099.23 -3.95715 1.44872 0
M  V30 11745 H 1097.95 -3.23675 0.43616 0
M  V30 11746 H 1096.61 -2.685 2.49606 0
M  V30 11747 H 1096.26 -4.85711 1.30743 0
M  V30 11748 H 1095.96 -5.01879 3.056 0
M  V30 11749 H 1097.48 -5.63359 2.35497 0
M  V30 11750 H 1098.9 -4.08796 4.01943 0
M  V30 11751 H 1097.29 -3.7117 4.71543 0
M  V30 11752 H 1098.36 -2.38767 4.22041 0
M  V30 11753 N 1099.71 -1.29285 -0.901281 0
M  V30 11754 C 1100.95 -1.16934 -1.64836 0
M  V30 11755 C 1101.28 0.279826 -1.92982 0
M  V30 11756 O 1100.55 1.19179 -1.55478 0
M  V30 11757 H 1099.13 -0.429768 -0.61099 0
M  V30 11758 H 1101.79 -1.62189 -1.08077 0
M  V30 11759 H 1100.88 -1.71821 -2.60545 0
M  V30 11760 N 1101.18 1.11143 -1.11736 0
M  V30 11761 C 1102.11 2.19339 -0.800795 0
M  V30 11762 C 1103.1 1.68508 0.23221 0
M  V30 11763 O 1104.28 1.93967 0.0950063 0
M  V30 11764 C 1101.41 3.46424 -0.246579 0
M  V30 11765 C 1100.36 4.10487 -1.21181 0
M  V30 11766 C 1099.69 5.32183 -0.518158 0
M  V30 11767 C 1100.99 4.55052 -2.56368 0
M  V30 11768 H 1102.68 2.46077 -1.70548 0
M  V30 11769 H 1100.23 1.18271 -0.821454 0
M  V30 11770 H 1102.18 4.21398 -0.0128889 0
M  V30 11771 H 1100.91 3.19154 0.693415 0
M  V30 11772 H 1099.57 3.3751 -1.43118 0
M  V30 11773 H 1099.21 5.01187 0.426742 0
M  V30 11774 H 1098.91 5.75997 -1.16196 0
M  V30 11775 H 1100.44 6.09895 -0.293333 0
M  V30 11776 H 1101.85 5.21335 -2.38501 0
M  V30 11777 H 1100.25 5.0969 -3.16758 0
M  V30 11778 H 1101.32 3.68343 -3.1536 0
M  V30 11779 N 1102.66 0.908147 1.28804 0
M  V30 11780 C 1103.63 0.397058 2.25735 0
M  V30 11781 C 1104.63 -0.473483 1.53671 0
M  V30 11782 O 1105.82 -0.277335 1.71978 0
M  V30 11783 C 1102.95 -0.431392 3.38159 0
M  V30 11784 H 1104.14 1.25323 2.72459 0
M  V30 11785 H 1101.69 0.687041 1.4039 0
M  V30 11786 H 1102.43 -1.3072 2.96787 0
M  V30 11787 H 1102.21 0.192502 3.91627 0
M  V30 11788 H 1103.7 -0.78 4.10251 0
M  V30 11789 N 1104.14 -1.42577 0.671525 0
M  V30 11790 C 1105.56 -1.5592 0.340769 0
M  V30 11791 C 1105.76 -1.65179 -1.15405 0
M  V30 11792 O 1104.81 -1.61691 -1.93939 0
M  V30 11793 C 1106.13 -2.81087 1.06821 0
M  V30 11794 C 1107.67 -2.94855 1.05022 0
M  V30 11795 C 1108.15 -4.22878 1.75892 0
M  V30 11796 N 1109.64 -4.29783 1.72744 0
M  V30 11797 C 1110.37 -5.2765 2.24439 0
M  V30 11798 N 1109.87 -6.31689 2.84501 0
M  V30 11799 N 1111.66 -5.19426 2.14832 0
M  V30 11800 H 1103.81 -1.34811 1.64133 0
M  V30 11801 H 1106.08 -0.648704 0.691294 0
M  V30 11802 H 1105.78 -2.80371 2.12332 0
M  V30 11803 H 1105.66 -3.71879 0.631356 0
M  V30 11804 H 1108.04 -2.951 0.00345633 0
M  V30 11805 H 1108.13 -2.05303 1.52592 0
M  V30 11806 H 1107.77 -4.23394 2.80535 0
M  V30 11807 H 1107.7 -5.1136 1.25773 0
M  V30 11808 H 1110.19 -3.55225 1.28932 0
M  V30 11809 H 1110.5 -7.02715 3.21575 0
M  V30 11810 H 1108.85 -6.3226 2.88569 0
M  V30 11811 H 1112.04 -4.37067 1.676 0
M  V30 11812 H 1112.21 -5.95535 2.55426 0
M  V30 11813 N 1105.62 -0.414636 -1.52048 0
M  V30 11814 C 1106.84 0.161137 -2.06773 0
M  V30 11815 C 1107.27 1.37628 -1.2822 0
M  V30 11816 O 1106.63 1.78562 -0.313915 0
M  V30 11817 C 1106.67 0.48452 -3.5733 0
M  V30 11818 O 1105.78 1.57466 -3.81154 0
M  V30 11819 H 1105.12 0.0118003 -0.663895 0
M  V30 11820 H 1107.65 -0.589424 -1.95926 0
M  V30 11821 H 1107.66 0.741567 -4.01204 0
M  V30 11822 H 1106.33 -0.403733 -4.13936 0
M  V30 11823 H 1104.91 1.30935 -3.49157 0
M  V30 11824 N 1107.1 1.56929 -0.145233 0
M  V30 11825 C 1108.04 2.17958 0.812237 0
M  V30 11826 C 1109.04 1.13608 1.25657 0
M  V30 11827 O 1110.24 1.31861 1.22526 0
M  V30 11828 H 1106.62 0.697876 0.28013 0
M  V30 11829 H 1108.59 2.97146 0.273297 0
M  V30 11830 C 1107.34 2.81418 2.04203 0
M  V30 11831 H 1106.66 3.61427 1.70911 0
M  V30 11832 H 1108.1 3.27624 2.69144 0
M  V30 11833 C 1106.56 1.79835 2.84888 0
M  V30 11834 O 1107.09 1.26773 3.81171 0
M  V30 11835 N 1105.3 1.49179 2.49387 0
M  V30 11836 H 1104.84 1.9252 1.71154 0
M  V30 11837 H 1104.8 0.81458 3.03664 0
M  V30 11838 N 1108.58 -0.128553 1.57075 0
M  V30 11839 C 1109.51 -1.15953 2.02675 0
M  V30 11840 C 1110.49 -1.43743 0.909501 0
M  V30 11841 O 1111.67 -1.54348 1.17857 0
M  V30 11842 C 1108.8 -2.48813 2.423 0
M  V30 11843 C 1107.76 -2.35506 3.57381 0
M  V30 11844 C 1107.08 -3.73243 3.82875 0
M  V30 11845 C 1108.38 -1.82359 4.89431 0
M  V30 11846 H 1110.08 -0.780283 2.89054 0
M  V30 11847 H 1107.62 -0.373896 1.39061 0
M  V30 11848 H 1109.57 -3.21179 2.72804 0
M  V30 11849 H 1108.3 -2.88609 1.52881 0
M  V30 11850 H 1106.96 -1.6559 3.27071 0
M  V30 11851 H 1106.61 -4.10507 2.90677 0
M  V30 11852 H 1106.31 -3.65195 4.60333 0
M  V30 11853 H 1107.83 -4.47128 4.15823 0
M  V30 11854 H 1109.24 -2.44533 5.18533 0
M  V30 11855 H 1107.64 -1.85156 5.70822 0
M  V30 11856 H 1108.71 -0.780478 4.78578 0
M  V30 11857 N 1110.05 -1.5248 -0.398459 0
M  V30 11858 C 1111.33 -1.57634 -1.15805 0
M  V30 11859 C 1111.71 -0.363785 -2.07942 0
M  V30 11860 O 1111.06 0.648598 -2.19101 0
M  V30 11861 C 1111.27 -2.91042 -1.92602 0
M  V30 11862 C 1112.62 -3.44433 -2.48296 0
M  V30 11863 O 1113.64 -2.92853 -2.0277 0
M  V30 11864 O 1112.5 -4.34529 -3.31432 0
M  V30 11865 H 1109.59 -0.63539 -0.529347 0
M  V30 11866 H 1112.14 -1.64812 -0.404376 0
M  V30 11867 H 1110.91 -3.7074 -1.25169 0
M  V30 11868 H 1110.53 -2.87206 -2.74952 0
M  V30 11869 N 1111.53 0.65634 -1.43283 0
M  V30 11870 C 1112.44 1.79847 -1.50639 0
M  V30 11871 C 1113.46 1.69487 -0.393714 0
M  V30 11872 O 1114.63 1.90712 -0.647379 0
M  V30 11873 C 1111.7 3.16107 -1.42398 0
M  V30 11874 C 1110.76 3.38287 -2.64312 0
M  V30 11875 C 1109.99 4.68046 -2.56454 0
M  V30 11876 O 1110.22 5.4719 -1.61056 0
M  V30 11877 O 1109.15 4.91877 -3.46902 0
M  V30 11878 H 1112.98 1.76596 -2.47078 0
M  V30 11879 H 1110.56 0.814428 -1.25249 0
M  V30 11880 H 1112.44 3.97382 -1.40233 0
M  V30 11881 H 1111.12 3.19956 -0.490929 0
M  V30 11882 H 1110.02 2.56788 -2.72049 0
M  V30 11883 H 1111.36 3.39282 -3.56579 0
M  V30 11884 N 1113.01 1.29761 0.894412 0
M  V30 11885 C 1114.29 1.08711 1.62608 0
M  V30 11886 C 1114.67 -0.366907 2.07887 0
M  V30 11887 O 1114.01 -1.35669 1.83865 0
M  V30 11888 C 1114.22 2.07947 2.80284 0
M  V30 11889 C 1115.57 2.39153 3.50843 0
M  V30 11890 O 1116.6 2.06183 2.9046 0
M  V30 11891 O 1115.46 2.95509 4.59713 0
M  V30 11892 H 1112.55 0.416866 0.714249 0
M  V30 11893 H 1115.1 1.41153 0.942015 0
M  V30 11894 H 1113.87 3.05859 2.44061 0
M  V30 11895 H 1113.49 1.76266 3.56393 0
M  V30 11896 N 1114.49 -1.10549 1.12324 0
M  V30 11897 C 1115.74 -1.81851 0.872531 0
M  V30 11898 C 1116.05 -1.86058 -0.603468 0
M  V30 11899 O 1117.26 -2.53553 -0.970736 0
M  V30 11900 C 1115.71 -3.26631 1.51131 0
M  V30 11901 C 1115.32 -3.30725 3.02201 0
M  V30 11902 C 1117.06 -4.02768 1.34082 0
M  V30 11903 C 1114.97 -4.69957 3.59018 0
M  V30 11904 H 1113.9 -0.681422 0.322769 0
M  V30 11905 H 1116.55 -1.24332 1.34959 0
M  V30 11906 H 1114.93 -3.8414 0.961913 0
M  V30 11907 H 1116.11 -2.83046 3.63623 0
M  V30 11908 H 1114.42 -2.68072 3.18632 0
M  V30 11909 H 1117.02 -5.05612 1.73955 0
M  V30 11910 H 1117.36 -4.15328 0.284369 0
M  V30 11911 H 1117.9 -3.51671 1.85937 0
M  V30 11912 H 1114.63 -4.62597 4.64418 0
M  V30 11913 H 1114.15 -5.18008 3.02371 0
M  V30 11914 H 1115.83 -5.38925 3.58007 0
M  V30 11915 N 1115.97 -0.914965 -1.28321 0
M  V30 11916 C 1117.21 -0.544639 -1.94208 0
M  V30 11917 C 1117.53 0.916368 -1.72806 0
M  V30 11918 O 1118.73 1.39491 -2.32926 0
M  V30 11919 C 1117.19 -0.923209 -3.47858 0
M  V30 11920 C 1116.8 -2.40403 -3.78035 0
M  V30 11921 C 1118.54 -0.623526 -4.19896 0
M  V30 11922 C 1116.45 -2.72266 -5.25 0
M  V30 11923 H 1115.38 -0.199966 -0.727 0
M  V30 11924 H 1118.03 -1.11405 -1.45812 0
M  V30 11925 H 1116.41 -0.282576 -3.94991 0
M  V30 11926 H 1117.59 -3.09149 -3.41706 0
M  V30 11927 H 1115.9 -2.67429 -3.19172 0
M  V30 11928 H 1118.5 -0.838243 -5.28089 0
M  V30 11929 H 1118.84 0.438721 -4.13982 0
M  V30 11930 H 1119.37 -1.22268 -3.78544 0
M  V30 11931 H 1116.11 -3.77349 -5.35993 0
M  V30 11932 H 1115.63 -2.08157 -5.62522 0
M  V30 11933 H 1117.31 -2.59334 -5.92752 0
M  V30 11934 N 1117.44 1.42219 -0.679077 0
M  V30 11935 C 1118.41 2.29197 -0.0125475 0
M  V30 11936 C 1119.41 1.43544 0.724691 0
M  V30 11937 O 1120.6 1.64884 0.562052 0
M  V30 11938 C 1117.73 3.26122 0.992846 0
M  V30 11939 H 1118.92 2.89629 -0.778154 0
M  V30 11940 H 1116.47 1.4993 -0.44166 0
M  V30 11941 H 1117.21 2.70637 1.78679 0
M  V30 11942 H 1116.99 3.89302 0.467544 0
M  V30 11943 H 1118.48 3.91339 1.45751 0
M  V30 11944 N 1118.92 0.422693 1.51826 0
M  V30 11945 C 1119.83 -0.40261 2.31119 0
M  V30 11946 C 1120.85 -1.04117 1.39412 0
M  V30 11947 O 1122.02 -1.03973 1.72486 0
M  V30 11948 C 1119.09 -1.49699 3.12716 0
M  V30 11949 C 1118.15 -0.880088 4.20182 0
M  V30 11950 C 1117.38 -1.92232 4.97878 0
M  V30 11951 O 1117.61 -3.14246 4.76031 0
M  V30 11952 O 1116.54 -1.521 5.82365 0
M  V30 11953 H 1120.37 0.244308 3.02716 0
M  V30 11954 H 1117.95 0.185569 1.48243 0
M  V30 11955 H 1119.83 -2.13202 3.63487 0
M  V30 11956 H 1118.51 -2.12826 2.43899 0
M  V30 11957 H 1117.41 -0.207404 3.73525 0
M  V30 11958 H 1118.75 -0.292535 4.9133 0
M  V30 11959 N 1120.4 -1.5685 0.153553 0
M  V30 11960 C 1121.31 -2.20664 -0.796528 0
M  V30 11961 C 1122.33 -1.19289 -1.26674 0
M  V30 11962 O 1123.5 -1.51889 -1.32256 0
M  V30 11963 C 1120.57 -2.82088 -2.01561 0
M  V30 11964 C 1119.63 -3.9861 -1.59401 0
M  V30 11965 C 1118.86 -4.57096 -2.75498 0
M  V30 11966 O 1119.08 -4.14462 -3.9189 0
M  V30 11967 O 1118.02 -5.47254 -2.50593 0
M  V30 11968 H 1121.84 -3.02376 -0.283282 0
M  V30 11969 H 1119.43 -1.49218 -0.0737927 0
M  V30 11970 H 1121.31 -3.21103 -2.72893 0
M  V30 11971 H 1119.99 -2.03385 -2.51826 0
M  V30 11972 H 1118.89 -3.64299 -0.850725 0
M  V30 11973 H 1120.23 -4.78853 -1.13845 0
M  V30 11974 N 1121.88 0.120221 -1.57141 0
M  V30 11975 C 1122.83 1.16654 -2.01233 0
M  V30 11976 C 1123.82 1.42943 -0.909053 0
M  V30 11977 O 1125.03 1.4292 -1.09426 0
M  V30 11978 H 1121.4 0.393289 -0.640958 0
M  V30 11979 H 1123.37 0.768156 -2.88343 0
M  V30 11980 C 1122.12 2.4854 -2.43152 0
M  V30 11981 H 1121.44 2.29149 -3.27614 0
M  V30 11982 H 1122.88 3.20315 -2.77802 0
M  V30 11983 C 1121.34 3.1103 -1.29468 0
M  V30 11984 O 1121.87 3.97042 -0.609982 0
M  V30 11985 N 1120.08 2.70888 -1.05205 0
M  V30 11986 H 1119.63 2.01039 -1.61062 0
M  V30 11987 H 1119.58 3.13028 -0.293347 0
M  V30 11988 N 1123.36 1.52689 0.390367 0
M  V30 11989 C 1124.61 1.6689 1.13272 0
M  V30 11990 C 1124.92 0.414433 1.91159 0
M  V30 11991 O 1126.12 0.436559 2.67967 0
M  V30 11992 C 1124.58 2.94929 2.06264 0
M  V30 11993 C 1124.19 4.27551 1.33805 0
M  V30 11994 C 1125.93 3.18497 2.80642 0
M  V30 11995 C 1123.84 5.46698 2.25554 0
M  V30 11996 H 1122.77 0.621749 0.426549 0
M  V30 11997 H 1125.42 1.79185 0.395615 0
M  V30 11998 H 1123.8 2.76378 2.83604 0
M  V30 11999 H 1124.98 4.56651 0.616997 0
M  V30 12000 H 1123.29 4.10234 0.713913 0
M  V30 12001 H 1125.89 4.04693 3.49467 0
M  V30 12002 H 1126.23 2.33511 3.44642 0
M  V30 12003 H 1126.76 3.37607 2.10395 0
M  V30 12004 H 1123.5 6.34088 1.66171 0
M  V30 12005 H 1123.02 5.21913 2.95579 0
M  V30 12006 H 1124.7 5.80519 2.85668 0
M  V30 12007 N 1124.83 -0.648732 1.43629 0
M  V30 12008 C 1126.08 -1.41066 1.45699 0
M  V30 12009 C 1126.41 -1.94024 0.082612 0
M  V30 12010 O 1125.69 -1.7257 -0.897207 0
M  V30 12011 C 1125.97 -2.58882 2.50304 0
M  V30 12012 C 1125.82 -2.11387 3.97033 0
M  V30 12013 C 1127.14 -3.61092 2.51597 0
M  V30 12014 H 1124.26 -0.511591 0.530512 0
M  V30 12015 H 1126.9 -0.735069 1.75205 0
M  V30 12016 H 1125.05 -3.16518 2.25274 0
M  V30 12017 H 1126.73 -1.58718 4.33136 0
M  V30 12018 H 1124.97 -1.4272 4.0965 0
M  V30 12019 H 1125.64 -2.96129 4.65845 0
M  V30 12020 H 1128.12 -3.13223 2.73917 0
M  V30 12021 H 1126.99 -4.41071 3.26722 0
M  V30 12022 H 1127.25 -4.13985 1.55141 0
M  V30 12023 N 1126.31 -1.30234 -0.887518 0
M  V30 12024 C 1127.54 -1.21955 -1.67755 0
M  V30 12025 C 1127.96 0.214701 -1.86871 0
M  V30 12026 O 1127.32 1.15459 -1.39782 0
M  V30 12027 C 1127.37 -1.95079 -3.03276 0
M  V30 12028 O 1126.47 -1.27615 -3.92158 0
M  V30 12029 H 1125.81 -0.421948 -0.512695 0
M  V30 12030 H 1128.34 -1.72011 -1.10785 0
M  V30 12031 H 1128.35 -2.04004 -3.53336 0
M  V30 12032 H 1127.03 -2.99392 -2.88682 0
M  V30 12033 H 1125.61 -1.27029 -3.50597 0
M  V30 12034 N 1127.79 1.09952 -1.12909 0
M  V30 12035 C 1129.21 1.34051 -0.866172 0
M  V30 12036 C 1129.41 1.95169 0.501125 0
M  V30 12037 O 1128.46 2.19458 1.24878 0
M  V30 12038 C 1129.78 2.25738 -1.98653 0
M  V30 12039 C 1131.32 2.39261 -2.01799 0
M  V30 12040 C 1131.8 3.3428 -3.13083 0
M  V30 12041 N 1133.29 3.41851 -3.12558 0
M  V30 12042 C 1134.02 4.15358 -3.95304 0
M  V30 12043 N 1133.52 4.91709 -4.88051 0
M  V30 12044 N 1135.31 4.11027 -3.83423 0
M  V30 12045 H 1127.46 0.686521 -2.00999 0
M  V30 12046 H 1129.73 0.364913 -0.874953 0
M  V30 12047 H 1129.43 1.88048 -2.97205 0
M  V30 12048 H 1129.31 3.26085 -1.89601 0
M  V30 12049 H 1131.69 2.76218 -1.03864 0
M  V30 12050 H 1131.78 1.38712 -2.14925 0
M  V30 12051 H 1131.42 2.98048 -4.11254 0
M  V30 12052 H 1131.35 4.34721 -2.97195 0
M  V30 12053 H 1133.84 2.87405 -2.45371 0
M  V30 12054 H 1134.15 5.45212 -5.47689 0
M  V30 12055 H 1132.5 4.90816 -4.92061 0
M  V30 12056 H 1135.69 3.50477 -3.10296 0
M  V30 12057 H 1135.86 4.68054 -4.4814 0
M  V30 12058 N 1129.27 0.921757 1.27833 0
M  V30 12059 C 1130.49 0.574599 1.99281 0
M  V30 12060 C 1130.92 -0.838905 1.68357 0
M  V30 12061 O 1130.28 -1.56196 0.920468 0
M  V30 12062 C 1130.32 0.800027 3.51613 0
M  V30 12063 O 1129.43 -0.137215 4.12172 0
M  V30 12064 H 1128.77 0.221887 0.625829 0
M  V30 12065 H 1131.3 1.23939 1.62789 0
M  V30 12066 H 1131.31 0.71326 4.01717 0
M  V30 12067 H 1129.98 1.83042 3.73455 0
M  V30 12068 H 1128.56 -0.00103872 3.729 0
M  V30 12069 N 1130.75 -1.41857 0.686609 0
M  V30 12070 C 1131.66 -2.34595 0.0159005 0
M  V30 12071 C 1132.67 -1.55741 -0.775933 0
M  V30 12072 O 1133.85 -1.8826 -0.71555 0
M  V30 12073 C 1130.91 -3.34395 -0.915473 0
M  V30 12074 C 1129.97 -4.29141 -0.116851 0
M  V30 12075 C 1129.21 -5.24174 -1.00386 0
M  V30 12076 O 1129.43 -5.24431 -2.2434 0
M  V30 12077 O 1128.36 -6.00152 -0.458337 0
M  V30 12078 H 1132.19 -2.9351 0.780101 0
M  V30 12079 H 1129.78 -1.42559 0.446896 0
M  V30 12080 H 1131.66 -3.95675 -1.44981 0
M  V30 12081 H 1130.33 -2.77936 -1.65932 0
M  V30 12082 H 1129.24 -3.71238 0.461871 0
M  V30 12083 H 1130.57 -4.88673 0.588138 0
M  V30 12084 N 1132.22 -0.430739 -1.51599 0
M  V30 12085 C 1133.47 0.137929 -2.0203 0
M  V30 12086 C 1133.8 1.43287 -1.31526 0
M  V30 12087 O 1133.05 1.9121 -0.416814 0
M  V30 12088 C 1133.35 0.410694 -3.55032 0
M  V30 12089 C 1133.02 -0.797634 -4.43789 0
M  V30 12090 C 1131.68 -1.12902 -4.67768 0
M  V30 12091 C 1134.03 -1.60403 -4.95904 0
M  V30 12092 C 1131.36 -2.2676 -5.41107 0
M  V30 12093 C 1133.71 -2.73354 -5.70491 0
M  V30 12094 C 1132.38 -3.06955 -5.92735 0
M  V30 12095 H 1131.65 0.0504718 -0.739279 0
M  V30 12096 H 1134.29 -0.576585 -1.82614 0
M  V30 12097 H 1132.6 1.20703 -3.72744 0
M  V30 12098 H 1134.3 0.864006 -3.91581 0
M  V30 12099 H 1130.89 -0.529397 -4.25318 0
M  V30 12100 H 1135.07 -1.36122 -4.77268 0
M  V30 12101 H 1130.33 -2.53114 -5.56546 0
M  V30 12102 H 1134.5 -3.36213 -6.09864 0
M  V30 12103 H 1132.13 -3.95293 -6.49344 0
M  V30 12104 N 1133.7 1.56767 -0.161869 0
M  V30 12105 C 1135.11 1.83265 0.356466 0
M  V30 12106 C 1135.46 1.08127 1.63716 0
M  V30 12107 O 1134.59 0.33127 2.13849 0
M  V30 12108 C 1135.18 3.32437 0.653521 0
M  V30 12109 C 1133.74 3.59465 1.11633 0
M  V30 12110 C 1132.89 2.76909 0.147204 0
M  V30 12111 H 1135.84 1.53926 -0.386308 0
M  V30 12112 H 1135.86 3.49401 1.50662 0
M  V30 12113 H 1135.37 3.87098 -0.278766 0
M  V30 12114 H 1133.48 3.10206 2.06404 0
M  V30 12115 H 1133.59 4.67853 1.03202 0
M  V30 12116 H 1131.95 2.46457 0.642739 0
M  V30 12117 H 1132.74 3.34346 -0.778938 0
M  V30 12118 N 1135.18 -0.111886 1.57202 0
M  V30 12119 C 1136.09 -1.1556 2.04165 0
M  V30 12120 C 1137.11 -1.44898 0.963354 0
M  V30 12121 O 1138.28 -1.55873 1.27536 0
M  V30 12122 C 1135.35 -2.46048 2.44256 0
M  V30 12123 C 1134.41 -2.24043 3.66201 0
M  V30 12124 C 1133.64 -3.4831 4.04371 0
M  V30 12125 O 1133.86 -4.55895 3.42806 0
M  V30 12126 O 1132.8 -3.38891 4.9743 0
M  V30 12127 H 1136.62 -0.786778 2.93332 0
M  V30 12128 H 1134.21 -0.323196 1.45862 0
M  V30 12129 H 1136.09 -3.22916 2.70745 0
M  V30 12130 H 1134.77 -2.8239 1.58233 0
M  V30 12131 H 1133.67 -1.4501 3.44852 0
M  V30 12132 H 1135.01 -1.92602 4.52952 0
M  V30 12133 N 1136.66 -1.52894 -0.382264 0
M  V30 12134 C 1137.88 -1.72453 -1.15216 0
M  V30 12135 C 1138.31 -0.444925 -1.82762 0
M  V30 12136 O 1137.67 0.599825 -1.7109 0
M  V30 12137 C 1137.71 -2.87939 -2.17079 0
M  V30 12138 O 1136.82 -2.55383 -3.23811 0
M  V30 12139 H 1136.16 -0.57324 -0.335099 0
M  V30 12140 H 1138.69 -1.99713 -0.444495 0
M  V30 12141 H 1138.7 -3.13628 -2.60963 0
M  V30 12142 H 1137.37 -3.80765 -1.67305 0
M  V30 12143 H 1135.95 -2.40457 -2.85018 0
M  V30 12144 N 1138.14 0.641106 -1.43971 0
M  V30 12145 C 1139.38 1.40118 -1.4744 0
M  V30 12146 C 1139.74 1.92131 -0.101647 0
M  V30 12147 O 1139.03 1.70112 0.881614 0
M  V30 12148 C 1139.23 2.59092 -2.46183 0
M  V30 12149 C 1139.05 2.18725 -3.92924 0
M  V30 12150 C 1137.82 2.06475 -4.6119 0
M  V30 12151 C 1140.02 1.78255 -4.82421 0
M  V30 12152 N 1138 1.59566 -5.928 0
M  V30 12153 C 1139.38 1.42517 -6.03398 0
M  V30 12154 C 1141.43 1.65546 -4.69573 0
M  V30 12155 C 1140.13 0.953428 -7.12953 0
M  V30 12156 C 1142.16 1.19776 -5.79144 0
M  V30 12157 C 1141.52 0.84983 -6.99255 0
M  V30 12158 H 1137.62 0.507917 -0.594596 0
M  V30 12159 H 1140.2 0.736517 -1.80232 0
M  V30 12160 H 1138.38 3.232 -2.15398 0
M  V30 12161 H 1140.11 3.25847 -2.40012 0
M  V30 12162 H 1136.86 2.26615 -4.15863 0
M  V30 12163 H 1137.29 1.38438 -6.62694 0
M  V30 12164 H 1141.93 1.91081 -3.77158 0
M  V30 12165 H 1139.65 0.68558 -8.05187 0
M  V30 12166 H 1143.23 1.10415 -5.71226 0
M  V30 12167 H 1142.11 0.501081 -7.82597 0
M  V30 12168 N 1139.62 1.30703 0.880598 0
M  V30 12169 C 1140.55 1.20033 2.00286 0
M  V30 12170 C 1141.53 0.0899614 1.69862 0
M  V30 12171 O 1142.71 0.272747 1.92275 0
M  V30 12172 C 1139.84 0.895902 3.35546 0
M  V30 12173 C 1138.8 1.96468 3.80242 0
M  V30 12174 C 1138.12 1.51316 5.12843 0
M  V30 12175 C 1139.42 3.37637 3.98496 0
M  V30 12176 H 1141.12 2.13922 2.0947 0
M  V30 12177 H 1138.66 1.02989 1.00644 0
M  V30 12178 H 1140.61 0.807899 4.13583 0
M  V30 12179 H 1139.34 -0.0786636 3.26505 0
M  V30 12180 H 1138 2.0424 3.04437 0
M  V30 12181 H 1137.65 0.52674 5.00234 0
M  V30 12182 H 1137.35 2.22807 5.43719 0
M  V30 12183 H 1138.87 1.43903 5.93401 0
M  V30 12184 H 1140.28 3.326 4.66959 0
M  V30 12185 H 1138.68 4.07253 4.40755 0
M  V30 12186 H 1139.75 3.79205 3.02211 0
M  V30 12187 N 1141.09 -1.09351 1.1349 0
M  V30 12188 C 1142.34 -1.81988 0.908397 0
M  V30 12189 C 1142.69 -1.84087 -0.559442 0
M  V30 12190 O 1141.99 -1.29866 -1.40873 0
M  V30 12191 C 1142.18 -3.27498 1.43108 0
M  V30 12192 C 1142.01 -3.39575 2.9482 0
M  V30 12193 C 1140.78 -3.51332 3.63172 0
M  V30 12194 C 1142.98 -3.3204 3.92752 0
M  V30 12195 N 1140.96 -3.521 5.02891 0
M  V30 12196 C 1142.33 -3.39686 5.18665 0
M  V30 12197 C 1144.39 -3.15712 3.85007 0
M  V30 12198 C 1143.09 -3.32686 6.3774 0
M  V30 12199 C 1145.12 -3.10038 5.03617 0
M  V30 12200 C 1144.48 -3.18277 6.28394 0
M  V30 12201 H 1140.58 -0.680196 0.385821 0
M  V30 12202 H 1143.16 -1.30683 1.44326 0
M  V30 12203 H 1141.33 -3.77271 0.923118 0
M  V30 12204 H 1143.06 -3.8815 1.14549 0
M  V30 12205 H 1139.82 -3.54813 3.13695 0
M  V30 12206 H 1140.24 -3.56066 5.758 0
M  V30 12207 H 1144.88 -3.08212 2.89422 0
M  V30 12208 H 1142.6 -3.38949 7.3358 0
M  V30 12209 H 1146.19 -2.98539 4.99365 0
M  V30 12210 H 1145.07 -3.13904 7.18634 0
M  V30 12211 N 1142.57 -0.928524 -1.27343 0
M  V30 12212 C 1143.52 -0.418768 -2.28799 0
M  V30 12213 C 1144.51 0.497334 -1.61935 0
M  V30 12214 O 1145.72 0.376945 -1.76009 0
M  V30 12215 H 1142.09 -0.116855 -0.742865 0
M  V30 12216 H 1144.07 -1.28725 -2.69207 0
M  V30 12217 C 1142.81 0.312422 -3.46294 0
M  V30 12218 H 1142.14 -0.383317 -3.97958 0
M  V30 12219 H 1143.58 0.633514 -4.19241 0
M  V30 12220 C 1142.04 1.5257 -3.00373 0
M  V30 12221 O 1142.57 2.62443 -3.04116 0
M  V30 12222 N 1140.77 1.37782 -2.5586 0
M  V30 12223 H 1140.32 0.483908 -2.53014 0
M  V30 12224 H 1140.28 2.19085 -2.25498 0
M  V30 12225 N 1144.05 1.41491 -0.694123 0
M  V30 12226 C 1145.3 2.0155 -0.224809 0
M  V30 12227 C 1145.63 1.54844 1.17205 0
M  V30 12228 O 1144.9 0.75899 1.7908 0
M  V30 12229 C 1145.19 3.59003 -0.280884 0
M  V30 12230 C 1145.04 4.15839 -1.71458 0
M  V30 12231 C 1146.36 4.38624 0.360122 0
M  V30 12232 H 1143.48 0.732293 -0.0831632 0
M  V30 12233 H 1146.12 1.68258 -0.882569 0
M  V30 12234 H 1144.27 3.87496 0.279164 0
M  V30 12235 H 1145.94 3.98227 -2.32837 0
M  V30 12236 H 1144.18 3.70936 -2.2492 0
M  V30 12237 H 1144.86 5.24997 -1.70536 0
M  V30 12238 H 1147.33 4.15936 -0.11683 0
M  V30 12239 H 1146.21 5.48132 0.290337 0
M  V30 12240 H 1146.47 4.1797 1.44062 0
M  V30 12241 N 1145.53 0.438773 1.51369 0
M  V30 12242 C 1146.44 -0.378074 2.31534 0
M  V30 12243 C 1147.45 -1.02632 1.40508 0
M  V30 12244 O 1148.63 -1.02138 1.73579 0
M  V30 12245 C 1145.69 -1.46374 3.14286 0
M  V30 12246 C 1144.76 -0.835473 4.21092 0
M  V30 12247 C 1143.99 -1.86941 4.99889 0
M  V30 12248 O 1144.21 -3.0918 4.79337 0
M  V30 12249 O 1143.15 -1.45914 5.83946 0
M  V30 12250 H 1146.97 0.276401 3.0244 0
M  V30 12251 H 1144.56 0.201281 1.48038 0
M  V30 12252 H 1146.44 -2.09335 3.65728 0
M  V30 12253 H 1145.11 -2.10227 2.46143 0
M  V30 12254 H 1144.02 -0.167775 3.73724 0
M  V30 12255 H 1145.35 -0.240406 4.91613 0
M  V30 12256 N 1147.01 -1.56678 0.170181 0
M  V30 12257 C 1148.28 -1.88524 -0.521362 0
M  V30 12258 C 1148.66 -1.07989 -1.81388 0
M  V30 12259 O 1148.01 -0.17347 -2.27841 0
M  V30 12260 C 1148.22 -3.40527 -0.764367 0
M  V30 12261 C 1149.57 -4.10241 -1.09487 0
M  V30 12262 O 1150.59 -3.45837 -0.852945 0
M  V30 12263 O 1149.45 -5.24022 -1.55124 0
M  V30 12264 H 1146.55 -0.782161 -0.268614 0
M  V30 12265 H 1149.09 -1.68414 0.208531 0
M  V30 12266 H 1147.86 -3.91015 0.149416 0
M  V30 12267 H 1147.49 -3.66244 -1.54762 0
M  V30 12268 N 1148.48 0.103547 -1.57259 0
M  V30 12269 C 1149.41 1.12714 -2.04494 0
M  V30 12270 C 1150.39 1.42278 -0.932255 0
M  V30 12271 O 1151.58 1.52453 -1.20298 0
M  V30 12272 C 1148.71 2.44927 -2.46228 0
M  V30 12273 C 1147.66 2.2979 -3.61082 0
M  V30 12274 C 1146.99 3.67105 -3.88765 0
M  V30 12275 C 1148.29 1.7455 -4.9227 0
M  V30 12276 H 1149.98 0.734198 -2.90258 0
M  V30 12277 H 1147.53 0.351725 -1.39638 0
M  V30 12278 H 1149.48 3.16798 -2.77879 0
M  V30 12279 H 1148.21 2.8614 -1.57453 0
M  V30 12280 H 1146.87 1.60366 -3.29664 0
M  V30 12281 H 1146.51 4.05831 -2.97171 0
M  V30 12282 H 1146.21 3.57825 -4.66084 0
M  V30 12283 H 1147.74 4.40456 -4.22884 0
M  V30 12284 H 1149.15 2.36253 -5.22358 0
M  V30 12285 H 1147.55 1.76051 -5.73695 0
M  V30 12286 H 1148.62 0.704242 -4.79759 0
M  V30 12287 N 1149.96 1.53094 0.37415 0
M  V30 12288 C 1150.91 1.78927 1.45787 0
M  V30 12289 C 1151.88 0.633187 1.53558 0
M  V30 12290 O 1153.06 0.874472 1.69581 0
M  V30 12291 C 1150.2 1.97726 2.8284 0
M  V30 12292 C 1149.32 3.25436 2.84104 0
M  V30 12293 C 1148.45 3.3447 4.12678 0
M  V30 12294 C 1147.49 4.56246 4.08051 0
M  V30 12295 N 1146.63 4.6248 5.28258 0
M  V30 12296 H 1151.47 2.71404 1.2306 0
M  V30 12297 H 1149 1.34453 0.596716 0
M  V30 12298 H 1150.96 2.06611 3.62447 0
M  V30 12299 H 1149.59 1.08593 3.03986 0
M  V30 12300 H 1148.64 3.25548 1.96781 0
M  V30 12301 H 1149.96 4.15112 2.76556 0
M  V30 12302 H 1149.11 3.4262 5.00696 0
M  V30 12303 H 1147.85 2.42795 4.22968 0
M  V30 12304 H 1146.85 4.48206 3.1842 0
M  V30 12305 H 1148.08 5.49254 3.99371 0
M  V30 12306 H 1146.03 3.73703 5.3915 0
M  V30 12307 H 1145.94 5.46049 5.22845 0
M  V30 12308 H 1147.21 4.74903 6.18132 0
M  V30 12309 N 1151.44 -0.633461 1.44309 0
M  V30 12310 C 1152.35 -1.77428 1.53481 0
M  V30 12311 C 1153.37 -1.68839 0.420628 0
M  V30 12312 O 1154.54 -1.89658 0.677638 0
M  V30 12313 C 1151.61 -3.13801 1.47409 0
M  V30 12314 C 1150.67 -3.34039 2.6966 0
M  V30 12315 C 1149.9 -4.63907 2.63868 0
M  V30 12316 O 1150.12 -5.44559 1.69741 0
M  V30 12317 O 1149.06 -4.86295 3.54684 0
M  V30 12318 H 1152.88 -1.72642 2.49857 0
M  V30 12319 H 1150.47 -0.794399 1.26529 0
M  V30 12320 H 1152.35 -3.95101 1.46537 0
M  V30 12321 H 1151.03 -3.19134 0.541769 0
M  V30 12322 H 1149.93 -2.52427 2.761 0
M  V30 12323 H 1151.27 -3.33566 3.61931 0
M  V30 12324 N 1152.92 -1.31168 -0.873655 0
M  V30 12325 C 1154.33 -1.18584 -1.44203 0
M  V30 12326 C 1154.68 0.209114 -1.95082 0
M  V30 12327 O 1153.81 1.10662 -1.85965 0
M  V30 12328 C 1154.4 -2.14668 -2.62112 0
M  V30 12329 C 1152.96 -2.06029 -3.15006 0
M  V30 12330 C 1152.11 -2.04106 -1.87712 0
M  V30 12331 H 1155.06 -1.43273 -0.682536 0
M  V30 12332 H 1155.08 -1.73413 -3.38686 0
M  V30 12333 H 1154.59 -3.16186 -2.25051 0
M  V30 12334 H 1152.69 -1.07693 -3.56697 0
M  V30 12335 H 1152.8 -2.9496 -3.77539 0
M  V30 12336 H 1151.17 -1.49069 -2.0652 0
M  V30 12337 H 1151.95 -3.07373 -1.52894 0
M  V30 12338 N 1154.4 1.08748 -1.14068 0
M  V30 12339 C 1155.81 1.62551 -0.918379 0
M  V30 12340 C 1156.16 1.8852 0.543583 0
M  V30 12341 O 1155.28 1.64007 1.41176 0
M  V30 12342 C 1155.88 2.95309 -1.66066 0
M  V30 12343 C 1154.44 3.4591 -1.48403 0
M  V30 12344 C 1153.58 2.20204 -1.6854 0
M  V30 12345 H 1156.54 0.920196 -1.29298 0
M  V30 12346 H 1156.56 3.63587 -1.12181 0
M  V30 12347 H 1156.07 2.76377 -2.72465 0
M  V30 12348 H 1154.17 3.69953 -0.443353 0
M  V30 12349 H 1154.28 4.2289 -2.25169 0
M  V30 12350 H 1152.65 2.29203 -1.11077 0
M  V30 12351 H 1153.43 2.03783 -2.76274 0
M  V30 12352 N 1155.87 0.935264 1.26849 0
M  V30 12353 C 1156.82 0.438896 2.26588 0
M  V30 12354 C 1157.79 -0.498267 1.5845 0
M  V30 12355 O 1158.98 -0.415771 1.86215 0
M  V30 12356 C 1156.12 -0.295293 3.43834 0
M  V30 12357 C 1155.23 0.676857 4.26665 0
M  V30 12358 C 1154.36 -0.0779349 5.31143 0
M  V30 12359 C 1153.4 0.886425 6.05648 0
M  V30 12360 N 1152.54 0.163771 7.01909 0
M  V30 12361 H 1157.38 1.29439 2.6842 0
M  V30 12362 H 1154.92 0.649523 1.31983 0
M  V30 12363 H 1156.88 -0.737354 4.10632 0
M  V30 12364 H 1155.51 -1.11497 3.02933 0
M  V30 12365 H 1154.56 1.23744 3.5971 0
M  V30 12366 H 1155.87 1.41355 4.78351 0
M  V30 12367 H 1155.02 -0.579557 6.03926 0
M  V30 12368 H 1153.76 -0.84755 4.80279 0
M  V30 12369 H 1152.77 1.39923 5.31697 0
M  V30 12370 H 1153.99 1.65595 6.58601 0
M  V30 12371 H 1151.94 -0.58746 6.53364 0
M  V30 12372 H 1151.86 0.839902 7.5132 0
M  V30 12373 H 1153.12 -0.316951 7.78855 0
M  V30 12374 N 1157.35 -1.41121 0.701616 0
M  V30 12375 C 1158.3 -2.32582 0.0288052 0
M  V30 12376 C 1159.29 -1.5129 -0.762074 0
M  V30 12377 O 1160.5 -1.67185 -0.667014 0
M  V30 12378 H 1156.88 -0.75194 -0.00948675 0
M  V30 12379 H 1158.85 -2.86994 0.817141 0
M  V30 12380 C 1157.6 -3.36137 -0.889217 0
M  V30 12381 H 1156.92 -3.98746 -0.290062 0
M  V30 12382 H 1158.36 -4.0266 -1.32819 0
M  V30 12383 C 1156.82 -2.70504 -2.00821 0
M  V30 12384 O 1157.35 -2.55753 -3.09763 0
M  V30 12385 N 1155.55 -2.29105 -1.78772 0
M  V30 12386 H 1155.1 -2.41303 -0.901708 0
M  V30 12387 H 1155.06 -1.85527 -2.53825 0
M  V30 12388 N 1158.83 -0.446794 -1.51134 0
M  V30 12389 C 1160.08 0.116263 -2.01765 0
M  V30 12390 C 1160.4 1.42382 -1.33238 0
M  V30 12391 O 1159.67 1.9018 -0.469915 0
M  V30 12392 H 1158.25 0.0459558 -0.745585 0
M  V30 12393 H 1160.91 -0.591664 -1.85702 0
M  V30 12394 H 1160.01 0.285358 -3.10793 0
M  V30 12395 N 1160.31 1.56586 -0.178487 0
M  V30 12396 C 1161.56 1.96273 0.464745 0
M  V30 12397 C 1161.87 1.0675 1.63902 0
M  V30 12398 O 1163.08 1.36148 2.34896 0
M  V30 12399 C 1161.53 3.49021 0.878207 0
M  V30 12400 C 1161.14 4.4718 -0.270861 0
M  V30 12401 C 1162.88 3.97512 1.48946 0
M  V30 12402 C 1160.79 5.91176 0.162632 0
M  V30 12403 H 1159.72 0.732834 0.177398 0
M  V30 12404 H 1162.37 1.81534 -0.267861 0
M  V30 12405 H 1160.75 3.59203 1.667 0
M  V30 12406 H 1161.93 4.48718 -1.04826 0
M  V30 12407 H 1160.24 4.08788 -0.792529 0
M  V30 12408 H 1162.84 5.02556 1.82595 0
M  V30 12409 H 1163.18 3.40861 2.38997 0
M  V30 12410 H 1163.72 3.90376 0.76496 0
M  V30 12411 H 1160.46 6.51716 -0.703286 0
M  V30 12412 H 1159.98 5.9293 0.905243 0
M  V30 12413 H 1161.65 6.44174 0.604084 0
M  V30 12414 N 1161.79 -0.095206 1.57312 0
M  V30 12415 C 1163.01 -0.81614 1.90667 0
M  V30 12416 C 1163.44 -1.71494 0.772746 0
M  V30 12417 O 1162.79 -1.79192 -0.275682 0
M  V30 12418 C 1162.84 -1.60555 3.22885 0
M  V30 12419 O 1161.95 -2.71448 3.10467 0
M  V30 12420 H 1161.29 -0.224217 0.624998 0
M  V30 12421 H 1163.82 -0.070464 2.04479 0
M  V30 12422 H 1163.83 -1.98979 3.5619 0
M  V30 12423 H 1162.5 -0.945918 4.05 0
M  V30 12424 H 1161.08 -2.36053 2.88675 0
M  V30 12425 N 1163.26 -1.53291 -0.366026 0
M  V30 12426 C 1164.49 -1.73359 -1.12934 0
M  V30 12427 C 1164.91 -0.462352 -1.83051 0
M  V30 12428 O 1164.26 0.564711 -1.73543 0
M  V30 12429 C 1164.32 -2.89873 -2.15999 0
M  V30 12430 O 1164.04 -4.12079 -1.48737 0
M  V30 12431 C 1165.54 -3.21811 -3.04881 0
M  V30 12432 H 1162.76 -0.579827 -0.337701 0
M  V30 12433 H 1165.3 -2.00033 -0.425081 0
M  V30 12434 H 1163.46 -2.65595 -2.82025 0
M  V30 12435 H 1163.87 -4.77322 -2.17404 0
M  V30 12436 H 1165.34 -4.06744 -3.7318 0
M  V30 12437 H 1165.82 -2.37156 -3.69667 0
M  V30 12438 H 1166.43 -3.48013 -2.44473 0
M  V30 12439 N 1164.74 0.6258 -1.44643 0
M  V30 12440 C 1165.69 1.73751 -1.51919 0
M  V30 12441 C 1166.66 1.62007 -0.36647 0
M  V30 12442 O 1167.84 1.81852 -0.577439 0
M  V30 12443 C 1164.98 3.12015 -1.47448 0
M  V30 12444 C 1164.1 3.34696 -2.73135 0
M  V30 12445 C 1163.23 4.62962 -2.6046 0
M  V30 12446 C 1162.27 4.7884 -3.81286 0
M  V30 12447 N 1161.41 5.98388 -3.67255 0
M  V30 12448 H 1166.25 1.66867 -2.46899 0
M  V30 12449 H 1163.79 0.813921 -1.22531 0
M  V30 12450 H 1165.74 3.91983 -1.42846 0
M  V30 12451 H 1164.37 3.179 -0.560312 0
M  V30 12452 H 1163.43 2.4863 -2.87901 0
M  V30 12453 H 1164.74 3.42306 -3.62806 0
M  V30 12454 H 1163.89 5.51099 -2.53722 0
M  V30 12455 H 1162.63 4.57719 -1.68359 0
M  V30 12456 H 1161.64 3.89131 -3.88403 0
M  V30 12457 H 1162.86 4.85893 -4.74431 0
M  V30 12458 H 1160.81 5.94224 -2.77909 0
M  V30 12459 H 1160.72 6.07078 -4.50547 0
M  V30 12460 H 1161.99 6.89072 -3.64417 0
M  V30 12461 N 1166.22 1.31629 0.866686 0
M  V30 12462 C 1167.15 1.22151 1.99001 0
M  V30 12463 C 1168.13 0.107972 1.69757 0
M  V30 12464 O 1169.32 0.293125 1.91975 0
M  V30 12465 C 1166.45 0.93144 3.34577 0
M  V30 12466 C 1165.4 2.0049 3.78137 0
M  V30 12467 C 1164.73 1.56747 5.11209 0
M  V30 12468 C 1166.03 3.41844 3.94892 0
M  V30 12469 H 1167.72 2.16132 2.0719 0
M  V30 12470 H 1165.27 1.04051 0.995463 0
M  V30 12471 H 1167.22 0.851719 4.12703 0
M  V30 12472 H 1165.94 -0.0440289 3.2657 0
M  V30 12473 H 1164.6 2.07457 3.02253 0
M  V30 12474 H 1164.25 0.579767 4.99648 0
M  V30 12475 H 1163.95 2.28562 5.41326 0
M  V30 12476 H 1165.47 1.50188 5.91841 0
M  V30 12477 H 1166.89 3.37534 4.63405 0
M  V30 12478 H 1165.29 4.11905 4.36411 0
M  V30 12479 H 1166.36 3.82389 2.98172 0
M  V30 12480 N 1167.7 -1.08142 1.14644 0
M  V30 12481 C 1168.63 -2.14476 0.779437 0
M  V30 12482 C 1169.61 -1.60812 -0.240454 0
M  V30 12483 O 1170.79 -1.88059 -0.128881 0
M  V30 12484 C 1167.92 -3.38333 0.157692 0
M  V30 12485 C 1166.97 -4.10754 1.14819 0
M  V30 12486 S 1167.8 -4.63227 2.68666 0
M  V30 12487 C 1168.96 -5.90367 2.07888 0
M  V30 12488 H 1169.19 -2.45276 1.68009 0
M  V30 12489 H 1166.72 -1.20292 0.967942 0
M  V30 12490 H 1168.68 -4.10038 -0.194607 0
M  V30 12491 H 1167.34 -3.05726 -0.720435 0
M  V30 12492 H 1166.53 -4.99644 0.661226 0
M  V30 12493 H 1166.14 -3.44974 1.44462 0
M  V30 12494 H 1168.43 -6.62107 1.43599 0
M  V30 12495 H 1169.37 -6.43764 2.94913 0
M  V30 12496 H 1169.78 -5.43507 1.52514 0
M  V30 12497 N 1169.18 -0.941978 -1.26351 0
M  V30 12498 C 1170.13 -0.443011 -2.28342 0
M  V30 12499 C 1171.12 0.48013 -1.62453 0
M  V30 12500 O 1172.33 0.358255 -1.76399 0
M  V30 12501 H 1168.7 -0.124728 -0.741584 0
M  V30 12502 H 1170.67 -1.31573 -2.67827 0
M  V30 12503 C 1169.42 0.275675 -3.46605 0
M  V30 12504 H 1168.74 -0.425504 -3.97529 0
M  V30 12505 H 1170.18 0.589012 -4.19889 0
M  V30 12506 C 1168.64 1.49376 -3.01974 0
M  V30 12507 O 1169.17 2.59203 -3.06883 0
M  V30 12508 N 1167.38 1.35061 -2.57307 0
M  V30 12509 H 1166.93 0.457045 -2.53513 0
M  V30 12510 H 1166.88 2.16681 -2.27809 0
M  V30 12511 N 1170.66 1.40747 -0.709091 0
M  V30 12512 C 1171.9 2.00233 -0.242836 0
M  V30 12513 C 1172.22 1.56853 1.1686 0
M  V30 12514 O 1173.42 2.08993 1.73304 0
M  V30 12515 C 1171.88 3.57854 -0.383241 0
M  V30 12516 C 1171.49 4.10209 -1.80091 0
M  V30 12517 C 1173.23 4.24494 0.0225511 0
M  V30 12518 C 1171.14 5.60311 -1.89225 0
M  V30 12519 H 1170.07 0.74896 -0.087034 0
M  V30 12520 H 1172.72 1.61064 -0.879243 0
M  V30 12521 H 1171.1 3.94692 0.321642 0
M  V30 12522 H 1172.28 3.84762 -2.53564 0
M  V30 12523 H 1170.59 3.56142 -2.15758 0
M  V30 12524 H 1173.19 5.34694 -0.0250644 0
M  V30 12525 H 1173.53 4.02488 1.06344 0
M  V30 12526 H 1174.06 3.92739 -0.632541 0
M  V30 12527 H 1170.8 5.87162 -2.91412 0
M  V30 12528 H 1170.32 5.87642 -1.20154 0
M  V30 12529 H 1172 6.25306 -1.66136 0
M  V30 12530 N 1172.13 0.454803 1.50895 0
M  V30 12531 C 1173.38 -0.10577 2.02224 0
M  V30 12532 C 1173.71 -1.41176 1.33789 0
M  V30 12533 O 1172.96 -1.90522 0.447181 0
M  V30 12534 C 1173.26 -0.354159 3.55641 0
M  V30 12535 C 1172.93 0.868136 4.42464 0
M  V30 12536 C 1171.59 1.2033 4.65912 0
M  V30 12537 C 1173.94 1.68272 4.93289 0
M  V30 12538 C 1171.27 2.3534 5.37431 0
M  V30 12539 C 1173.62 2.82396 5.6607 0
M  V30 12540 C 1172.29 3.16346 5.87777 0
M  V30 12541 H 1171.56 -0.0387041 0.739989 0
M  V30 12542 H 1174.2 0.605564 1.81673 0
M  V30 12543 H 1172.51 -1.14757 3.74617 0
M  V30 12544 H 1174.21 -0.8016 3.92906 0
M  V30 12545 H 1170.8 0.596995 4.24422 0
M  V30 12546 H 1174.98 1.43698 4.75042 0
M  V30 12547 H 1170.24 2.61936 5.52449 0
M  V30 12548 H 1174.41 3.45873 6.04438 0
M  V30 12549 H 1172.04 4.05574 6.42973 0
M  V30 12550 N 1173.61 -1.56489 0.186789 0
M  V30 12551 C 1174.54 -2.21705 -0.732739 0
M  V30 12552 C 1175.52 -1.17751 -1.22755 0
M  V30 12553 O 1176.71 -1.46231 -1.27789 0
M  V30 12554 C 1173.84 -2.86992 -1.95584 0
M  V30 12555 C 1172.79 -3.97118 -1.59628 0
M  V30 12556 C 1172.12 -4.49529 -2.89531 0
M  V30 12557 C 1173.42 -5.15941 -0.812518 0
M  V30 12558 H 1175.11 -2.98802 -0.189094 0
M  V30 12559 H 1172.66 -1.43722 -0.0895099 0
M  V30 12560 H 1174.61 -3.31295 -2.60426 0
M  V30 12561 H 1173.33 -2.07287 -2.52388 0
M  V30 12562 H 1171.99 -3.53494 -0.971475 0
M  V30 12563 H 1171.64 -3.66596 -3.44407 0
M  V30 12564 H 1171.34 -5.23832 -2.66221 0
M  V30 12565 H 1172.87 -4.96528 -3.55376 0
M  V30 12566 H 1174.28 -5.56841 -1.36386 0
M  V30 12567 H 1172.68 -5.96259 -0.677862 0
M  V30 12568 H 1173.75 -4.84535 0.188095 0
M  V30 12569 N 1175.09 0.086862 -1.5736 0
M  V30 12570 C 1176.04 1.10478 -2.02641 0
M  V30 12571 C 1177.01 1.39331 -0.904219 0
M  V30 12572 O 1178.19 1.50654 -1.17081 0
M  V30 12573 C 1175.33 2.41754 -2.4627 0
M  V30 12574 C 1174.44 2.19561 -3.72044 0
M  V30 12575 C 1173.58 3.44294 -4.04519 0
M  V30 12576 C 1172.62 3.17399 -5.23378 0
M  V30 12577 N 1171.76 4.3442 -5.51564 0
M  V30 12578 H 1176.6 0.711663 -2.89378 0
M  V30 12579 H 1174.13 0.339856 -1.4312 0
M  V30 12580 H 1176.09 3.18378 -2.69613 0
M  V30 12581 H 1174.72 2.78896 -1.62532 0
M  V30 12582 H 1173.77 1.337 -3.5613 0
M  V30 12583 H 1175.08 1.95685 -4.58812 0
M  V30 12584 H 1174.24 4.29321 -4.28682 0
M  V30 12585 H 1172.98 3.71232 -3.16289 0
M  V30 12586 H 1171.98 2.30765 -4.99026 0
M  V30 12587 H 1173.21 2.91799 -6.13213 0
M  V30 12588 H 1171.15 4.61418 -4.66293 0
M  V30 12589 H 1171.07 4.13764 -6.3272 0
M  V30 12590 H 1172.34 5.20489 -5.80269 0
M  V30 12591 N 1176.57 1.53483 0.357892 0
M  V30 12592 C 1177.84 1.60649 1.11585 0
M  V30 12593 C 1178.22 0.418789 2.06904 0
M  V30 12594 O 1177.57 -0.590279 2.20744 0
M  V30 12595 C 1177.78 2.96046 1.84818 0
M  V30 12596 C 1179.13 3.50895 2.39076 0
M  V30 12597 O 1180.15 2.98126 1.94934 0
M  V30 12598 O 1179.01 4.43163 3.19794 0
M  V30 12599 H 1176.11 0.649202 0.512315 0
M  V30 12600 H 1178.65 1.65826 0.360537 0
M  V30 12601 H 1177.43 3.73929 1.15296 0
M  V30 12602 H 1177.05 2.94395 2.6724 0
M  V30 12603 N 1178.05 -0.61812 1.44973 0
M  V30 12604 C 1179.27 -1.40921 1.52171 0
M  V30 12605 C 1179.7 -1.87487 0.151755 0
M  V30 12606 O 1179.05 -1.59518 -0.861606 0
M  V30 12607 C 1179.1 -2.59689 2.50188 0
M  V30 12608 O 1178.21 -3.59967 2.0124 0
M  V30 12609 H 1177.55 -0.421138 0.51336 0
M  V30 12610 H 1180.08 -0.753258 1.90229 0
M  V30 12611 H 1180.09 -3.07069 2.6865 0
M  V30 12612 H 1178.76 -2.25144 3.4969 0
M  V30 12613 H 1177.34 -3.19308 1.92605 0
M  V30 12614 N 1179.52 -1.32087 -0.859693 0
M  V30 12615 C 1180.77 -1.21716 -1.60836 0
M  V30 12616 C 1181.09 0.220904 -1.94349 0
M  V30 12617 O 1182.29 0.446422 -2.67805 0
M  V30 12618 C 1180.75 -2.13143 -2.89997 0
M  V30 12619 C 1180.36 -3.62003 -2.63928 0
M  V30 12620 C 1182.1 -2.11596 -3.68004 0
M  V30 12621 C 1180.01 -4.45407 -3.89059 0
M  V30 12622 H 1178.94 -0.45199 -0.603507 0
M  V30 12623 H 1181.59 -1.57013 -0.949687 0
M  V30 12624 H 1179.97 -1.70755 -3.57294 0
M  V30 12625 H 1181.14 -4.12701 -2.04974 0
M  V30 12626 H 1179.46 -3.6563 -1.99258 0
M  V30 12627 H 1182.06 -2.71149 -4.6085 0
M  V30 12628 H 1182.4 -1.10568 -4.01348 0
M  V30 12629 H 1182.93 -2.52238 -3.07605 0
M  V30 12630 H 1179.67 -5.4723 -3.60859 0
M  V30 12631 H 1179.19 -3.99462 -4.47427 0
M  V30 12632 H 1180.87 -4.58149 -4.56846 0
M  V30 12633 N 1181 1.07532 -1.15215 0
M  V30 12634 C 1182.23 1.83817 -0.949687 0
M  V30 12635 C 1182.64 1.82004 0.501991 0
M  V30 12636 O 1182 1.23014 1.34811 0
M  V30 12637 C 1182.05 3.30978 -1.45382 0
M  V30 12638 O 1181.77 3.32844 -2.84863 0
M  V30 12639 C 1183.27 4.24037 -1.29257 0
M  V30 12640 H 1180.49 0.58 -0.337404 0
M  V30 12641 H 1183.04 1.35752 -1.52944 0
M  V30 12642 H 1181.19 3.76399 -0.916638 0
M  V30 12643 H 1181.61 4.24773 -3.07682 0
M  V30 12644 H 1183.08 5.25371 -1.69379 0
M  V30 12645 H 1183.56 4.38563 -0.236519 0
M  V30 12646 H 1184.16 3.8445 -1.81874 0
M  V30 12647 N 1182.48 0.948665 1.2585 0
M  V30 12648 C 1183.71 0.617229 1.97479 0
M  V30 12649 C 1184.12 -0.809406 1.7057 0
M  V30 12650 O 1183.48 -1.54066 0.97826 0
M  V30 12651 C 1183.53 0.859065 3.51144 0
M  V30 12652 O 1183.25 2.2296 3.77121 0
M  V30 12653 C 1184.75 0.539197 4.40009 0
M  V30 12654 H 1181.97 0.231933 0.629641 0
M  V30 12655 H 1184.52 1.27141 1.60173 0
M  V30 12656 H 1182.67 0.25138 3.86584 0
M  V30 12657 H 1183.09 2.29524 4.71613 0
M  V30 12658 H 1184.56 0.758986 5.46757 0
M  V30 12659 H 1185.04 -0.526062 4.36038 0
M  V30 12660 H 1185.64 1.12594 4.10125 0
M  V30 12661 N 1183.96 -1.40369 0.716545 0
M  V30 12662 C 1185.2 -2.01657 0.265674 0
M  V30 12663 C 1185.56 -1.55803 -1.12886 0
M  V30 12664 O 1184.85 -0.76863 -1.75507 0
M  V30 12665 C 1185.05 -3.56257 0.285583 0
M  V30 12666 C 1184.88 -4.1712 1.68051 0
M  V30 12667 C 1183.65 -4.50512 2.28839 0
M  V30 12668 C 1185.84 -4.41913 2.63092 0
M  V30 12669 N 1183.83 -4.96774 3.60679 0
M  V30 12670 C 1185.2 -4.90179 3.79638 0
M  V30 12671 C 1187.25 -4.23953 2.61091 0
M  V30 12672 C 1185.95 -5.22369 4.94493 0
M  V30 12673 C 1187.98 -4.57246 3.75074 0
M  V30 12674 C 1187.34 -5.05701 4.90353 0
M  V30 12675 H 1183.44 -0.768801 0.14307 0
M  V30 12676 H 1186.03 -1.70585 0.938548 0
M  V30 12677 H 1184.2 -3.86757 -0.35686 0
M  V30 12678 H 1185.93 -4.0429 -0.182091 0
M  V30 12679 H 1182.68 -4.37678 1.80929 0
M  V30 12680 H 1183.11 -5.24286 4.28315 0
M  V30 12681 H 1187.75 -3.8571 1.73169 0
M  V30 12682 H 1185.47 -5.59526 5.83058 0
M  V30 12683 H 1189.05 -4.44989 3.74802 0
M  V30 12684 H 1187.93 -5.30977 5.77091 0
M  V30 12685 N 1185.44 -0.462799 -1.50652 0
M  V30 12686 C 1186.35 0.341191 -2.32106 0
M  V30 12687 C 1187.36 1.00384 -1.42123 0
M  V30 12688 O 1188.54 0.993635 -1.75182 0
M  V30 12689 C 1185.6 1.41356 -3.16575 0
M  V30 12690 C 1184.66 0.768375 -4.22368 0
M  V30 12691 C 1183.9 1.78964 -5.028 0
M  V30 12692 O 1184.12 3.01515 -4.84195 0
M  V30 12693 O 1183.05 1.36606 -5.86193 0
M  V30 12694 H 1186.88 -0.324482 -3.01962 0
M  V30 12695 H 1184.47 -0.224807 -1.47699 0
M  V30 12696 H 1186.35 2.0349 -3.69012 0
M  V30 12697 H 1185.02 2.06285 -2.49456 0
M  V30 12698 H 1183.93 0.108297 -3.73943 0
M  V30 12699 H 1185.26 0.162164 -4.91933 0
M  V30 12700 N 1186.91 1.56388 -0.195085 0
M  V30 12701 C 1188.16 1.96755 0.443901 0
M  V30 12702 C 1188.48 1.08483 1.6276 0
M  V30 12703 O 1189.68 1.38632 2.33438 0
M  V30 12704 C 1188.14 3.49933 0.841139 0
M  V30 12705 C 1187.75 4.46868 -0.318275 0
M  V30 12706 C 1189.49 3.99069 1.44721 0
M  V30 12707 C 1187.4 5.91316 0.0999211 0
M  V30 12708 H 1186.33 0.734674 0.169616 0
M  V30 12709 H 1188.98 1.8124 -0.287101 0
M  V30 12710 H 1187.36 3.60951 1.62881 0
M  V30 12711 H 1188.53 4.47581 -1.0958 0
M  V30 12712 H 1186.85 4.07925 -0.835842 0
M  V30 12713 H 1189.45 5.04465 1.77255 0
M  V30 12714 H 1189.79 3.43376 2.35369 0
M  V30 12715 H 1190.32 3.91165 0.723513 0
M  V30 12716 H 1187.06 6.50934 -0.77237 0
M  V30 12717 H 1186.58 5.93856 0.842304 0
M  V30 12718 H 1188.26 6.44778 0.535726 0
M  V30 12719 N 1188.39 -0.0785156 1.57404 0
M  V30 12720 C 1189.32 -1.09446 2.06262 0
M  V30 12721 C 1190.3 -1.40777 0.954772 0
M  V30 12722 O 1191.49 -1.5052 1.22708 0
M  V30 12723 C 1188.62 -2.40979 2.50093 0
M  V30 12724 C 1187.57 -2.24017 3.64692 0
M  V30 12725 C 1186.9 -3.60873 3.94556 0
M  V30 12726 C 1188.2 -1.66696 4.94985 0
M  V30 12727 H 1189.89 -0.687928 2.9139 0
M  V30 12728 H 1187.44 -0.329466 1.4018 0
M  V30 12729 H 1189.39 -3.12337 2.82884 0
M  V30 12730 H 1188.12 -2.83599 1.61985 0
M  V30 12731 H 1186.77 -1.55101 3.32174 0
M  V30 12732 H 1186.42 -4.01051 3.0359 0
M  V30 12733 H 1186.12 -3.50365 4.71718 0
M  V30 12734 H 1187.65 -4.33673 4.29837 0
M  V30 12735 H 1189.06 -2.27913 5.2605 0
M  V30 12736 H 1187.46 -1.66902 5.76423 0
M  V30 12737 H 1188.53 -0.627827 4.80818 0
M  V30 12738 N 1189.87 -1.5367 -0.349747 0
M  V30 12739 C 1190.83 -1.80533 -1.41211 0
M  V30 12740 C 1191.83 -0.676188 -1.45892 0
M  V30 12741 O 1193.02 -0.944453 -1.46375 0
M  V30 12742 C 1190.16 -1.94175 -2.80195 0
M  V30 12743 H 1191.35 -2.75428 -1.18658 0
M  V30 12744 H 1188.9 -1.44988 -0.583787 0
M  V30 12745 H 1189.64 -1.01402 -3.08039 0
M  V30 12746 H 1189.42 -2.76316 -2.78194 0
M  V30 12747 H 1190.91 -2.16496 -3.57098 0
M  V30 12748 N 1191.35 0.610423 -1.45298 0
M  V30 12749 C 1192.59 1.37154 -1.49388 0
M  V30 12750 C 1192.93 1.93737 -0.134025 0
M  V30 12751 O 1192.2 1.74888 0.851138 0
M  V30 12752 C 1192.49 2.52155 -2.5708 0
M  V30 12753 C 1192.34 2.00786 -4.02498 0
M  V30 12754 C 1193.66 3.54294 -2.61082 0
M  V30 12755 H 1190.78 0.497346 -0.54389 0
M  V30 12756 H 1193.42 0.688358 -1.77092 0
M  V30 12757 H 1191.57 3.10434 -2.33587 0
M  V30 12758 H 1193.24 1.47178 -4.37191 0
M  V30 12759 H 1191.48 1.31809 -4.1329 0
M  V30 12760 H 1192.15 2.83674 -4.73533 0
M  V30 12761 H 1194.63 3.05851 -2.82125 0
M  V30 12762 H 1193.51 4.32254 -3.38301 0
M  V30 12763 H 1193.77 4.09726 -1.66063 0
M  V30 12764 N 1192.83 1.32541 0.852676 0
M  V30 12765 C 1194.05 1.2636 1.64462 0
M  V30 12766 C 1194.48 -0.16508 1.87374 0
M  V30 12767 O 1193.83 -1.11712 1.42794 0
M  V30 12768 C 1193.88 2.03052 2.97997 0
M  V30 12769 O 1192.99 1.37967 3.88637 0
M  V30 12770 H 1192.33 0.435393 0.501327 0
M  V30 12771 H 1194.86 1.74888 1.06186 0
M  V30 12772 H 1194.87 2.133 3.47803 0
M  V30 12773 H 1193.54 3.06941 2.80642 0
M  V30 12774 H 1192.12 1.36279 3.47106 0
M  V30 12775 N 1194.3 -1.0692 1.15784 0
M  V30 12776 C 1195.24 -2.13637 0.802141 0
M  V30 12777 C 1196.22 -1.61058 -0.223384 0
M  V30 12778 O 1197.4 -1.88185 -0.108927 0
M  V30 12779 C 1194.53 -3.38146 0.193568 0
M  V30 12780 C 1193.57 -4.09513 1.19169 0
M  V30 12781 S 1194.41 -4.60351 2.73564 0
M  V30 12782 C 1195.56 -5.88129 2.14138 0
M  V30 12783 H 1195.79 -2.4348 1.70601 0
M  V30 12784 H 1193.33 -1.19259 0.980646 0
M  V30 12785 H 1195.29 -4.10222 -0.151106 0
M  V30 12786 H 1193.95 -3.06473 -0.687968 0
M  V30 12787 H 1193.14 -4.98914 0.714183 0
M  V30 12788 H 1192.74 -3.43422 1.48113 0
M  V30 12789 H 1195.03 -6.60547 1.50614 0
M  V30 12790 H 1195.98 -6.406 3.01724 0
M  V30 12791 H 1196.38 -5.41859 1.5827 0
M  V30 12792 N 1195.78 -0.955326 -1.25345 0
M  V30 12793 C 1197.01 -0.627233 -1.97688 0
M  V30 12794 C 1197.43 0.793973 -1.70522 0
M  V30 12795 O 1196.79 1.537 -0.961556 0
M  V30 12796 C 1196.84 -0.892969 -3.49369 0
M  V30 12797 O 1195.94 0.0278871 -4.12391 0
M  V30 12798 H 1195.28 -0.238402 -0.619726 0
M  V30 12799 H 1197.81 -1.28211 -1.59446 0
M  V30 12800 H 1197.82 -0.819517 -3.99685 0
M  V30 12801 H 1196.5 -1.92879 -3.6847 0
M  V30 12802 H 1195.08 -0.0978295 -3.72772 0
M  V30 12803 N 1197.26 1.39987 -0.723979 0
M  V30 12804 C 1198.54 1.94637 -0.1939 0
M  V30 12805 C 1198.92 1.66156 1.30212 0
M  V30 12806 O 1198.27 0.983783 2.06238 0
M  V30 12807 C 1198.48 3.4517 -0.515652 0
M  V30 12808 C 1199.82 4.22113 -0.458919 0
M  V30 12809 O 1200.85 3.53318 -0.452198 0
M  V30 12810 O 1199.71 5.44695 -0.443783 0
M  V30 12811 H 1196.8 0.826394 -0.0316615 0
M  V30 12812 H 1199.35 1.49548 -0.802085 0
M  V30 12813 H 1198.12 3.5929 -1.55004 0
M  V30 12814 H 1197.74 3.97413 0.122067 0
M  V30 12815 N 1198.74 0.470782 1.50404 0
M  V30 12816 C 1199.69 -0.32355 2.28521 0
M  V30 12817 C 1200.66 -0.987472 1.3356 0
M  V30 12818 O 1201.84 -0.999969 1.62497 0
M  V30 12819 C 1198.98 -1.39977 3.15437 0
M  V30 12820 C 1198.09 -0.750656 4.25428 0
M  V30 12821 C 1197.23 -1.80474 4.99602 0
M  V30 12822 C 1196.27 -1.13586 6.01469 0
M  V30 12823 N 1195.41 -2.13279 6.68922 0
M  V30 12824 H 1200.25 0.348902 2.9595 0
M  V30 12825 H 1197.78 0.183908 1.45946 0
M  V30 12826 H 1199.74 -2.0354 3.6418 0
M  V30 12827 H 1198.37 -2.04139 2.50054 0
M  V30 12828 H 1197.42 -0.00247092 3.804 0
M  V30 12829 H 1198.73 -0.222638 4.98303 0
M  V30 12830 H 1197.89 -2.51619 5.52062 0
M  V30 12831 H 1196.63 -2.36657 4.26433 0
M  V30 12832 H 1195.63 -0.410042 5.48269 0
M  V30 12833 H 1196.86 -0.580935 6.76611 0
M  V30 12834 H 1194.8 -2.68479 5.98544 0
M  V30 12835 H 1194.72 -1.65461 7.37671 0
M  V30 12836 H 1195.99 -2.83804 7.26 0
M  V30 12837 N 1200.22 -1.56282 0.203376 0
M  V30 12838 C 1201.16 -2.19473 -0.714164 0
M  V30 12839 C 1202.13 -1.14454 -1.20372 0
M  V30 12840 O 1203.32 -1.42739 -1.26611 0
M  V30 12841 C 1200.46 -2.86451 -1.92457 0
M  V30 12842 C 1199.57 -4.06017 -1.47561 0
M  V30 12843 C 1198.71 -4.60829 -2.64216 0
M  V30 12844 C 1197.75 -5.72734 -2.15967 0
M  V30 12845 N 1196.88 -6.21916 -3.25829 0
M  V30 12846 H 1201.72 -2.97523 -0.168558 0
M  V30 12847 H 1199.26 -1.46926 -0.0714525 0
M  V30 12848 H 1201.22 -3.23459 -2.63496 0
M  V30 12849 H 1199.85 -2.10951 -2.44335 0
M  V30 12850 H 1198.9 -3.74617 -0.660784 0
M  V30 12851 H 1200.21 -4.8693 -1.08168 0
M  V30 12852 H 1199.37 -5.00185 -3.43366 0
M  V30 12853 H 1198.11 -3.7904 -3.06887 0
M  V30 12854 H 1197.11 -5.32899 -1.35273 0
M  V30 12855 H 1198.34 -6.56346 -1.74316 0
M  V30 12856 H 1196.28 -5.43047 -3.68016 0
M  V30 12857 H 1196.2 -6.97904 -2.90631 0
M  V30 12858 H 1197.47 -6.65927 -4.05168 0
M  V30 12859 N 1201.7 0.070167 -1.57444 0
M  V30 12860 C 1202.94 0.767495 -1.8696 0
M  V30 12861 C 1203.26 1.78032 -0.795595 0
M  V30 12862 O 1202.53 1.95112 0.175566 0
M  V30 12863 H 1201.11 0.286443 -0.689898 0
M  V30 12864 H 1203.78 0.0458692 -1.94846 0
M  V30 12865 H 1202.87 1.28269 -2.84523 0
M  V30 12866 N 1203.17 1.53854 0.341593 0
M  V30 12867 C 1204.42 1.7041 1.07905 0
M  V30 12868 C 1204.74 0.475039 1.89744 0
M  V30 12869 O 1205.94 0.521589 2.66443 0
M  V30 12870 C 1204.4 3.01342 1.96776 0
M  V30 12871 C 1204.01 4.31592 1.20135 0
M  V30 12872 C 1205.75 3.27264 2.70367 0
M  V30 12873 C 1203.66 5.53598 2.08047 0
M  V30 12874 H 1202.59 0.635005 0.406553 0
M  V30 12875 H 1205.24 1.80353 0.338409 0
M  V30 12876 H 1203.62 2.85261 2.74667 0
M  V30 12877 H 1204.79 4.58382 0.471404 0
M  V30 12878 H 1203.11 4.12298 0.583039 0
M  V30 12879 H 1205.71 4.15607 3.36415 0
M  V30 12880 H 1206.05 2.44357 3.37039 0
M  V30 12881 H 1206.58 3.4413 1.99548 0
M  V30 12882 H 1203.32 6.39053 1.45914 0
M  V30 12883 H 1202.84 5.31052 2.78825 0
M  V30 12884 H 1204.52 5.89314 2.67055 0
M  V30 12885 N 1204.65 -0.602709 1.4562 0
M  V30 12886 C 1205.89 -1.37284 1.51435 0
M  V30 12887 C 1206.26 -1.9138 0.154148 0
M  V30 12888 O 1207.46 -2.68659 0.0870009 0
M  V30 12889 C 1205.73 -2.48651 2.56724 0
M  V30 12890 S 1207.29 -3.36354 2.818 0
M  V30 12891 H 1204.1 -0.46798 0.535272 0
M  V30 12892 H 1206.71 -0.694957 1.82731 0
M  V30 12893 H 1205.41 -2.07267 3.54215 0
M  V30 12894 H 1204.94 -3.21234 2.27095 0
M  V30 12895 H 1206.96 -4.46937 2.15549 0
M  V30 12896 N 1206.13 -1.32992 -0.845635 0
M  V30 12897 C 1207.38 -1.24249 -1.60281 0
M  V30 12898 C 1207.71 0.193049 -1.93238 0
M  V30 12899 O 1206.98 1.1326 -1.58122 0
M  V30 12900 C 1207.27 -2.1111 -2.91727 0
M  V30 12901 C 1207.12 -3.63088 -2.65494 0
M  V30 12902 C 1208.44 -1.97913 -3.93089 0
M  V30 12903 H 1205.56 -0.452698 -0.581578 0
M  V30 12904 H 1208.2 -1.63026 -0.975828 0
M  V30 12905 H 1206.35 -1.78169 -3.45236 0
M  V30 12906 H 1208.02 -4.06287 -2.18469 0
M  V30 12907 H 1206.26 -3.85304 -1.99306 0
M  V30 12908 H 1206.94 -4.19202 -3.59129 0
M  V30 12909 H 1209.41 -2.26788 -3.48864 0
M  V30 12910 H 1208.29 -2.60952 -4.82903 0
M  V30 12911 H 1208.55 -0.949378 -4.31786 0
M  V30 12912 N 1207.61 1.06304 -1.1635 0
M  V30 12913 C 1208.57 2.11947 -0.872419 0
M  V30 12914 C 1209.57 1.60253 0.132534 0
M  V30 12915 O 1210.76 1.73922 -0.0983441 0
M  V30 12916 C 1207.89 3.39536 -0.304646 0
M  V30 12917 H 1209.09 2.39201 -1.80894 0
M  V30 12918 H 1206.64 1.22367 -0.972419 0
M  V30 12919 H 1207.37 3.17931 0.639565 0
M  V30 12920 H 1207.16 3.78363 -1.02878 0
M  V30 12921 H 1208.65 4.17431 -0.118936 0
M  V30 12922 N 1209.09 0.96196 1.24836 0
M  V30 12923 C 1210.36 0.537809 1.88061 0
M  V30 12924 C 1210.74 -0.985023 1.8671 0
M  V30 12925 O 1210.09 -1.85394 1.33572 0
M  V30 12926 C 1210.3 1.12279 3.30446 0
M  V30 12927 C 1211.65 1.20414 4.07168 0
M  V30 12928 O 1212.67 1.07488 3.39595 0
M  V30 12929 O 1211.53 1.4078 5.28056 0
M  V30 12930 H 1208.63 0.178491 0.807509 0
M  V30 12931 H 1211.17 1.05586 1.32852 0
M  V30 12932 H 1209.94 2.16578 3.25898 0
M  V30 12933 H 1209.57 0.58843 3.93222 0
M  V30 12934 N 1210.56 -1.39601 0.731392 0
M  V30 12935 C 1211.97 -1.83424 0.348194 0
M  V30 12936 C 1212.33 -1.61106 -1.11979 0
M  V30 12937 O 1211.45 -1.1003 -1.86339 0
M  V30 12938 C 1212.05 -3.32982 0.6252 0
M  V30 12939 C 1210.6 -3.75238 0.295536 0
M  V30 12940 C 1209.75 -2.62642 0.88964 0
M  V30 12941 H 1212.7 -1.28644 0.929318 0
M  V30 12942 H 1212.72 -3.80357 -0.104254 0
M  V30 12943 H 1212.24 -3.49193 1.69368 0
M  V30 12944 H 1210.34 -3.64615 -0.767254 0
M  V30 12945 H 1210.45 -4.72781 0.775576 0
M  V30 12946 H 1208.81 -2.52726 0.316529 0
M  V30 12947 H 1209.6 -2.81661 1.96271 0
M  V30 12948 N 1212.04 -0.478751 -1.50152 0
M  V30 12949 C 1213.29 0.073585 -2.02366 0
M  V30 12950 C 1213.62 1.3903 -1.36018 0
M  V30 12951 O 1212.87 1.89787 -0.477435 0
M  V30 12952 C 1213.17 0.297535 -3.56159 0
M  V30 12953 C 1212.84 -0.938419 -4.41027 0
M  V30 12954 C 1211.5 -1.27727 -4.63939 0
M  V30 12955 C 1213.85 -1.76098 -4.9055 0
M  V30 12956 C 1211.18 -2.4386 -5.33619 0
M  V30 12957 C 1213.53 -2.91366 -5.61506 0
M  V30 12958 C 1212.2 -3.25657 -5.8267 0
M  V30 12959 H 1211.47 0.0269267 -0.740511 0
M  V30 12960 H 1214.11 -0.63439 -1.80687 0
M  V30 12961 H 1212.42 1.08783 -3.76395 0
M  V30 12962 H 1214.11 0.73899 -3.94132 0
M  V30 12963 H 1210.7 -0.664441 -4.23418 0
M  V30 12964 H 1214.89 -1.51237 -4.72696 0
M  V30 12965 H 1210.14 -2.70692 -5.48211 0
M  V30 12966 H 1214.32 -3.55445 -5.98859 0
M  V30 12967 H 1211.95 -4.15751 -6.36439 0
M  V30 12968 N 1213.52 1.56172 -0.211661 0
M  V30 12969 C 1214.43 2.23468 0.714081 0
M  V30 12970 C 1215.45 1.23908 1.22159 0
M  V30 12971 O 1216.62 1.56693 1.26528 0
M  V30 12972 C 1213.69 2.89375 1.90953 0
M  V30 12973 C 1212.75 4.04251 1.44497 0
M  V30 12974 C 1211.98 4.67006 2.58343 0
M  V30 12975 O 1212.2 4.28721 3.76237 0
M  V30 12976 O 1211.14 5.56177 2.3011 0
M  V30 12977 H 1214.96 3.03219 0.170862 0
M  V30 12978 H 1212.55 1.49389 0.0183607 0
M  V30 12979 H 1214.43 3.3101 2.60787 0
M  V30 12980 H 1213.11 2.12591 2.44104 0
M  V30 12981 H 1212.01 3.67205 0.714932 0
M  V30 12982 H 1213.35 4.82748 0.959947 0
M  V30 12983 N 1215 -0.0618163 1.57479 0
M  V30 12984 C 1216.24 -0.760193 1.88013 0
M  V30 12985 C 1216.58 -1.76718 0.805258 0
M  V30 12986 O 1215.85 -1.93633 -0.183408 0
M  V30 12987 C 1216.14 -1.45924 3.29208 0
M  V30 12988 C 1215.99 -0.467994 4.47359 0
M  V30 12989 C 1217.31 -2.40166 3.68793 0
M  V30 12990 H 1214.43 -0.274896 0.683814 0
M  V30 12991 H 1217.07 -0.0232433 1.89986 0
M  V30 12992 H 1215.22 -2.08741 3.27657 0
M  V30 12993 H 1216.89 0.155735 4.61037 0
M  V30 12994 H 1215.13 0.215797 4.33263 0
M  V30 12995 H 1215.8 -0.994942 5.42959 0
M  V30 12996 H 1218.28 -1.87419 3.71501 0
M  V30 12997 H 1217.16 -2.86076 4.68457 0
M  V30 12998 H 1217.42 -3.25413 2.99264 0
M  V30 12999 N 1216.48 -1.54033 -0.333429 0
M  V30 13000 C 1217.7 -1.75716 -1.09232 0
M  V30 13001 C 1218.12 -0.501076 -1.82029 0
M  V30 13002 O 1217.48 0.527772 -1.74702 0
M  V30 13003 C 1217.53 -2.9439 -2.09802 0
M  V30 13004 O 1217.25 -4.15141 -1.39963 0
M  V30 13005 C 1218.75 -3.28206 -2.97987 0
M  V30 13006 H 1215.97 -0.586859 -0.325326 0
M  V30 13007 H 1218.51 -2.0089 -0.382555 0
M  V30 13008 H 1216.67 -2.71518 -2.76327 0
M  V30 13009 H 1217.08 -4.81826 -2.0723 0
M  V30 13010 H 1218.56 -4.14568 -3.64469 0
M  V30 13011 H 1219.03 -2.44944 -3.64553 0
M  V30 13012 H 1219.64 -3.5312 -2.37036 0
M  V30 13013 N 1217.95 0.594978 -1.45938 0
M  V30 13014 C 1219.2 1.35561 -1.50834 0
M  V30 13015 C 1219.53 1.93584 -0.154566 0
M  V30 13016 O 1218.81 1.75781 0.832541 0
M  V30 13017 C 1219.09 2.49414 -2.5974 0
M  V30 13018 C 1218.94 1.96506 -4.04605 0
M  V30 13019 C 1220.26 3.51505 -2.64825 0
M  V30 13020 H 1217.38 0.491549 -0.549134 0
M  V30 13021 H 1220.02 0.669536 -1.77812 0
M  V30 13022 H 1218.17 3.07939 -2.36866 0
M  V30 13023 H 1219.85 1.42533 -4.38728 0
M  V30 13024 H 1218.09 1.27418 -4.14665 0
M  V30 13025 H 1218.76 2.78636 -4.76515 0
M  V30 13026 H 1221.24 3.02841 -2.85353 0
M  V30 13027 H 1220.11 4.28641 -3.42867 0
M  V30 13028 H 1220.37 4.07942 -1.70399 0
M  V30 13029 N 1219.43 1.33438 0.838571 0
M  V30 13030 C 1220.37 1.18055 1.9529 0
M  V30 13031 C 1221.34 0.075958 1.62422 0
M  V30 13032 O 1222.53 0.23825 1.86988 0
M  V30 13033 C 1219.65 0.810795 3.28852 0
M  V30 13034 C 1218.7 1.92293 3.80691 0
M  V30 13035 S 1219.53 3.53395 4.02334 0
M  V30 13036 C 1220.69 3.18426 5.38846 0
M  V30 13037 H 1220.92 2.12384 2.08039 0
M  V30 13038 H 1218.46 1.18284 0.992385 0
M  V30 13039 H 1220.41 0.604235 4.06029 0
M  V30 13040 H 1219.07 -0.113894 3.13893 0
M  V30 13041 H 1218.27 1.61758 4.77337 0
M  V30 13042 H 1217.87 2.08617 3.10411 0
M  V30 13043 H 1220.16 2.6927 6.21691 0
M  V30 13044 H 1221.1 4.14153 5.74354 0
M  V30 13045 H 1221.51 2.55016 5.03614 0
M  V30 13046 N 1220.91 -1.05686 1.16912 0
M  V30 13047 C 1221.84 -2.1329 0.839044 0
M  V30 13048 C 1222.86 -1.62047 -0.156392 0
M  V30 13049 O 1224.04 -1.78366 0.0692192 0
M  V30 13050 C 1221.14 -3.38122 0.229558 0
M  V30 13051 C 1220.32 -4.18659 1.26662 0
M  V30 13052 C 1219.38 -5.21842 0.675811 0
M  V30 13053 O 1218.4 -5.53049 1.3463 0
M  V30 13054 N 1219.6 -5.78034 -0.534532 0
M  V30 13055 H 1222.37 -2.42203 1.76515 0
M  V30 13056 H 1219.93 -1.2174 1.06729 0
M  V30 13057 H 1221.92 -4.04305 -0.178868 0
M  V30 13058 H 1220.49 -3.06783 -0.60023 0
M  V30 13059 H 1219.71 -3.4804 1.85099 0
M  V30 13060 H 1221 -4.6927 1.9663 0
M  V30 13061 H 1220.4 -5.54955 -1.09731 0
M  V30 13062 H 1218.96 -6.45763 -0.885087 0
M  V30 13063 N 1222.39 -0.968567 -1.24324 0
M  V30 13064 C 1223.67 -0.547774 -1.87773 0
M  V30 13065 C 1224.05 0.975107 -1.87229 0
M  V30 13066 O 1223.39 1.84683 -1.34553 0
M  V30 13067 C 1223.6 -1.1403 -3.29846 0
M  V30 13068 C 1224.95 -1.22572 -4.06523 0
M  V30 13069 O 1225.98 -1.09287 -3.3902 0
M  V30 13070 O 1224.83 -1.43579 -5.27302 0
M  V30 13071 H 1221.93 -0.182771 -0.806551 0
M  V30 13072 H 1224.47 -1.06289 -1.3229 0
M  V30 13073 H 1223.25 -2.18303 -3.24745 0
M  V30 13074 H 1222.87 -0.609275 -3.92904 0
M  V30 13075 N 1223.87 1.39211 -0.738786 0
M  V30 13076 C 1225.11 2.00436 -0.28839 0
M  V30 13077 C 1225.44 1.58626 1.12552 0
M  V30 13078 O 1224.7 0.808154 1.78234 0
M  V30 13079 C 1225 3.55758 -0.342224 0
M  V30 13080 C 1224.66 4.1723 -1.70968 0
M  V30 13081 C 1223.32 4.33734 -2.08395 0
M  V30 13082 C 1225.68 4.51294 -2.60736 0
M  V30 13083 C 1223 4.81592 -3.35091 0
M  V30 13084 C 1225.36 5.00562 -3.86808 0
M  V30 13085 C 1224.02 5.15274 -4.24322 0
M  V30 13086 H 1223.29 0.733447 -0.105529 0
M  V30 13087 H 1225.94 1.66481 -0.94637 0
M  V30 13088 H 1224.24 3.8976 0.399331 0
M  V30 13089 H 1225.94 4.00993 0.0244582 0
M  V30 13090 H 1222.53 4.04788 -1.4087 0
M  V30 13091 H 1226.71 4.38158 -2.3309 0
M  V30 13092 H 1221.97 4.91167 -3.64095 0
M  V30 13093 H 1226.14 5.25892 -4.5652 0
M  V30 13094 H 1223.77 5.52119 -5.2256 0
M  V30 13095 N 1225.34 0.486708 1.49896 0
M  V30 13096 C 1226.59 -0.062852 2.02402 0
M  V30 13097 C 1226.92 -1.38306 1.36754 0
M  V30 13098 O 1226.17 -1.89531 0.487493 0
M  V30 13099 C 1226.47 -0.278643 3.56312 0
M  V30 13100 C 1226.14 0.961794 4.40523 0
M  V30 13101 C 1224.8 1.30185 4.63255 0
M  V30 13102 C 1227.15 1.78697 4.89609 0
M  V30 13103 C 1224.48 2.46686 5.32318 0
M  V30 13104 C 1226.83 2.9434 5.59953 0
M  V30 13105 C 1225.5 3.28742 5.80935 0
M  V30 13106 H 1224.77 -0.0229992 0.740643 0
M  V30 13107 H 1227.41 0.643963 1.80348 0
M  V30 13108 H 1225.72 -1.06785 3.76967 0
M  V30 13109 H 1227.42 -0.718078 3.94518 0
M  V30 13110 H 1224.01 0.686887 4.2306 0
M  V30 13111 H 1228.19 1.53742 4.71887 0
M  V30 13112 H 1223.45 2.73596 5.46768 0
M  V30 13113 H 1227.62 3.58616 5.96965 0
M  V30 13114 H 1225.25 4.19121 6.34225 0
M  V30 13115 N 1226.82 -1.56058 0.219941 0
M  V30 13116 C 1228.07 -1.97436 -0.412543 0
M  V30 13117 C 1228.39 -1.11058 -1.61014 0
M  V30 13118 O 1229.59 -1.42328 -2.31203 0
M  V30 13119 C 1228.05 -3.51227 -0.785362 0
M  V30 13120 C 1227.66 -4.46305 0.389328 0
M  V30 13121 C 1229.4 -4.01321 -1.38354 0
M  V30 13122 C 1227.31 -5.914 -0.00583531 0
M  V30 13123 H 1226.24 -0.73728 -0.157906 0
M  V30 13124 H 1228.89 -1.8076 0.315898 0
M  V30 13125 H 1227.27 -3.63497 -1.57118 0
M  V30 13126 H 1228.44 -4.45781 1.16686 0
M  V30 13127 H 1226.76 -4.06543 0.900633 0
M  V30 13128 H 1229.36 -5.07221 -1.69207 0
M  V30 13129 H 1229.7 -3.47077 -2.29876 0
M  V30 13130 H 1230.23 -3.92267 -0.66119 0
M  V30 13131 H 1226.97 -6.49623 0.87583 0
M  V30 13132 H 1226.49 -5.95121 -0.74772 0
M  V30 13133 H 1228.17 -6.45549 -0.43308 0
M  V30 13134 N 1228.3 0.053464 -1.57509 0
M  V30 13135 C 1229.58 0.783141 -1.79238 0
M  V30 13136 C 1229.96 1.94855 -0.812069 0
M  V30 13137 O 1229.31 2.28 0.151006 0
M  V30 13138 C 1229.52 1.239 -3.26266 0
M  V30 13139 C 1230.86 1.66492 -3.90596 0
M  V30 13140 O 1231.89 1.33421 -3.30269 0
M  V30 13141 O 1230.75 2.27785 -4.96766 0
M  V30 13142 H 1227.84 0.376696 -0.736226 0
M  V30 13143 H 1230.39 0.0321229 -1.6967 0
M  V30 13144 H 1229.16 0.405948 -3.89189 0
M  V30 13145 H 1228.78 2.05078 -3.4063 0
M  V30 13146 N 1229.78 1.54207 0.325255 0
M  V30 13147 C 1230.71 1.86467 1.40543 0
M  V30 13148 C 1231.69 0.721324 1.54048 0
M  V30 13149 O 1232.88 0.974905 1.67956 0
M  V30 13150 C 1230.01 2.09052 2.77335 0
M  V30 13151 C 1228.96 3.24893 2.78619 0
M  V30 13152 C 1228.29 3.32846 4.1847 0
M  V30 13153 C 1229.59 4.62582 2.42518 0
M  V30 13154 H 1231.28 2.76932 1.13794 0
M  V30 13155 H 1228.83 1.33248 0.545971 0
M  V30 13156 H 1230.78 2.30204 3.52964 0
M  V30 13157 H 1229.5 1.15335 3.05558 0
M  V30 13158 H 1228.16 3.03625 2.05444 0
M  V30 13159 H 1227.81 2.3669 4.43832 0
M  V30 13160 H 1227.51 4.10701 4.20237 0
M  V30 13161 H 1229.03 3.56231 4.95915 0
M  V30 13162 H 1230.45 4.83627 3.07861 0
M  V30 13163 H 1228.84 5.42974 2.55538 0
M  V30 13164 H 1229.91 4.64946 1.3767 0
M  V30 13165 N 1231.26 -0.58723 1.46251 0
M  V30 13166 C 1232.67 -0.910129 1.31106 0
M  V30 13167 C 1232.87 -1.99557 0.279141 0
M  V30 13168 O 1231.93 -2.50466 -0.319867 0
M  V30 13169 C 1233.24 -1.33177 2.69601 0
M  V30 13170 C 1234.79 -1.44486 2.77656 0
M  V30 13171 C 1235.27 -1.90018 4.16722 0
M  V30 13172 N 1236.76 -1.97219 4.19117 0
M  V30 13173 C 1237.49 -2.33714 5.23608 0
M  V30 13174 N 1236.99 -2.69034 6.3843 0
M  V30 13175 N 1238.78 -2.3423 5.10972 0
M  V30 13176 H 1230.93 0.12987 2.12003 0
M  V30 13177 H 1233.19 -0.00456718 0.947989 0
M  V30 13178 H 1232.9 -0.608243 3.464 0
M  V30 13179 H 1232.77 -2.29421 2.99409 0
M  V30 13180 H 1235.16 -2.15926 2.01147 0
M  V30 13181 H 1235.24 -0.465047 2.51537 0
M  V30 13182 H 1234.89 -1.19159 4.93724 0
M  V30 13183 H 1234.82 -2.88949 4.40245 0
M  V30 13184 H 1237.31 -1.72431 3.36268 0
M  V30 13185 H 1237.62 -2.95822 7.13939 0
M  V30 13186 H 1235.97 -2.66683 6.41798 0
M  V30 13187 H 1239.16 -2.06056 4.20308 0
M  V30 13188 H 1239.33 -2.62345 5.92519 0
M  V30 13189 N 1232.74 -1.33881 -0.831482 0
M  V30 13190 C 1233.67 -1.27384 -1.95693 0
M  V30 13191 C 1234.65 -0.152943 -1.69411 0
M  V30 13192 O 1235.83 -0.34392 -1.9113 0
M  V30 13193 C 1232.96 -1.01982 -3.31989 0
M  V30 13194 C 1231.92 -2.10445 -3.72689 0
M  V30 13195 C 1231.24 -1.70245 -5.06873 0
M  V30 13196 C 1232.54 -3.52194 -3.8569 0
M  V30 13197 H 1234.24 -2.21549 -2.01386 0
M  V30 13198 H 1231.78 -1.06653 -0.967526 0
M  V30 13199 H 1233.73 -0.960841 -4.103 0
M  V30 13200 H 1232.46 -0.0425709 -3.26572 0
M  V30 13201 H 1231.12 -2.15398 -2.96647 0
M  V30 13202 H 1230.77 -0.712036 -4.97935 0
M  V30 13203 H 1230.47 -2.42834 -5.35075 0
M  V30 13204 H 1231.99 -1.65827 -5.87651 0
M  V30 13205 H 1233.4 -3.49701 -4.54293 0
M  V30 13206 H 1231.8 -4.23331 -4.25336 0
M  V30 13207 H 1232.87 -3.9016 -2.87929 0
M  V30 13208 N 1234.21 1.05064 -1.1747 0
M  V30 13209 C 1235.62 1.59547 -0.969628 0
M  V30 13210 C 1235.98 1.90153 0.483332 0
M  V30 13211 O 1235.1 1.68415 1.35887 0
M  V30 13212 C 1235.7 2.89877 -1.75377 0
M  V30 13213 C 1234.25 3.41013 -1.59332 0
M  V30 13214 C 1233.4 2.1473 -1.7546 0
M  V30 13215 H 1236.35 0.878595 -1.3216 0
M  V30 13216 H 1236.37 3.59834 -1.23691 0
M  V30 13217 H 1235.89 2.67569 -2.8112 0
M  V30 13218 H 1233.99 3.68355 -0.560827 0
M  V30 13219 H 1234.1 4.15512 -2.38509 0
M  V30 13220 H 1232.46 2.25553 -1.18313 0
M  V30 13221 H 1233.25 1.9489 -2.82618 0
M  V30 13222 N 1235.69 0.975146 1.23809 0
M  V30 13223 C 1236.92 0.658023 1.95841 0
M  V30 13224 C 1237.33 -0.778132 1.72458 0
M  V30 13225 O 1236.67 -1.53462 1.00971 0
M  V30 13226 C 1236.73 0.862038 3.49012 0
M  V30 13227 C 1236.4 2.27925 3.96105 0
M  V30 13228 C 1237.4 3.25755 4.05191 0
M  V30 13229 C 1235.08 2.60894 4.29231 0
M  V30 13230 C 1237.07 4.54636 4.46749 0
M  V30 13231 C 1234.76 3.89999 4.70472 0
M  V30 13232 C 1235.76 4.86682 4.79197 0
M  V30 13233 O 1235.45 6.13483 5.19513 0
M  V30 13234 H 1235.18 0.243915 0.630461 0
M  V30 13235 H 1237.73 1.30768 1.58395 0
M  V30 13236 H 1235.96 0.155209 3.86388 0
M  V30 13237 H 1237.65 0.542873 4.02253 0
M  V30 13238 H 1238.42 3.01614 3.79808 0
M  V30 13239 H 1234.3 1.86355 4.21655 0
M  V30 13240 H 1237.84 5.30101 4.53474 0
M  V30 13241 H 1233.74 4.13937 4.95304 0
M  V30 13242 H 1234.51 6.17158 5.37641 0
M  V30 13243 N 1237.17 -1.38817 0.746158 0
M  V30 13244 C 1238.39 -2.05096 0.308302 0
M  V30 13245 C 1238.82 -1.55902 -1.05244 0
M  V30 13246 O 1238.18 -0.707685 -1.66918 0
M  V30 13247 C 1238.23 -3.59068 0.332016 0
M  V30 13248 O 1237.33 -4.06813 -0.676547 0
M  V30 13249 H 1236.67 -0.649523 0.1379 0
M  V30 13250 H 1239.2 -1.77637 1.0152 0
M  V30 13251 H 1239.21 -4.07601 0.180293 0
M  V30 13252 H 1237.89 -3.94234 1.32487 0
M  V30 13253 H 1236.46 -3.69666 -0.490046 0
M  V30 13254 N 1238.65 -0.49465 -1.49636 0
M  V30 13255 C 1239.89 0.0521945 -2.02733 0
M  V30 13256 C 1240.23 1.3723 -1.37411 0
M  V30 13257 O 1239.5 1.87758 -0.507642 0
M  V30 13258 C 1239.78 0.2114 -3.59479 0
M  V30 13259 C 1239.64 -1.13138 -4.35339 0
M  V30 13260 C 1240.96 0.955015 -4.29613 0
M  V30 13261 H 1238.08 0.0174946 -0.736792 0
M  V30 13262 H 1240.72 -0.644827 -1.78723 0
M  V30 13263 H 1238.87 0.805078 -3.80067 0
M  V30 13264 H 1240.54 -1.76345 -4.26263 0
M  V30 13265 H 1238.78 -1.72224 -3.98147 0
M  V30 13266 H 1239.45 -0.97336 -5.4335 0
M  V30 13267 H 1241.93 0.451575 -4.13642 0
M  V30 13268 H 1240.81 1.03524 -5.39049 0
M  V30 13269 H 1241.07 1.99724 -3.94414 0
M  V30 13270 N 1240.13 1.55939 -0.228214 0
M  V30 13271 C 1241.37 1.9877 0.402272 0
M  V30 13272 C 1241.7 1.11587 1.5894 0
M  V30 13273 O 1240.98 0.175032 1.93711 0
M  V30 13274 C 1241.26 3.50396 0.830353 0
M  V30 13275 C 1241.12 4.4835 -0.360876 0
M  V30 13276 C 1242.43 4.06602 1.68413 0
M  V30 13277 H 1239.55 0.722646 0.144746 0
M  V30 13278 H 1242.2 1.87186 -0.325784 0
M  V30 13279 H 1240.35 3.60398 1.4507 0
M  V30 13280 H 1242.02 4.5035 -0.999113 0
M  V30 13281 H 1240.26 4.21946 -1.00719 0
M  V30 13282 H 1240.93 5.51997 -0.0183074 0
M  V30 13283 H 1243.41 3.99585 1.16064 0
M  V30 13284 H 1242.28 5.12998 1.95254 0
M  V30 13285 H 1242.54 3.53897 2.64971 0
M  V30 13286 N 1241.6 -0.0451101 1.57535 0
M  V30 13287 C 1243.02 -0.400463 1.54494 0
M  V30 13288 C 1243.22 -1.77584 0.952166 0
M  V30 13289 O 1242.28 -2.46069 0.566221 0
M  V30 13290 C 1243.59 -0.31703 2.99024 0
M  V30 13291 C 1245.14 -0.395284 3.10494 0
M  V30 13292 C 1245.61 -0.341475 4.56725 0
M  V30 13293 N 1247.1 -0.400755 4.61463 0
M  V30 13294 C 1247.84 -0.381757 5.72128 0
M  V30 13295 N 1247.33 -0.315995 6.92079 0
M  V30 13296 N 1249.13 -0.4303 5.60451 0
M  V30 13297 H 1241.28 0.855156 1.94424 0
M  V30 13298 H 1243.54 0.323618 0.891053 0
M  V30 13299 H 1243.25 0.627477 3.46057 0
M  V30 13300 H 1243.12 -1.11696 3.60283 0
M  V30 13301 H 1245.51 -1.33022 2.63418 0
M  V30 13302 H 1245.59 0.433709 2.52096 0
M  V30 13303 H 1245.23 0.589725 5.04465 0
M  V30 13304 H 1245.16 -1.18836 5.13016 0
M  V30 13305 H 1247.65 -0.454745 3.75154 0
M  V30 13306 H 1247.97 -0.306158 7.72193 0
M  V30 13307 H 1246.31 -0.282281 6.94427 0
M  V30 13308 H 1249.5 -0.479555 4.65637 0
M  V30 13309 H 1249.68 -0.412025 6.46689 0
M  V30 13310 N 1243.08 -1.54377 -0.317073 0
M  V30 13311 C 1244.03 -1.84948 -1.41057 0
M  V30 13312 C 1245.02 -0.721887 -1.53249 0
M  V30 13313 O 1246.23 -0.905648 -1.55557 0
M  V30 13314 H 1242.61 -0.586353 -0.470844 0
M  V30 13315 H 1244.58 -2.7638 -1.12501 0
M  V30 13316 C 1243.33 -2.09932 -2.77171 0
M  V30 13317 H 1242.65 -2.96162 -2.68566 0
M  V30 13318 H 1244.09 -2.35272 -3.52737 0
M  V30 13319 C 1242.55 -0.892855 -3.24853 0
M  V30 13320 O 1243.08 -0.105336 -4.01562 0
M  V30 13321 N 1241.28 -0.702685 -2.81976 0
M  V30 13322 H 1240.83 -1.34474 -2.19715 0
M  V30 13323 H 1240.79 0.103024 -3.14231 0
M  V30 13324 N 1244.56 0.579466 -1.4656 0
M  V30 13325 C 1245.47 1.71609 -1.59961 0
M  V30 13326 C 1246.49 1.67162 -0.483002 0
M  V30 13327 O 1247.66 1.87012 -0.747561 0
M  V30 13328 C 1244.73 3.08114 -1.58954 0
M  V30 13329 C 1243.79 3.238 -2.81872 0
M  V30 13330 C 1243.02 4.53794 -2.80904 0
M  V30 13331 O 1243.24 5.37884 -1.89835 0
M  V30 13332 O 1242.18 4.72796 -3.72488 0
M  V30 13333 H 1246 1.6325 -2.56092 0
M  V30 13334 H 1243.59 0.746891 -1.2939 0
M  V30 13335 H 1245.47 3.8939 -1.611 0
M  V30 13336 H 1244.15 3.16903 -0.65984 0
M  V30 13337 H 1243.05 2.42006 -2.85279 0
M  V30 13338 H 1244.39 3.19904 -3.74062 0
M  V30 13339 N 1246.04 1.3432 0.824371 0
M  V30 13340 C 1246.97 1.21619 1.94271 0
M  V30 13341 C 1247.98 0.143628 1.62165 0
M  V30 13342 O 1249.17 0.395353 1.74067 0
M  V30 13343 C 1246.27 0.846128 3.28167 0
M  V30 13344 C 1245.45 2.01337 3.88307 0
M  V30 13345 C 1244.5 1.62194 5.00579 0
M  V30 13346 O 1243.53 2.33831 5.18953 0
M  V30 13347 N 1244.73 0.535262 5.78027 0
M  V30 13348 H 1247.5 2.17963 2.05699 0
M  V30 13349 H 1245.06 1.27256 1.00088 0
M  V30 13350 H 1247.05 0.566086 4.00721 0
M  V30 13351 H 1245.62 -0.0270764 3.12588 0
M  V30 13352 H 1244.84 2.45823 3.08164 0
M  V30 13353 H 1246.13 2.79404 4.25219 0
M  V30 13354 H 1245.53 -0.0603126 5.65668 0
M  V30 13355 H 1244.08 0.314946 6.51039 0
M  V30 13356 N 1247.52 -1.0444 1.18026 0
M  V30 13357 C 1248.76 -1.77838 0.974756 0
M  V30 13358 C 1249.1 -1.87792 -0.494755 0
M  V30 13359 O 1248.37 -1.38327 -1.36733 0
M  V30 13360 C 1248.65 -3.21315 1.62569 0
M  V30 13361 C 1248.51 -3.19327 3.16781 0
M  V30 13362 C 1249.83 -4.19337 1.33583 0
M  V30 13363 H 1246.94 -0.645575 0.35553 0
M  V30 13364 H 1249.59 -1.22023 1.45638 0
M  V30 13365 H 1247.74 -3.68974 1.21617 0
M  V30 13366 H 1249.41 -2.79687 3.66842 0
M  V30 13367 H 1247.65 -2.57461 3.49137 0
M  V30 13368 H 1248.32 -4.20626 3.5746 0
M  V30 13369 H 1250.8 -3.80208 1.69059 0
M  V30 13370 H 1249.67 -5.17953 1.81702 0
M  V30 13371 H 1249.94 -4.41346 0.258016 0
M  V30 13372 N 1248.99 -0.981699 -1.2329 0
M  V30 13373 C 1249.9 -0.531296 -2.28505 0
M  V30 13374 C 1250.92 0.414531 -1.6899 0
M  V30 13375 O 1252.1 0.284129 -1.99386 0
M  V30 13376 C 1249.16 0.157864 -3.4634 0
M  V30 13377 C 1248.22 -0.829527 -4.21209 0
M  V30 13378 C 1247.46 -0.17316 -5.33419 0
M  V30 13379 O 1247.68 1.03549 -5.60922 0
M  V30 13380 O 1246.61 -0.872385 -5.95544 0
M  V30 13381 H 1250.44 -1.40633 -2.69177 0
M  V30 13382 H 1248.02 -0.749395 -1.29246 0
M  V30 13383 H 1249.91 0.544394 -4.17869 0
M  V30 13384 H 1248.58 1.00764 -3.07617 0
M  V30 13385 H 1247.49 -1.26678 -3.51999 0
M  V30 13386 H 1248.82 -1.64815 -4.63785 0
M  V30 13387 N 1250.47 1.3842 -0.753509 0
M  V30 13388 C 1251.72 1.99359 -0.306416 0
M  V30 13389 C 1252.03 1.60492 1.11811 0
M  V30 13390 O 1253.24 2.14401 1.66567 0
M  V30 13391 C 1251.7 3.56453 -0.496895 0
M  V30 13392 C 1251.3 4.04272 -1.9305 0
M  V30 13393 C 1253.05 4.24351 -0.11251 0
M  V30 13394 C 1250.96 5.54007 -2.06955 0
M  V30 13395 H 1249.89 0.745812 -0.110818 0
M  V30 13396 H 1252.54 1.58185 -0.930039 0
M  V30 13397 H 1250.92 3.95515 0.195912 0
M  V30 13398 H 1252.09 3.765 -2.65677 0
M  V30 13399 H 1250.41 3.49098 -2.26979 0
M  V30 13400 H 1253 5.34344 -0.195161 0
M  V30 13401 H 1253.35 4.05668 0.934849 0
M  V30 13402 H 1253.88 3.90528 -0.757168 0
M  V30 13403 H 1250.62 5.77594 -3.09944 0
M  V30 13404 H 1250.14 5.83522 -1.38788 0
M  V30 13405 H 1251.82 6.19704 -1.85945 0
M  V30 13406 N 1251.95 0.502579 1.49372 0
M  V30 13407 C 1253.37 0.158641 1.5881 0
M  V30 13408 C 1253.57 -1.33688 1.50764 0
M  V30 13409 O 1252.62 -2.11295 1.38241 0
M  V30 13410 C 1253.94 0.736843 2.91532 0
M  V30 13411 C 1255.48 0.703093 3.05001 0
M  V30 13412 C 1255.96 1.25938 4.40345 0
M  V30 13413 N 1257.45 1.22015 4.46841 0
M  V30 13414 C 1258.18 1.62076 5.50017 0
M  V30 13415 N 1257.68 2.09736 6.6029 0
M  V30 13416 N 1259.47 1.53482 5.4074 0
M  V30 13417 H 1251.62 1.47487 1.52844 0
M  V30 13418 H 1253.89 0.611851 0.724115 0
M  V30 13419 H 1253.59 1.78573 3.02992 0
M  V30 13420 H 1253.47 0.198178 3.76679 0
M  V30 13421 H 1255.85 -0.336965 2.9317 0
M  V30 13422 H 1255.94 1.27892 2.21534 0
M  V30 13423 H 1255.58 2.29823 4.52928 0
M  V30 13424 H 1255.51 0.659481 5.22454 0
M  V30 13425 H 1258 0.870957 3.67726 0
M  V30 13426 H 1258.31 2.3837 7.35119 0
M  V30 13427 H 1256.66 2.13712 6.61326 0
M  V30 13428 H 1259.85 1.16065 4.53483 0
M  V30 13429 H 1260.02 1.85026 6.21023 0
M  V30 13430 N 1253.43 -1.55816 0.23648 0
M  V30 13431 C 1254.39 -2.1967 -0.654041 0
M  V30 13432 C 1255.39 -1.1629 -1.11056 0
M  V30 13433 O 1256.58 -1.41435 -1.01695 0
M  V30 13434 C 1253.71 -2.83196 -1.89771 0
M  V30 13435 H 1254.91 -2.99743 -0.0970911 0
M  V30 13436 H 1252.46 -1.56295 -0.013098 0
M  V30 13437 H 1253.19 -2.07033 -2.49616 0
M  V30 13438 H 1252.98 -3.58915 -1.57868 0
M  V30 13439 H 1254.47 -3.32095 -2.53184 0
M  V30 13440 N 1254.91 0.036755 -1.57557 0
M  V30 13441 C 1256.15 0.730186 -1.89199 0
M  V30 13442 C 1256.49 1.75414 -0.833271 0
M  V30 13443 O 1255.76 1.93901 0.152579 0
M  V30 13444 C 1256.04 1.40669 -3.31488 0
M  V30 13445 C 1255.9 0.396764 -4.48047 0
M  V30 13446 C 1257.22 2.34268 -3.72567 0
M  V30 13447 H 1254.33 0.263983 -0.6881 0
M  V30 13448 H 1256.98 -0.0069847 -1.89999 0
M  V30 13449 H 1255.13 2.03502 -3.30937 0
M  V30 13450 H 1256.8 -0.229062 -4.60731 0
M  V30 13451 H 1255.04 -0.284698 -4.32865 0
M  V30 13452 H 1255.71 0.908436 -5.44474 0
M  V30 13453 H 1258.19 1.81485 -3.74436 0
M  V30 13454 H 1257.06 2.78587 -4.72949 0
M  V30 13455 H 1257.33 3.20611 -3.04403 0
M  V30 13456 N 1256.39 1.54543 0.308881 0
M  V30 13457 C 1257.32 1.87947 1.38557 0
M  V30 13458 C 1258.3 0.737622 1.53275 0
M  V30 13459 O 1259.48 0.992664 1.66913 0
M  V30 13460 C 1256.61 2.11982 2.75102 0
M  V30 13461 C 1255.57 3.2783 2.75158 0
M  V30 13462 C 1254.89 3.37266 4.14917 0
M  V30 13463 C 1256.19 4.65129 2.37598 0
M  V30 13464 H 1257.89 2.78123 1.1085 0
M  V30 13465 H 1255.43 1.3382 0.531808 0
M  V30 13466 H 1257.38 2.33935 3.50503 0
M  V30 13467 H 1256.11 1.18569 3.04317 0
M  V30 13468 H 1254.77 3.05787 2.02212 0
M  V30 13469 H 1254.42 2.41384 4.41296 0
M  V30 13470 H 1254.12 4.15135 4.15857 0
M  V30 13471 H 1255.64 3.61471 4.92109 0
M  V30 13472 H 1257.05 4.86865 3.02714 0
M  V30 13473 H 1255.45 5.45653 2.49765 0
M  V30 13474 H 1256.52 4.6638 1.32731 0
M  V30 13475 N 1257.86 -0.571685 1.46866 0
M  V30 13476 C 1259.09 -1.35327 1.56109 0
M  V30 13477 C 1259.5 -1.88086 0.20504 0
M  V30 13478 O 1258.84 -1.64896 -0.809626 0
M  V30 13479 C 1258.91 -2.56939 2.51441 0
M  V30 13480 C 1258.57 -2.2557 3.97451 0
M  V30 13481 C 1259.57 -1.83737 4.86351 0
M  V30 13482 C 1257.25 -2.37375 4.42672 0
M  V30 13483 C 1259.25 -1.54118 6.18487 0
M  V30 13484 C 1256.93 -2.07368 5.7484 0
M  V30 13485 C 1257.93 -1.65806 6.62569 0
M  V30 13486 O 1257.62 -1.36173 7.92283 0
M  V30 13487 H 1257.35 -0.419368 0.530194 0
M  V30 13488 H 1259.91 -0.700859 1.93073 0
M  V30 13489 H 1258.14 -3.25023 2.09517 0
M  V30 13490 H 1259.82 -3.19012 2.5097 0
M  V30 13491 H 1260.59 -1.74122 4.52666 0
M  V30 13492 H 1256.47 -2.68686 3.74605 0
M  V30 13493 H 1260.01 -1.21603 6.8692 0
M  V30 13494 H 1255.91 -2.16611 6.08071 0
M  V30 13495 H 1256.68 -1.49926 8.04652 0
M  V30 13496 N 1259.34 -1.34755 -0.817236 0
M  V30 13497 C 1260.29 -1.26816 -1.94988 0
M  V30 13498 C 1261.28 -0.165142 -1.68593 0
M  V30 13499 O 1262.49 -0.330469 -1.7694 0
M  V30 13500 H 1258.86 -0.394113 -0.640452 0
M  V30 13501 H 1260.84 -2.22528 -1.98806 0
M  V30 13502 C 1259.58 -1.04625 -3.31586 0
M  V30 13503 H 1258.91 -1.88735 -3.52447 0
M  V30 13504 H 1260.35 -1.03108 -4.11272 0
M  V30 13505 C 1258.81 0.250283 -3.35969 0
M  V30 13506 O 1259.34 1.24972 -3.81765 0
M  V30 13507 N 1257.54 0.285369 -2.89195 0
M  V30 13508 H 1257.09 -0.528528 -2.5212 0
M  V30 13509 H 1257.05 1.15261 -2.9251 0
M  V30 13510 N 1260.82 1.03812 -1.18578 0
M  V30 13511 C 1262.05 1.8044 -1.00623 0
M  V30 13512 C 1262.46 1.83808 0.448451 0
M  V30 13513 O 1261.8 1.27417 1.32328 0
M  V30 13514 C 1261.86 3.27266 -1.48785 0
M  V30 13515 C 1261.53 3.47553 -2.96742 0
M  V30 13516 C 1262.52 3.38533 -3.94578 0
M  V30 13517 C 1260.21 3.74067 -3.3523 0
M  V30 13518 C 1262.2 3.55735 -5.28896 0
M  V30 13519 C 1259.89 3.90916 -4.6971 0
M  V30 13520 C 1260.89 3.81751 -5.66352 0
M  V30 13521 O 1260.58 3.98115 -6.98398 0
M  V30 13522 H 1260.31 0.574996 -0.355465 0
M  V30 13523 H 1262.86 1.31708 -1.57614 0
M  V30 13524 H 1261.09 3.76979 -0.861613 0
M  V30 13525 H 1262.78 3.85461 -1.27181 0
M  V30 13526 H 1263.55 3.18011 -3.66189 0
M  V30 13527 H 1259.43 3.80298 -2.60566 0
M  V30 13528 H 1262.97 3.48498 -6.04314 0
M  V30 13529 H 1258.87 4.10934 -4.97799 0
M  V30 13530 H 1259.63 4.1526 -7.05338 0
M  V30 13531 N 1262.3 0.988223 1.22768 0
M  V30 13532 C 1263.71 0.69816 1.4352 0
M  V30 13533 C 1263.91 -0.732872 1.877 0
M  V30 13534 O 1262.97 -1.50436 2.02793 0
M  V30 13535 C 1264.28 1.69975 2.4805 0
M  V30 13536 C 1265.83 1.71467 2.61855 0
M  V30 13537 C 1266.31 2.70477 3.69603 0
M  V30 13538 N 1267.8 2.69043 3.77055 0
M  V30 13539 C 1268.53 3.42319 4.60006 0
M  V30 13540 N 1268.03 4.2518 5.46986 0
M  V30 13541 N 1269.82 3.31047 4.54274 0
M  V30 13542 H 1261.97 1.91251 0.923948 0
M  V30 13543 H 1264.23 0.82455 0.467783 0
M  V30 13544 H 1263.94 2.72354 2.22523 0
M  V30 13545 H 1263.81 1.48885 3.46573 0
M  V30 13546 H 1266.2 0.697889 2.86729 0
M  V30 13547 H 1266.28 1.96625 1.63622 0
M  V30 13548 H 1265.93 3.72302 3.45476 0
M  V30 13549 H 1265.86 2.42591 4.67394 0
M  V30 13550 H 1268.35 2.08914 3.14902 0
M  V30 13551 H 1268.66 4.77929 6.07292 0
M  V30 13552 H 1267.01 4.29268 5.46584 0
M  V30 13553 H 1270.2 2.65758 3.85345 0
M  V30 13554 H 1270.37 3.88413 5.1869 0
M  V30 13555 N 1263.78 -1.38018 0.760839 0
M  V30 13556 C 1264.71 -2.2899 0.0980916 0
M  V30 13557 C 1265.72 -1.48102 -0.675985 0
M  V30 13558 O 1266.91 -1.70883 -0.515878 0
M  V30 13559 C 1264.01 -3.27142 -0.884959 0
M  V30 13560 C 1263.18 -4.37081 -0.167 0
M  V30 13561 C 1262.24 -5.15375 -1.06184 0
M  V30 13562 O 1261.27 -5.6673 -0.529667 0
M  V30 13563 N 1262.47 -5.29052 -2.38924 0
M  V30 13564 H 1265.23 -2.86508 0.879403 0
M  V30 13565 H 1262.8 -1.49877 0.612245 0
M  V30 13566 H 1264.79 -3.764 -1.48678 0
M  V30 13567 H 1263.36 -2.70471 -1.5673 0
M  V30 13568 H 1262.58 -3.89363 0.615617 0
M  V30 13569 H 1263.87 -5.07732 0.329525 0
M  V30 13570 H 1263.26 -4.88892 -2.84607 0
M  V30 13571 H 1261.82 -5.81658 -2.94139 0
M  V30 13572 N 1265.25 -0.510493 -1.49103 0
M  V30 13573 C 1266.2 0.276449 -2.30951 0
M  V30 13574 C 1267.2 0.953893 -1.3999 0
M  V30 13575 O 1268.4 0.880499 -1.56994 0
M  V30 13576 H 1264.78 0.108013 -0.744202 0
M  V30 13577 H 1266.75 -0.433725 -2.95231 0
M  V30 13578 C 1265.5 1.32234 -3.21573 0
M  V30 13579 H 1264.82 0.810468 -3.91499 0
M  V30 13580 H 1266.26 1.84476 -3.81765 0
M  V30 13581 C 1264.72 2.3456 -2.41833 0
M  V30 13582 O 1265.25 3.40627 -2.12922 0
M  V30 13583 N 1263.45 2.07272 -2.03682 0
M  V30 13584 H 1263 1.21036 -2.27394 0
M  V30 13585 H 1262.96 2.75963 -1.50638 0
M  V30 13586 N 1266.73 1.55688 -0.24474 0
M  V30 13587 C 1267.66 2.18616 0.68844 0
M  V30 13588 C 1268.68 1.16185 1.14039 0
M  V30 13589 O 1269.87 1.43059 1.06754 0
M  V30 13590 C 1266.97 2.77375 1.94721 0
M  V30 13591 C 1266.14 4.05204 1.64706 0
M  V30 13592 C 1265.2 4.48302 2.75521 0
M  V30 13593 O 1264.22 5.14723 2.42999 0
M  V30 13594 N 1265.43 4.15907 4.04971 0
M  V30 13595 H 1268.19 2.99324 0.150018 0
M  V30 13596 H 1265.75 1.61771 -0.0646183 0
M  V30 13597 H 1267.74 3.03165 2.68091 0
M  V30 13598 H 1266.31 2.00837 2.39548 0
M  V30 13599 H 1265.53 3.87026 0.74865 0
M  V30 13600 H 1266.82 4.8855 1.42114 0
M  V30 13601 H 1266.22 3.62579 4.34227 0
M  V30 13602 H 1264.78 4.46538 4.74813 0
M  V30 13603 N 1268.21 -0.0283989 1.57574 0
M  V30 13604 C 1269.12 -1.04575 2.10003 0
M  V30 13605 C 1270.14 -1.39588 1.03881 0
M  V30 13606 O 1271.31 -1.48894 1.35619 0
M  V30 13607 C 1268.38 -2.32755 2.56955 0
M  V30 13608 C 1267.44 -2.04317 3.77562 0
M  V30 13609 C 1266.67 -3.26385 4.22266 0
M  V30 13610 O 1266.89 -4.37082 3.66491 0
M  V30 13611 O 1265.83 -3.12046 5.14695 0
M  V30 13612 H 1269.65 -0.630183 2.9709 0
M  V30 13613 H 1267.24 -0.245423 1.4737 0
M  V30 13614 H 1269.12 -3.08111 2.87482 0
M  V30 13615 H 1267.8 -2.73605 1.72979 0
M  V30 13616 H 1266.7 -1.26527 3.52054 0
M  V30 13617 H 1268.04 -1.68321 4.62524 0
M  V30 13618 N 1269.69 -1.54705 -0.300681 0
M  V30 13619 C 1270.62 -1.88679 -1.37559 0
M  V30 13620 C 1271.6 -0.74574 -1.52881 0
M  V30 13621 O 1272.78 -1.0015 -1.66384 0
M  V30 13622 C 1269.91 -2.13438 -2.73974 0
M  V30 13623 C 1268.87 -3.29284 -2.73415 0
M  V30 13624 C 1268.19 -3.39462 -4.13122 0
M  V30 13625 C 1269.49 -4.66382 -2.35128 0
M  V30 13626 H 1271.19 -2.78707 -1.09373 0
M  V30 13627 H 1268.73 -1.341 -0.524704 0
M  V30 13628 H 1270.69 -2.35791 -3.49257 0
M  V30 13629 H 1269.41 -1.20181 -3.03684 0
M  V30 13630 H 1268.07 -3.06855 -2.00588 0
M  V30 13631 H 1267.72 -2.43721 -4.4001 0
M  V30 13632 H 1267.42 -4.17334 -4.1365 0
M  V30 13633 H 1268.94 -3.64075 -4.90185 0
M  V30 13634 H 1270.36 -4.88463 -3.00128 0
M  V30 13635 H 1268.75 -5.4697 -2.46867 0
M  V30 13636 H 1269.82 -4.67078 -1.30256 0
M  V30 13637 N 1271.17 0.563888 -1.47167 0
M  V30 13638 C 1272.11 1.67151 -1.59152 0
M  V30 13639 C 1273.08 1.60307 -0.434852 0
M  V30 13640 O 1274.27 1.7924 -0.654049 0
M  V30 13641 C 1271.41 3.0548 -1.60549 0
M  V30 13642 C 1270.52 3.2281 -2.87085 0
M  V30 13643 C 1269.66 4.51498 -2.79862 0
M  V30 13644 C 1268.7 4.62237 -4.01252 0
M  V30 13645 N 1267.83 5.82273 -3.92305 0
M  V30 13646 H 1272.67 1.56245 -2.53755 0
M  V30 13647 H 1270.21 0.761219 -1.25872 0
M  V30 13648 H 1272.17 3.85572 -1.59343 0
M  V30 13649 H 1270.8 3.15237 -0.69464 0
M  V30 13650 H 1269.85 2.36196 -2.98188 0
M  V30 13651 H 1271.16 3.2661 -3.76997 0
M  V30 13652 H 1270.32 5.39842 -2.76867 0
M  V30 13653 H 1269.05 4.50166 -1.87621 0
M  V30 13654 H 1268.06 3.72307 -4.04558 0
M  V30 13655 H 1269.28 4.65334 -4.94612 0
M  V30 13656 H 1267.23 5.81902 -3.02862 0
M  V30 13657 H 1267.15 5.87422 -4.7589 0
M  V30 13658 H 1268.42 6.72996 -3.93315 0
M  V30 13659 N 1272.64 1.35187 0.810078 0
M  V30 13660 C 1273.89 1.28454 1.56931 0
M  V30 13661 C 1274.22 -0.141747 1.93682 0
M  V30 13662 O 1273.5 -1.09028 1.61069 0
M  V30 13663 C 1273.78 2.18771 2.86027 0
M  V30 13664 C 1273.63 3.69999 2.55774 0
M  V30 13665 C 1274.95 2.08265 3.87703 0
M  V30 13666 H 1272.07 0.467959 0.569371 0
M  V30 13667 H 1274.71 1.65556 0.932262 0
M  V30 13668 H 1272.86 1.8726 3.40391 0
M  V30 13669 H 1274.54 4.11936 2.07621 0
M  V30 13670 H 1272.78 3.90453 1.89021 0
M  V30 13671 H 1273.45 4.28577 3.47888 0
M  V30 13672 H 1275.93 2.35958 3.42729 0
M  V30 13673 H 1274.8 2.73663 4.75815 0
M  V30 13674 H 1275.06 1.06352 4.29117 0
M  V30 13675 N 1274.12 -1.03182 1.19127 0
M  V30 13676 C 1275.54 -1.28773 0.942854 0
M  V30 13677 C 1275.74 -1.97759 -0.386483 0
M  V30 13678 O 1274.79 -2.26365 -1.1187 0
M  V30 13679 C 1276.11 -2.13771 2.11476 0
M  V30 13680 C 1277.66 -2.27089 2.15406 0
M  V30 13681 C 1278.13 -3.15458 3.32039 0
M  V30 13682 N 1279.62 -3.23046 3.31957 0
M  V30 13683 C 1280.36 -3.91604 4.18848 0
M  V30 13684 N 1279.85 -4.62418 5.15889 0
M  V30 13685 N 1281.65 -3.87974 4.06734 0
M  V30 13686 H 1273.8 -0.568165 2.0466 0
M  V30 13687 H 1276.06 -0.31328 0.89474 0
M  V30 13688 H 1275.77 -1.704 3.07663 0
M  V30 13689 H 1275.64 -3.14476 2.0829 0
M  V30 13690 H 1278.03 -2.69693 1.19791 0
M  V30 13691 H 1278.11 -1.25945 2.22647 0
M  V30 13692 H 1277.75 -2.73564 4.27931 0
M  V30 13693 H 1277.68 -4.16654 3.22035 0
M  V30 13694 H 1280.17 -2.7261 2.6171 0
M  V30 13695 H 1280.49 -5.12353 5.78545 0
M  V30 13696 H 1278.83 -4.61293 5.1984 0
M  V30 13697 H 1282.02 -3.31789 3.30202 0
M  V30 13698 H 1282.19 -4.4113 4.74666 0
M  V30 13699 N 1275.6 -0.99472 -1.22242 0
M  V30 13700 C 1276.85 -0.672596 -1.91322 0
M  V30 13701 C 1277.18 0.793542 -1.77247 0
M  V30 13702 O 1276.45 1.57407 -1.14251 0
M  V30 13703 C 1276.74 -1.08155 -3.43474 0
M  V30 13704 C 1276.59 -2.60638 -3.6659 0
M  V30 13705 C 1277.91 -0.636161 -4.35478 0
M  V30 13706 H 1275.03 -0.24582 -0.694796 0
M  V30 13707 H 1277.67 -1.23857 -1.44082 0
M  V30 13708 H 1275.82 -0.599987 -3.83839 0
M  V30 13709 H 1277.49 -3.16479 -3.35617 0
M  V30 13710 H 1275.74 -3.02624 -3.10808 0
M  V30 13711 H 1276.41 -2.84304 -4.73155 0
M  V30 13712 H 1278.88 -1.04982 -4.02639 0
M  V30 13713 H 1277.76 -0.950584 -5.40606 0
M  V30 13714 H 1278.02 0.4631 -4.39668 0
M  V30 13715 N 1277.08 1.37613 -0.768148 0
M  V30 13716 C 1277.99 2.34103 -0.152649 0
M  V30 13717 C 1279 1.6 0.683811 0
M  V30 13718 O 1280.18 1.92112 0.604572 0
M  V30 13719 C 1277.25 3.39164 0.718954 0
M  V30 13720 C 1276.31 4.29092 -0.13355 0
M  V30 13721 C 1275.54 5.29135 0.696547 0
M  V30 13722 O 1275.76 5.36618 1.93383 0
M  V30 13723 O 1274.7 6.01804 0.107652 0
M  V30 13724 H 1278.52 2.88462 -0.949899 0
M  V30 13725 H 1276.11 1.39711 -0.529252 0
M  V30 13726 H 1277.99 4.03454 1.21665 0
M  V30 13727 H 1276.66 2.87137 1.49445 0
M  V30 13728 H 1275.57 3.67914 -0.677528 0
M  V30 13729 H 1276.9 4.84413 -0.872048 0
M  V30 13730 N 1278.56 0.518393 1.4883 0
M  V30 13731 C 1279.49 -0.239685 2.32267 0
M  V30 13732 C 1280.47 -0.94613 1.41359 0
M  V30 13733 O 1281.65 -0.934162 1.70256 0
M  V30 13734 C 1278.78 -1.29411 3.22289 0
M  V30 13735 C 1277.74 -0.706504 4.22129 0
M  V30 13736 C 1277.06 -1.86273 5.01205 0
M  V30 13737 C 1278.36 0.314079 5.21355 0
M  V30 13738 H 1280.06 0.4568 2.95895 0
M  V30 13739 H 1277.6 0.221126 1.42292 0
M  V30 13740 H 1279.56 -1.8323 3.7948 0
M  V30 13741 H 1278.28 -2.02001 2.56638 0
M  V30 13742 H 1276.94 -0.189924 3.66108 0
M  V30 13743 H 1276.59 -2.57674 4.31988 0
M  V30 13744 H 1276.29 -1.47554 5.68772 0
M  V30 13745 H 1277.81 -2.40492 5.61245 0
M  V30 13746 H 1279.22 -0.136604 5.73137 0
M  V30 13747 H 1277.62 0.618026 5.96909 0
M  V30 13748 H 1278.69 1.22394 4.69199 0
M  V30 13749 N 1280.03 -1.55556 0.252993 0
M  V30 13750 C 1280.96 -2.24613 -0.638047 0
M  V30 13751 C 1281.95 -1.22852 -1.1765 0
M  V30 13752 O 1283.13 -1.51519 -1.21472 0
M  V30 13753 C 1280.26 -2.95029 -1.83236 0
M  V30 13754 C 1279.21 -4.03531 -1.42641 0
M  V30 13755 C 1278.54 -4.61404 -2.70204 0
M  V30 13756 C 1279.84 -5.18923 -0.592958 0
M  V30 13757 H 1281.53 -2.99335 -0.0621918 0
M  V30 13758 H 1279.08 -1.43972 -0.0284722 0
M  V30 13759 H 1281.03 -3.42042 -2.46141 0
M  V30 13760 H 1279.76 -2.17805 -2.43369 0
M  V30 13761 H 1278.42 -3.57296 -0.820672 0
M  V30 13762 H 1278.06 -3.80874 -3.28548 0
M  V30 13763 H 1277.76 -5.34652 -2.43764 0
M  V30 13764 H 1279.29 -5.11154 -3.33997 0
M  V30 13765 H 1280.7 -5.62124 -1.12646 0
M  V30 13766 H 1279.1 -5.98598 -0.424358 0
M  V30 13767 H 1280.17 -4.83301 0.393434 0
M  V30 13768 N 1281.51 0.0200419 -1.57587 0
M  V30 13769 C 1282.46 1.0259 -2.03615 0
M  V30 13770 C 1283.45 1.31504 -0.927116 0
M  V30 13771 O 1284.64 1.30938 -1.19098 0
M  V30 13772 C 1281.77 2.32424 -2.52654 0
M  V30 13773 C 1280.85 2.06561 -3.70396 0
M  V30 13774 N 1281.24 1.50787 -4.82801 0
M  V30 13775 C 1279.54 2.36802 -3.77943 0
M  V30 13776 C 1280.24 1.40935 -5.64369 0
M  V30 13777 N 1279.22 1.88806 -5.09758 0
M  V30 13778 H 1283.02 0.588835 -2.87941 0
M  V30 13779 H 1280.54 0.226163 -1.60817 0
M  V30 13780 H 1282.53 3.05303 -2.83894 0
M  V30 13781 H 1281.19 2.76801 -1.69738 0
M  V30 13782 H 1282.2 1.18935 -5.04058 0
M  V30 13783 H 1278.88 2.84192 -3.05845 0
M  V30 13784 H 1280.27 0.982261 -6.64681 0
M  V30 13785 N 1282.99 1.54862 0.292472 0
M  V30 13786 C 1283.94 1.87168 1.38097 0
M  V30 13787 C 1284.93 0.746176 1.52081 0
M  V30 13788 O 1286.14 0.930281 1.54097 0
M  V30 13789 H 1282.51 0.593769 0.461456 0
M  V30 13790 H 1284.48 2.78135 1.0809 0
M  V30 13791 C 1283.23 2.14315 2.73796 0
M  V30 13792 H 1282.56 3.00398 2.63821 0
M  V30 13793 H 1284 2.40853 3.48949 0
M  V30 13794 C 1282.46 0.944424 3.23392 0
M  V30 13795 O 1282.99 0.169208 4.01343 0
M  V30 13796 N 1281.19 0.747456 2.80823 0
M  V30 13797 H 1280.74 1.37953 2.17547 0
M  V30 13798 H 1280.7 -0.0530199 3.14355 0
M  V30 13799 N 1284.47 -0.556076 1.47464 0
M  V30 13800 C 1285.88 -1.1382 1.47993 0
M  V30 13801 C 1286.23 -1.94785 0.235249 0
M  V30 13802 O 1285.36 -2.06098 -0.659752 0
M  V30 13803 C 1285.95 -2.07082 2.68146 0
M  V30 13804 C 1284.51 -2.60564 2.71631 0
M  V30 13805 C 1283.66 -1.36967 2.41113 0
M  V30 13806 H 1286.61 -0.34262 1.54957 0
M  V30 13807 H 1286.63 -2.90975 2.45181 0
M  V30 13808 H 1286.14 -1.48127 3.5872 0
M  V30 13809 H 1284.24 -3.23314 1.852 0
M  V30 13810 H 1284.35 -3.0148 3.72353 0
M  V30 13811 H 1282.72 -1.67678 1.91719 0
M  V30 13812 H 1283.5 -0.79803 3.33896 0
M  V30 13813 N 1285.95 -1.35615 -0.802897 0
M  V30 13814 C 1286.91 -1.28705 -1.89651 0
M  V30 13815 C 1287.91 -0.197681 -1.5958 0
M  V30 13816 O 1289.1 -0.451618 -1.68244 0
M  V30 13817 C 1286.23 -0.991941 -3.26149 0
M  V30 13818 H 1287.43 -2.25951 -1.97196 0
M  V30 13819 H 1284.98 -1.20192 -0.999179 0
M  V30 13820 H 1285.71 -0.0235051 -3.24291 0
M  V30 13821 H 1285.5 -1.78013 -3.49362 0
M  V30 13822 H 1286.99 -0.969298 -4.06195 0
M  V30 13823 N 1287.43 1.02549 -1.19673 0
M  V30 13824 C 1288.67 1.76004 -1.00144 0
M  V30 13825 C 1289 1.888 0.467423 0
M  V30 13826 O 1288.26 1.404 1.36331 0
M  V30 13827 C 1288.55 3.18597 -1.61959 0
M  V30 13828 C 1288.22 3.258 -3.11713 0
M  V30 13829 C 1286.88 3.27473 -3.52583 0
M  V30 13830 C 1289.23 3.24675 -4.0772 0
M  V30 13831 C 1286.56 3.25681 -4.88005 0
M  V30 13832 C 1288.91 3.24424 -5.43076 0
M  V30 13833 C 1287.58 3.24396 -5.83372 0
M  V30 13834 H 1286.85 0.644044 -0.366453 0
M  V30 13835 H 1289.5 1.20338 -1.48966 0
M  V30 13836 H 1287.8 3.77364 -1.05375 0
M  V30 13837 H 1289.5 3.74109 -1.44374 0
M  V30 13838 H 1286.09 3.25228 -2.7915 0
M  V30 13839 H 1290.27 3.2256 -3.77185 0
M  V30 13840 H 1285.53 3.23986 -5.18501 0
M  V30 13841 H 1289.7 3.22504 -6.17223 0
M  V30 13842 H 1287.33 3.22762 -6.8828 0
M  V30 13843 N 1288.9 1.00119 1.21713 0
M  V30 13844 C 1290.14 0.690044 1.924 0
M  V30 13845 C 1290.51 -0.764695 1.76115 0
M  V30 13846 O 1291.71 -1.18764 2.4114 0
M  V30 13847 C 1289.98 1.09491 3.40215 0
M  V30 13848 S 1291.54 0.903392 4.294 0
M  V30 13849 H 1288.36 0.252037 0.66483 0
M  V30 13850 H 1290.96 1.28521 1.47318 0
M  V30 13851 H 1289.66 2.14987 3.49584 0
M  V30 13852 H 1289.19 0.491878 3.90313 0
M  V30 13853 H 1291.21 -0.201597 4.9579 0
M  V30 13854 N 1290.38 -1.37203 0.775435 0
M  V30 13855 C 1291.61 -2.04396 0.351737 0
M  V30 13856 C 1292.03 -1.58099 -1.01913 0
M  V30 13857 O 1291.39 -0.742932 -1.65379 0
M  V30 13858 C 1291.44 -3.58283 0.408105 0
M  V30 13859 O 1290.54 -4.08156 -0.590104 0
M  V30 13860 H 1289.88 -0.646451 0.151647 0
M  V30 13861 H 1292.41 -1.75443 1.05265 0
M  V30 13862 H 1292.42 -4.07127 0.266711 0
M  V30 13863 H 1291.1 -3.91335 1.40819 0
M  V30 13864 H 1289.67 -3.70622 -0.411524 0
M  V30 13865 N 1291.86 -0.526279 -1.48553 0
M  V30 13866 C 1292.79 0.227364 -2.3239 0
M  V30 13867 C 1293.77 0.93862 -1.41859 0
M  V30 13868 O 1294.96 0.925119 -1.70749 0
M  V30 13869 C 1292.09 1.277 -3.22971 0
M  V30 13870 C 1291.04 0.684107 -4.22497 0
M  V30 13871 C 1290.37 1.83612 -5.02186 0
M  V30 13872 C 1291.67 -0.341723 -5.21181 0
M  V30 13873 H 1293.36 -0.472486 -2.95648 0
M  V30 13874 H 1290.91 -0.228669 -1.42173 0
M  V30 13875 H 1292.86 1.81215 -3.80446 0
M  V30 13876 H 1291.58 2.00638 -2.57705 0
M  V30 13877 H 1290.24 0.170505 -3.66203 0
M  V30 13878 H 1289.89 2.55379 -4.33348 0
M  V30 13879 H 1289.59 1.44536 -5.69547 0
M  V30 13880 H 1291.11 2.37513 -5.62512 0
M  V30 13881 H 1292.53 0.106207 -5.73202 0
M  V30 13882 H 1290.92 -0.649673 -5.96573 0
M  V30 13883 H 1291.99 -1.2488 -4.68543 0
M  V30 13884 N 1293.34 1.5542 -0.261239 0
M  V30 13885 C 1294.3 2.20683 0.619011 0
M  V30 13886 C 1295.3 1.18042 1.09192 0
M  V30 13887 O 1296.49 1.43035 0.99432 0
M  V30 13888 C 1293.62 2.86179 1.85242 0
M  V30 13889 H 1294.82 2.99859 0.0493924 0
M  V30 13890 H 1292.37 1.56296 -0.0117687 0
M  V30 13891 H 1293.1 2.10978 2.4629 0
M  V30 13892 H 1292.89 3.61381 1.52138 0
M  V30 13893 H 1294.38 3.36081 2.47869 0
M  V30 13894 N 1294.82 -0.0116844 1.57596 0
M  V30 13895 C 1296.04 -0.71026 1.94327 0
M  V30 13896 C 1296.46 -1.67952 0.862418 0
M  V30 13897 O 1295.82 -1.818 -0.159698 0
M  V30 13898 C 1295.87 -1.45228 3.31045 0
M  V30 13899 O 1295.59 -0.52191 4.3498 0
M  V30 13900 C 1297.09 -2.24644 3.82165 0
M  V30 13901 H 1294.31 -0.198559 0.640949 0
M  V30 13902 H 1296.85 0.0359615 2.04468 0
M  V30 13903 H 1295.01 -2.15023 3.22248 0
M  V30 13904 H 1295.42 -1.04415 5.14002 0
M  V30 13905 H 1296.9 -2.72078 4.80289 0
M  V30 13906 H 1297.37 -3.06817 3.14261 0
M  V30 13907 H 1297.98 -1.59888 3.94101 0
M  V30 13908 N 1296.29 -1.55015 -0.284256 0
M  V30 13909 C 1297.52 -1.79102 -1.03586 0
M  V30 13910 C 1297.94 -0.558733 -1.80343 0
M  V30 13911 O 1297.29 0.471925 -1.76293 0
M  V30 13912 C 1297.34 -3.00915 -2.0033 0
M  V30 13913 O 1297.07 -4.19384 -1.26685 0
M  V30 13914 C 1298.57 -3.3752 -2.87394 0
M  V30 13915 H 1295.79 -0.596912 -0.306491 0
M  V30 13916 H 1298.33 -2.02005 -0.31845 0
M  V30 13917 H 1296.49 -2.80171 -2.67549 0
M  V30 13918 H 1296.9 -4.88175 -1.91796 0
M  V30 13919 H 1298.37 -4.25953 -3.51095 0
M  V30 13920 H 1298.85 -2.56418 -3.56576 0
M  V30 13921 H 1299.46 -3.60483 -2.25682 0
M  V30 13922 N 1297.77 0.548248 -1.47757 0
M  V30 13923 C 1298.72 1.65453 -1.60916 0
M  V30 13924 C 1299.69 1.59836 -0.451831 0
M  V30 13925 O 1300.87 1.78536 -0.673023 0
M  V30 13926 C 1298.01 3.0376 -1.6378 0
M  V30 13927 C 1297.13 3.19747 -2.90492 0
M  V30 13928 C 1296.26 4.48505 -2.84635 0
M  V30 13929 C 1295.3 4.57956 -4.06132 0
M  V30 13930 N 1294.44 5.78079 -3.98458 0
M  V30 13931 H 1299.28 1.53545 -2.55398 0
M  V30 13932 H 1296.81 0.747826 -1.26673 0
M  V30 13933 H 1298.77 3.8386 -1.63424 0
M  V30 13934 H 1297.4 3.14483 -0.728036 0
M  V30 13935 H 1296.45 2.3302 -3.00676 0
M  V30 13936 H 1297.77 3.22594 -3.8044 0
M  V30 13937 H 1296.92 5.36875 -2.82577 0
M  V30 13938 H 1295.66 4.48151 -1.92385 0
M  V30 13939 H 1294.66 3.67995 -4.08484 0
M  V30 13940 H 1295.89 4.60062 -4.9952 0
M  V30 13941 H 1293.84 5.78657 -3.09017 0
M  V30 13942 H 1293.75 5.82342 -4.82093 0
M  V30 13943 H 1295.02 6.68786 -4.00431 0
M  V30 13944 N 1299.25 1.36039 0.795694 0
M  V30 13945 C 1300.67 1.16315 1.09284 0
M  V30 13946 C 1300.87 -0.017024 2.01493 0
M  V30 13947 O 1299.92 -0.684316 2.4305 0
M  V30 13948 C 1301.23 2.47113 1.71335 0
M  V30 13949 C 1302.78 2.5342 1.83705 0
M  V30 13950 C 1303.26 3.84289 2.49171 0
M  V30 13951 N 1304.75 3.856 2.56645 0
M  V30 13952 C 1305.48 4.83597 3.08094 0
M  V30 13953 N 1304.98 5.91985 3.59897 0
M  V30 13954 N 1306.77 4.71023 3.06748 0
M  V30 13955 H 1298.92 2.11611 0.182957 0
M  V30 13956 H 1301.19 0.937035 0.143771 0
M  V30 13957 H 1300.89 3.33708 1.11049 0
M  V30 13958 H 1300.77 2.62461 2.70914 0
M  V30 13959 H 1303.15 1.67247 2.43131 0
M  V30 13960 H 1303.23 2.41977 0.829495 0
M  V30 13961 H 1302.88 4.70865 1.90391 0
M  V30 13962 H 1302.81 3.93025 3.50484 0
M  V30 13963 H 1305.3 3.07291 2.19956 0
M  V30 13964 H 1305.61 6.6274 3.97487 0
M  V30 13965 H 1303.96 5.95662 3.58066 0
M  V30 13966 H 1307.15 3.8548 2.65561 0
M  V30 13967 H 1307.32 5.47555 3.46536 0
M  V30 13968 N 1300.73 -1.01913 1.20215 0
M  V30 13969 C 1302.14 -1.27766 0.956459 0
M  V30 13970 C 1302.34 -1.98158 -0.365486 0
M  V30 13971 O 1301.4 -2.27539 -1.09463 0
M  V30 13972 C 1302.71 -2.11516 2.13732 0
M  V30 13973 C 1304.26 -2.24792 2.17802 0
M  V30 13974 C 1304.74 -3.11919 3.35367 0
M  V30 13975 N 1306.23 -3.19507 3.35364 0
M  V30 13976 C 1306.96 -3.8714 4.22978 0
M  V30 13977 N 1306.46 -4.5692 5.20765 0
M  V30 13978 N 1308.25 -3.83638 4.10827 0
M  V30 13979 H 1300.4 -0.546426 2.05251 0
M  V30 13980 H 1302.67 -0.303772 0.898012 0
M  V30 13981 H 1302.37 -1.67127 3.09453 0
M  V30 13982 H 1302.25 -3.12249 2.11614 0
M  V30 13983 H 1304.63 -2.68407 1.22645 0
M  V30 13984 H 1304.71 -1.23576 2.2397 0
M  V30 13985 H 1304.36 -2.6901 4.30809 0
M  V30 13986 H 1304.29 -4.13215 3.26436 0
M  V30 13987 H 1306.78 -2.69819 2.64587 0
M  V30 13988 H 1307.09 -5.06188 5.83947 0
M  V30 13989 H 1305.44 -4.55753 5.24704 0
M  V30 13990 H 1308.63 -3.28268 3.33703 0
M  V30 13991 H 1308.8 -4.36071 4.79318 0
M  V30 13992 N 1302.21 -1.00763 -1.2118 0
M  V30 13993 C 1303.16 -0.541218 -2.21483 0
M  V30 13994 C 1304.14 0.398597 -1.55885 0
M  V30 13995 O 1305.33 0.22302 -1.75589 0
M  V30 13996 C 1302.46 0.128145 -3.43061 0
M  V30 13997 C 1301.55 -0.832845 -4.15842 0
M  V30 13998 N 1301.94 -1.98673 -4.65148 0
M  V30 13999 C 1300.24 -0.651779 -4.41212 0
M  V30 14000 C 1300.94 -2.59112 -5.20803 0
M  V30 14001 N 1299.91 -1.87249 -5.10332 0
M  V30 14002 H 1303.72 -1.42105 -2.57262 0
M  V30 14003 H 1301.23 -0.871796 -1.37016 0
M  V30 14004 H 1303.23 0.479771 -4.1413 0
M  V30 14005 H 1301.89 1.00392 -3.0879 0
M  V30 14006 H 1302.9 -2.36701 -4.60644 0
M  V30 14007 H 1299.57 0.1767 -4.17126 0
M  V30 14008 H 1300.96 -3.56713 -5.69391 0
M  V30 14009 N 1303.68 1.3679 -0.7827 0
M  V30 14010 C 1304.62 2.28805 -0.13451 0
M  V30 14011 C 1305.63 1.49159 0.652338 0
M  V30 14012 O 1306.82 1.71682 0.488626 0
M  V30 14013 C 1303.92 3.28508 0.832802 0
M  V30 14014 C 1303.09 4.37291 0.0974435 0
M  V30 14015 C 1302.15 5.16999 0.979715 0
M  V30 14016 O 1301.18 5.67501 0.439439 0
M  V30 14017 N 1302.38 5.32786 2.30477 0
M  V30 14018 H 1305.14 2.85072 -0.924873 0
M  V30 14019 H 1302.7 1.48884 -0.636012 0
M  V30 14020 H 1304.7 3.78718 1.42671 0
M  V30 14021 H 1303.27 2.7293 1.52408 0
M  V30 14022 H 1302.49 3.88335 -0.677483 0
M  V30 14023 H 1303.77 5.07143 -0.410259 0
M  V30 14024 H 1303.17 4.93358 2.76793 0
M  V30 14025 H 1301.73 5.86264 2.84848 0
M  V30 14026 N 1305.16 0.53415 1.48272 0
M  V30 14027 C 1306.09 -0.263508 2.2768 0
M  V30 14028 C 1307.11 -0.90064 1.35618 0
M  V30 14029 O 1308.3 -0.778379 1.60635 0
M  V30 14030 C 1305.4 -1.38878 3.09138 0
M  V30 14031 C 1304.57 -0.852784 4.29006 0
M  V30 14032 C 1303.63 -1.85969 4.92242 0
M  V30 14033 O 1302.65 -1.41497 5.51332 0
M  V30 14034 N 1303.86 -3.19207 4.84858 0
M  V30 14035 H 1306.62 0.417548 2.96777 0
M  V30 14036 H 1304.18 0.368743 1.57645 0
M  V30 14037 H 1306.17 -2.06062 3.48311 0
M  V30 14038 H 1304.74 -1.97343 2.42434 0
M  V30 14039 H 1303.96 -0.0048227 3.942 0
M  V30 14040 H 1305.25 -0.473634 5.06591 0
M  V30 14041 H 1304.65 -3.58001 4.38009 0
M  V30 14042 H 1303.21 -3.82013 5.28119 0
M  V30 14043 N 1306.64 -1.55279 0.269478 0
M  V30 14044 C 1307.87 -2.03876 -0.352418 0
M  V30 14045 C 1308.28 -1.14804 -1.49885 0
M  V30 14046 O 1307.64 -0.166989 -1.81734 0
M  V30 14047 C 1307.69 -3.51634 -0.838799 0
M  V30 14048 O 1307.41 -4.37316 0.261972 0
M  V30 14049 C 1308.91 -4.16094 -1.52909 0
M  V30 14050 H 1306.13 -0.66608 -0.0811043 0
M  V30 14051 H 1308.68 -2.00551 0.399929 0
M  V30 14052 H 1306.83 -3.55421 -1.54125 0
M  V30 14053 H 1307.25 -5.24383 -0.111013 0
M  V30 14054 H 1308.72 -5.21102 -1.82089 0
M  V30 14055 H 1309.2 -3.63928 -2.45872 0
M  V30 14056 H 1309.8 -4.16293 -0.87063 0
M  V30 14057 N 1308.12 0.00332656 -1.576 0
M  V30 14058 C 1309.36 0.68989 -1.90705 0
M  V30 14059 C 1309.7 1.73608 -0.870291 0
M  V30 14060 O 1308.97 1.94181 0.111416 0
M  V30 14061 C 1309.26 1.33605 -3.34397 0
M  V30 14062 C 1309.11 0.301638 -4.48787 0
M  V30 14063 C 1310.43 2.26313 -3.77453 0
M  V30 14064 H 1307.55 0.249328 -0.693545 0
M  V30 14065 H 1310.19 -0.0472847 -1.89941 0
M  V30 14066 H 1308.34 1.96437 -3.35179 0
M  V30 14067 H 1310.01 -0.326738 -4.60141 0
M  V30 14068 H 1308.25 -0.376451 -4.32163 0
M  V30 14069 H 1308.92 0.792741 -5.46278 0
M  V30 14070 H 1311.4 1.73502 -3.78201 0
M  V30 14071 H 1310.28 2.68492 -4.78752 0
M  V30 14072 H 1310.54 3.14082 -3.11135 0
M  V30 14073 N 1309.6 1.55164 0.276031 0
M  V30 14074 C 1310.82 1.79649 1.02635 0
M  V30 14075 C 1311.24 0.568289 1.80044 0
M  V30 14076 O 1310.6 -0.462569 1.7654 0
M  V30 14077 C 1310.65 3.01974 1.98731 0
M  V30 14078 O 1310.37 4.2005 1.24459 0
M  V30 14079 C 1311.87 3.39039 2.856 0
M  V30 14080 H 1309.09 0.598529 0.303321 0
M  V30 14081 H 1311.63 2.02171 0.307733 0
M  V30 14082 H 1309.79 2.81586 2.6606 0
M  V30 14083 H 1310.2 4.89185 1.89205 0
M  V30 14084 H 1311.68 4.27809 3.48831 0
M  V30 14085 H 1312.15 2.58306 3.55211 0
M  V30 14086 H 1312.76 3.61674 2.23767 0
M  V30 14087 N 1311.07 -0.540404 1.48045 0
M  V30 14088 C 1312.32 -1.2932 1.54787 0
M  V30 14089 C 1312.64 -1.94335 0.222109 0
M  V30 14090 O 1313.84 -2.70982 0.167675 0
M  V30 14091 C 1312.3 -2.34594 2.72935 0
M  V30 14092 C 1311.91 -1.75696 4.1211 0
M  V30 14093 C 1313.65 -3.10949 2.88982 0
M  V30 14094 C 1311.56 -2.78849 5.21534 0
M  V30 14095 H 1310.49 -0.486315 0.576206 0
M  V30 14096 H 1313.14 -0.571998 1.74357 0
M  V30 14097 H 1311.52 -3.09704 2.46778 0
M  V30 14098 H 1312.69 -1.06845 4.48242 0
M  V30 14099 H 1311.01 -1.11869 4.01091 0
M  V30 14100 H 1313.61 -3.88012 3.679 0
M  V30 14101 H 1313.95 -3.66173 1.98048 0
M  V30 14102 H 1314.48 -2.42953 3.1499 0
M  V30 14103 H 1311.22 -2.28459 6.144 0
M  V30 14104 H 1310.74 -3.46059 4.89901 0
M  V30 14105 H 1312.42 -3.4203 5.49203 0
M  V30 14106 N 1312.55 -1.36459 -0.788468 0
M  V30 14107 C 1313.96 -1.27515 -1.3637 0
M  V30 14108 C 1314.31 0.0846251 -1.96017 0
M  V30 14109 O 1313.44 0.98611 -1.92626 0
M  V30 14110 C 1314.03 -2.30903 -2.4793 0
M  V30 14111 C 1312.59 -2.25645 -3.01266 0
M  V30 14112 C 1311.74 -2.15631 -1.74352 0
M  V30 14113 H 1314.69 -1.47324 -0.590039 0
M  V30 14114 H 1314.71 -1.94601 -3.26972 0
M  V30 14115 H 1314.22 -3.29858 -2.04487 0
M  V30 14116 H 1312.33 -1.3016 -3.49126 0
M  V30 14117 H 1312.44 -3.18373 -3.58016 0
M  V30 14118 H 1310.8 -1.61901 -1.96622 0
M  V30 14119 H 1311.59 -3.16475 -1.33036 0
M  V30 14120 N 1314.03 1.01274 -1.20754 0
M  V30 14121 C 1315.44 1.56381 -1.0199 0
M  V30 14122 C 1315.79 1.91595 0.422591 0
M  V30 14123 O 1314.92 1.72653 1.3046 0
M  V30 14124 C 1315.51 2.8415 -1.8451 0
M  V30 14125 C 1314.07 3.35772 -1.70101 0
M  V30 14126 C 1313.22 2.0904 -1.82202 0
M  V30 14127 H 1316.17 0.836105 -1.34889 0
M  V30 14128 H 1316.19 3.55717 -1.35076 0
M  V30 14129 H 1315.7 2.5849 -2.8949 0
M  V30 14130 H 1313.8 3.66384 -0.677732 0
M  V30 14131 H 1313.92 4.07714 -2.51607 0
M  V30 14132 H 1312.28 2.21675 -1.25429 0
M  V30 14133 H 1313.06 1.858 -2.88675 0
M  V30 14134 N 1315.51 1.01404 1.20644 0
M  V30 14135 C 1316.46 0.582109 2.23339 0
M  V30 14136 C 1317.43 -0.39649 1.61298 0
M  V30 14137 O 1318.61 -0.296504 1.88482 0
M  V30 14138 C 1315.75 -0.076029 3.45016 0
M  V30 14139 C 1314.86 0.946829 4.21496 0
M  V30 14140 C 1314 0.26001 5.30563 0
M  V30 14141 C 1313.04 1.2698 5.98784 0
M  V30 14142 N 1312.18 0.609827 6.99447 0
M  V30 14143 H 1317.02 1.46248 2.59645 0
M  V30 14144 H 1314.55 0.732145 1.27585 0
M  V30 14145 H 1316.51 -0.474714 4.1449 0
M  V30 14146 H 1315.14 -0.920062 3.0941 0
M  V30 14147 H 1314.19 1.4637 3.51113 0
M  V30 14148 H 1315.5 1.71491 4.68393 0
M  V30 14149 H 1314.66 -0.19431 6.06389 0
M  V30 14150 H 1313.4 -0.540395 4.84697 0
M  V30 14151 H 1312.4 1.73453 5.21722 0
M  V30 14152 H 1313.63 2.07144 6.46737 0
M  V30 14153 H 1311.57 -0.170756 6.55778 0
M  V30 14154 H 1311.49 1.31601 7.44458 0
M  V30 14155 H 1312.76 0.179014 7.79294 0
M  V30 14156 N 1316.99 -1.36373 0.789944 0
M  V30 14157 C 1318.21 -2.04011 0.373396 0
M  V30 14158 C 1318.64 -1.59171 -1.00231 0
M  V30 14159 O 1318 -0.760431 -1.64582 0
M  V30 14160 C 1318.04 -3.5783 0.446083 0
M  V30 14161 O 1317.15 -4.08759 -0.54678 0
M  V30 14162 H 1316.49 -0.644807 0.158495 0
M  V30 14163 H 1319.02 -1.74317 1.0712 0
M  V30 14164 H 1319.03 -4.06822 0.309877 0
M  V30 14165 H 1317.7 -3.89819 1.44962 0
M  V30 14166 H 1316.28 -3.71038 -0.372192 0
M  V30 14167 N 1318.47 -0.542005 -1.47987 0
M  V30 14168 C 1319.69 -0.0146835 -2.07395 0
M  V30 14169 C 1320.12 1.26266 -1.39422 0
M  V30 14170 O 1319.47 1.75259 -0.464118 0
M  V30 14171 C 1319.52 0.179937 -3.60151 0
M  V30 14172 O 1318.63 1.24596 -3.93128 0
M  V30 14173 H 1317.97 -0.0445076 -0.662507 0
M  V30 14174 H 1320.5 -0.753352 -1.90226 0
M  V30 14175 H 1320.51 0.398876 -4.06046 0
M  V30 14176 H 1319.18 -0.753093 -4.09025 0
M  V30 14177 H 1317.76 1.00872 -3.58997 0
M  V30 14178 N 1319.94 1.55134 -0.277709 0
M  V30 14179 C 1320.87 2.256 0.602232 0
M  V30 14180 C 1321.85 1.24708 1.15681 0
M  V30 14181 O 1323.04 1.53433 1.19046 0
M  V30 14182 C 1320.17 2.97907 1.78519 0
M  V30 14183 C 1319.12 4.0575 1.36203 0
M  V30 14184 C 1318.45 4.65644 2.62829 0
M  V30 14185 C 1319.75 5.19801 0.510327 0
M  V30 14186 H 1321.44 2.99396 0.0145622 0
M  V30 14187 H 1318.99 1.43999 0.00556389 0
M  V30 14188 H 1320.94 3.45915 2.40668 0
M  V30 14189 H 1319.67 2.21649 2.39873 0
M  V30 14190 H 1318.33 3.58557 0.763726 0
M  V30 14191 H 1317.97 3.86053 3.22447 0
M  V30 14192 H 1317.67 5.38463 2.35227 0
M  V30 14193 H 1319.2 5.16403 3.25823 0
M  V30 14194 H 1320.61 5.63845 1.03689 0
M  V30 14195 H 1319.01 5.99197 0.329073 0
M  V30 14196 H 1320.08 4.82614 -0.470273 0
M  V30 14197 N 1321.42 0.00503138 1.57599 0
M  V30 14198 C 1322.65 -0.693231 1.95471 0
M  V30 14199 C 1323.07 -1.66233 0.880246 0
M  V30 14200 O 1322.43 -1.80582 -0.161164 0
M  V30 14201 C 1322.48 -1.39696 3.32442 0
M  V30 14202 O 1321.58 -2.51154 3.27101 0
M  V30 14203 H 1320.92 -0.184015 0.637992 0
M  V30 14204 H 1323.45 0.0597194 2.04513 0
M  V30 14205 H 1323.46 -1.75924 3.68123 0
M  V30 14206 H 1322.14 -0.686438 4.10196 0
M  V30 14207 H 1320.71 -2.17216 3.03103 0
M  V30 14208 N 1322.9 -1.55308 -0.267798 0
M  V30 14209 C 1324.15 -1.7642 -1.00019 0
M  V30 14210 C 1324.48 -0.566559 -1.85752 0
M  V30 14211 O 1323.75 0.435752 -1.89556 0
M  V30 14212 C 1324.04 -3.07229 -1.87836 0
M  V30 14213 C 1323.89 -4.37358 -1.05061 0
M  V30 14214 C 1325.21 -3.34113 -2.86455 0
M  V30 14215 H 1322.33 -0.641859 -0.362197 0
M  V30 14216 H 1324.97 -1.8804 -0.272188 0
M  V30 14217 H 1323.12 -2.97454 -2.49907 0
M  V30 14218 H 1324.79 -4.59098 -0.450208 0
M  V30 14219 H 1323.03 -4.32351 -0.354242 0
M  V30 14220 H 1323.71 -5.25223 -1.69838 0
M  V30 14221 H 1326.18 -3.43715 -2.34519 0
M  V30 14222 H 1325.06 -4.26896 -3.45038 0
M  V30 14223 H 1325.32 -2.54005 -3.61848 0
M  V30 14224 N 1324.38 0.532545 -1.4833 0
M  V30 14225 C 1325.79 1.11451 -1.49785 0
M  V30 14226 C 1326.14 1.94386 -0.266207 0
M  V30 14227 O 1325.26 2.07121 0.62688 0
M  V30 14228 C 1325.86 2.0279 -2.71407 0
M  V30 14229 C 1324.42 2.56209 -2.75742 0
M  V30 14230 C 1323.57 1.33114 -2.43261 0
M  V30 14231 H 1326.52 0.317924 -1.55483 0
M  V30 14232 H 1326.54 2.87038 -2.49779 0
M  V30 14233 H 1326.05 1.42401 -3.61031 0
M  V30 14234 H 1324.15 3.20327 -1.9032 0
M  V30 14235 H 1324.26 2.95518 -3.77102 0
M  V30 14236 H 1322.63 1.64607 -1.94362 0
M  V30 14237 H 1323.41 0.744809 -3.35123 0
M  V30 14238 N 1325.86 1.36875 0.78122 0
M  V30 14239 C 1327.09 1.34537 1.56791 0
M  V30 14240 C 1327.49 -0.0734709 1.89057 0
M  V30 14241 O 1326.84 -1.04307 1.51215 0
M  V30 14242 C 1326.9 2.10971 2.91087 0
M  V30 14243 C 1326.56 3.60005 2.81506 0
M  V30 14244 C 1327.56 4.54085 2.53185 0
M  V30 14245 C 1325.24 4.03001 2.99826 0
M  V30 14246 C 1327.24 5.89139 2.43298 0
M  V30 14247 C 1324.93 5.38144 2.89559 0
M  V30 14248 C 1325.92 6.31026 2.61335 0
M  V30 14249 O 1325.61 7.63685 2.51077 0
M  V30 14250 H 1325.34 0.46284 0.492702 0
M  V30 14251 H 1327.9 1.80683 0.976869 0
M  V30 14252 H 1326.13 1.595 3.52274 0
M  V30 14253 H 1327.82 2.01387 3.52418 0
M  V30 14254 H 1328.58 4.22178 2.38727 0
M  V30 14255 H 1324.46 3.31073 3.20799 0
M  V30 14256 H 1328.01 6.61605 2.21188 0
M  V30 14257 H 1323.9 5.69656 3.03583 0
M  V30 14258 H 1324.67 7.739 2.66498 0
M  V30 14259 N 1327.33 -1.00632 1.21289 0
M  V30 14260 C 1328.58 -1.74647 1.03084 0
M  V30 14261 C 1328.91 -1.89271 -0.43476 0
M  V30 14262 O 1328.19 -1.42607 -1.32263 0
M  V30 14263 C 1328.47 -3.15981 1.72709 0
M  V30 14264 C 1328.32 -3.09088 3.2678 0
M  V30 14265 C 1329.64 -4.14875 1.46857 0
M  V30 14266 H 1326.76 -0.633938 0.375889 0
M  V30 14267 H 1329.4 -1.17328 1.49446 0
M  V30 14268 H 1327.55 -3.64918 1.33294 0
M  V30 14269 H 1329.23 -2.67875 3.75554 0
M  V30 14270 H 1327.47 -2.46223 3.57151 0
M  V30 14271 H 1328.14 -4.09041 3.70661 0
M  V30 14272 H 1330.62 -3.74637 1.81069 0
M  V30 14273 H 1329.49 -5.1191 1.98088 0
M  V30 14274 H 1329.75 -4.40302 0.398296 0
M  V30 14275 N 1328.81 -1.02043 -1.20104 0
M  V30 14276 C 1330.06 -0.707271 -1.88893 0
M  V30 14277 C 1330.37 0.766617 -1.79951 0
M  V30 14278 O 1331.58 1.19248 -2.4391 0
M  V30 14279 C 1330.04 -1.2147 -3.38782 0
M  V30 14280 C 1329.64 -2.71576 -3.56301 0
M  V30 14281 C 1331.39 -0.977146 -4.13101 0
M  V30 14282 C 1329.29 -3.15781 -5.00037 0
M  V30 14283 H 1328.22 -0.26086 -0.707438 0
M  V30 14284 H 1330.88 -1.23361 -1.35846 0
M  V30 14285 H 1329.26 -0.616315 -3.91175 0
M  V30 14286 H 1330.43 -3.36997 -3.14276 0
M  V30 14287 H 1328.75 -2.93517 -2.95359 0
M  V30 14288 H 1331.34 -1.28278 -5.19085 0
M  V30 14289 H 1331.69 0.0862909 -4.16211 0
M  V30 14290 H 1332.22 -1.5391 -3.6682 0
M  V30 14291 H 1328.96 -4.21417 -5.02084 0
M  V30 14292 H 1328.48 -2.55083 -5.42856 0
M  V30 14293 H 1330.16 -3.08637 -5.6864 0
M  V30 14294 N 1330.29 1.35952 -0.797165 0
M  V30 14295 C 1331.54 1.99327 -0.373695 0
M  V30 14296 C 1331.87 1.63111 1.05396 0
M  V30 14297 O 1331.14 0.889736 1.72956 0
M  V30 14298 C 1331.43 3.5593 -0.54641 0
M  V30 14299 C 1331.28 4.01975 -2.01832 0
M  V30 14300 C 1332.6 4.40087 0.0337694 0
M  V30 14301 H 1329.72 0.724107 -0.137254 0
M  V30 14302 H 1332.36 1.61248 -1.00495 0
M  V30 14303 H 1330.51 3.88499 -0.00903959 0
M  V30 14304 H 1332.18 3.79859 -2.61735 0
M  V30 14305 H 1330.43 3.5323 -2.51815 0
M  V30 14306 H 1331.1 5.109 -2.09009 0
M  V30 14307 H 1333.57 4.13923 -0.425039 0
M  V30 14308 H 1332.45 5.48775 -0.117054 0
M  V30 14309 H 1332.71 4.27504 1.12661 0
M  V30 14310 N 1331.77 0.549846 1.47697 0
M  V30 14311 C 1333.18 0.11453 1.86348 0
M  V30 14312 C 1333.53 -1.31368 1.45729 0
M  V30 14313 O 1332.66 -1.98707 0.856989 0
M  V30 14314 C 1333.25 0.201072 3.38203 0
M  V30 14315 C 1331.81 -0.179162 3.75973 0
M  V30 14316 C 1330.96 0.551951 2.71751 0
M  V30 14317 H 1333.91 0.759989 1.39319 0
M  V30 14318 H 1333.93 -0.582216 3.76019 0
M  V30 14319 H 1333.44 1.24065 3.67736 0
M  V30 14320 H 1331.54 -1.22013 3.52056 0
M  V30 14321 H 1331.65 0.174273 4.78783 0
M  V30 14322 H 1330.02 -0.00411819 2.547 0
M  V30 14323 H 1330.8 1.59254 3.04127 0
M  V30 14324 N 1333.25 -1.54984 0.285932 0
M  V30 14325 C 1334.18 -2.25916 -0.590259 0
M  V30 14326 C 1335.16 -1.25319 -1.15018 0
M  V30 14327 O 1336.34 -1.54062 -1.18231 0
M  V30 14328 C 1333.47 -2.98849 -1.76936 0
M  V30 14329 C 1332.43 -4.06466 -1.3405 0
M  V30 14330 C 1331.75 -4.67032 -2.60356 0
M  V30 14331 C 1333.05 -5.20064 -0.482754 0
M  V30 14332 H 1334.75 -2.994 0.00131571 0
M  V30 14333 H 1332.29 -1.44 0.00207281 0
M  V30 14334 H 1334.25 -3.47186 -2.3883 0
M  V30 14335 H 1332.97 -2.22918 -2.38694 0
M  V30 14336 H 1331.63 -3.58957 -0.7447 0
M  V30 14337 H 1331.28 -3.87757 -3.20396 0
M  V30 14338 H 1330.98 -5.39703 -2.32368 0
M  V30 14339 H 1332.5 -5.18124 -3.23079 0
M  V30 14340 H 1333.91 -5.64387 -1.00697 0
M  V30 14341 H 1332.31 -5.99363 -0.297291 0
M  V30 14342 H 1333.38 -4.82358 0.495861 0
M  V30 14343 N 1334.72 -0.0133892 -1.57594 0
M  V30 14344 C 1335.67 0.97367 -2.09257 0
M  V30 14345 C 1336.64 1.33298 -0.990998 0
M  V30 14346 O 1337.83 1.42903 -1.26425 0
M  V30 14347 C 1334.97 2.25603 -2.61147 0
M  V30 14348 C 1334.08 1.95456 -3.85254 0
M  V30 14349 C 1333.21 3.17871 -4.25596 0
M  V30 14350 C 1332.25 2.83471 -5.42504 0
M  V30 14351 N 1331.39 3.98464 -5.78075 0
M  V30 14352 H 1336.23 0.526189 -2.93318 0
M  V30 14353 H 1333.77 0.248148 -1.44992 0
M  V30 14354 H 1335.73 3.00587 -2.89315 0
M  V30 14355 H 1334.36 2.67995 -1.7994 0
M  V30 14356 H 1333.41 1.10781 -3.63912 0
M  V30 14357 H 1334.72 1.6611 -4.70328 0
M  V30 14358 H 1333.87 4.0119 -4.55117 0
M  V30 14359 H 1332.61 3.50365 -3.39257 0
M  V30 14360 H 1331.62 1.98562 -5.12692 0
M  V30 14361 H 1332.84 2.5221 -6.30529 0
M  V30 14362 H 1330.79 4.3083 -4.94694 0
M  V30 14363 H 1330.71 3.72688 -6.57753 0
M  V30 14364 H 1331.97 4.82532 -6.12195 0
M  V30 14365 N 1336.2 1.55448 0.259558 0
M  V30 14366 C 1337.43 1.80727 1.00723 0
M  V30 14367 C 1337.85 0.587354 1.79431 0
M  V30 14368 O 1337.2 -0.443819 1.77021 0
M  V30 14369 C 1337.25 3.04064 1.95517 0
M  V30 14370 O 1336.97 4.21346 1.19996 0
M  V30 14371 C 1338.48 3.42049 2.81988 0
M  V30 14372 H 1335.7 0.601713 0.296956 0
M  V30 14373 H 1338.24 2.02486 0.286273 0
M  V30 14374 H 1336.39 2.84392 2.63058 0
M  V30 14375 H 1336.81 4.91164 1.84006 0
M  V30 14376 H 1338.28 4.31485 3.44274 0
M  V30 14377 H 1338.76 2.62059 3.52451 0
M  V30 14378 H 1339.37 3.64027 2.19918 0
M  V30 14379 N 1337.68 -0.524672 1.4861 0
M  V30 14380 C 1338.93 -1.27768 1.56588 0
M  V30 14381 C 1339.25 -1.93469 0.243899 0
M  V30 14382 O 1338.52 -1.8159 -0.734985 0
M  V30 14383 H 1337.1 -0.474566 0.576885 0
M  V30 14384 H 1339.76 -0.610114 1.85104 0
M  V30 14385 H 1338.86 -2.05416 2.34969 0
M  V30 14386 N 1339.16 -1.37287 -0.77395 0
M  V30 14387 C 1340.09 -1.35569 -1.90114 0
M  V30 14388 C 1341.07 -0.224658 -1.6861 0
M  V30 14389 O 1342.25 -0.424676 -1.895 0
M  V30 14390 C 1339.38 -1.15971 -3.27365 0
M  V30 14391 C 1338.34 -2.26063 -3.63427 0
M  V30 14392 C 1337.66 -1.9159 -4.99197 0
M  V30 14393 C 1338.96 -3.68236 -3.70405 0
M  V30 14394 H 1340.66 -2.29891 -1.91808 0
M  V30 14395 H 1338.2 -1.10661 -0.92142 0
M  V30 14396 H 1340.16 -1.134 -4.05855 0
M  V30 14397 H 1338.88 -0.181043 -3.26098 0
M  V30 14398 H 1337.54 -2.27786 -2.87244 0
M  V30 14399 H 1337.19 -0.922586 -4.94467 0
M  V30 14400 H 1336.89 -2.65309 -5.24294 0
M  V30 14401 H 1338.41 -1.90602 -5.80089 0
M  V30 14402 H 1339.83 -3.68655 -4.39052 0
M  V30 14403 H 1338.22 -4.4099 -4.06999 0
M  V30 14404 H 1339.29 -4.02021 -2.71122 0
M  V30 14405 N 1340.64 0.999871 -1.21821 0
M  V30 14406 C 1341.57 2.09044 -0.939852 0
M  V30 14407 C 1342.58 1.62609 0.0788987 0
M  V30 14408 O 1343.77 1.77832 -0.154241 0
M  V30 14409 C 1340.87 3.36641 -0.390618 0
M  V30 14410 C 1340.04 4.12139 -1.46493 0
M  V30 14411 C 1339.1 5.18023 -0.924019 0
M  V30 14412 O 1338.13 5.45996 -1.60864 0
M  V30 14413 N 1339.33 5.79926 0.258136 0
M  V30 14414 H 1342.1 2.33506 -1.8787 0
M  V30 14415 H 1339.66 1.16509 -1.12415 0
M  V30 14416 H 1341.65 4.04697 -0.0142349 0
M  V30 14417 H 1340.22 3.09298 0.453176 0
M  V30 14418 H 1339.44 3.38813 -2.01494 0
M  V30 14419 H 1340.73 4.59354 -2.18795 0
M  V30 14420 H 1340.12 5.59559 0.831288 0
M  V30 14421 H 1338.68 6.4925 0.575977 0
M  V30 14422 N 1342.11 1.02678 1.19562 0
M  V30 14423 C 1343.02 0.615738 2.26375 0
M  V30 14424 C 1344.04 -0.351525 1.70412 0
M  V30 14425 O 1345.22 -0.209932 2.00303 0
M  V30 14426 C 1342.28 -0.0292135 3.46688 0
M  V30 14427 C 1341.34 0.985284 4.1784 0
M  V30 14428 C 1340.58 0.371016 5.32409 0
M  V30 14429 O 1340.8 -0.826591 5.64379 0
M  V30 14430 O 1339.73 1.09282 5.91896 0
M  V30 14431 H 1343.56 1.50526 2.63772 0
M  V30 14432 H 1341.14 0.796847 1.26375 0
M  V30 14433 H 1343.03 -0.38893 4.19601 0
M  V30 14434 H 1341.7 -0.892778 3.11145 0
M  V30 14435 H 1340.61 1.39655 3.47055 0
M  V30 14436 H 1341.94 1.81915 4.57349 0
M  V30 14437 N 1343.59 -1.35528 0.804364 0
M  V30 14438 C 1344.84 -1.99126 0.384261 0
M  V30 14439 C 1345.17 -1.63668 -1.0453 0
M  V30 14440 O 1344.45 -0.898896 -1.72482 0
M  V30 14441 C 1344.73 -3.55636 0.565278 0
M  V30 14442 C 1344.58 -4.00899 2.03961 0
M  V30 14443 C 1345.9 -4.40099 -0.0104301 0
M  V30 14444 H 1343.02 -0.723369 0.141092 0
M  V30 14445 H 1345.66 -1.60712 1.01348 0
M  V30 14446 H 1343.81 -3.88489 0.0296425 0
M  V30 14447 H 1345.48 -3.78465 2.63746 0
M  V30 14448 H 1343.73 -3.5189 2.53685 0
M  V30 14449 H 1344.4 -5.09785 2.11716 0
M  V30 14450 H 1346.87 -4.13692 0.446985 0
M  V30 14451 H 1345.75 -5.48705 0.146155 0
M  V30 14452 H 1346.01 -4.28096 -1.10392 0
M  V30 14453 N 1345.07 -0.557671 -1.47404 0
M  V30 14454 C 1345.98 0.19289 -2.33806 0
M  V30 14455 C 1347 0.911424 -1.4822 0
M  V30 14456 O 1348.17 0.880214 -1.81147 0
M  V30 14457 C 1345.24 1.20937 -3.24923 0
M  V30 14458 C 1344.3 0.498209 -4.26399 0
M  V30 14459 C 1343.53 1.46626 -5.13163 0
M  V30 14460 O 1343.76 2.70111 -5.0239 0
M  V30 14461 O 1342.69 0.990497 -5.93694 0
M  V30 14462 H 1346.52 -0.515861 -2.99287 0
M  V30 14463 H 1344.1 -0.318283 -1.4597 0
M  V30 14464 H 1345.98 1.7961 -3.81206 0
M  V30 14465 H 1344.66 1.90003 -2.6207 0
M  V30 14466 H 1343.56 -0.129736 -3.73875 0
M  V30 14467 H 1344.9 -0.151015 -4.91968 0
M  V30 14468 N 1346.55 1.54831 -0.294147 0
M  V30 14469 C 1347.8 2.00298 0.317605 0
M  V30 14470 C 1348.13 1.18228 1.54064 0
M  V30 14471 O 1347.4 0.257034 1.92794 0
M  V30 14472 C 1347.69 3.53602 0.680991 0
M  V30 14473 C 1347.54 4.46416 -0.550711 0
M  V30 14474 C 1348.86 4.13379 1.51016 0
M  V30 14475 H 1345.98 0.728135 0.113965 0
M  V30 14476 H 1348.62 1.85636 -0.404883 0
M  V30 14477 H 1346.77 3.66227 1.29654 0
M  V30 14478 H 1348.44 4.45707 -1.18922 0
M  V30 14479 H 1346.68 4.17294 -1.18524 0
M  V30 14480 H 1347.36 5.51423 -0.252412 0
M  V30 14481 H 1349.83 4.04148 0.99012 0
M  V30 14482 H 1348.71 5.20818 1.73321 0
M  V30 14483 H 1348.97 3.64817 2.49722 0
M  V30 14484 N 1348.03 0.0217466 1.57585 0
M  V30 14485 C 1348.97 -0.962559 2.0977 0
M  V30 14486 C 1349.94 -1.32771 0.998053 0
M  V30 14487 O 1351.13 -1.42231 1.27181 0
M  V30 14488 C 1348.27 -2.24214 2.62339 0
M  V30 14489 C 1347.38 -1.9341 3.86286 0
M  V30 14490 C 1346.52 -3.15609 4.27275 0
M  V30 14491 C 1345.56 -2.8059 5.43999 0
M  V30 14492 N 1344.69 -3.95392 5.8018 0
M  V30 14493 H 1349.53 -0.510626 2.93593 0
M  V30 14494 H 1347.07 -0.240456 1.45121 0
M  V30 14495 H 1349.03 -2.99049 2.90905 0
M  V30 14496 H 1347.66 -2.67037 1.81358 0
M  V30 14497 H 1346.71 -1.08849 3.64494 0
M  V30 14498 H 1348.02 -1.63614 4.71203 0
M  V30 14499 H 1347.18 -3.9877 4.57239 0
M  V30 14500 H 1345.92 -3.48561 3.41111 0
M  V30 14501 H 1344.92 -1.9584 5.13738 0
M  V30 14502 H 1346.15 -2.48863 6.31858 0
M  V30 14503 H 1344.09 -4.282 4.96971 0
M  V30 14504 H 1344.01 -3.69195 6.59721 0
M  V30 14505 H 1345.28 -4.79279 6.14746 0
M  V30 14506 N 1349.51 -1.55583 -0.251311 0
M  V30 14507 C 1350.47 -1.89148 -1.29443 0
M  V30 14508 C 1351.47 -0.7676 -1.41296 0
M  V30 14509 O 1352.66 -1.03563 -1.40073 0
M  V30 14510 C 1349.79 -2.11601 -2.67279 0
M  V30 14511 H 1350.98 -2.82416 -1.00901 0
M  V30 14512 H 1348.54 -1.48407 -0.490398 0
M  V30 14513 H 1349.27 -1.20787 -3.00967 0
M  V30 14514 H 1349.06 -2.93449 -2.60058 0
M  V30 14515 H 1350.55 -2.38768 -3.42607 0
M  V30 14516 N 1350.98 0.516783 -1.48886 0
M  V30 14517 C 1351.95 1.60226 -1.63891 0
M  V30 14518 C 1352.95 1.52448 -0.511479 0
M  V30 14519 O 1354.14 1.55882 -0.777582 0
M  V30 14520 C 1351.27 2.99867 -1.62151 0
M  V30 14521 H 1352.46 1.48256 -2.60692 0
M  V30 14522 H 1350.01 0.739844 -1.37681 0
M  V30 14523 H 1350.75 3.1733 -0.668764 0
M  V30 14524 H 1350.53 3.0692 -2.44013 0
M  V30 14525 H 1352.02 3.7876 -1.7587 0
M  V30 14526 N 1352.46 1.37696 0.766659 0
M  V30 14527 C 1353.71 1.33382 1.52765 0
M  V30 14528 C 1354.04 -0.0800569 1.94035 0
M  V30 14529 O 1353.32 -1.03848 1.64456 0
M  V30 14530 C 1353.6 2.2776 2.78922 0
M  V30 14531 C 1353.45 3.77949 2.43874 0
M  V30 14532 C 1354.77 2.20494 3.80881 0
M  V30 14533 H 1351.89 0.485836 0.554195 0
M  V30 14534 H 1354.53 1.68438 0.879119 0
M  V30 14535 H 1352.68 1.97994 3.34261 0
M  V30 14536 H 1354.35 4.18333 1.9441 0
M  V30 14537 H 1352.6 3.96269 1.76503 0
M  V30 14538 H 1353.27 4.39428 3.34077 0
M  V30 14539 H 1355.74 2.46742 3.35048 0
M  V30 14540 H 1354.62 2.88663 4.66867 0
M  V30 14541 H 1354.88 1.19951 4.25516 0
M  V30 14542 N 1353.94 -0.993397 1.22349 0
M  V30 14543 C 1355.17 -1.76581 1.0725 0
M  V30 14544 C 1355.58 -1.85346 -0.379923 0
M  V30 14545 O 1354.92 -1.3224 -1.27508 0
M  V30 14546 C 1354.98 -3.21519 1.60829 0
M  V30 14547 C 1354.65 -3.363 3.09437 0
M  V30 14548 C 1355.64 -3.23655 4.0687 0
M  V30 14549 C 1353.33 -3.61368 3.48882 0
M  V30 14550 C 1355.32 -3.3586 5.41735 0
M  V30 14551 C 1353.01 -3.73214 4.83895 0
M  V30 14552 C 1354.01 -3.60468 5.80131 0
M  V30 14553 O 1353.7 -3.7192 7.12693 0
M  V30 14554 H 1353.43 -0.561407 0.376561 0
M  V30 14555 H 1355.98 -1.25768 1.62393 0
M  V30 14556 H 1354.21 -3.73521 1.00093 0
M  V30 14557 H 1355.9 -3.80475 1.41399 0
M  V30 14558 H 1356.67 -3.04201 3.77739 0
M  V30 14559 H 1352.55 -3.70365 2.74501 0
M  V30 14560 H 1356.09 -3.25829 6.16832 0
M  V30 14561 H 1351.99 -3.92175 5.12707 0
M  V30 14562 H 1352.75 -3.88796 7.20264 0
M  V30 14563 N 1355.42 -1.03311 -1.19015 0
M  V30 14564 C 1356.37 -0.588076 -2.20285 0
M  V30 14565 C 1357.35 0.365442 -1.56695 0
M  V30 14566 O 1358.54 0.185725 -1.76023 0
M  V30 14567 C 1355.67 0.0553478 -3.43255 0
M  V30 14568 C 1354.76 -0.920863 -4.13982 0
M  V30 14569 N 1355.15 -2.08495 -4.60829 0
M  V30 14570 C 1353.45 -0.74522 -4.3973 0
M  V30 14571 C 1354.15 -2.701 -5.1519 0
M  V30 14572 N 1353.12 -1.98031 -5.06246 0
M  V30 14573 H 1356.93 -1.47529 -2.54189 0
M  V30 14574 H 1354.44 -0.900663 -1.35136 0
M  V30 14575 H 1356.44 0.39182 -4.15055 0
M  V30 14576 H 1355.1 0.938199 -3.1085 0
M  V30 14577 H 1356.11 -2.46418 -4.5552 0
M  V30 14578 H 1352.79 0.088182 -4.17407 0
M  V30 14579 H 1354.18 -3.6871 -5.61696 0
M  V30 14580 N 1356.9 1.35099 -0.81154 0
M  V30 14581 C 1357.85 2.27139 -0.197958 0
M  V30 14582 C 1358.83 1.48006 0.631116 0
M  V30 14583 O 1360.02 1.70152 0.487562 0
M  V30 14584 C 1357.15 3.37118 0.648577 0
M  V30 14585 C 1356.24 4.23672 -0.190498 0
M  V30 14586 N 1356.63 4.89959 -1.25594 0
M  V30 14587 C 1354.93 4.45992 0.0270572 0
M  V30 14588 C 1355.63 5.54161 -1.76862 0
M  V30 14589 N 1354.6 5.32879 -1.07428 0
M  V30 14590 H 1358.4 2.75886 -1.01311 0
M  V30 14591 H 1355.92 1.48685 -0.653195 0
M  V30 14592 H 1357.92 4.0201 1.10423 0
M  V30 14593 H 1356.58 2.89922 1.46202 0
M  V30 14594 H 1357.59 4.91293 -1.63864 0
M  V30 14595 H 1354.26 4.09582 0.809248 0
M  V30 14596 H 1355.65 6.17032 -2.65935 0
M  V30 14597 N 1358.37 0.56548 1.47106 0
M  V30 14598 C 1359.62 0.0445255 2.02451 0
M  V30 14599 C 1359.95 -1.30863 1.43893 0
M  V30 14600 O 1359.2 -1.8668 0.587274 0
M  V30 14601 C 1359.5 -0.0893776 3.57288 0
M  V30 14602 C 1359.17 1.19395 4.34805 0
M  V30 14603 C 1357.83 1.54558 4.55703 0
M  V30 14604 C 1360.18 2.04399 4.79448 0
M  V30 14605 C 1357.51 2.74557 5.18494 0
M  V30 14606 C 1359.86 3.23608 5.43563 0
M  V30 14607 C 1358.53 3.59074 5.62692 0
M  V30 14608 H 1357.8 0.016293 0.740821 0
M  V30 14609 H 1360.44 0.738657 1.76681 0
M  V30 14610 H 1358.75 -0.86653 3.82097 0
M  V30 14611 H 1360.45 -0.507943 3.9777 0
M  V30 14612 H 1357.04 0.910176 4.18824 0
M  V30 14613 H 1361.22 1.78539 4.63074 0
M  V30 14614 H 1356.48 3.02194 5.31497 0
M  V30 14615 H 1360.65 3.89755 5.77117 0
M  V30 14616 H 1358.28 4.5215 6.11117 0
M  V30 14617 N 1359.85 -1.54672 0.302354 0
M  V30 14618 C 1361.1 -1.99345 -0.307307 0
M  V30 14619 C 1361.41 -1.19437 -1.549 0
M  V30 14620 O 1362.62 -1.54384 -2.23334 0
M  V30 14621 C 1361.08 -3.54896 -0.59808 0
M  V30 14622 C 1360.68 -4.43614 0.625357 0
M  V30 14623 C 1362.43 -4.08091 -1.16886 0
M  V30 14624 C 1360.34 -5.90599 0.307661 0
M  V30 14625 H 1359.27 -0.744614 -0.118603 0
M  V30 14626 H 1361.92 -1.78832 0.411271 0
M  V30 14627 H 1360.3 -3.71314 -1.37629 0
M  V30 14628 H 1361.47 -4.38969 1.40152 0
M  V30 14629 H 1359.79 -4.01198 1.11487 0
M  V30 14630 H 1362.38 -5.15477 -1.42082 0
M  V30 14631 H 1362.73 -3.58775 -2.11155 0
M  V30 14632 H 1363.26 -3.9522 -0.452329 0
M  V30 14633 H 1360 -6.44067 1.21895 0
M  V30 14634 H 1359.52 -5.98248 -0.431208 0
M  V30 14635 H 1361.2 -6.46937 -0.0902796 0
M  V30 14636 N 1361.33 -0.0301034 -1.57571 0
M  V30 14637 C 1362.56 0.662045 -1.9655 0
M  V30 14638 C 1362.98 1.64811 -0.906581 0
M  V30 14639 O 1362.34 1.80816 0.132415 0
M  V30 14640 C 1362.39 1.34389 -3.34622 0
M  V30 14641 O 1361.49 2.45919 -3.31056 0
M  V30 14642 H 1360.83 0.173842 -0.640839 0
M  V30 14643 H 1363.36 -0.092248 -2.04392 0
M  V30 14644 H 1363.37 1.70045 -3.70875 0
M  V30 14645 H 1362.05 0.621092 -4.11236 0
M  V30 14646 H 1360.62 2.12367 -3.06521 0
M  V30 14647 N 1362.81 1.55714 0.243056 0
M  V30 14648 C 1364.09 1.68483 0.993614 0
M  V30 14649 C 1364.47 0.571112 2.03228 0
M  V30 14650 O 1363.81 -0.42491 2.24515 0
M  V30 14651 C 1364.02 3.0894 1.62349 0
M  V30 14652 C 1365.37 3.67663 2.12389 0
M  V30 14653 O 1366.4 3.11764 1.72283 0
M  V30 14654 O 1365.25 4.65664 2.8604 0
M  V30 14655 H 1362.35 0.685415 0.462747 0
M  V30 14656 H 1364.89 1.68043 0.236538 0
M  V30 14657 H 1363.67 3.81451 0.87241 0
M  V30 14658 H 1363.29 3.13407 2.44667 0
M  V30 14659 N 1364.29 -0.50888 1.49158 0
M  V30 14660 C 1365.53 -1.261 1.57934 0
M  V30 14661 C 1365.86 -1.93199 0.264405 0
M  V30 14662 O 1365.13 -1.82359 -0.715684 0
M  V30 14663 H 1363.71 -0.468421 0.581886 0
M  V30 14664 H 1366.37 -0.590447 1.85741 0
M  V30 14665 H 1365.46 -2.02913 2.37135 0
M  V30 14666 N 1365.76 -1.381 -0.759346 0
M  V30 14667 C 1367.01 -1.3419 -1.52055 0
M  V30 14668 C 1367.34 0.0697657 -1.94075 0
M  V30 14669 O 1366.62 1.02975 -1.65004 0
M  V30 14670 C 1366.9 -2.29236 -2.7771 0
M  V30 14671 C 1366.75 -3.79237 -2.41866 0
M  V30 14672 C 1368.07 -2.22511 -3.79706 0
M  V30 14673 H 1365.19 -0.488768 -0.551611 0
M  V30 14674 H 1367.83 -1.68902 -0.870174 0
M  V30 14675 H 1365.98 -1.99764 -3.33206 0
M  V30 14676 H 1367.66 -4.19358 -1.92189 0
M  V30 14677 H 1365.9 -3.97199 -1.74399 0
M  V30 14678 H 1366.57 -4.41193 -3.31742 0
M  V30 14679 H 1369.05 -2.48516 -3.33735 0
M  V30 14680 H 1367.92 -2.91134 -4.6533 0
M  V30 14681 H 1368.18 -1.22206 -4.24874 0
M  V30 14682 N 1367.24 0.986894 -1.22875 0
M  V30 14683 C 1368.66 1.25185 -0.989997 0
M  V30 14684 C 1368.86 1.99057 0.31282 0
M  V30 14685 O 1367.91 2.30361 1.03392 0
M  V30 14686 C 1369.23 2.05775 -2.19265 0
M  V30 14687 C 1370.78 2.18938 -2.23686 0
M  V30 14688 C 1371.25 3.02917 -3.43519 0
M  V30 14689 N 1372.74 3.10503 -3.43718 0
M  V30 14690 C 1373.48 3.75789 -4.33094 0
M  V30 14691 N 1372.97 4.42952 -5.32696 0
M  V30 14692 N 1374.77 3.72611 -4.20854 0
M  V30 14693 H 1366.92 0.491816 -2.06628 0
M  V30 14694 H 1369.18 0.279856 -0.905751 0
M  V30 14695 H 1368.89 1.58864 -3.13776 0
M  V30 14696 H 1368.76 3.06529 -2.19818 0
M  V30 14697 H 1371.15 2.65061 -1.29718 0
M  V30 14698 H 1371.23 1.17595 -2.27168 0
M  V30 14699 H 1370.87 2.57493 -4.3779 0
M  V30 14700 H 1370.8 4.04415 -3.37277 0
M  V30 14701 H 1373.29 2.62709 -2.71647 0
M  V30 14702 H 1373.61 4.90527 -5.97162 0
M  V30 14703 H 1371.95 4.41681 -5.36603 0
M  V30 14704 H 1375.14 3.19305 -3.42289 0
M  V30 14705 H 1375.31 4.2321 -4.90711 0
M  V30 14706 N 1368.72 1.0394 1.18466 0
M  V30 14707 C 1369.67 0.629352 2.22054 0
M  V30 14708 C 1370.64 -0.362187 1.62103 0
M  V30 14709 O 1371.82 -0.256457 1.89069 0
M  V30 14710 C 1368.96 -0.00282888 3.451 0
M  V30 14711 C 1368.08 1.03602 4.19393 0
M  V30 14712 C 1367.21 0.372492 5.29892 0
M  V30 14713 C 1366.25 1.39652 5.95956 0
M  V30 14714 N 1365.39 0.758053 6.97996 0
M  V30 14715 H 1370.23 1.51722 2.56485 0
M  V30 14716 H 1367.76 0.759043 1.26004 0
M  V30 14717 H 1369.72 -0.386688 4.15404 0
M  V30 14718 H 1368.35 -0.854224 3.11292 0
M  V30 14719 H 1367.4 1.53784 3.47929 0
M  V30 14720 H 1368.72 1.81387 4.64651 0
M  V30 14721 H 1367.87 -0.065642 6.06664 0
M  V30 14722 H 1366.61 -0.437462 4.85734 0
M  V30 14723 H 1365.61 1.84481 5.17926 0
M  V30 14724 H 1366.84 2.20816 6.42197 0
M  V30 14725 H 1364.78 -0.0316173 6.55992 0
M  V30 14726 H 1364.7 1.47363 7.41499 0
M  V30 14727 H 1365.97 0.344273 7.78739 0
M  V30 14728 N 1370.2 -1.34667 0.818693 0
M  V30 14729 C 1371.42 -2.03173 0.416585 0
M  V30 14730 C 1371.85 -1.61261 -0.968321 0
M  V30 14731 O 1371.21 -0.79517 -1.62932 0
M  V30 14732 C 1371.25 -3.56803 0.521884 0
M  V30 14733 O 1370.36 -4.09827 -0.459953 0
M  V30 14734 H 1369.7 -0.6413 0.172136 0
M  V30 14735 H 1372.23 -1.72006 1.10794 0
M  V30 14736 H 1372.24 -4.06073 0.3961 0
M  V30 14737 H 1370.91 -3.86656 1.53198 0
M  V30 14738 H 1369.49 -3.71744 -0.293405 0
M  V30 14739 N 1371.68 -0.573274 -1.46804 0
M  V30 14740 C 1372.61 0.153316 -2.32996 0
M  V30 14741 C 1373.59 0.893013 -1.44773 0
M  V30 14742 O 1374.77 0.870329 -1.73606 0
M  V30 14743 C 1371.9 1.1736 -3.2687 0
M  V30 14744 C 1370.86 0.549347 -4.2446 0
M  V30 14745 C 1370.18 1.67542 -5.07773 0
M  V30 14746 C 1371.48 -0.50736 -5.1983 0
M  V30 14747 H 1373.18 -0.566305 -2.93995 0
M  V30 14748 H 1370.72 -0.273785 -1.41373 0
M  V30 14749 H 1372.68 1.6902 -3.86019 0
M  V30 14750 H 1371.4 1.92337 -2.63958 0
M  V30 14751 H 1370.06 0.0539142 -3.6656 0
M  V30 14752 H 1369.71 2.41463 -4.41253 0
M  V30 14753 H 1369.41 1.26343 -5.73856 0
M  V30 14754 H 1370.93 2.19496 -5.69784 0
M  V30 14755 H 1372.34 -0.0762061 -5.73249 0
M  V30 14756 H 1370.74 -0.839139 -5.94204 0
M  V30 14757 H 1371.81 -1.39723 -4.64333 0
M  V30 14758 N 1373.15 1.5451 -0.310553 0
M  V30 14759 C 1374.1 2.23871 0.561277 0
M  V30 14760 C 1375.07 1.22475 1.12202 0
M  V30 14761 O 1376.26 1.51121 1.16477 0
M  V30 14762 C 1373.4 2.99029 1.72267 0
M  V30 14763 C 1372.51 4.15218 1.19241 0
M  V30 14764 C 1371.64 4.77935 2.31843 0
M  V30 14765 C 1370.68 5.86251 1.75999 0
M  V30 14766 N 1369.82 6.42885 2.82212 0
M  V30 14767 H 1374.66 2.97977 -0.0367998 0
M  V30 14768 H 1372.2 1.4707 -0.0299317 0
M  V30 14769 H 1374.16 3.40842 2.40588 0
M  V30 14770 H 1372.79 2.27281 2.29223 0
M  V30 14771 H 1371.84 3.78279 0.401148 0
M  V30 14772 H 1373.15 4.93225 0.743675 0
M  V30 14773 H 1372.3 5.2265 3.08094 0
M  V30 14774 H 1371.04 3.99281 2.80047 0
M  V30 14775 H 1370.05 5.40952 0.982415 0
M  V30 14776 H 1371.27 6.66795 1.28688 0
M  V30 14777 H 1369.22 5.67109 3.29732 0
M  V30 14778 H 1369.14 7.16267 2.41864 0
M  V30 14779 H 1370.4 6.92256 3.58332 0
M  V30 14780 N 1374.63 0.0384594 1.57553 0
M  V30 14781 C 1375.88 -0.639085 1.92467 0
M  V30 14782 C 1376.21 -1.71239 0.916014 0
M  V30 14783 O 1375.49 -1.94408 -0.0598928 0
M  V30 14784 C 1375.77 -1.24693 3.37822 0
M  V30 14785 C 1375.62 -0.182544 4.49429 0
M  V30 14786 C 1376.94 -2.16226 3.8332 0
M  V30 14787 H 1374.06 -0.230852 0.699912 0
M  V30 14788 H 1376.7 0.0976276 1.89749 0
M  V30 14789 H 1374.85 -1.87481 3.40269 0
M  V30 14790 H 1376.53 0.448622 4.59113 0
M  V30 14791 H 1374.77 0.4909 4.31013 0
M  V30 14792 H 1375.44 -0.647626 5.48188 0
M  V30 14793 H 1377.92 -1.63413 3.82669 0
M  V30 14794 H 1376.79 -2.55705 4.85702 0
M  V30 14795 H 1377.05 -3.05722 3.19353 0
M  V30 14796 N 1376.11 -1.55841 -0.234795 0
M  V30 14797 C 1377.36 -1.78502 -0.96254 0
M  V30 14798 C 1377.69 -0.605832 -1.84508 0
M  V30 14799 O 1376.97 0.395446 -1.90438 0
M  V30 14800 C 1377.25 -3.11144 -1.81277 0
M  V30 14801 C 1377.1 -4.39488 -0.957607 0
M  V30 14802 C 1378.42 -3.40114 -2.79304 0
M  V30 14803 H 1375.54 -0.649397 -0.348501 0
M  V30 14804 H 1378.18 -1.88575 -0.23224 0
M  V30 14805 H 1376.33 -3.02687 -2.43542 0
M  V30 14806 H 1378 -4.59949 -0.352726 0
M  V30 14807 H 1376.25 -4.33005 -0.262454 0
M  V30 14808 H 1376.92 -5.28707 -1.58659 0
M  V30 14809 H 1379.39 -3.48612 -2.27175 0
M  V30 14810 H 1378.27 -4.34118 -3.35906 0
M  V30 14811 H 1378.53 -2.61623 -3.56378 0
M  V30 14812 N 1377.59 0.500963 -1.49426 0
M  V30 14813 C 1379 1.08248 -1.52116 0
M  V30 14814 C 1379.35 1.93777 -0.30738 0
M  V30 14815 O 1378.48 2.08404 0.582805 0
M  V30 14816 C 1379.07 1.96988 -2.75647 0
M  V30 14817 C 1377.63 2.50303 -2.81115 0
M  V30 14818 C 1376.78 1.27924 -2.4603 0
M  V30 14819 H 1379.73 0.284872 -1.56122 0
M  V30 14820 H 1379.75 2.81675 -2.55811 0
M  V30 14821 H 1379.26 1.34711 -3.6397 0
M  V30 14822 H 1377.36 3.16218 -1.97072 0
M  V30 14823 H 1377.48 2.87453 -3.83286 0
M  V30 14824 H 1375.84 1.60447 -1.9781 0
M  V30 14825 H 1376.62 0.673557 -3.36628 0
M  V30 14826 N 1379.07 1.38501 0.752011 0
M  V30 14827 C 1379.98 1.38094 1.8965 0
M  V30 14828 C 1380.99 0.277851 1.71767 0
M  V30 14829 O 1382.17 0.516536 1.94663 0
M  V30 14830 C 1379.23 1.2063 3.25037 0
M  V30 14831 C 1378.3 2.40758 3.55435 0
M  V30 14832 C 1377.53 2.24118 4.84362 0
M  V30 14833 O 1377.75 1.23571 5.56854 0
M  V30 14834 O 1376.69 3.12741 5.14273 0
M  V30 14835 H 1380.51 2.34532 1.92947 0
M  V30 14836 H 1378.1 1.19437 0.897504 0
M  V30 14837 H 1379.98 1.12957 4.05979 0
M  V30 14838 H 1378.65 0.272785 3.22549 0
M  V30 14839 H 1377.56 2.54006 2.74648 0
M  V30 14840 H 1378.89 3.32745 3.62686 0
M  V30 14841 N 1380.55 -0.980364 1.23396 0
M  V30 14842 C 1381.79 -1.71826 1.06397 0
M  V30 14843 C 1382.11 -1.90854 -0.399958 0
M  V30 14844 O 1381.38 -1.47721 -1.28668 0
M  V30 14845 H 1379.96 -0.636669 0.390719 0
M  V30 14846 H 1382.63 -1.18008 1.55113 0
M  V30 14847 H 1381.72 -2.7078 1.55192 0
M  V30 14848 N 1382.02 -1.04567 -1.17913 0
M  V30 14849 C 1383.27 -0.747179 -1.8735 0
M  V30 14850 C 1383.59 0.728274 -1.81537 0
M  V30 14851 O 1384.79 1.14048 -2.46385 0
M  V30 14852 C 1383.25 -1.28629 -3.36129 0
M  V30 14853 C 1382.86 -2.79073 -3.5046 0
M  V30 14854 C 1384.6 -1.06455 -4.10935 0
M  V30 14855 C 1382.51 -3.26316 -4.93226 0
M  V30 14856 H 1381.44 -0.275807 -0.701745 0
M  V30 14857 H 1384.09 -1.26215 -1.33199 0
M  V30 14858 H 1382.47 -0.699151 -3.89779 0
M  V30 14859 H 1383.64 -3.43587 -3.07057 0
M  V30 14860 H 1381.96 -2.99716 -2.89066 0
M  V30 14861 H 1384.56 -1.3926 -5.16247 0
M  V30 14862 H 1384.9 -0.00201298 -4.163 0
M  V30 14863 H 1385.43 -1.61656 -3.63472 0
M  V30 14864 H 1382.17 -4.31972 -4.93032 0
M  V30 14865 H 1381.69 -2.6654 -5.37323 0
M  V30 14866 H 1383.37 -3.2063 -5.61966 0
M  V30 14867 N 1383.5 1.34231 -0.825823 0
M  V30 14868 C 1384.92 1.51166 -0.511945 0
M  V30 14869 C 1385.12 1.76981 0.963318 0
M  V30 14870 O 1384.17 1.82243 1.74767 0
M  V30 14871 C 1385.49 2.67474 -1.37399 0
M  V30 14872 C 1387.03 2.81356 -1.37141 0
M  V30 14873 C 1387.51 4.0071 -2.218 0
M  V30 14874 N 1389 4.07922 -2.19439 0
M  V30 14875 C 1389.74 4.99438 -2.81691 0
M  V30 14876 N 1389.23 5.96157 -3.52944 0
M  V30 14877 N 1391.02 4.92332 -2.7123 0
M  V30 14878 H 1383.18 1.15734 -1.78099 0
M  V30 14879 H 1385.44 0.567856 -0.759107 0
M  V30 14880 H 1385.14 2.55036 -2.42176 0
M  V30 14881 H 1385.02 3.62558 -1.04075 0
M  V30 14882 H 1387.41 2.93233 -0.331405 0
M  V30 14883 H 1387.49 1.87072 -1.74464 0
M  V30 14884 H 1387.13 3.89593 -3.25852 0
M  V30 14885 H 1387.06 4.94213 -1.81826 0
M  V30 14886 H 1389.55 3.38695 -1.67612 0
M  V30 14887 H 1389.86 6.62623 -3.97682 0
M  V30 14888 H 1388.21 5.96272 -3.5705 0
M  V30 14889 H 1391.4 4.15733 -2.15137 0
M  V30 14890 H 1391.57 5.63458 -3.20031 0
M  V30 14891 N 1384.98 0.581051 1.46498 0
M  V30 14892 C 1385.91 -0.201475 2.27309 0
M  V30 14893 C 1386.89 -0.898424 1.35525 0
M  V30 14894 O 1388.07 -0.912643 1.64934 0
M  V30 14895 C 1385.2 -1.28896 3.13215 0
M  V30 14896 C 1384.25 -0.698028 4.20749 0
M  V30 14897 S 1385.08 0.473812 5.334 0
M  V30 14898 C 1386.24 -0.614916 6.22872 0
M  V30 14899 H 1386.47 0.484205 2.9333 0
M  V30 14900 H 1384 0.367907 1.49953 0
M  V30 14901 H 1385.96 -1.91162 3.63273 0
M  V30 14902 H 1384.62 -1.94658 2.46509 0
M  V30 14903 H 1383.81 -1.51542 4.80678 0
M  V30 14904 H 1383.42 -0.151069 3.73695 0
M  V30 14905 H 1385.71 -1.501 6.60663 0
M  V30 14906 H 1386.65 -0.0524259 7.08081 0
M  V30 14907 H 1387.06 -0.918315 5.5698 0
M  V30 14908 N 1386.46 -1.54343 0.318742 0
M  V30 14909 C 1387.41 -2.25634 -0.56497 0
M  V30 14910 C 1388.4 -1.26869 -1.12252 0
M  V30 14911 O 1389.61 -1.44662 -1.07112 0
M  V30 14912 H 1385.98 -0.724686 -0.200834 0
M  V30 14913 H 1387.95 -2.98342 0.0586393 0
M  V30 14914 C 1386.7 -3.0237 -1.71662 0
M  V30 14915 H 1386.02 -3.78183 -1.29684 0
M  V30 14916 H 1387.46 -3.55507 -2.31065 0
M  V30 14917 C 1385.92 -2.10383 -2.63136 0
M  V30 14918 O 1386.45 -1.68351 -3.6472 0
M  V30 14919 N 1384.66 -1.75971 -2.31263 0
M  V30 14920 H 1384.21 -2.10349 -1.48698 0
M  V30 14921 H 1384.16 -1.14702 -2.9273 0
M  V30 14922 N 1387.94 -0.0468143 -1.5753 0
M  V30 14923 C 1388.88 0.929065 -2.11275 0
M  V30 14924 C 1389.85 1.31166 -1.01905 0
M  V30 14925 O 1391.04 1.40189 -1.29428 0
M  V30 14926 C 1388.18 2.20012 -2.65873 0
M  V30 14927 C 1387.29 1.8724 -3.89314 0
M  V30 14928 C 1386.43 3.08772 -4.32242 0
M  V30 14929 C 1385.46 2.719 -5.48395 0
M  V30 14930 N 1384.6 3.86112 -5.86397 0
M  V30 14931 H 1389.44 0.463854 -2.94368 0
M  V30 14932 H 1386.98 0.217338 -1.45486 0
M  V30 14933 H 1388.94 2.94383 -2.95626 0
M  V30 14934 H 1387.57 2.64118 -1.85584 0
M  V30 14935 H 1386.62 1.03037 -3.6618 0
M  V30 14936 H 1387.93 1.56096 -4.73746 0
M  V30 14937 H 1387.08 3.91446 -4.63525 0
M  V30 14938 H 1385.82 3.4309 -3.46613 0
M  V30 14939 H 1384.83 1.87642 -5.16789 0
M  V30 14940 H 1386.05 2.38779 -6.35737 0
M  V30 14941 H 1384 4.2024 -5.03721 0
M  V30 14942 H 1383.92 3.58652 -6.65511 0
M  V30 14943 H 1385.18 4.69438 -6.22293 0
M  V30 14944 N 1389.41 1.55964 0.226527 0
M  V30 14945 C 1390.64 1.82823 0.968673 0
M  V30 14946 C 1391.06 0.625281 1.78145 0
M  V30 14947 O 1390.41 -0.40617 1.77923 0
M  V30 14948 C 1390.47 3.08143 1.89024 0
M  V30 14949 O 1390.19 4.23797 1.11032 0
M  V30 14950 C 1391.69 3.47954 2.74669 0
M  V30 14951 H 1388.91 0.607876 0.284126 0
M  V30 14952 H 1391.45 2.03048 0.243258 0
M  V30 14953 H 1389.61 2.89908 2.56967 0
M  V30 14954 H 1390.02 4.94957 1.73546 0
M  V30 14955 H 1391.49 4.38691 3.35044 0
M  V30 14956 H 1391.97 2.69476 3.46813 0
M  V30 14957 H 1392.58 3.6861 2.12147 0
M  V30 14958 N 1390.89 -0.493031 1.4969 0
M  V30 14959 C 1392.14 -1.24849 1.59814 0
M  V30 14960 C 1392.47 -1.92059 0.287555 0
M  V30 14961 O 1391.75 -1.81099 -0.709471 0
M  V30 14962 C 1392.03 -2.30929 2.76304 0
M  V30 14963 C 1391.88 -1.68167 4.17181 0
M  V30 14964 C 1393.2 -3.32427 2.8841 0
M  V30 14965 H 1390.32 -0.452553 0.581691 0
M  V30 14966 H 1392.96 -0.545455 1.82002 0
M  V30 14967 H 1391.11 -2.9089 2.57517 0
M  V30 14968 H 1392.78 -1.11971 4.47504 0
M  V30 14969 H 1391.03 -0.985496 4.22458 0
M  V30 14970 H 1391.7 -2.45148 4.94577 0
M  V30 14971 H 1394.17 -2.82464 3.05537 0
M  V30 14972 H 1393.05 -4.04004 3.71581 0
M  V30 14973 H 1393.31 -3.95234 1.98097 0
M  V30 14974 N 1392.37 -1.38898 -0.744656 0
M  V30 14975 C 1393.33 -1.36633 -1.84022 0
M  V30 14976 C 1394.33 -0.265187 -1.58598 0
M  V30 14977 O 1395.52 -0.522569 -1.66177 0
M  V30 14978 C 1392.66 -1.12938 -3.21649 0
M  V30 14979 H 1393.85 -2.34111 -1.87435 0
M  V30 14980 H 1391.4 -1.24322 -0.947302 0
M  V30 14981 H 1392.14 -0.161027 -3.239 0
M  V30 14982 H 1391.92 -1.9267 -3.41498 0
M  V30 14983 H 1393.41 -1.14071 -4.01718 0
M  V30 14984 N 1393.85 0.973806 -1.23914 0
M  V30 14985 C 1395.09 1.71852 -1.07678 0
M  V30 14986 C 1395.43 1.90357 0.384425 0
M  V30 14987 O 1394.7 1.46063 1.28436 0
M  V30 14988 C 1394.99 3.1129 -1.81026 0
M  V30 14989 C 1394.84 3.00315 -3.3486 0
M  V30 14990 C 1396.16 4.10835 -1.57805 0
M  V30 14991 H 1393.28 0.623749 -0.392564 0
M  V30 14992 H 1395.92 1.13325 -1.52504 0
M  V30 14993 H 1394.07 3.61255 -1.42922 0
M  V30 14994 H 1395.74 2.57823 -3.82524 0
M  V30 14995 H 1393.98 2.36667 -3.63553 0
M  V30 14996 H 1394.65 3.9907 -3.81376 0
M  V30 14997 H 1397.13 3.69705 -1.90939 0
M  V30 14998 H 1396.01 5.06478 -2.11591 0
M  V30 14999 H 1396.27 4.39091 -0.514894 0
M  V30 15000 N 1395.33 1.05191 1.17357 0
M  V30 15001 C 1396.74 0.773255 1.39617 0
M  V30 15002 C 1396.94 -0.632346 1.91321 0
M  V30 15003 O 1396 -1.39475 2.10483 0
M  V30 15004 C 1397.31 1.82885 2.38692 0
M  V30 15005 C 1398.86 1.85106 2.52398 0
M  V30 15006 C 1399.33 2.89689 3.54746 0
M  V30 15007 N 1400.83 2.88651 3.62263 0
M  V30 15008 C 1401.56 3.66221 4.41214 0
M  V30 15009 N 1401.06 4.53577 5.23679 0
M  V30 15010 N 1402.85 3.54661 4.36087 0
M  V30 15011 H 1395 1.9588 0.82127 0
M  V30 15012 H 1397.26 0.848187 0.423417 0
M  V30 15013 H 1396.97 2.83766 2.07773 0
M  V30 15014 H 1396.84 1.67047 3.38194 0
M  V30 15015 H 1399.23 0.848896 2.82627 0
M  V30 15016 H 1399.31 2.05022 1.5297 0
M  V30 15017 H 1398.96 3.90091 3.25255 0
M  V30 15018 H 1398.89 2.67025 4.53878 0
M  V30 15019 H 1401.38 2.25312 3.03386 0
M  V30 15020 H 1401.69 5.09449 5.81104 0
M  V30 15021 H 1400.03 4.57638 5.23061 0
M  V30 15022 H 1403.23 2.8581 3.70716 0
M  V30 15023 H 1403.4 4.15361 4.97372 0
M  V30 15024 N 1396.8 -1.33791 0.83293 0
M  V30 15025 C 1398.03 -2.02187 0.439077 0
M  V30 15026 C 1398.45 -1.62692 -0.957958 0
M  V30 15027 O 1397.8 -0.837302 -1.62159 0
M  V30 15028 C 1397.86 -3.57395 0.543232 0
M  V30 15029 O 1397.58 -3.95463 1.88522 0
M  V30 15030 C 1399.08 -4.43061 0.145567 0
M  V30 15031 H 1396.3 -0.64778 0.174992 0
M  V30 15032 H 1398.84 -1.7085 1.12386 0
M  V30 15033 H 1397 -3.87287 -0.0935746 0
M  V30 15034 H 1397.41 -4.90164 1.86653 0
M  V30 15035 H 1398.88 -5.51342 0.269507 0
M  V30 15036 H 1399.36 -4.29628 -0.911934 0
M  V30 15037 H 1399.97 -4.18517 0.756572 0
M  V30 15038 N 1398.28 -0.588812 -1.46187 0
M  V30 15039 C 1399.21 0.128595 -2.33146 0
M  V30 15040 C 1400.19 0.877608 -1.45712 0
M  V30 15041 O 1401.38 0.851866 -1.74519 0
M  V30 15042 C 1398.51 1.13886 -3.28096 0
M  V30 15043 C 1397.46 0.504296 -4.25019 0
M  V30 15044 C 1396.79 1.62147 -5.09522 0
M  V30 15045 C 1398.09 -0.562466 -5.19263 0
M  V30 15046 H 1399.78 -0.597455 -2.93378 0
M  V30 15047 H 1397.33 -0.288764 -1.41075 0
M  V30 15048 H 1399.28 1.64916 -3.8779 0
M  V30 15049 H 1398.01 1.89527 -2.65983 0
M  V30 15050 H 1396.66 0.0150325 -3.66597 0
M  V30 15051 H 1396.31 2.36769 -4.4379 0
M  V30 15052 H 1396.01 1.20249 -5.75164 0
M  V30 15053 H 1397.54 2.13441 -5.7208 0
M  V30 15054 H 1398.95 -0.137003 -5.73136 0
M  V30 15055 H 1397.35 -0.902115 -5.93281 0
M  V30 15056 H 1398.42 -1.4464 -4.62825 0
M  V30 15057 N 1399.76 1.54172 -0.326923 0
M  V30 15058 C 1401.04 1.92812 0.329078 0
M  V30 15059 C 1401.42 1.25687 1.69605 0
M  V30 15060 O 1400.77 0.401779 2.2494 0
M  V30 15061 C 1400.98 3.46488 0.417949 0
M  V30 15062 C 1402.32 4.19174 0.67665 0
M  V30 15063 O 1403.35 3.52663 0.500735 0
M  V30 15064 O 1402.21 5.36968 1.01625 0
M  V30 15065 H 1399.3 0.805214 0.188573 0
M  V30 15066 H 1401.85 1.65462 -0.376884 0
M  V30 15067 H 1400.62 3.87528 -0.541986 0
M  V30 15068 H 1400.24 3.79954 1.17136 0
M  V30 15069 N 1401.24 0.0551678 1.57503 0
M  V30 15070 C 1402.65 -0.479948 1.80426 0
M  V30 15071 C 1403 -1.70673 0.967733 0
M  V30 15072 O 1402.13 -2.15604 0.185462 0
M  V30 15073 C 1402.72 -0.877496 3.27239 0
M  V30 15074 C 1401.28 -1.35757 3.51066 0
M  V30 15075 C 1400.43 -0.334681 2.75273 0
M  V30 15076 H 1403.38 0.281016 1.56192 0
M  V30 15077 H 1403.4 -1.74013 3.38378 0
M  V30 15078 H 1402.91 0.015571 3.88097 0
M  V30 15079 H 1401.01 -2.26969 2.95492 0
M  V30 15080 H 1401.12 -1.34697 4.59776 0
M  V30 15081 H 1399.49 -0.808421 2.4153 0
M  V30 15082 H 1400.27 0.550369 3.3886 0
M  V30 15083 N 1402.72 -1.56081 -0.218252 0
M  V30 15084 C 1403.63 -1.95856 -1.29141 0
M  V30 15085 C 1404.64 -0.862857 -1.51099 0
M  V30 15086 O 1405.82 -1.1667 -1.64165 0
M  V30 15087 C 1402.88 -2.27005 -2.62049 0
M  V30 15088 C 1401.94 -3.50162 -2.48365 0
M  V30 15089 C 1401.18 -3.79815 -3.74935 0
M  V30 15090 O 1401.4 -3.11095 -4.78096 0
M  V30 15091 O 1400.33 -4.73299 -3.71849 0
M  V30 15092 H 1404.16 -2.8732 -0.983922 0
M  V30 15093 H 1401.75 -1.43334 -0.421385 0
M  V30 15094 H 1403.63 -2.4822 -3.40536 0
M  V30 15095 H 1402.3 -1.38715 -2.92472 0
M  V30 15096 H 1401.21 -3.34222 -1.68066 0
M  V30 15097 H 1402.54 -4.38845 -2.22881 0
M  V30 15098 N 1404.2 0.485086 -1.49949 0
M  V30 15099 C 1405.61 0.817651 -1.37064 0
M  V30 15100 C 1405.81 1.9716 -0.415949 0
M  V30 15101 O 1404.87 2.52074 0.146567 0
M  V30 15102 C 1406.18 1.14288 -2.78134 0
M  V30 15103 C 1407.73 1.25016 -2.8695 0
M  V30 15104 C 1408.2 1.60859 -4.28822 0
M  V30 15105 N 1409.69 1.67878 -4.31707 0
M  V30 15106 C 1410.43 1.97089 -5.38464 0
M  V30 15107 N 1409.93 2.24415 -6.55446 0
M  V30 15108 N 1411.72 1.98474 -5.25894 0
M  V30 15109 H 1403.87 -0.275606 -2.10604 0
M  V30 15110 H 1406.13 -0.0607486 -0.946052 0
M  V30 15111 H 1405.84 0.36817 -3.49768 0
M  V30 15112 H 1405.71 2.0825 -3.14502 0
M  V30 15113 H 1408.1 2.01556 -2.15544 0
M  V30 15114 H 1408.18 0.290664 -2.54143 0
M  V30 15115 H 1407.82 0.848639 -5.0076 0
M  V30 15116 H 1407.75 2.57936 -4.59104 0
M  V30 15117 H 1410.25 1.48856 -3.47347 0
M  V30 15118 H 1410.56 2.45938 -7.32622 0
M  V30 15119 H 1408.9 2.21837 -6.58645 0
M  V30 15120 H 1412.09 1.76612 -4.33504 0
M  V30 15121 H 1412.27 2.20904 -6.09184 0
M  V30 15122 N 1405.67 1.39291 0.737279 0
M  V30 15123 C 1406.6 1.40562 1.86452 0
M  V30 15124 C 1407.58 0.269283 1.67955 0
M  V30 15125 O 1408.77 0.474769 1.88307 0
M  V30 15126 C 1405.9 1.2461 3.24175 0
M  V30 15127 C 1404.85 2.35619 3.57306 0
M  V30 15128 C 1404.18 2.04758 4.93941 0
M  V30 15129 C 1405.48 3.77927 3.60512 0
M  V30 15130 H 1407.17 2.34896 1.85646 0
M  V30 15131 H 1404.72 1.13065 0.891756 0
M  V30 15132 H 1406.67 1.2412 4.02706 0
M  V30 15133 H 1405.4 0.267438 3.25503 0
M  V30 15134 H 1404.06 2.35322 2.81104 0
M  V30 15135 H 1403.7 1.05336 4.91847 0
M  V30 15136 H 1403.4 2.79117 5.17076 0
M  V30 15137 H 1404.93 2.05915 5.74832 0
M  V30 15138 H 1406.34 3.80166 4.29123 0
M  V30 15139 H 1404.74 4.51626 3.95164 0
M  V30 15140 H 1405.81 4.09068 2.60368 0
M  V30 15141 N 1407.15 -0.967221 1.24429 0
M  V30 15142 C 1408.4 -1.70688 1.08213 0
M  V30 15143 C 1408.72 -1.91268 -0.379693 0
M  V30 15144 O 1407.99 -1.49077 -1.27094 0
M  V30 15145 H 1406.57 -0.632489 0.39745 0
M  V30 15146 H 1409.23 -1.16356 1.56356 0
M  V30 15147 H 1408.33 -2.69119 1.58055 0
M  V30 15148 N 1408.63 -1.05812 -1.16797 0
M  V30 15149 C 1410.05 -0.780649 -1.39205 0
M  V30 15150 C 1410.25 0.622191 -1.91653 0
M  V30 15151 O 1409.3 1.38357 -2.11219 0
M  V30 15152 C 1410.61 -1.84148 -2.37718 0
M  V30 15153 C 1412.16 -1.86442 -2.51413 0
M  V30 15154 C 1412.64 -2.91566 -3.53204 0
M  V30 15155 N 1414.13 -2.90568 -3.60727 0
M  V30 15156 C 1414.86 -3.68556 -4.39265 0
M  V30 15157 N 1414.36 -4.56348 -5.21266 0
M  V30 15158 N 1416.15 -3.56969 -4.342 0
M  V30 15159 H 1408.3 -1.96313 -0.810871 0
M  V30 15160 H 1410.57 -0.850421 -0.418913 0
M  V30 15161 H 1410.27 -2.84864 -2.06265 0
M  V30 15162 H 1410.15 -1.68838 -3.37303 0
M  V30 15163 H 1412.53 -0.863873 -2.82172 0
M  V30 15164 H 1412.61 -2.0583 -1.5188 0
M  V30 15165 H 1412.26 -3.91811 -3.23182 0
M  V30 15166 H 1412.19 -2.69429 -4.52455 0
M  V30 15167 H 1414.68 -2.26918 -3.02186 0
M  V30 15168 H 1414.99 -5.12523 -5.78394 0
M  V30 15169 H 1413.34 -4.60406 -5.20626 0
M  V30 15170 H 1416.53 -2.87772 -3.69195 0
M  V30 15171 H 1416.7 -4.17993 -4.95162 0
M  V30 15172 N 1410.11 1.33347 -0.840014 0
M  V30 15173 C 1411.02 2.32965 -0.276527 0
M  V30 15174 C 1412.03 1.634 0.598037 0
M  V30 15175 O 1413.21 1.95046 0.501888 0
M  V30 15176 C 1410.27 3.42498 0.53816 0
M  V30 15177 C 1409.34 4.27781 -0.360814 0
M  V30 15178 C 1408.57 5.32083 0.415085 0
M  V30 15179 O 1408.79 5.46115 1.64666 0
M  V30 15180 O 1407.73 6.01528 -0.211503 0
M  V30 15181 H 1411.55 2.83022 -1.10147 0
M  V30 15182 H 1409.14 1.3671 -0.602566 0
M  V30 15183 H 1411.02 4.09336 1.00108 0
M  V30 15184 H 1409.69 2.94655 1.34015 0
M  V30 15185 H 1408.6 3.63805 -0.871598 0
M  V30 15186 H 1409.93 4.7911 -1.1276 0
M  V30 15187 N 1411.59 0.596556 1.45873 0
M  V30 15188 C 1412.83 0.0872856 2.01911 0
M  V30 15189 C 1413.15 -1.28257 1.46885 0
M  V30 15190 O 1412.42 -1.84489 0.658837 0
M  V30 15191 H 1411 0.0292769 0.746426 0
M  V30 15192 H 1413.67 0.775464 1.78809 0
M  V30 15193 H 1412.76 0.0287213 3.12087 0
M  V30 15194 N 1413.06 -1.53996 0.335095 0
M  V30 15195 C 1414.31 -2.01069 -0.264388 0
M  V30 15196 C 1414.64 -1.22271 -1.50876 0
M  V30 15197 O 1413.92 -0.30806 -1.92045 0
M  V30 15198 C 1414.2 -3.55283 -0.587 0
M  V30 15199 C 1414.05 -4.44799 0.668877 0
M  V30 15200 C 1415.37 -4.17238 -1.40003 0
M  V30 15201 H 1412.49 -0.730901 -0.0946202 0
M  V30 15202 H 1415.13 -1.84497 0.453958 0
M  V30 15203 H 1413.28 -3.69536 -1.19899 0
M  V30 15204 H 1414.96 -4.42398 1.30698 0
M  V30 15205 H 1413.2 -4.14005 1.29547 0
M  V30 15206 H 1413.87 -5.5056 0.398523 0
M  V30 15207 H 1416.35 -4.06631 -0.88262 0
M  V30 15208 H 1415.22 -5.2523 -1.59451 0
M  V30 15209 H 1415.48 -3.71309 -2.39962 0
M  V30 15210 N 1414.54 -0.0635198 -1.57472 0
M  V30 15211 C 1415.47 0.93602 -2.09216 0
M  V30 15212 C 1416.49 1.2668 -1.02255 0
M  V30 15213 O 1417.68 1.22543 -1.2979 0
M  V30 15214 C 1414.78 2.25417 -2.53062 0
M  V30 15215 C 1413.95 2.10347 -3.83501 0
M  V30 15216 C 1413.01 3.25394 -4.13528 0
M  V30 15217 O 1412.03 3.00751 -4.83257 0
M  V30 15218 N 1413.24 4.50243 -3.66417 0
M  V30 15219 H 1416 0.494288 -2.95596 0
M  V30 15220 H 1413.56 0.122416 -1.61437 0
M  V30 15221 H 1415.55 3.01272 -2.70217 0
M  V30 15222 H 1414.12 2.61116 -1.71864 0
M  V30 15223 H 1413.34 1.19009 -3.75807 0
M  V30 15224 H 1414.63 1.97519 -4.68896 0
M  V30 15225 H 1414.03 4.73152 -3.1007 0
M  V30 15226 H 1412.59 5.23152 -3.88787 0
M  V30 15227 N 1416.02 1.56195 0.209972 0
M  V30 15228 C 1416.97 1.93355 1.26026 0
M  V30 15229 C 1417.94 0.792195 1.45991 0
M  V30 15230 O 1419.12 1.04909 1.5937 0
M  V30 15231 C 1416.26 2.26558 2.60318 0
M  V30 15232 C 1415.37 3.53685 2.48055 0
M  V30 15233 C 1414.51 3.76279 3.7495 0
M  V30 15234 C 1413.55 4.96881 3.57457 0
M  V30 15235 N 1412.69 5.15806 4.76328 0
M  V30 15236 H 1417.53 2.82907 0.936357 0
M  V30 15237 H 1415.06 1.40015 0.451022 0
M  V30 15238 H 1417.02 2.43821 3.38537 0
M  V30 15239 H 1415.65 1.40165 2.90781 0
M  V30 15240 H 1414.7 3.44551 1.61211 0
M  V30 15241 H 1416.01 4.42057 2.31056 0
M  V30 15242 H 1415.17 3.93702 4.6161 0
M  V30 15243 H 1413.91 2.86209 3.94887 0
M  V30 15244 H 1412.91 4.79397 2.69181 0
M  V30 15245 H 1414.14 5.88447 3.38979 0
M  V30 15246 H 1412.08 4.28681 4.96557 0
M  V30 15247 H 1412 5.98332 4.62099 0
M  V30 15248 H 1413.27 5.37674 5.64382 0
M  V30 15249 N 1417.5 -0.477127 1.50204 0
M  V30 15250 C 1418.41 -1.60182 1.71403 0
M  V30 15251 C 1419.42 -1.63437 0.597009 0
M  V30 15252 O 1420.6 -1.81418 0.874614 0
M  V30 15253 C 1417.66 -2.96432 1.79802 0
M  V30 15254 C 1416.73 -3.03614 3.03508 0
M  V30 15255 C 1415.96 -4.33365 3.11497 0
M  V30 15256 O 1416.18 -5.23529 2.26438 0
M  V30 15257 O 1415.12 -4.46013 4.04173 0
M  V30 15258 H 1418.94 -1.45221 2.66729 0
M  V30 15259 H 1416.53 -0.655982 1.34228 0
M  V30 15260 H 1418.41 -3.77367 1.87542 0
M  V30 15261 H 1417.08 -3.11605 0.876581 0
M  V30 15262 H 1415.99 -2.21779 3.01272 0
M  V30 15263 H 1417.32 -2.93376 3.95211 0
M  V30 15264 N 1418.98 -1.3968 -0.729882 0
M  V30 15265 C 1420.25 -1.27689 -1.48172 0
M  V30 15266 C 1420.63 0.111239 -2.10807 0
M  V30 15267 O 1419.98 1.12289 -1.99006 0
M  V30 15268 C 1420.19 -2.40505 -2.529 0
M  V30 15269 C 1421.54 -2.80064 -3.19138 0
M  V30 15270 O 1422.56 -2.39992 -2.63215 0
M  V30 15271 O 1421.42 -3.49248 -4.20342 0
M  V30 15272 H 1418.52 -0.500674 -0.658221 0
M  V30 15273 H 1421.06 -1.51566 -0.763272 0
M  V30 15274 H 1419.83 -3.33282 -2.05033 0
M  V30 15275 H 1419.46 -2.1832 -3.32298 0
M  V30 15276 N 1420.45 0.960609 -1.2494 0
M  V30 15277 C 1421.7 1.69884 -1.08731 0
M  V30 15278 C 1422.02 1.92018 0.372602 0
M  V30 15279 O 1423.22 2.6348 0.655018 0
M  V30 15280 C 1421.68 3.05815 -1.8975 0
M  V30 15281 C 1421.29 2.91498 -3.40196 0
M  V30 15282 C 1423.03 3.83462 -1.82092 0
M  V30 15283 C 1420.94 4.22783 -4.13532 0
M  V30 15284 H 1419.87 0.637087 -0.403281 0
M  V30 15285 H 1422.52 1.06987 -1.49084 0
M  V30 15286 H 1420.9 3.69582 -1.42216 0
M  V30 15287 H 1422.07 2.367 -3.9536 0
M  V30 15288 H 1420.39 2.27312 -3.48882 0
M  V30 15289 H 1422.99 4.8069 -2.34181 0
M  V30 15290 H 1423.33 4.08782 -0.787597 0
M  V30 15291 H 1423.86 3.26435 -2.27344 0
M  V30 15292 H 1420.6 4.02653 -5.17253 0
M  V30 15293 H 1420.12 4.77369 -3.63152 0
M  V30 15294 H 1421.8 4.91361 -4.2092 0
M  V30 15295 N 1421.93 1.0643 1.16234 0
M  V30 15296 C 1423.34 0.806012 1.68405 0
M  V30 15297 C 1423.69 -0.670197 1.84398 0
M  V30 15298 O 1422.82 -1.51975 1.54054 0
M  V30 15299 C 1423.41 1.45654 3.05893 0
M  V30 15300 C 1421.97 1.24599 3.55179 0
M  V30 15301 C 1421.12 1.53216 2.31128 0
M  V30 15302 H 1424.07 1.22759 1.00578 0
M  V30 15303 H 1424.09 0.872616 3.70359 0
M  V30 15304 H 1423.6 2.53092 2.94221 0
M  V30 15305 H 1421.71 0.191407 3.72108 0
M  V30 15306 H 1421.82 1.95967 4.37188 0
M  V30 15307 H 1420.18 0.952755 2.36209 0
M  V30 15308 H 1420.97 2.61816 2.22052 0
M  V30 15309 N 1423.41 -1.329 0.847073 0
M  V30 15310 C 1424.82 -1.79813 0.502394 0
M  V30 15311 C 1425.17 -1.70017 -0.979218 0
M  V30 15312 O 1424.3 -1.25427 -1.76344 0
M  V30 15313 C 1424.89 -3.26485 0.905154 0
M  V30 15314 C 1423.45 -3.71383 0.612489 0
M  V30 15315 C 1422.6 -2.54157 1.10903 0
M  V30 15316 H 1425.55 -1.20306 1.035 0
M  V30 15317 H 1425.57 -3.79872 0.218476 0
M  V30 15318 H 1425.08 -3.33583 1.98353 0
M  V30 15319 H 1423.18 -3.69806 -0.45548 0
M  V30 15320 H 1423.3 -4.64507 1.17347 0
M  V30 15321 H 1421.66 -2.49134 0.529576 0
M  V30 15322 H 1422.44 -2.64013 2.19435 0
M  V30 15323 N 1424.89 -0.604284 -1.45555 0
M  V30 15324 C 1425.85 0.106526 -2.28952 0
M  V30 15325 C 1426.85 0.798277 -1.39586 0
M  V30 15326 O 1428.04 0.646943 -1.61741 0
M  V30 15327 C 1425.17 1.16091 -3.20524 0
M  V30 15328 H 1426.37 -0.626655 -2.9328 0
M  V30 15329 H 1423.92 -0.363183 -1.52022 0
M  V30 15330 H 1424.65 1.92496 -2.6099 0
M  V30 15331 H 1424.44 0.669137 -3.86348 0
M  V30 15332 H 1425.93 1.65882 -3.8324 0
M  V30 15333 N 1426.37 1.53816 -0.343257 0
M  V30 15334 C 1427.64 1.9315 0.308609 0
M  V30 15335 C 1428.02 1.27479 1.68263 0
M  V30 15336 O 1427.37 0.425614 2.24501 0
M  V30 15337 C 1427.58 3.46912 0.381176 0
M  V30 15338 C 1428.93 4.19868 0.632153 0
M  V30 15339 O 1429.95 3.53174 0.463303 0
M  V30 15340 O 1428.81 5.38016 0.959237 0
M  V30 15341 H 1425.91 0.807169 0.180022 0
M  V30 15342 H 1428.45 1.65053 -0.394412 0
M  V30 15343 H 1427.22 3.86932 -0.583058 0
M  V30 15344 H 1426.85 3.81175 1.13099 0
M  V30 15345 N 1427.84 0.0718701 1.57436 0
M  V30 15346 C 1428.77 -0.89288 2.15754 0
M  V30 15347 C 1429.76 -1.31036 1.0846 0
M  V30 15348 O 1430.94 -1.38139 1.36496 0
M  V30 15349 C 1428.07 -2.16044 2.71923 0
M  V30 15350 C 1427.02 -1.88236 3.84384 0
M  V30 15351 C 1426.35 -3.21624 4.27156 0
M  V30 15352 C 1427.65 -1.18758 5.0862 0
M  V30 15353 H 1429.34 -0.407061 2.9662 0
M  V30 15354 H 1426.89 -0.194354 1.42682 0
M  V30 15355 H 1428.84 -2.83952 3.11366 0
M  V30 15356 H 1427.57 -2.66868 1.88279 0
M  V30 15357 H 1426.23 -1.22734 3.45445 0
M  V30 15358 H 1425.87 -3.70289 3.40433 0
M  V30 15359 H 1425.57 -3.03809 5.02965 0
M  V30 15360 H 1427.1 -3.90729 4.69215 0
M  V30 15361 H 1428.51 -1.76735 5.45378 0
M  V30 15362 H 1426.91 -1.11201 5.89707 0
M  V30 15363 H 1427.98 -0.166682 4.84613 0
M  V30 15364 N 1429.32 -1.56304 -0.201686 0
M  V30 15365 C 1430.55 -1.84692 -0.943583 0
M  V30 15366 C 1430.97 -0.654649 -1.7634 0
M  V30 15367 O 1430.33 0.396586 -1.76909 0
M  V30 15368 C 1430.38 -3.11251 -1.82085 0
M  V30 15369 O 1429.48 -2.9134 -2.91881 0
M  V30 15370 H 1428.82 -0.608351 -0.266092 0
M  V30 15371 H 1431.35 -2.0353 -0.208992 0
M  V30 15372 H 1431.36 -3.41874 -2.2268 0
M  V30 15373 H 1430.04 -3.97652 -1.21844 0
M  V30 15374 H 1428.62 -2.72 -2.55089 0
M  V30 15375 N 1430.8 0.469154 -1.50455 0
M  V30 15376 C 1432.08 1.23033 -1.5206 0
M  V30 15377 C 1432.46 2.09412 -0.266388 0
M  V30 15378 O 1431.81 2.15837 0.750099 0
M  V30 15379 C 1432.02 2.05969 -2.81741 0
M  V30 15380 C 1433.36 2.64093 -3.32476 0
M  V30 15381 O 1434.39 2.1621 -2.83075 0
M  V30 15382 O 1433.25 3.51341 -4.18595 0
M  V30 15383 H 1430.34 0.55841 -0.610006 0
M  V30 15384 H 1432.89 0.480818 -1.62746 0
M  V30 15385 H 1431.66 1.42327 -3.64498 0
M  V30 15386 H 1431.28 2.8805 -2.74067 0
M  V30 15387 N 1432.28 1.40065 0.722464 0
M  V30 15388 C 1433.21 1.35695 1.84715 0
M  V30 15389 C 1434.22 0.263522 1.60653 0
M  V30 15390 O 1435.41 0.523382 1.70655 0
M  V30 15391 C 1432.51 1.08722 3.20987 0
M  V30 15392 C 1431.69 2.29586 3.72302 0
M  V30 15393 C 1430.74 1.98879 4.87169 0
M  V30 15394 O 1429.77 2.71681 5.00178 0
M  V30 15395 N 1430.97 0.962554 5.72464 0
M  V30 15396 H 1433.74 2.32621 1.88964 0
M  V30 15397 H 1431.3 1.3433 0.903723 0
M  V30 15398 H 1433.29 0.861772 3.95418 0
M  V30 15399 H 1431.86 0.204869 3.11928 0
M  V30 15400 H 1431.08 2.68004 2.8908 0
M  V30 15401 H 1432.37 3.10176 4.03322 0
M  V30 15402 H 1431.77 0.359452 5.64557 0
M  V30 15403 H 1430.32 0.797003 6.46909 0
M  V30 15404 N 1433.76 -0.95397 1.25448 0
M  V30 15405 C 1435 -1.70118 1.10399 0
M  V30 15406 C 1435.34 -1.90945 -0.354093 0
M  V30 15407 O 1434.61 -1.48088 -1.26096 0
M  V30 15408 C 1434.89 -3.08371 1.85955 0
M  V30 15409 C 1434.75 -2.9495 3.39595 0
M  V30 15410 C 1436.07 -4.08273 1.64321 0
M  V30 15411 H 1433.19 -0.617424 0.402438 0
M  V30 15412 H 1435.83 -1.10884 1.54288 0
M  V30 15413 H 1433.98 -3.58936 1.48651 0
M  V30 15414 H 1435.65 -2.51705 3.86578 0
M  V30 15415 H 1433.89 -2.30853 3.67273 0
M  V30 15416 H 1434.56 -3.92952 3.87676 0
M  V30 15417 H 1437.04 -3.6662 1.96796 0
M  V30 15418 H 1435.92 -5.03048 2.19622 0
M  V30 15419 H 1436.18 -4.38217 0.584685 0
M  V30 15420 N 1435.24 -1.07045 -1.15668 0
M  V30 15421 C 1436.65 -0.814932 -1.67975 0
M  V30 15422 C 1437 0.660408 -1.84751 0
M  V30 15423 O 1436.12 1.51156 -1.54857 0
M  V30 15424 C 1436.72 -1.47274 -3.05116 0
M  V30 15425 C 1435.28 -1.26481 -3.54513 0
M  V30 15426 C 1434.42 -1.54439 -2.30312 0
M  V30 15427 H 1437.37 -1.23291 -0.999251 0
M  V30 15428 H 1437.4 -0.892244 -3.69891 0
M  V30 15429 H 1436.91 -2.54649 -2.92874 0
M  V30 15430 H 1435.01 -0.211138 -3.72001 0
M  V30 15431 H 1435.12 -1.98283 -4.36143 0
M  V30 15432 H 1433.49 -0.965269 -2.357 0
M  V30 15433 H 1434.27 -2.6299 -2.20661 0
M  V30 15434 N 1436.71 1.32449 -0.85411 0
M  V30 15435 C 1437.99 1.91902 -0.378533 0
M  V30 15436 C 1438.37 1.77811 1.13782 0
M  V30 15437 O 1437.72 1.17588 1.95922 0
M  V30 15438 C 1437.93 3.38683 -0.842299 0
M  V30 15439 C 1439.28 4.15817 -0.859161 0
M  V30 15440 O 1440.3 3.47399 -0.786901 0
M  V30 15441 O 1439.16 5.37985 -0.960933 0
M  V30 15442 H 1436.25 0.819614 -0.110284 0
M  V30 15443 H 1438.8 1.41222 -0.940974 0
M  V30 15444 H 1437.57 3.4288 -1.88544 0
M  V30 15445 H 1437.19 3.96767 -0.257278 0
M  V30 15446 N 1438.19 0.611994 1.45232 0
M  V30 15447 C 1439.42 0.115409 2.06578 0
M  V30 15448 C 1439.83 -1.20206 1.45588 0
M  V30 15449 O 1439.19 -1.73315 0.571668 0
M  V30 15450 C 1439.24 -0.0259943 3.61491 0
M  V30 15451 O 1438.96 1.23936 4.20204 0
M  V30 15452 C 1440.46 -0.553522 4.39831 0
M  V30 15453 H 1437.68 0.0708656 0.667247 0
M  V30 15454 H 1440.23 0.840977 1.86408 0
M  V30 15455 H 1438.38 -0.701909 3.80988 0
M  V30 15456 H 1438.8 1.07187 5.13431 0
M  V30 15457 H 1440.27 -0.601536 5.48713 0
M  V30 15458 H 1440.75 -1.57671 4.09923 0
M  V30 15459 H 1441.35 0.0884954 4.25208 0
M  V30 15460 N 1439.67 -1.53632 0.351409 0
M  V30 15461 C 1440.58 -2.2899 -0.509985 0
M  V30 15462 C 1441.6 -1.34403 -1.10507 0
M  V30 15463 O 1442.77 -1.67448 -1.11906 0
M  V30 15464 C 1439.84 -3.05392 -1.64124 0
M  V30 15465 C 1438.9 -4.15619 -1.07514 0
M  V30 15466 C 1438.13 -4.88369 -2.15248 0
M  V30 15467 O 1438.35 -4.60854 -3.3611 0
M  V30 15468 O 1437.29 -5.74636 -1.79101 0
M  V30 15469 H 1441.11 -3.03526 0.10283 0
M  V30 15470 H 1438.7 -1.48947 0.116214 0
M  V30 15471 H 1440.58 -3.53146 -2.29926 0
M  V30 15472 H 1439.26 -2.33705 -2.23972 0
M  V30 15473 H 1438.16 -3.7215 -0.381421 0
M  V30 15474 H 1439.5 -4.8943 -0.521413 0
M  V30 15475 N 1441.15 -0.0802183 -1.57396 0
M  V30 15476 C 1442.37 0.599179 -1.98556 0
M  V30 15477 C 1442.8 1.61844 -0.958555 0
M  V30 15478 O 1442.16 1.81146 0.0748226 0
M  V30 15479 C 1442.2 1.23675 -3.38728 0
M  V30 15480 O 1441.31 2.35262 -3.38712 0
M  V30 15481 H 1440.65 0.153366 -0.646045 0
M  V30 15482 H 1443.18 -0.157227 -2.03995 0
M  V30 15483 H 1443.19 1.5816 -3.76098 0
M  V30 15484 H 1441.86 0.489946 -4.13004 0
M  V30 15485 H 1440.44 2.02507 -3.13122 0
M  V30 15486 N 1442.63 1.56409 0.193394 0
M  V30 15487 C 1443.54 1.97886 1.26009 0
M  V30 15488 C 1444.55 0.886786 1.49707 0
M  V30 15489 O 1445.73 1.19267 1.62288 0
M  V30 15490 C 1442.79 2.31145 2.58404 0
M  V30 15491 C 1441.85 3.54069 2.42763 0
M  V30 15492 C 1441.09 3.85732 3.68845 0
M  V30 15493 O 1441.31 3.18662 4.73086 0
M  V30 15494 O 1440.24 4.79155 3.64272 0
M  V30 15495 H 1444.07 2.88849 0.938087 0
M  V30 15496 H 1441.65 1.43987 0.398528 0
M  V30 15497 H 1443.54 2.53606 3.36544 0
M  V30 15498 H 1442.21 1.4335 2.90228 0
M  V30 15499 H 1441.12 3.36854 1.62728 0
M  V30 15500 H 1442.45 4.42335 2.15871 0
M  V30 15501 N 1444.1 -0.461169 1.50702 0
M  V30 15502 C 1445.33 -1.23554 1.65958 0
M  V30 15503 C 1445.75 -1.85584 0.346977 0
M  V30 15504 O 1445.1 -1.69672 -0.672129 0
M  V30 15505 C 1445.15 -2.33704 2.75799 0
M  V30 15506 O 1444.88 -1.74215 4.01971 0
M  V30 15507 C 1446.38 -3.24409 3.02116 0
M  V30 15508 H 1443.6 -0.373299 0.557574 0
M  V30 15509 H 1446.14 -0.549338 1.96984 0
M  V30 15510 H 1444.3 -2.98081 2.47439 0
M  V30 15511 H 1444.71 -2.46827 4.62792 0
M  V30 15512 H 1446.18 -3.97885 3.82611 0
M  V30 15513 H 1446.66 -3.83774 2.13576 0
M  V30 15514 H 1447.27 -2.65757 3.32044 0
M  V30 15515 N 1445.58 -1.40446 -0.715026 0
M  V30 15516 C 1447 -1.22488 -1.02317 0
M  V30 15517 C 1447.2 -0.100481 -2.01249 0
M  V30 15518 O 1446.25 0.541447 -2.46626 0
M  V30 15519 C 1447.57 -2.56682 -1.56636 0
M  V30 15520 C 1449.11 -2.63699 -1.68617 0
M  V30 15521 C 1449.59 -3.98163 -2.26342 0
M  V30 15522 N 1451.08 -3.99907 -2.33727 0
M  V30 15523 C 1451.82 -5.00737 -2.79375 0
M  V30 15524 N 1451.31 -6.11961 -3.24771 0
M  V30 15525 N 1453.1 -4.88106 -2.78764 0
M  V30 15526 H 1445.26 -2.12317 -0.0592712 0
M  V30 15527 H 1447.52 -0.943823 -0.088895 0
M  V30 15528 H 1447.22 -3.39615 -0.914036 0
M  V30 15529 H 1447.1 -2.77809 -2.55151 0
M  V30 15530 H 1449.49 -1.81138 -2.32966 0
M  V30 15531 H 1449.57 -2.46402 -0.687004 0
M  V30 15532 H 1449.21 -4.81164 -1.62614 0
M  V30 15533 H 1449.14 -4.1279 -3.26974 0
M  V30 15534 H 1451.63 -3.19592 -2.01666 0
M  V30 15535 H 1451.94 -6.84787 -3.58171 0
M  V30 15536 H 1450.29 -6.15525 -3.22729 0
M  V30 15537 H 1453.48 -4.00307 -2.42635 0
M  V30 15538 H 1453.65 -5.66828 -3.14023 0
M  V30 15539 N 1447.06 0.947303 -1.25952 0
M  V30 15540 C 1448.31 1.68721 -1.10527 0
M  V30 15541 C 1448.62 1.92403 0.352215 0
M  V30 15542 O 1449.83 2.6416 0.627036 0
M  V30 15543 C 1448.28 3.03785 -1.92983 0
M  V30 15544 C 1447.89 2.87873 -3.43268 0
M  V30 15545 C 1449.64 3.81509 -1.86149 0
M  V30 15546 C 1447.54 4.18373 -4.17993 0
M  V30 15547 H 1446.47 0.632774 -0.410016 0
M  V30 15548 H 1449.12 1.054 -1.5021 0
M  V30 15549 H 1447.51 3.68052 -1.46128 0
M  V30 15550 H 1448.68 2.32493 -3.97848 0
M  V30 15551 H 1446.99 2.23598 -3.51273 0
M  V30 15552 H 1449.59 4.78179 -2.39267 0
M  V30 15553 H 1449.93 4.07923 -0.83091 0
M  V30 15554 H 1450.47 3.24005 -2.30794 0
M  V30 15555 H 1447.21 3.97145 -5.21494 0
M  V30 15556 H 1446.73 4.7349 -3.68194 0
M  V30 15557 H 1448.41 4.86869 -4.26108 0
M  V30 15558 N 1448.54 1.07657 1.15099 0
M  V30 15559 C 1449.47 0.721201 2.22083 0
M  V30 15560 C 1450.45 -0.292808 1.67561 0
M  V30 15561 O 1451.63 -0.164872 1.93499 0
M  V30 15562 C 1448.76 0.12153 3.47087 0
M  V30 15563 C 1447.72 1.06303 4.14588 0
M  V30 15564 C 1447.04 0.325964 5.33706 0
M  V30 15565 C 1448.34 2.39796 4.63999 0
M  V30 15566 H 1450.04 1.61566 2.52065 0
M  V30 15567 H 1447.58 0.778282 1.21156 0
M  V30 15568 H 1449.54 -0.139037 4.21171 0
M  V30 15569 H 1448.26 -0.808022 3.16447 0
M  V30 15570 H 1446.92 1.30858 3.4245 0
M  V30 15571 H 1446.57 -0.607147 4.99322 0
M  V30 15572 H 1446.27 0.953552 5.79811 0
M  V30 15573 H 1447.79 0.0732695 6.10556 0
M  V30 15574 H 1449.21 2.19552 5.29594 0
M  V30 15575 H 1447.6 2.98178 5.20778 0
M  V30 15576 H 1448.67 3.01876 3.79472 0
M  V30 15577 N 1450.02 -1.31994 0.861122 0
M  V30 15578 C 1450.95 -2.31214 0.325963 0
M  V30 15579 C 1451.93 -1.59965 -0.578383 0
M  V30 15580 O 1453.11 -1.87726 -0.497268 0
M  V30 15581 C 1450.24 -3.43953 -0.481001 0
M  V30 15582 C 1449.2 -4.2673 0.329474 0
M  V30 15583 C 1448.52 -5.31293 -0.602627 0
M  V30 15584 C 1449.82 -4.98498 1.55874 0
M  V30 15585 H 1451.52 -2.76223 1.15503 0
M  V30 15586 H 1449.06 -1.32797 0.556856 0
M  V30 15587 H 1451.02 -4.12409 -0.86585 0
M  V30 15588 H 1449.74 -2.97687 -1.3435 0
M  V30 15589 H 1448.4 -3.59929 0.696159 0
M  V30 15590 H 1448.05 -4.8128 -1.46215 0
M  V30 15591 H 1447.75 -5.87565 -0.0643044 0
M  V30 15592 H 1449.27 -6.02611 -0.984512 0
M  V30 15593 H 1450.68 -5.596 1.24583 0
M  V30 15594 H 1449.08 -5.64525 2.03548 0
M  V30 15595 H 1450.15 -4.25991 2.31646 0
M  V30 15596 N 1451.49 -0.619688 -1.44906 0
M  V30 15597 C 1452.43 0.130316 -2.28829 0
M  V30 15598 C 1453.44 0.820039 -1.40639 0
M  V30 15599 O 1454.63 0.683401 -1.649 0
M  V30 15600 C 1451.73 1.20618 -3.16709 0
M  V30 15601 C 1450.9 0.60121 -4.33248 0
M  V30 15602 C 1449.96 1.56954 -5.02247 0
M  V30 15603 O 1448.99 1.09112 -5.58644 0
M  V30 15604 N 1450.19 2.90395 -5.02644 0
M  V30 15605 H 1452.95 -0.589867 -2.93838 0
M  V30 15606 H 1450.51 -0.460028 -1.55227 0
M  V30 15607 H 1452.51 1.85404 -3.59732 0
M  V30 15608 H 1451.08 1.82873 -2.53528 0
M  V30 15609 H 1450.3 -0.225015 -3.93557 0
M  V30 15610 H 1451.58 0.177471 -5.0849 0
M  V30 15611 H 1450.98 3.31855 -4.58136 0
M  V30 15612 H 1449.54 3.50572 -5.49493 0
M  V30 15613 N 1452.97 1.53444 -0.359552 0
M  V30 15614 C 1454.22 2.00769 0.231564 0
M  V30 15615 C 1454.54 1.2487 1.49775 0
M  V30 15616 O 1453.81 0.360284 1.92558 0
M  V30 15617 H 1452.39 0.741732 0.0885581 0
M  V30 15618 H 1455.05 1.88785 -0.484397 0
M  V30 15619 H 1454.15 3.0865 0.462789 0
M  V30 15620 N 1454.45 0.0885642 1.57351 0
M  V30 15621 C 1455.68 -0.585238 1.9845 0
M  V30 15622 C 1456.09 -1.62127 0.967483 0
M  V30 15623 O 1455.45 -1.82448 -0.0437565 0
M  V30 15624 C 1455.5 -1.23881 3.39611 0
M  V30 15625 O 1455.22 -0.244223 4.37419 0
M  V30 15626 C 1456.72 -1.99885 3.95678 0
M  V30 15627 H 1453.94 -0.157396 0.652279 0
M  V30 15628 H 1456.49 0.165923 2.03826 0
M  V30 15629 H 1454.64 -1.94094 3.3527 0
M  V30 15630 H 1455.06 -0.715149 5.19602 0
M  V30 15631 H 1456.53 -2.40983 4.9662 0
M  V30 15632 H 1457.01 -2.8621 3.33137 0
M  V30 15633 H 1457.61 -1.34501 4.03472 0
M  V30 15634 N 1455.93 -1.56509 -0.185096 0
M  V30 15635 C 1457.34 -1.71024 -0.748856 0
M  V30 15636 C 1457.69 -0.69681 -1.83409 0
M  V30 15637 O 1456.82 0.144711 -2.15916 0
M  V30 15638 C 1457.41 -3.1008 -1.36513 0
M  V30 15639 C 1455.97 -3.26325 -1.87587 0
M  V30 15640 C 1455.12 -2.66977 -0.749579 0
M  V30 15641 H 1458.07 -1.58649 0.0401175 0
M  V30 15642 H 1458.09 -3.07965 -2.23468 0
M  V30 15643 H 1457.6 -3.83816 -0.575051 0
M  V30 15644 H 1455.7 -2.57522 -2.69283 0
M  V30 15645 H 1455.81 -4.33931 -2.03078 0
M  V30 15646 H 1454.18 -2.26419 -1.16647 0
M  V30 15647 H 1454.96 -3.43288 0.0284301 0
M  V30 15648 N 1457.41 0.45317 -1.50944 0
M  V30 15649 C 1458.65 1.20568 -1.63068 0
M  V30 15650 C 1458.99 1.91229 -0.338375 0
M  V30 15651 O 1458.26 1.82916 0.661207 0
M  V30 15652 C 1458.54 2.23522 -2.8233 0
M  V30 15653 C 1458.4 1.57047 -4.21493 0
M  V30 15654 C 1459.72 3.24663 -2.97123 0
M  V30 15655 H 1456.83 0.436971 -0.593486 0
M  V30 15656 H 1459.48 0.497008 -1.83384 0
M  V30 15657 H 1457.63 2.83961 -2.65139 0
M  V30 15658 H 1459.3 1.00067 -4.50316 0
M  V30 15659 H 1457.54 0.873143 -4.24922 0
M  V30 15660 H 1458.21 2.31949 -5.00903 0
M  V30 15661 H 1460.69 2.74264 -3.12919 0
M  V30 15662 H 1459.56 3.9401 -3.82161 0
M  V30 15663 H 1459.83 3.89843 -2.08506 0
M  V30 15664 N 1458.88 1.40823 0.707568 0
M  V30 15665 C 1459.85 1.41464 1.80334 0
M  V30 15666 C 1460.85 0.307143 1.57839 0
M  V30 15667 O 1462.04 0.566444 1.64733 0
M  V30 15668 C 1459.17 1.21426 3.18541 0
M  V30 15669 H 1460.36 2.38998 1.81162 0
M  V30 15670 H 1457.92 1.2679 0.914007 0
M  V30 15671 H 1458.65 0.246847 3.23359 0
M  V30 15672 H 1458.44 2.01657 3.36269 0
M  V30 15673 H 1459.93 1.24681 3.98553 0
M  V30 15674 N 1460.36 -0.94061 1.26453 0
M  V30 15675 C 1461.29 -2.04322 1.03852 0
M  V30 15676 C 1462.31 -1.628 -0.00122618 0
M  V30 15677 O 1463.5 -1.76894 0.238911 0
M  V30 15678 C 1460.6 -3.34394 0.550789 0
M  V30 15679 C 1459.77 -4.0468 1.6599 0
M  V30 15680 C 1458.83 -5.13025 1.17012 0
M  V30 15681 O 1457.85 -5.37699 1.8673 0
M  V30 15682 N 1459.06 -5.80497 0.0188478 0
M  V30 15683 H 1461.82 -2.24276 1.98797 0
M  V30 15684 H 1459.38 -1.11013 1.17846 0
M  V30 15685 H 1461.37 -4.04169 0.207305 0
M  V30 15686 H 1459.94 -3.11108 -0.30509 0
M  V30 15687 H 1459.16 -3.28813 2.17429 0
M  V30 15688 H 1460.45 -4.48392 2.40463 0
M  V30 15689 H 1459.85 -5.62888 -0.563368 0
M  V30 15690 H 1458.41 -6.51259 -0.265556 0
M  V30 15691 N 1461.84 -1.08266 -1.14527 0
M  V30 15692 C 1462.77 -0.655392 -2.18586 0
M  V30 15693 C 1463.75 0.332109 -1.59172 0
M  V30 15694 O 1464.94 0.236315 -1.87013 0
M  V30 15695 C 1462.06 0.0362295 -3.38681 0
M  V30 15696 C 1461.11 -0.91119 -4.16653 0
M  V30 15697 S 1461.94 -2.4171 -4.77846 0
M  V30 15698 C 1463.1 -1.73755 -6.01299 0
M  V30 15699 H 1463.33 -1.53694 -2.54491 0
M  V30 15700 H 1460.86 -0.897499 -1.25636 0
M  V30 15701 H 1462.82 0.428996 -4.08252 0
M  V30 15702 H 1461.48 0.894253 -3.01101 0
M  V30 15703 H 1460.68 -0.374143 -5.02609 0
M  V30 15704 H 1460.28 -1.24478 -3.52677 0
M  V30 15705 H 1462.57 -1.05465 -6.69241 0
M  V30 15706 H 1463.51 -2.5758 -6.59589 0
M  V30 15707 H 1463.92 -1.21153 -5.51346 0
M  V30 15708 N 1463.32 1.31536 -0.86811 0
M  V30 15709 C 1464.55 2.00952 -0.492529 0
M  V30 15710 C 1464.96 1.65174 0.914487 0
M  V30 15711 O 1464.32 0.880002 1.59882 0
M  V30 15712 C 1464.37 3.55829 -0.637798 0
M  V30 15713 O 1464.09 3.90326 -1.9894 0
M  V30 15714 C 1465.59 4.42519 -0.262986 0
M  V30 15715 H 1462.81 0.642913 -0.192105 0
M  V30 15716 H 1465.36 1.6781 -1.16876 0
M  V30 15717 H 1463.51 3.87399 -0.0091406 0
M  V30 15718 H 1463.93 4.85043 -1.99583 0
M  V30 15719 H 1465.4 5.50433 -0.415591 0
M  V30 15720 H 1465.88 4.31895 0.797705 0
M  V30 15721 H 1466.48 4.16363 -0.867268 0
M  V30 15722 N 1464.8 0.627364 1.44575 0
M  V30 15723 C 1465.71 -0.0811184 2.3446 0
M  V30 15724 C 1466.72 -0.839668 1.52399 0
M  V30 15725 O 1467.9 -0.792784 1.8514 0
M  V30 15726 C 1464.96 -1.05296 3.30323 0
M  V30 15727 C 1464.03 -0.294201 4.28291 0
M  V30 15728 C 1463.26 -1.21975 5.19575 0
M  V30 15729 O 1463.48 -2.45834 5.14706 0
M  V30 15730 O 1462.42 -0.70611 5.97744 0
M  V30 15731 H 1466.24 0.658067 2.96485 0
M  V30 15732 H 1463.83 0.387565 1.44285 0
M  V30 15733 H 1465.71 -1.61218 3.89341 0
M  V30 15734 H 1464.38 -1.77283 2.70837 0
M  V30 15735 H 1463.29 0.307969 3.7283 0
M  V30 15736 H 1464.62 0.385567 4.90687 0
M  V30 15737 N 1466.28 -1.53251 0.367684 0
M  V30 15738 C 1467.55 -1.93617 -0.277842 0
M  V30 15739 C 1467.93 -1.3014 -1.66213 0
M  V30 15740 O 1467.28 -0.461277 -2.23796 0
M  V30 15741 C 1467.49 -3.47475 -0.325937 0
M  V30 15742 C 1468.84 -4.2082 -0.565276 0
M  V30 15743 O 1469.86 -3.53866 -0.407057 0
M  V30 15744 O 1468.72 -5.39474 -0.873522 0
M  V30 15745 H 1465.82 -0.80993 -0.167158 0
M  V30 15746 H 1468.36 -1.64405 0.420621 0
M  V30 15747 H 1467.13 -3.85955 0.644542 0
M  V30 15748 H 1466.76 -3.82926 -1.07021 0
M  V30 15749 N 1467.75 -0.0969077 -1.57302 0
M  V30 15750 C 1468.72 0.846895 -2.1298 0
M  V30 15751 C 1469.72 1.20962 -1.05947 0
M  V30 15752 O 1470.91 1.13876 -1.31826 0
M  V30 15753 C 1468.04 2.14215 -2.65188 0
M  V30 15754 H 1469.23 0.363398 -2.9769 0
M  V30 15755 H 1466.78 0.152107 -1.55558 0
M  V30 15756 H 1467.52 2.67046 -1.84002 0
M  V30 15757 H 1467.3 1.89176 -3.43445 0
M  V30 15758 H 1468.79 2.81728 -3.08252 0
M  V30 15759 N 1469.23 1.56605 0.176793 0
M  V30 15760 C 1470.48 1.81952 0.895627 0
M  V30 15761 C 1470.81 0.673893 1.82133 0
M  V30 15762 O 1470.09 -0.324494 1.91774 0
M  V30 15763 C 1470.37 3.17658 1.69604 0
M  V30 15764 C 1470.22 4.4274 0.793834 0
M  V30 15765 C 1471.54 3.50246 2.66488 0
M  V30 15766 H 1468.66 0.661884 0.324159 0
M  V30 15767 H 1471.3 1.89307 0.162092 0
M  V30 15768 H 1469.45 3.11518 2.3214 0
M  V30 15769 H 1471.12 4.60942 0.181775 0
M  V30 15770 H 1469.37 4.33681 0.101566 0
M  V30 15771 H 1470.04 5.34231 1.38927 0
M  V30 15772 H 1472.51 3.56804 2.1408 0
M  V30 15773 H 1471.39 4.46286 3.19562 0
M  V30 15774 H 1471.65 2.7467 3.46423 0
M  V30 15775 N 1470.71 -0.445159 1.51182 0
M  V30 15776 C 1471.99 -1.20598 1.53998 0
M  V30 15777 C 1472.37 -2.08962 0.29967 0
M  V30 15778 O 1471.71 -2.17003 -0.715666 0
M  V30 15779 C 1471.92 -2.01461 2.84982 0
M  V30 15780 C 1473.27 -2.5877 3.36635 0
M  V30 15781 O 1474.3 -2.11679 2.86479 0
M  V30 15782 O 1473.16 -3.44637 4.24132 0
M  V30 15783 H 1470.25 -0.548635 0.618812 0
M  V30 15784 H 1472.8 -0.454865 1.6349 0
M  V30 15785 H 1471.57 -1.36511 3.66716 0
M  V30 15786 H 1471.19 -2.83654 2.78615 0
M  V30 15787 N 1472.19 -1.41197 -0.700089 0
M  V30 15788 C 1473.15 -1.42419 -1.79582 0
M  V30 15789 C 1474.15 -0.31551 -1.57674 0
M  V30 15790 O 1475.34 -0.575173 -1.64431 0
M  V30 15791 C 1472.47 -1.23114 -3.17893 0
M  V30 15792 H 1473.67 -2.39956 -1.79892 0
M  V30 15793 H 1471.22 -1.27273 -0.907271 0
M  V30 15794 H 1471.95 -0.263992 -3.23224 0
M  V30 15795 H 1471.74 -2.03437 -3.35195 0
M  V30 15796 H 1473.23 -1.26793 -3.97886 0
M  V30 15797 N 1473.67 0.933891 -1.2695 0
M  V30 15798 C 1474.58 2.06713 -1.10936 0
M  V30 15799 C 1475.59 1.73952 -0.0409734 0
M  V30 15800 O 1476.77 1.9989 -0.246199 0
M  V30 15801 C 1473.83 3.38453 -0.751696 0
M  V30 15802 C 1472.89 3.84951 -1.90029 0
M  V30 15803 C 1472.13 5.10404 -1.55959 0
M  V30 15804 O 1472.35 5.68504 -0.464646 0
M  V30 15805 O 1471.28 5.52123 -2.39675 0
M  V30 15806 H 1475.11 2.23133 -2.06023 0
M  V30 15807 H 1472.69 1.05202 -1.06079 0
M  V30 15808 H 1474.58 4.17591 -0.565285 0
M  V30 15809 H 1473.25 3.23255 0.169703 0
M  V30 15810 H 1472.16 3.06727 -2.14172 0
M  V30 15811 H 1473.49 4.04681 -2.80167 0
M  V30 15812 N 1475.14 1.08871 1.13951 0
M  V30 15813 C 1476.56 0.817282 1.37086 0
M  V30 15814 C 1476.76 -0.571159 1.93236 0
M  V30 15815 O 1475.82 -1.32708 2.14813 0
M  V30 15816 C 1477.13 1.90386 2.32752 0
M  V30 15817 C 1478.68 1.93043 2.46381 0
M  V30 15818 C 1479.15 3.00828 3.4535 0
M  V30 15819 N 1480.64 3.0003 3.52897 0
M  V30 15820 C 1481.38 3.80073 4.29339 0
M  V30 15821 N 1480.87 4.70008 5.08984 0
M  V30 15822 N 1482.67 3.68355 4.24583 0
M  V30 15823 H 1474.82 1.98393 0.758537 0
M  V30 15824 H 1477.08 0.861229 0.396219 0
M  V30 15825 H 1476.79 2.90233 1.9864 0
M  V30 15826 H 1476.66 1.77722 3.32708 0
M  V30 15827 H 1479.05 0.938382 2.79783 0
M  V30 15828 H 1479.13 2.09785 1.4637 0
M  V30 15829 H 1478.77 4.00242 3.1268 0
M  V30 15830 H 1478.7 2.8133 4.45153 0
M  V30 15831 H 1481.19 2.3485 2.96064 0
M  V30 15832 H 1481.51 5.27678 5.64602 0
M  V30 15833 H 1479.85 4.74047 5.08236 0
M  V30 15834 H 1483.04 2.9746 3.61435 0
M  V30 15835 H 1483.22 4.30974 4.83906 0
M  V30 15836 N 1476.62 -1.31073 0.875073 0
M  V30 15837 C 1477.55 -2.30855 0.350468 0
M  V30 15838 C 1478.53 -1.60569 -0.561384 0
M  V30 15839 O 1479.72 -1.88242 -0.477329 0
M  V30 15840 C 1476.85 -3.44444 -0.444493 0
M  V30 15841 C 1475.8 -4.26357 0.374716 0
M  V30 15842 C 1475.13 -5.31903 -0.546243 0
M  V30 15843 C 1476.43 -4.96817 1.61153 0
M  V30 15844 H 1478.12 -2.74983 1.18427 0
M  V30 15845 H 1475.67 -1.32199 0.570909 0
M  V30 15846 H 1477.62 -4.13304 -0.82206 0
M  V30 15847 H 1476.34 -2.99096 -1.31185 0
M  V30 15848 H 1475 -3.59171 0.734295 0
M  V30 15849 H 1474.65 -4.82803 -1.41102 0
M  V30 15850 H 1474.35 -5.876 -0.00198173 0
M  V30 15851 H 1475.88 -6.03621 -0.920542 0
M  V30 15852 H 1477.29 -5.58247 1.30511 0
M  V30 15853 H 1475.69 -5.62334 2.09524 0
M  V30 15854 H 1476.76 -4.2351 2.36151 0
M  V30 15855 N 1478.1 -0.635022 -1.4424 0
M  V30 15856 C 1479.05 0.0675707 -2.30701 0
M  V30 15857 C 1480.02 0.832919 -1.43707 0
M  V30 15858 O 1481.2 0.813177 -1.72604 0
M  V30 15859 C 1478.34 1.04053 -3.2904 0
M  V30 15860 C 1477.46 0.273191 -4.31135 0
M  V30 15861 C 1476.59 1.23831 -5.16565 0
M  V30 15862 C 1475.63 0.460359 -6.10366 0
M  V30 15863 N 1474.77 1.37614 -6.88481 0
M  V30 15864 H 1479.61 -0.675656 -2.90239 0
M  V30 15865 H 1477.14 -0.344971 -1.42998 0
M  V30 15866 H 1479.1 1.61805 -3.84545 0
M  V30 15867 H 1477.73 1.75084 -2.71193 0
M  V30 15868 H 1476.78 -0.420315 -3.78071 0
M  V30 15869 H 1478.1 -0.332548 -4.9769 0
M  V30 15870 H 1477.25 1.88704 -5.76607 0
M  V30 15871 H 1475.99 1.87797 -4.50093 0
M  V30 15872 H 1474.99 -0.201836 -5.49429 0
M  V30 15873 H 1476.22 -0.174639 -6.78875 0
M  V30 15874 H 1474.16 2.00294 -6.24675 0
M  V30 15875 H 1474.08 0.82452 -7.5149 0
M  V30 15876 H 1475.35 2.01359 -7.53044 0
M  V30 15877 N 1479.58 1.53054 -0.375806 0
M  V30 15878 C 1480.53 2.22837 0.482477 0
M  V30 15879 C 1481.51 1.22728 1.04051 0
M  V30 15880 O 1482.7 1.48129 0.968854 0
M  V30 15881 C 1479.83 3.02869 1.61634 0
M  V30 15882 C 1478.92 4.10362 1.07069 0
M  V30 15883 N 1479.31 5.05187 0.248878 0
M  V30 15884 C 1477.61 4.25251 1.34452 0
M  V30 15885 C 1478.31 5.81678 -0.0510458 0
M  V30 15886 N 1477.29 5.40817 0.549318 0
M  V30 15887 H 1481.09 2.93506 -0.1521 0
M  V30 15888 H 1478.6 1.6135 -0.184373 0
M  V30 15889 H 1480.6 3.51387 2.24349 0
M  V30 15890 H 1479.26 2.33732 2.25387 0
M  V30 15891 H 1480.27 5.17777 -0.112766 0
M  V30 15892 H 1476.95 3.67342 1.98408 0
M  V30 15893 H 1478.34 6.68073 -0.716061 0
M  V30 15894 N 1481.06 0.105248 1.57248 0
M  V30 15895 C 1481.99 -0.846915 2.176 0
M  V30 15896 C 1482.97 -1.28706 1.11216 0
M  V30 15897 O 1484.15 -1.35213 1.39396 0
M  V30 15898 C 1481.28 -2.10228 2.76445 0
M  V30 15899 C 1480.24 -1.80041 3.8829 0
M  V30 15900 C 1479.56 -3.12491 4.33882 0
M  V30 15901 C 1480.86 -1.07943 5.11024 0
M  V30 15902 H 1482.56 -0.344052 2.97417 0
M  V30 15903 H 1480.1 -0.164045 1.43063 0
M  V30 15904 H 1482.06 -2.77284 3.17319 0
M  V30 15905 H 1480.78 -2.62815 1.93897 0
M  V30 15906 H 1479.44 -1.15379 3.4797 0
M  V30 15907 H 1479.09 -3.62985 3.48211 0
M  V30 15908 H 1478.79 -2.93072 5.09296 0
M  V30 15909 H 1480.31 -3.80688 4.77398 0
M  V30 15910 H 1481.72 -1.65127 5.49004 0
M  V30 15911 H 1480.12 -0.986674 5.91933 0
M  V30 15912 H 1481.19 -0.0638511 4.84858 0
M  V30 15913 N 1482.53 -1.56697 -0.168486 0
M  V30 15914 C 1483.78 -1.81346 -0.882973 0
M  V30 15915 C 1484.1 -0.682975 -1.83289 0
M  V30 15916 O 1485.3 -0.814479 -2.58995 0
M  V30 15917 C 1483.76 -3.21345 -1.62066 0
M  V30 15918 C 1483.37 -4.4227 -0.714241 0
M  V30 15919 C 1485.11 -3.55285 -2.32321 0
M  V30 15920 C 1483.02 -5.7329 -1.45233 0
M  V30 15921 H 1481.95 -0.676254 -0.333461 0
M  V30 15922 H 1484.6 -1.82996 -0.135871 0
M  V30 15923 H 1482.98 -3.1402 -2.41262 0
M  V30 15924 H 1484.15 -4.60782 0.0409556 0
M  V30 15925 H 1482.47 -4.16224 -0.121205 0
M  V30 15926 H 1485.07 -4.50421 -2.88141 0
M  V30 15927 H 1485.41 -2.80301 -3.07793 0
M  V30 15928 H 1485.94 -3.64176 -1.60066 0
M  V30 15929 H 1482.68 -6.51311 -0.739869 0
M  V30 15930 H 1482.2 -5.58751 -2.18077 0
M  V30 15931 H 1483.88 -6.15343 -1.99905 0
M  V30 15932 N 1484.01 0.437135 -1.51416 0
M  V30 15933 C 1485.26 1.18831 -1.64338 0
M  V30 15934 C 1485.59 1.9086 -0.358638 0
M  V30 15935 O 1484.87 1.83607 0.641769 0
M  V30 15936 C 1485.15 2.20515 -2.84685 0
M  V30 15937 C 1485 1.52568 -4.23135 0
M  V30 15938 C 1486.32 3.21494 -3.00549 0
M  V30 15939 H 1483.44 0.430652 -0.598087 0
M  V30 15940 H 1486.08 0.47753 -1.83901 0
M  V30 15941 H 1484.23 2.81132 -2.68136 0
M  V30 15942 H 1485.9 0.952851 -4.51352 0
M  V30 15943 H 1484.15 0.828025 -4.25824 0
M  V30 15944 H 1484.82 2.26623 -5.03335 0
M  V30 15945 H 1487.29 2.7093 -3.1581 0
M  V30 15946 H 1486.17 3.89934 -3.86319 0
M  V30 15947 H 1486.43 3.8761 -2.12629 0
M  V30 15948 N 1485.49 1.41566 0.692592 0
M  V30 15949 C 1486.72 1.44445 1.48132 0
M  V30 15950 C 1487.13 0.0505867 1.88732 0
M  V30 15951 O 1486.49 -0.930779 1.5698 0
M  V30 15952 C 1486.54 2.35582 2.74196 0
M  V30 15953 O 1486.26 3.69545 2.35305 0
M  V30 15954 C 1487.76 2.47296 3.67912 0
M  V30 15955 H 1484.98 0.491877 0.456396 0
M  V30 15956 H 1487.53 1.85884 0.852499 0
M  V30 15957 H 1485.68 1.97445 3.33308 0
M  V30 15958 H 1486.1 4.1818 3.16584 0
M  V30 15959 H 1487.57 3.15225 4.53141 0
M  V30 15960 H 1488.05 1.50517 4.12603 0
M  V30 15961 H 1488.65 2.86082 3.14702 0
M  V30 15962 N 1486.97 -0.927146 1.27443 0
M  V30 15963 C 1488.38 -1.48984 1.1252 0
M  V30 15964 C 1488.73 -1.94051 -0.289602 0
M  V30 15965 O 1487.86 -1.8123 -1.18257 0
M  V30 15966 C 1488.45 -2.70765 2.03646 0
M  V30 15967 C 1487.01 -3.23256 1.92827 0
M  V30 15968 C 1486.16 -1.95991 1.9617 0
M  V30 15969 H 1489.11 -0.741196 1.40328 0
M  V30 15970 H 1489.13 -3.45567 1.5926 0
M  V30 15971 H 1488.64 -2.37933 3.0661 0
M  V30 15972 H 1486.74 -3.60845 0.928516 0
M  V30 15973 H 1486.85 -3.89413 2.79096 0
M  V30 15974 H 1485.22 -2.12508 1.40402 0
M  V30 15975 H 1486 -1.65473 3.00788 0
M  V30 15976 N 1488.45 -1.09474 -1.13372 0
M  V30 15977 C 1489.67 -0.853093 -1.89043 0
M  V30 15978 C 1490.1 0.590075 -1.78605 0
M  V30 15979 O 1489.45 1.41462 -1.13394 0
M  V30 15980 C 1489.5 -1.29359 -3.36599 0
M  V30 15981 O 1488.61 -0.452355 -4.09912 0
M  V30 15982 H 1487.95 -0.308922 -0.587761 0
M  V30 15983 H 1490.48 -1.459 -1.43437 0
M  V30 15984 H 1490.49 -1.27921 -3.87428 0
M  V30 15985 H 1489.16 -2.3446 -3.43513 0
M  V30 15986 H 1487.74 -0.531098 -3.69099 0
M  V30 15987 N 1489.92 1.30607 -0.882012 0
M  V30 15988 C 1491.17 1.95869 -0.497978 0
M  V30 15989 C 1491.49 1.69991 0.955405 0
M  V30 15990 O 1490.76 1.02188 1.67136 0
M  V30 15991 H 1489.34 0.724699 -0.181165 0
M  V30 15992 H 1492.01 1.59193 -1.12444 0
M  V30 15993 H 1491.1 3.04917 -0.665754 0
M  V30 15994 N 1491.4 0.642663 1.43901 0
M  V30 15995 C 1492.64 0.15524 2.0381 0
M  V30 15996 C 1493.01 -1.20426 1.49538 0
M  V30 15997 O 1494.21 -1.78447 2.01022 0
M  V30 15998 C 1492.48 0.153714 3.57069 0
M  V30 15999 S 1494.04 -0.267404 4.37984 0
M  V30 16000 H 1490.86 0.0667514 0.70786 0
M  V30 16001 H 1493.46 0.848636 1.7612 0
M  V30 16002 H 1492.16 1.14608 3.94073 0
M  V30 16003 H 1491.69 -0.56056 3.89386 0
M  V30 16004 H 1493.71 -1.50887 4.72702 0
M  V30 16005 N 1492.88 -1.52852 0.383918 0
M  V30 16006 C 1494.13 -2.01112 -0.199594 0
M  V30 16007 C 1494.45 -1.27237 -1.47769 0
M  V30 16008 O 1493.72 -0.390873 -1.91961 0
M  V30 16009 H 1492.3 -0.743047 -0.0767466 0
M  V30 16010 H 1494.96 -1.8799 0.51437 0
M  V30 16011 H 1494.06 -3.09347 -0.413627 0
M  V30 16012 N 1494.36 -0.113586 -1.5719 0
M  V30 16013 C 1495.27 0.852428 -2.18565 0
M  V30 16014 C 1496.29 1.29668 -1.16026 0
M  V30 16015 O 1497.46 1.36079 -1.48474 0
M  V30 16016 C 1494.53 2.08675 -2.76867 0
M  V30 16017 C 1493.59 1.69493 -3.94424 0
M  V30 16018 C 1492.82 2.87042 -4.49936 0
M  V30 16019 O 1493.04 4.02311 -4.04354 0
M  V30 16020 O 1491.98 2.64439 -5.40699 0
M  V30 16021 H 1495.8 0.360144 -3.01557 0
M  V30 16022 H 1493.39 0.111744 -1.48982 0
M  V30 16023 H 1495.27 2.80976 -3.14054 0
M  V30 16024 H 1493.95 2.5692 -1.9691 0
M  V30 16025 H 1492.85 0.943161 -3.62016 0
M  V30 16026 H 1494.19 1.25995 -4.758 0
M  V30 16027 N 1495.84 1.56784 0.160173 0
M  V30 16028 C 1496.77 1.93848 1.22293 0
M  V30 16029 C 1497.78 0.832803 1.39886 0
M  V30 16030 O 1498.97 1.11124 1.39692 0
M  V30 16031 C 1496.07 2.18581 2.58989 0
M  V30 16032 C 1495.24 3.49839 2.62548 0
M  V30 16033 C 1494.3 3.63268 3.80687 0
M  V30 16034 O 1493.33 4.35785 3.6617 0
M  V30 16035 N 1494.53 2.98948 4.97605 0
M  V30 16036 H 1497.3 2.85614 0.908004 0
M  V30 16037 H 1494.86 1.58075 0.349851 0
M  V30 16038 H 1496.85 2.24819 3.36509 0
M  V30 16039 H 1495.42 1.33145 2.82827 0
M  V30 16040 H 1494.64 3.5516 1.7104 0
M  V30 16041 H 1495.93 4.3619 2.61945 0
M  V30 16042 H 1495.33 2.39924 5.12302 0
M  V30 16043 H 1493.88 3.10765 5.72947 0
M  V30 16044 N 1497.32 -0.429099 1.51646 0
M  V30 16045 C 1498.26 -1.54202 1.74139 0
M  V30 16046 C 1499.26 -1.58117 0.607905 0
M  V30 16047 O 1500.46 -1.61763 0.789486 0
M  V30 16048 H 1496.84 -0.512456 0.550357 0
M  V30 16049 H 1498.81 -1.32408 2.67415 0
M  V30 16050 C 1497.56 -2.91779 1.89104 0
M  V30 16051 H 1496.88 -2.89502 2.75733 0
M  V30 16052 H 1498.32 -3.68995 2.08851 0
M  V30 16053 C 1496.78 -3.30512 0.652945 0
M  V30 16054 O 1497.31 -4.01257 -0.188553 0
M  V30 16055 N 1495.52 -2.86359 0.494634 0
M  V30 16056 H 1495.06 -2.28959 1.18049 0
M  V30 16057 H 1495.02 -3.12637 -0.332503 0
M  V30 16058 N 1498.79 -1.41931 -0.685074 0
M  V30 16059 C 1499.73 -1.39028 -1.8096 0
M  V30 16060 C 1500.7 -0.256001 -1.60572 0
M  V30 16061 O 1501.89 -0.44459 -1.83182 0
M  V30 16062 C 1499.02 -1.17125 -3.17804 0
M  V30 16063 C 1498.06 -2.33411 -3.56961 0
M  V30 16064 S 1498.89 -3.9592 -3.60565 0
M  V30 16065 C 1500.05 -3.7634 -5.00119 0
M  V30 16066 H 1500.28 -2.34189 -1.83146 0
M  V30 16067 H 1497.82 -1.2858 -0.854778 0
M  V30 16068 H 1499.77 -1.05175 -3.96798 0
M  V30 16069 H 1498.44 -0.235668 -3.13215 0
M  V30 16070 H 1497.63 -2.13807 -4.56402 0
M  V30 16071 H 1497.23 -2.41823 -2.85303 0
M  V30 16072 H 1499.52 -3.36695 -5.87914 0
M  V30 16073 H 1500.47 -4.7542 -5.24768 0
M  V30 16074 H 1500.87 -3.09407 -4.72152 0
M  V30 16075 N 1500.27 0.920374 -1.27933 0
M  V30 16076 C 1501.52 1.66338 -1.14081 0
M  V30 16077 C 1501.83 1.93107 0.311324 0
M  V30 16078 O 1503.04 2.65431 0.570862 0
M  V30 16079 C 1501.5 2.99624 -1.99383 0
M  V30 16080 C 1501.1 2.80527 -3.49297 0
M  V30 16081 C 1502.85 3.77474 -1.94199 0
M  V30 16082 C 1500.75 4.09413 -4.26773 0
M  V30 16083 H 1499.68 0.623935 -0.423346 0
M  V30 16084 H 1502.34 1.0219 -1.52412 0
M  V30 16085 H 1500.72 3.6487 -1.53902 0
M  V30 16086 H 1501.89 2.24002 -4.02691 0
M  V30 16087 H 1500.21 2.16097 -3.55937 0
M  V30 16088 H 1502.8 4.72997 -2.49356 0
M  V30 16089 H 1503.15 4.06069 -0.917249 0
M  V30 16090 H 1503.68 3.19036 -2.37614 0
M  V30 16091 H 1500.42 3.85994 -5.29801 0
M  V30 16092 H 1499.94 4.65574 -3.78155 0
M  V30 16093 H 1501.62 4.77721 -4.36339 0
M  V30 16094 N 1501.75 1.10074 1.1279 0
M  V30 16095 C 1503 0.839212 1.83852 0
M  V30 16096 C 1503.32 -0.637023 1.84301 0
M  V30 16097 O 1502.59 -1.46239 1.30349 0
M  V30 16098 H 1501.17 0.307468 0.680788 0
M  V30 16099 H 1503.83 1.39025 1.36595 0
M  V30 16100 H 1502.93 1.19872 2.88162 0
M  V30 16101 N 1503.23 -1.30138 0.888926 0
M  V30 16102 C 1504.16 -2.26177 0.303221 0
M  V30 16103 C 1505.14 -1.51962 -0.578471 0
M  V30 16104 O 1506.32 -1.80963 -0.527685 0
M  V30 16105 C 1503.45 -3.3389 -0.568783 0
M  V30 16106 C 1502.5 -4.25801 0.24412 0
M  V30 16107 S 1503.33 -5.09931 1.63496 0
M  V30 16108 C 1504.48 -6.21151 0.76959 0
M  V30 16109 H 1504.72 -2.75507 1.11728 0
M  V30 16110 H 1502.25 -1.38195 0.688594 0
M  V30 16111 H 1504.21 -3.96413 -1.06614 0
M  V30 16112 H 1502.87 -2.83276 -1.35697 0
M  V30 16113 H 1502.06 -5.02234 -0.42151 0
M  V30 16114 H 1501.66 -3.67872 0.67424 0
M  V30 16115 H 1503.96 -6.77499 -0.0117256 0
M  V30 16116 H 1504.9 -6.91907 1.50566 0
M  V30 16117 H 1505.31 -5.63542 0.328744 0
M  V30 16118 N 1504.71 -0.650285 -1.43559 0
M  V30 16119 C 1505.93 -0.170139 -2.06199 0
M  V30 16120 C 1506.35 1.16304 -1.48724 0
M  V30 16121 O 1505.71 1.71739 -0.617418 0
M  V30 16122 C 1505.76 -0.0698577 -3.61432 0
M  V30 16123 O 1505.48 -1.35033 -4.16771 0
M  V30 16124 C 1506.98 0.436714 -4.41144 0
M  V30 16125 H 1504.2 -0.0885316 -0.665134 0
M  V30 16126 H 1506.74 -0.890104 -1.84112 0
M  V30 16127 H 1504.9 0.60065 -3.82715 0
M  V30 16128 H 1505.31 -1.20762 -5.10409 0
M  V30 16129 H 1506.79 0.455843 -5.50115 0
M  V30 16130 H 1507.26 1.46747 -4.13959 0
M  V30 16131 H 1507.87 -0.201201 -4.24824 0
M  V30 16132 N 1506.18 1.52647 -0.392018 0
M  V30 16133 C 1507.59 1.86522 0.0814091 0
M  V30 16134 C 1507.95 1.31158 1.45918 0
M  V30 16135 O 1507.07 0.644007 2.06595 0
M  V30 16136 C 1507.67 3.38448 0.1545 0
M  V30 16137 C 1506.22 3.72025 0.572227 0
M  V30 16138 C 1505.37 2.7604 -0.264093 0
M  V30 16139 H 1508.32 1.46517 -0.609785 0
M  V30 16140 H 1508.34 3.67846 0.973109 0
M  V30 16141 H 1507.86 3.78713 -0.848396 0
M  V30 16142 H 1505.96 3.37329 1.58239 0
M  V30 16143 H 1506.07 4.77973 0.328491 0
M  V30 16144 H 1504.43 2.53254 0.271042 0
M  V30 16145 H 1505.22 3.19143 -1.26502 0
M  V30 16146 N 1507.66 0.121921 1.57128 0
M  V30 16147 C 1508.89 -0.543012 1.99647 0
M  V30 16148 C 1509.31 -1.60038 1.00165 0
M  V30 16149 O 1508.66 -1.82499 -0.00504688 0
M  V30 16150 C 1508.71 -1.1665 3.42162 0
M  V30 16151 O 1508.43 -0.151385 4.37838 0
M  V30 16152 C 1509.94 -1.91447 3.99829 0
M  V30 16153 H 1507.16 -0.143524 0.655471 0
M  V30 16154 H 1509.7 0.20912 2.03428 0
M  V30 16155 H 1507.85 -1.86939 3.39312 0
M  V30 16156 H 1508.27 -0.604773 5.21002 0
M  V30 16157 H 1509.74 -2.30394 5.0162 0
M  V30 16158 H 1510.22 -2.7908 3.39133 0
M  V30 16159 H 1510.83 -1.25913 4.06234 0
M  V30 16160 N 1509.14 -1.56867 -0.151857 0
M  V30 16161 C 1510.39 -1.83353 -0.866566 0
M  V30 16162 C 1510.72 -0.702784 -1.81038 0
M  V30 16163 O 1509.99 0.293944 -1.92266 0
M  V30 16164 C 1510.28 -3.20316 -1.64529 0
M  V30 16165 C 1510.13 -4.43946 -0.723297 0
M  V30 16166 C 1511.45 -3.54441 -2.60882 0
M  V30 16167 H 1508.57 -0.666957 -0.313588 0
M  V30 16168 H 1511.21 -1.89541 -0.131954 0
M  V30 16169 H 1509.36 -3.15172 -2.27154 0
M  V30 16170 H 1511.03 -4.61173 -0.10842 0
M  V30 16171 H 1509.28 -4.33788 -0.0325582 0
M  V30 16172 H 1509.95 -5.36374 -1.3041 0
M  V30 16173 H 1512.42 -3.60164 -2.08377 0
M  V30 16174 H 1511.3 -4.51314 -3.12422 0
M  V30 16175 H 1511.56 -2.80146 -3.42009 0
M  V30 16176 N 1510.62 0.421051 -1.51871 0
M  V30 16177 C 1511.87 1.16611 -1.64574 0
M  V30 16178 C 1512.18 1.91955 -0.375835 0
M  V30 16179 O 1513.39 2.68792 -0.382481 0
M  V30 16180 C 1511.84 2.12164 -2.90714 0
M  V30 16181 C 1511.45 1.42392 -4.24769 0
M  V30 16182 C 1513.19 2.87002 -3.12778 0
M  V30 16183 C 1511.1 2.36523 -5.42043 0
M  V30 16184 H 1510.03 0.438989 -0.613029 0
M  V30 16185 H 1512.68 0.431636 -1.78351 0
M  V30 16186 H 1511.06 2.89114 -2.70608 0
M  V30 16187 H 1512.24 0.708875 -4.55315 0
M  V30 16188 H 1510.55 0.796421 -4.08713 0
M  V30 16189 H 1513.15 3.5755 -3.9757 0
M  V30 16190 H 1513.49 3.49277 -2.2652 0
M  V30 16191 H 1514.03 2.17154 -3.333 0
M  V30 16192 H 1510.77 1.78913 -6.30611 0
M  V30 16193 H 1510.29 3.06034 -5.15852 0
M  V30 16194 H 1511.96 2.97306 -5.74646 0
M  V30 16195 N 1512.1 1.42293 0.677538 0
M  V30 16196 C 1513.06 1.45258 1.77293 0
M  V30 16197 C 1514.06 0.340554 1.57152 0
M  V30 16198 O 1515.25 0.601259 1.63495 0
M  V30 16199 C 1512.38 1.28156 3.15894 0
M  V30 16200 H 1513.57 2.42787 1.76052 0
M  V30 16201 H 1511.13 1.287 0.886908 0
M  V30 16202 H 1511.86 0.315381 3.22763 0
M  V30 16203 H 1511.65 2.08744 3.31916 0
M  V30 16204 H 1513.14 1.33107 3.95818 0
M  V30 16205 N 1513.57 -0.913576 1.28419 0
M  V30 16206 C 1514.82 -1.66519 1.15755 0
M  V30 16207 C 1515.15 -1.91974 -0.293166 0
M  V30 16208 O 1514.43 -1.52025 -1.21321 0
M  V30 16209 C 1514.71 -3.02299 1.95672 0
M  V30 16210 C 1514.56 -2.83996 3.48807 0
M  V30 16211 C 1515.88 -4.02838 1.77226 0
M  V30 16212 H 1513 -0.604309 0.421877 0
M  V30 16213 H 1515.64 -1.05919 1.57737 0
M  V30 16214 H 1513.79 -3.54025 1.59995 0
M  V30 16215 H 1515.47 -2.39279 3.9439 0
M  V30 16216 H 1513.71 -2.19052 3.74431 0
M  V30 16217 H 1514.38 -3.80419 3.99982 0
M  V30 16218 H 1516.86 -3.60174 2.0836 0
M  V30 16219 H 1515.73 -4.95806 2.35515 0
M  V30 16220 H 1515.99 -4.36135 0.723804 0
M  V30 16221 N 1515.05 -1.1067 -1.12204 0
M  V30 16222 C 1516 -0.726979 -2.161 0
M  V30 16223 C 1516.99 0.26505 -1.58702 0
M  V30 16224 O 1518.18 0.0734052 -1.76848 0
M  V30 16225 C 1515.31 -0.163062 -3.42913 0
M  V30 16226 C 1514.39 -1.18228 -4.07287 0
M  V30 16227 N 1514.78 -2.3738 -4.46637 0
M  V30 16228 C 1513.08 -1.02336 -4.34101 0
M  V30 16229 C 1513.78 -3.02318 -4.9697 0
M  V30 16230 N 1512.76 -2.29826 -4.92627 0
M  V30 16231 H 1516.56 -1.63396 -2.44293 0
M  V30 16232 H 1514.08 -0.984782 -1.29135 0
M  V30 16233 H 1516.07 0.127067 -4.16706 0
M  V30 16234 H 1514.73 0.738611 -3.16188 0
M  V30 16235 H 1515.74 -2.74889 -4.38926 0
M  V30 16236 H 1512.42 -0.177452 -4.17123 0
M  V30 16237 H 1513.81 -4.03685 -5.3711 0
M  V30 16238 N 1516.53 1.29665 -0.895815 0
M  V30 16239 C 1517.76 1.99572 -0.534267 0
M  V30 16240 C 1518.17 1.67254 0.884455 0
M  V30 16241 O 1517.51 0.911762 1.59476 0
M  V30 16242 C 1517.57 3.53719 -0.642099 0
M  V30 16243 C 1517.24 4.09583 -2.02709 0
M  V30 16244 C 1518.23 4.24769 -2.99779 0
M  V30 16245 C 1515.92 4.44706 -2.33542 0
M  V30 16246 C 1517.91 4.74305 -4.25809 0
M  V30 16247 C 1515.6 4.93939 -3.59815 0
M  V30 16248 C 1516.6 5.08693 -4.55763 0
M  V30 16249 O 1516.29 5.5686 -5.79795 0
M  V30 16250 H 1516.02 0.644481 -0.204012 0
M  V30 16251 H 1518.57 1.66262 -1.20607 0
M  V30 16252 H 1516.8 3.86603 0.0867197 0
M  V30 16253 H 1518.49 4.04861 -0.290265 0
M  V30 16254 H 1519.26 3.97925 -2.77273 0
M  V30 16255 H 1515.14 4.32483 -1.59622 0
M  V30 16256 H 1518.68 4.85736 -5.00706 0
M  V30 16257 H 1514.58 5.2022 -3.82154 0
M  V30 16258 H 1515.35 5.75182 -5.82329 0
M  V30 16259 N 1518.01 0.657889 1.43212 0
M  V30 16260 C 1518.94 -0.0172114 2.33494 0
M  V30 16261 C 1519.92 -0.807087 1.49733 0
M  V30 16262 O 1521.1 -0.767631 1.78385 0
M  V30 16263 C 1518.23 -0.981029 3.33156 0
M  V30 16264 C 1517.19 -0.30094 4.26941 0
M  V30 16265 C 1516.51 -1.37653 5.16678 0
M  V30 16266 C 1517.81 0.809572 5.15988 0
M  V30 16267 H 1519.51 0.736749 2.90194 0
M  V30 16268 H 1517.05 0.355744 1.39537 0
M  V30 16269 H 1519.01 -1.46226 3.95216 0
M  V30 16270 H 1517.73 -1.76621 2.74723 0
M  V30 16271 H 1516.39 0.159893 3.66251 0
M  V30 16272 H 1516.04 -2.15326 4.54581 0
M  V30 16273 H 1515.74 -0.926704 5.80246 0
M  V30 16274 H 1517.26 -1.85903 5.81612 0
M  V30 16275 H 1518.68 0.410297 5.7183 0
M  V30 16276 H 1517.07 1.18415 5.88301 0
M  V30 16277 H 1518.14 1.66558 4.55397 0
M  V30 16278 N 1519.49 -1.52437 0.400108 0
M  V30 16279 C 1520.76 -1.94162 -0.23671 0
M  V30 16280 C 1521.14 -1.33636 -1.63416 0
M  V30 16281 O 1520.49 -0.508643 -2.22767 0
M  V30 16282 C 1520.7 -3.48088 -0.252159 0
M  V30 16283 C 1522.05 -4.21925 -0.475887 0
M  V30 16284 O 1523.07 -3.5465 -0.331905 0
M  V30 16285 O 1521.93 -5.41205 -0.758895 0
M  V30 16286 H 1519.03 -0.813294 -0.14994 0
M  V30 16287 H 1521.57 -1.63475 0.455399 0
M  V30 16288 H 1520.34 -3.84501 0.726263 0
M  V30 16289 H 1519.97 -3.8511 -0.988742 0
M  V30 16290 N 1520.96 -0.130252 -1.57061 0
M  V30 16291 C 1521.87 0.829198 -2.19457 0
M  V30 16292 C 1522.89 1.2843 -1.17395 0
M  V30 16293 O 1524.07 1.34496 -1.49909 0
M  V30 16294 C 1521.13 2.05727 -2.79065 0
M  V30 16295 C 1520.19 1.65301 -3.962 0
M  V30 16296 C 1519.43 2.82253 -4.52956 0
M  V30 16297 O 1519.65 3.97999 -4.08598 0
M  V30 16298 O 1518.58 2.5869 -5.43473 0
M  V30 16299 H 1522.41 0.328139 -3.01922 0
M  V30 16300 H 1519.99 0.0959361 -1.49092 0
M  V30 16301 H 1521.88 2.7763 -3.17017 0
M  V30 16302 H 1520.55 2.54817 -1.99624 0
M  V30 16303 H 1519.46 0.904712 -3.62996 0
M  V30 16304 H 1520.79 1.20942 -4.7711 0
M  V30 16305 N 1522.44 1.56945 0.143535 0
M  V30 16306 C 1523.67 1.87701 0.870401 0
M  V30 16307 C 1524.09 0.718833 1.7458 0
M  V30 16308 O 1523.44 -0.311286 1.79826 0
M  V30 16309 C 1523.49 3.1773 1.72424 0
M  V30 16310 O 1523.22 4.29086 0.884115 0
M  V30 16311 C 1524.72 3.62024 2.55839 0
M  V30 16312 H 1521.94 0.622083 0.251504 0
M  V30 16313 H 1524.48 2.04052 0.135285 0
M  V30 16314 H 1522.64 3.03122 2.41238 0
M  V30 16315 H 1523.05 5.0346 1.47065 0
M  V30 16316 H 1524.52 4.55834 3.11319 0
M  V30 16317 H 1525 2.87481 3.32041 0
M  V30 16318 H 1525.61 3.79338 1.9231 0
M  V30 16319 N 1523.92 -0.412991 1.52093 0
M  V30 16320 C 1524.83 -1.52768 1.78042 0
M  V30 16321 C 1525.85 -1.60758 0.665791 0
M  V30 16322 O 1527.02 -1.77545 0.950772 0
M  V30 16323 C 1524.09 -2.8854 1.92213 0
M  V30 16324 C 1523.15 -2.90468 3.16112 0
M  V30 16325 C 1522.38 -4.19763 3.29598 0
M  V30 16326 O 1522.61 -5.13454 2.48438 0
M  V30 16327 O 1521.54 -4.2847 4.22726 0
M  V30 16328 H 1525.37 -1.33777 2.72649 0
M  V30 16329 H 1522.95 -0.598461 1.3689 0
M  V30 16330 H 1524.83 -3.69073 2.03379 0
M  V30 16331 H 1523.51 -3.07607 1.00795 0
M  V30 16332 H 1522.41 -2.08801 3.10408 0
M  V30 16333 H 1523.75 -2.76349 4.07298 0
M  V30 16334 N 1525.4 -1.4265 -0.669982 0
M  V30 16335 C 1526.33 -1.42457 -1.79551 0
M  V30 16336 C 1527.34 -0.322966 -1.59564 0
M  V30 16337 O 1528.53 -0.586359 -1.68594 0
M  V30 16338 C 1525.63 -1.20561 -3.16731 0
M  V30 16339 C 1524.81 -2.43246 -3.63525 0
M  V30 16340 C 1523.87 -2.16823 -4.79452 0
M  V30 16341 O 1522.89 -2.90058 -4.8975 0
M  V30 16342 N 1524.09 -1.17436 -5.68497 0
M  V30 16343 H 1526.86 -2.39474 -1.80201 0
M  V30 16344 H 1524.42 -1.37591 -0.853244 0
M  V30 16345 H 1526.41 -1.00794 -3.91947 0
M  V30 16346 H 1524.98 -0.320497 -3.10953 0
M  V30 16347 H 1524.2 -2.78549 -2.78934 0
M  V30 16348 H 1525.49 -3.24931 -3.91532 0
M  V30 16349 H 1524.89 -0.568736 -5.62834 0
M  V30 16350 H 1523.44 -1.03655 -6.43505 0
M  V30 16351 N 1526.88 0.906753 -1.28902 0
M  V30 16352 C 1528.12 1.65925 -1.17646 0
M  V30 16353 C 1528.48 1.90484 0.270837 0
M  V30 16354 O 1527.77 1.49914 1.19317 0
M  V30 16355 C 1527.97 3.0171 -1.91588 0
M  V30 16356 C 1527.79 2.90403 -3.4336 0
M  V30 16357 C 1526.56 2.91551 -4.12706 0
M  V30 16358 C 1528.76 2.67955 -4.38981 0
M  V30 16359 N 1526.74 2.70907 -5.50893 0
M  V30 16360 C 1528.12 2.56222 -5.6458 0
M  V30 16361 C 1530.17 2.53007 -4.28826 0
M  V30 16362 C 1528.87 2.31064 -6.81177 0
M  V30 16363 C 1530.9 2.2923 -5.45167 0
M  V30 16364 C 1530.26 2.18257 -6.69734 0
M  V30 16365 H 1526.36 0.613064 -0.485466 0
M  V30 16366 H 1528.94 1.07031 -1.62642 0
M  V30 16367 H 1527.12 3.58676 -1.49016 0
M  V30 16368 H 1528.85 3.66021 -1.72657 0
M  V30 16369 H 1525.6 3.02571 -3.64346 0
M  V30 16370 H 1526.03 2.63657 -6.2355 0
M  V30 16371 H 1530.67 2.60238 -3.33221 0
M  V30 16372 H 1528.39 2.22572 -7.76844 0
M  V30 16373 H 1531.97 2.18518 -5.39204 0
M  V30 16374 H 1530.85 2.00112 -7.58238 0
M  V30 16375 N 1528.36 1.11264 1.11616 0
M  V30 16376 C 1529.27 0.781961 2.21184 0
M  V30 16377 C 1530.28 -0.224149 1.7255 0
M  V30 16378 O 1531.46 -0.0607743 2.01308 0
M  V30 16379 C 1528.52 0.228031 3.45949 0
M  V30 16380 C 1527.58 1.29251 4.09381 0
M  V30 16381 C 1526.82 0.764921 5.2819 0
M  V30 16382 O 1527.04 -0.405671 5.68956 0
M  V30 16383 O 1525.97 1.52886 5.82159 0
M  V30 16384 H 1529.8 1.69678 2.51879 0
M  V30 16385 H 1527.38 0.888394 1.20116 0
M  V30 16386 H 1529.27 -0.0766085 4.2133 0
M  V30 16387 H 1527.94 -0.659519 3.1691 0
M  V30 16388 H 1526.85 1.65014 3.3574 0
M  V30 16389 H 1528.18 2.15339 4.42595 0
M  V30 16390 N 1529.83 -1.29188 0.902679 0
M  V30 16391 C 1530.78 -2.27632 0.381088 0
M  V30 16392 C 1531.75 -1.57131 -0.538431 0
M  V30 16393 O 1532.94 -1.85096 -0.463027 0
M  V30 16394 C 1530.08 -3.42971 -0.382701 0
M  V30 16395 C 1529.19 -4.28249 0.568054 0
M  V30 16396 C 1528.32 -5.30772 -0.213082 0
M  V30 16397 C 1527.36 -6.07707 0.732004 0
M  V30 16398 N 1526.5 -7.02098 -0.0149139 0
M  V30 16399 H 1531.34 -2.71628 1.22566 0
M  V30 16400 H 1528.88 -1.33594 0.615724 0
M  V30 16401 H 1530.83 -4.08623 -0.841619 0
M  V30 16402 H 1529.46 -2.99997 -1.19171 0
M  V30 16403 H 1528.52 -3.62743 1.14549 0
M  V30 16404 H 1529.83 -4.81794 1.29136 0
M  V30 16405 H 1528.98 -6.02255 -0.733065 0
M  V30 16406 H 1527.72 -4.77966 -0.969504 0
M  V30 16407 H 1526.73 -5.35086 1.26346 0
M  V30 16408 H 1527.95 -6.62602 1.4878 0
M  V30 16409 H 1525.9 -6.51658 -0.753548 0
M  V30 16410 H 1525.81 -7.53214 0.648423 0
M  V30 16411 H 1527.08 -7.77796 -0.515062 0
M  V30 16412 N 1531.31 -0.665475 -1.42861 0
M  V30 16413 C 1532.56 -0.183884 -2.01663 0
M  V30 16414 C 1532.89 1.2064 -1.52566 0
M  V30 16415 O 1532.14 1.82191 -0.714479 0
M  V30 16416 C 1532.44 -0.156963 -3.57055 0
M  V30 16417 C 1532.11 -1.49065 -4.25547 0
M  V30 16418 C 1530.77 -1.85584 -4.43973 0
M  V30 16419 C 1533.12 -2.36942 -4.64228 0
M  V30 16420 C 1530.45 -3.09622 -4.98348 0
M  V30 16421 C 1532.8 -3.60284 -5.19979 0
M  V30 16422 C 1531.46 -3.96984 -5.36619 0
M  V30 16423 H 1530.73 -0.0672879 -0.737939 0
M  V30 16424 H 1533.38 -0.858614 -1.71173 0
M  V30 16425 H 1531.69 0.601253 -3.87159 0
M  V30 16426 H 1533.38 0.232721 -4.00324 0
M  V30 16427 H 1529.97 -1.19653 -4.11559 0
M  V30 16428 H 1534.16 -2.10015 -4.49675 0
M  V30 16429 H 1529.41 -3.3809 -5.09417 0
M  V30 16430 H 1533.59 -4.28586 -5.48896 0
M  V30 16431 H 1531.21 -4.93175 -5.78518 0
M  V30 16432 N 1532.79 1.52222 -0.408187 0
M  V30 16433 C 1534.04 2.01404 0.167574 0
M  V30 16434 C 1534.36 1.29572 1.45726 0
M  V30 16435 O 1533.63 0.421363 1.91315 0
M  V30 16436 H 1532.21 0.744174 0.0649156 0
M  V30 16437 H 1534.87 1.87148 -0.544212 0
M  V30 16438 H 1533.97 3.09966 0.36436 0
M  V30 16439 N 1534.27 0.138579 1.5699 0
M  V30 16440 C 1535.2 -0.800568 2.19347 0
M  V30 16441 C 1536.18 -1.26318 1.13921 0
M  V30 16442 O 1537.36 -1.32226 1.42232 0
M  V30 16443 C 1534.49 -2.04317 2.80842 0
M  V30 16444 C 1533.45 -1.71764 3.92022 0
M  V30 16445 C 1532.77 -3.03217 4.40413 0
M  V30 16446 C 1534.07 -0.970789 5.13199 0
M  V30 16447 H 1535.77 -0.280888 2.98079 0
M  V30 16448 H 1533.31 -0.133663 1.43378 0
M  V30 16449 H 1535.27 -2.70491 3.2313 0
M  V30 16450 H 1533.99 -2.58643 1.99428 0
M  V30 16451 H 1532.65 -1.07972 3.50339 0
M  V30 16452 H 1532.3 -3.55517 3.55832 0
M  V30 16453 H 1532 -2.82203 5.15398 0
M  V30 16454 H 1533.52 -3.70477 4.85365 0
M  V30 16455 H 1534.94 -1.53445 5.52384 0
M  V30 16456 H 1533.33 -0.860895 5.93893 0
M  V30 16457 H 1534.4 0.0390088 4.84884 0
M  V30 16458 N 1535.75 -1.57019 -0.13521 0
M  V30 16459 C 1536.66 -2.02427 -1.18578 0
M  V30 16460 C 1537.67 -0.941738 -1.46312 0
M  V30 16461 O 1538.85 -1.25208 -1.57749 0
M  V30 16462 C 1535.91 -2.40577 -2.49647 0
M  V30 16463 C 1534.97 -3.62835 -2.29455 0
M  V30 16464 C 1534.21 -3.99156 -3.54274 0
M  V30 16465 O 1534.43 -3.36001 -4.60933 0
M  V30 16466 O 1533.36 -4.92345 -3.46238 0
M  V30 16467 H 1537.19 -2.92131 -0.830237 0
M  V30 16468 H 1534.77 -1.45366 -0.344814 0
M  V30 16469 H 1536.66 -2.65922 -3.269 0
M  V30 16470 H 1535.33 -1.54023 -2.84708 0
M  V30 16471 H 1534.24 -3.42661 -1.50114 0
M  V30 16472 H 1535.57 -4.50043 -1.99305 0
M  V30 16473 N 1537.22 0.404919 -1.52309 0
M  V30 16474 C 1538.17 1.49363 -1.75953 0
M  V30 16475 C 1539.14 1.54802 -0.60212 0
M  V30 16476 O 1540.33 1.71308 -0.840128 0
M  V30 16477 C 1537.47 2.86767 -1.91987 0
M  V30 16478 C 1536.58 2.90603 -3.19646 0
M  V30 16479 C 1535.71 4.19333 -3.26088 0
M  V30 16480 C 1534.75 4.17161 -4.47932 0
M  V30 16481 N 1533.89 5.37469 -4.51743 0
M  V30 16482 H 1538.73 1.28503 -2.6887 0
M  V30 16483 H 1536.27 0.623684 -1.33224 0
M  V30 16484 H 1538.23 3.66536 -1.99267 0
M  V30 16485 H 1536.86 3.06112 -1.02447 0
M  V30 16486 H 1535.91 2.033 -3.21517 0
M  V30 16487 H 1537.22 2.84864 -4.09456 0
M  V30 16488 H 1536.37 5.07497 -3.32463 0
M  V30 16489 H 1535.11 4.27774 -2.34224 0
M  V30 16490 H 1534.12 3.27386 -4.417 0
M  V30 16491 H 1535.34 4.10356 -5.41096 0
M  V30 16492 H 1533.29 5.46569 -3.62764 0
M  V30 16493 H 1533.21 5.3374 -5.35404 0
M  V30 16494 H 1534.47 6.27575 -4.62353 0
M  V30 16495 N 1538.7 1.43003 0.662408 0
M  V30 16496 C 1540.12 1.26201 0.977003 0
M  V30 16497 C 1540.32 0.175104 2.00738 0
M  V30 16498 O 1539.37 -0.44954 2.48466 0
M  V30 16499 C 1540.69 2.62319 1.47001 0
M  V30 16500 C 1542.24 2.69776 1.58714 0
M  V30 16501 C 1542.71 4.06289 2.11408 0
M  V30 16502 N 1544.2 4.08307 2.18724 0
M  V30 16503 C 1544.94 5.10761 2.60598 0
M  V30 16504 N 1544.43 6.23593 3.01834 0
M  V30 16505 N 1546.23 4.98115 2.60456 0
M  V30 16506 H 1538.38 2.12391 -0.0195698 0
M  V30 16507 H 1540.64 0.946472 0.0538044 0
M  V30 16508 H 1540.35 3.42773 0.78736 0
M  V30 16509 H 1540.22 2.87088 2.44664 0
M  V30 16510 H 1542.61 1.89659 2.26083 0
M  V30 16511 H 1542.69 2.48782 0.595081 0
M  V30 16512 H 1542.33 4.86868 1.44644 0
M  V30 16513 H 1542.26 4.24641 3.11428 0
M  V30 16514 H 1544.75 3.26857 1.89665 0
M  V30 16515 H 1545.07 6.97609 3.32509 0
M  V30 16516 H 1543.41 6.27079 2.99661 0
M  V30 16517 H 1546.6 4.09037 2.27611 0
M  V30 16518 H 1546.77 5.78092 2.92769 0
M  V30 16519 N 1540.18 -0.899904 1.29381 0
M  V30 16520 C 1541.11 -2.00914 1.103 0
M  V30 16521 C 1542.13 -1.62721 0.050568 0
M  V30 16522 O 1543.31 -1.76044 0.295068 0
M  V30 16523 C 1540.41 -3.32473 0.656896 0
M  V30 16524 C 1539.59 -3.99195 1.7878 0
M  V30 16525 C 1538.65 -5.09043 1.33274 0
M  V30 16526 O 1537.67 -5.31486 2.03742 0
M  V30 16527 N 1538.87 -5.80143 0.203519 0
M  V30 16528 H 1541.64 -2.17838 2.05832 0
M  V30 16529 H 1539.2 -1.07208 1.21318 0
M  V30 16530 H 1541.19 -4.03305 0.335783 0
M  V30 16531 H 1539.76 -3.11921 -0.205959 0
M  V30 16532 H 1538.98 -3.21729 2.2778 0
M  V30 16533 H 1540.27 -4.40515 2.54606 0
M  V30 16534 H 1539.67 -5.64395 -0.384005 0
M  V30 16535 H 1538.23 -6.51774 -0.0582282 0
M  V30 16536 N 1541.66 -1.11854 -1.11024 0
M  V30 16537 C 1542.91 -0.868355 -1.82494 0
M  V30 16538 C 1543.23 0.607622 -1.85292 0
M  V30 16539 O 1542.5 1.44147 -1.32659 0
M  V30 16540 H 1541.08 -0.31826 -0.67581 0
M  V30 16541 H 1543.74 -1.4118 -1.34366 0
M  V30 16542 H 1542.84 -1.24441 -2.86218 0
M  V30 16543 N 1543.14 1.28707 -0.909517 0
M  V30 16544 C 1544.1 2.25692 -0.39946 0
M  V30 16545 C 1545.1 1.53721 0.471848 0
M  V30 16546 O 1546.29 1.72008 0.275504 0
M  V30 16547 C 1543.42 3.38205 0.427793 0
M  V30 16548 H 1544.61 2.72326 -1.25613 0
M  V30 16549 H 1542.17 1.40317 -0.688535 0
M  V30 16550 H 1542.9 2.96926 1.30404 0
M  V30 16551 H 1542.69 3.91606 -0.19667 0
M  V30 16552 H 1544.18 4.10334 0.775634 0
M  V30 16553 N 1544.61 0.673042 1.42506 0
M  V30 16554 C 1545.54 0.00755467 2.33499 0
M  V30 16555 C 1546.53 -0.791161 1.50581 0
M  V30 16556 O 1547.71 -0.748668 1.79189 0
M  V30 16557 C 1544.84 -0.945638 3.34178 0
M  V30 16558 C 1543.79 -0.25564 4.27236 0
M  V30 16559 C 1543.12 -1.32165 5.18109 0
M  V30 16560 C 1544.42 0.864254 5.151 0
M  V30 16561 H 1546.11 0.767487 2.89396 0
M  V30 16562 H 1543.66 0.370524 1.39151 0
M  V30 16563 H 1545.61 -1.42026 3.96745 0
M  V30 16564 H 1544.34 -1.73697 2.76581 0
M  V30 16565 H 1543 0.19873 3.66061 0
M  V30 16566 H 1542.64 -2.10492 4.56839 0
M  V30 16567 H 1542.34 -0.865109 5.81197 0
M  V30 16568 H 1543.87 -1.79724 5.83551 0
M  V30 16569 H 1545.28 0.470924 5.71363 0
M  V30 16570 H 1543.68 1.24648 5.87012 0
M  V30 16571 H 1544.75 1.71378 4.53605 0
M  V30 16572 N 1546.09 -1.52004 0.416254 0
M  V30 16573 C 1547 -2.30947 -0.412403 0
M  V30 16574 C 1548.02 -1.38969 -1.04707 0
M  V30 16575 O 1549.19 -1.72044 -1.04703 0
M  V30 16576 C 1546.26 -3.12078 -1.51024 0
M  V30 16577 C 1545.32 -4.19805 -0.897892 0
M  V30 16578 C 1544.55 -4.97059 -1.94341 0
M  V30 16579 O 1544.78 -4.74695 -3.16261 0
M  V30 16580 O 1543.71 -5.81715 -1.54567 0
M  V30 16581 H 1547.54 -3.02817 0.231473 0
M  V30 16582 H 1545.12 -1.4832 0.179283 0
M  V30 16583 H 1547 -3.6258 -2.14741 0
M  V30 16584 H 1545.68 -2.42995 -2.13858 0
M  V30 16585 H 1544.59 -3.73433 -0.223236 0
M  V30 16586 H 1545.92 -4.91201 -0.31336 0
M  V30 16587 N 1547.57 -0.146903 -1.56914 0
M  V30 16588 C 1548.5 0.788924 -2.19769 0
M  V30 16589 C 1549.48 1.25712 -1.14589 0
M  V30 16590 O 1550.67 1.3147 -1.42931 0
M  V30 16591 C 1547.8 2.02824 -2.81921 0
M  V30 16592 C 1546.75 1.69683 -3.92927 0
M  V30 16593 C 1546.08 3.00877 -4.42015 0
M  V30 16594 C 1547.38 0.943559 -5.13706 0
M  V30 16595 H 1549.07 0.265076 -2.98224 0
M  V30 16596 H 1546.62 0.126057 -1.43447 0
M  V30 16597 H 1548.57 2.68773 -3.2456 0
M  V30 16598 H 1547.29 2.57581 -2.00797 0
M  V30 16599 H 1545.95 1.06112 -3.50907 0
M  V30 16600 H 1545.6 3.53625 -3.57713 0
M  V30 16601 H 1545.3 2.79466 -5.16888 0
M  V30 16602 H 1546.82 3.67897 -4.87323 0
M  V30 16603 H 1548.24 1.50513 -5.5319 0
M  V30 16604 H 1546.64 0.829387 -5.94341 0
M  V30 16605 H 1547.71 -0.0647228 -4.84857 0
M  V30 16606 N 1549.05 1.57088 0.126881 0
M  V30 16607 C 1550.3 1.83624 0.834582 0
M  V30 16608 C 1550.61 0.731331 1.81414 0
M  V30 16609 O 1551.82 0.88286 2.56745 0
M  V30 16610 C 1550.27 3.25529 1.5349 0
M  V30 16611 C 1549.88 4.44008 0.59673 0
M  V30 16612 C 1551.62 3.6132 2.22819 0
M  V30 16613 C 1549.53 5.76939 1.29982 0
M  V30 16614 H 1548.46 0.684858 0.315414 0
M  V30 16615 H 1551.11 1.83292 0.087305 0
M  V30 16616 H 1549.49 3.20306 2.32852 0
M  V30 16617 H 1550.67 4.60511 -0.163109 0
M  V30 16618 H 1548.98 4.16399 0.0108081 0
M  V30 16619 H 1551.58 4.57902 2.76098 0
M  V30 16620 H 1551.92 2.88363 3.00254 0
M  V30 16621 H 1552.46 3.68291 1.50354 0
M  V30 16622 H 1549.2 6.53044 0.566925 0
M  V30 16623 H 1548.72 5.64336 2.03187 0
M  V30 16624 H 1550.39 6.20427 1.8352 0
M  V30 16625 N 1550.53 -0.396836 1.52522 0
M  V30 16626 C 1551.47 -1.48427 1.76743 0
M  V30 16627 C 1552.44 -1.54481 0.610321 0
M  V30 16628 O 1553.63 -1.7086 0.849201 0
M  V30 16629 C 1550.77 -2.85744 1.93505 0
M  V30 16630 C 1549.88 -2.88904 3.21183 0
M  V30 16631 C 1549.02 -4.17598 3.28307 0
M  V30 16632 C 1548.06 -4.14779 4.50138 0
M  V30 16633 N 1547.19 -5.35065 4.54587 0
M  V30 16634 H 1552.03 -1.27075 2.69548 0
M  V30 16635 H 1549.57 -0.61661 1.33553 0
M  V30 16636 H 1551.53 -3.65474 2.01208 0
M  V30 16637 H 1550.16 -3.05564 1.04069 0
M  V30 16638 H 1549.21 -2.01592 3.22591 0
M  V30 16639 H 1550.52 -2.82688 4.10961 0
M  V30 16640 H 1549.68 -5.05727 3.35149 0
M  V30 16641 H 1548.41 -4.26526 2.36489 0
M  V30 16642 H 1547.42 -3.25039 4.4343 0
M  V30 16643 H 1548.64 -4.07481 5.43264 0
M  V30 16644 H 1546.59 -5.44638 3.65658 0
M  V30 16645 H 1546.51 -5.30894 5.38227 0
M  V30 16646 H 1547.78 -6.25114 4.65675 0
M  V30 16647 N 1552.01 -1.43353 -0.654814 0
M  V30 16648 C 1552.95 -1.48387 -1.76776 0
M  V30 16649 C 1553.92 -0.333755 -1.62712 0
M  V30 16650 O 1555.11 -0.540683 -1.82979 0
M  V30 16651 C 1552.25 -1.41132 -3.14922 0
M  V30 16652 C 1551.36 -2.66336 -3.40131 0
M  V30 16653 C 1550.5 -2.5108 -4.68116 0
M  V30 16654 C 1549.53 -3.71561 -4.86425 0
M  V30 16655 N 1548.67 -3.55125 -6.05666 0
M  V30 16656 H 1553.51 -2.43487 -1.71808 0
M  V30 16657 H 1551.05 -1.20866 -0.838442 0
M  V30 16658 H 1553.01 -1.3492 -3.94782 0
M  V30 16659 H 1551.64 -0.496149 -3.18964 0
M  V30 16660 H 1550.69 -2.82834 -2.5438 0
M  V30 16661 H 1552 -3.55835 -3.49546 0
M  V30 16662 H 1551.15 -2.42567 -5.56099 0
M  V30 16663 H 1549.89 -1.59103 -4.61018 0
M  V30 16664 H 1548.9 -3.80484 -3.96877 0
M  V30 16665 H 1550.12 -4.64545 -4.95353 0
M  V30 16666 H 1548.07 -2.65881 -5.99703 0
M  V30 16667 H 1547.99 -4.38224 -6.16032 0
M  V30 16668 H 1549.25 -3.5046 -6.96274 0
M  V30 16669 N 1553.48 0.89303 -1.29857 0
M  V30 16670 C 1554.73 1.64088 -1.17981 0
M  V30 16671 C 1555.05 1.93156 0.267533 0
M  V30 16672 O 1554.32 1.56233 1.18186 0
M  V30 16673 H 1552.9 0.608241 -0.43365 0
M  V30 16674 H 1555.56 1.07042 -1.62874 0
M  V30 16675 H 1554.66 2.59446 -1.73477 0
M  V30 16676 N 1554.96 1.12442 1.10429 0
M  V30 16677 C 1556.19 0.901291 1.85904 0
M  V30 16678 C 1556.6 -0.552928 1.8094 0
M  V30 16679 O 1555.94 -1.39404 1.19633 0
M  V30 16680 C 1556 1.29808 3.35246 0
M  V30 16681 C 1555.67 2.76361 3.63969 0
M  V30 16682 C 1556.67 3.74553 3.60564 0
M  V30 16683 C 1554.35 3.13268 3.92643 0
M  V30 16684 C 1556.34 5.07667 3.85426 0
M  V30 16685 C 1554.03 4.46564 4.17162 0
M  V30 16686 C 1555.03 5.43572 4.13544 0
M  V30 16687 O 1554.72 6.74465 4.37439 0
M  V30 16688 H 1554.45 0.321969 0.5944 0
M  V30 16689 H 1557 1.49816 1.40514 0
M  V30 16690 H 1555.23 0.644416 3.81293 0
M  V30 16691 H 1556.92 1.04908 3.92108 0
M  V30 16692 H 1557.69 3.47385 3.3845 0
M  V30 16693 H 1553.57 2.3837 3.94589 0
M  V30 16694 H 1557.11 5.83375 3.82518 0
M  V30 16695 H 1553.01 4.73461 4.38754 0
M  V30 16696 H 1553.78 6.80412 4.54953 0
M  V30 16697 N 1556.44 -1.28223 0.91633 0
M  V30 16698 C 1557.67 -1.98986 0.566772 0
M  V30 16699 C 1558.08 -1.68455 -0.852553 0
M  V30 16700 O 1557.44 -0.938734 -1.56506 0
M  V30 16701 C 1557.49 -3.53217 0.769423 0
M  V30 16702 O 1557.21 -3.82674 2.1329 0
M  V30 16703 C 1558.71 -4.41238 0.427043 0
M  V30 16704 H 1555.93 -0.63534 0.215834 0
M  V30 16705 H 1558.48 -1.63357 1.23024 0
M  V30 16706 H 1556.63 -3.87098 0.152915 0
M  V30 16707 H 1557.05 -4.77302 2.17448 0
M  V30 16708 H 1558.52 -5.48512 0.619594 0
M  V30 16709 H 1559 -4.34558 -0.63686 0
M  V30 16710 H 1559.6 -4.12858 1.0212 0
M  V30 16711 N 1557.92 -0.68059 -1.42147 0
M  V30 16712 C 1558.85 0.0331442 -2.29176 0
M  V30 16713 C 1559.86 0.759652 -1.4399 0
M  V30 16714 O 1561.05 0.612846 -1.6765 0
M  V30 16715 C 1558.15 1.07077 -3.2154 0
M  V30 16716 C 1557.32 0.416914 -4.35409 0
M  V30 16717 C 1556.38 1.3551 -5.08452 0
M  V30 16718 O 1555.41 0.853198 -5.62769 0
M  V30 16719 N 1556.61 2.68815 -5.14508 0
M  V30 16720 H 1559.38 -0.713963 -2.91072 0
M  V30 16721 H 1556.94 -0.525451 -1.53136 0
M  V30 16722 H 1558.93 1.6998 -3.67272 0
M  V30 16723 H 1557.5 1.71955 -2.61056 0
M  V30 16724 H 1556.72 -0.391734 -3.92249 0
M  V30 16725 H 1558.01 -0.0383564 -5.08786 0
M  V30 16726 H 1557.41 3.12125 -4.71799 0
M  V30 16727 H 1555.96 3.26951 -5.63867 0
M  V30 16728 N 1559.4 1.51781 -0.424309 0
M  V30 16729 C 1560.33 2.25144 0.429274 0
M  V30 16730 C 1561.34 1.2867 0.997389 0
M  V30 16731 O 1562.53 1.54514 0.893746 0
M  V30 16732 C 1559.63 2.98156 1.61109 0
M  V30 16733 C 1558.8 4.21623 1.16417 0
M  V30 16734 C 1557.86 4.77327 2.21462 0
M  V30 16735 O 1556.89 5.39511 1.8143 0
M  V30 16736 N 1558.09 4.60221 3.53803 0
M  V30 16737 H 1560.85 2.99036 -0.199438 0
M  V30 16738 H 1558.42 1.59919 -0.252492 0
M  V30 16739 H 1560.41 3.32312 2.30978 0
M  V30 16740 H 1558.98 2.27356 2.14541 0
M  V30 16741 H 1558.2 3.93109 0.293034 0
M  V30 16742 H 1559.49 5.01772 0.842767 0
M  V30 16743 H 1558.88 4.10661 3.89068 0
M  V30 16744 H 1557.44 4.98774 4.19604 0
M  V30 16745 N 1560.87 0.155222 1.56834 0
M  V30 16746 C 1561.8 -0.777258 2.20184 0
M  V30 16747 C 1562.78 -1.25102 1.15254 0
M  V30 16748 O 1563.97 -1.3071 1.43627 0
M  V30 16749 C 1561.1 -2.01326 2.82993 0
M  V30 16750 C 1560.05 -1.67596 3.93822 0
M  V30 16751 C 1559.38 -2.98529 4.43604 0
M  V30 16752 C 1560.68 -0.916302 5.142 0
M  V30 16753 H 1562.37 -0.249257 2.98361 0
M  V30 16754 H 1559.92 -0.118448 1.43512 0
M  V30 16755 H 1561.87 -2.67048 3.2598 0
M  V30 16756 H 1560.6 -2.56513 2.0216 0
M  V30 16757 H 1559.26 -1.0425 3.51465 0
M  V30 16758 H 1558.9 -3.51723 3.59583 0
M  V30 16759 H 1558.6 -2.76721 5.18362 0
M  V30 16760 H 1560.13 -3.65308 4.89267 0
M  V30 16761 H 1561.54 -1.47577 5.5398 0
M  V30 16762 H 1559.94 -0.797856 5.94772 0
M  V30 16763 H 1561.01 0.0904351 4.84816 0
M  V30 16764 N 1562.35 -1.57153 -0.118549 0
M  V30 16765 C 1563.31 -1.99438 -1.12947 0
M  V30 16766 C 1564.31 -0.884588 -1.34282 0
M  V30 16767 O 1565.5 -1.15062 -1.30792 0
M  V30 16768 C 1562.64 -2.33492 -2.48384 0
M  V30 16769 H 1563.83 -2.89952 -0.766034 0
M  V30 16770 H 1561.38 -1.5203 -0.362858 0
M  V30 16771 H 1562.12 -1.45859 -2.89647 0
M  V30 16772 H 1561.9 -3.14433 -2.34252 0
M  V30 16773 H 1563.39 -2.66945 -3.21139 0
M  V30 16774 N 1563.83 0.388742 -1.5273 0
M  V30 16775 C 1565.08 1.13375 -1.67787 0
M  V30 16776 C 1565.4 1.89957 -0.417925 0
M  V30 16777 O 1564.66 1.86286 0.599682 0
M  V30 16778 C 1564.96 2.13792 -2.86405 0
M  V30 16779 C 1564.62 1.53865 -4.23835 0
M  V30 16780 C 1563.29 1.37248 -4.61212 0
M  V30 16781 C 1565.64 1.10298 -5.09395 0
M  V30 16782 C 1562.97 0.756119 -5.81807 0
M  V30 16783 C 1565.32 0.500723 -6.30615 0
M  V30 16784 C 1563.98 0.321851 -6.66724 0
M  V30 16785 H 1563.25 0.414868 -0.613975 0
M  V30 16786 H 1565.9 0.418351 -1.86874 0
M  V30 16787 H 1564.2 2.91551 -2.61735 0
M  V30 16788 H 1565.9 2.71346 -2.95249 0
M  V30 16789 H 1562.49 1.67787 -3.94393 0
M  V30 16790 H 1566.68 1.21938 -4.81087 0
M  V30 16791 H 1561.93 0.605734 -6.08392 0
M  V30 16792 H 1566.11 0.154839 -6.96228 0
M  V30 16793 H 1563.73 -0.157836 -7.60036 0
M  V30 16794 N 1565.31 1.43698 0.647203 0
M  V30 16795 C 1566.72 1.27231 0.963563 0
M  V30 16796 C 1566.92 0.196385 2.00541 0
M  V30 16797 O 1565.98 -0.423162 2.48929 0
M  V30 16798 C 1567.29 2.63863 1.44211 0
M  V30 16799 C 1568.84 2.71444 1.55844 0
M  V30 16800 C 1569.32 4.08508 2.07087 0
M  V30 16801 N 1570.81 4.10603 2.14381 0
M  V30 16802 C 1571.54 5.13496 2.55166 0
M  V30 16803 N 1571.04 6.26759 2.95203 0
M  V30 16804 N 1572.83 5.0085 2.55158 0
M  V30 16805 H 1564.98 2.12358 -0.0420956 0
M  V30 16806 H 1567.24 0.946989 0.0437628 0
M  V30 16807 H 1566.95 3.43589 0.75096 0
M  V30 16808 H 1566.82 2.89666 2.41605 0
M  V30 16809 H 1569.21 1.92046 2.24058 0
M  V30 16810 H 1569.29 2.49399 0.56866 0
M  V30 16811 H 1568.94 4.88375 1.39472 0
M  V30 16812 H 1568.87 4.2792 3.06907 0
M  V30 16813 H 1571.36 3.2885 1.86188 0
M  V30 16814 H 1571.67 7.01096 3.25091 0
M  V30 16815 H 1570.02 6.30222 2.92993 0
M  V30 16816 H 1573.21 4.11428 2.2326 0
M  V30 16817 H 1573.38 5.81165 2.86621 0
M  V30 16818 N 1566.79 -0.886131 1.30328 0
M  V30 16819 C 1567.72 -1.99733 1.12425 0
M  V30 16820 C 1568.73 -1.62659 0.067824 0
M  V30 16821 O 1569.92 -1.75721 0.313723 0
M  V30 16822 C 1567.02 -3.31757 0.692122 0
M  V30 16823 C 1566.19 -3.97276 1.83004 0
M  V30 16824 C 1565.25 -5.076 1.38666 0
M  V30 16825 O 1564.28 -5.29295 2.09368 0
M  V30 16826 N 1565.48 -5.79895 0.265039 0
M  V30 16827 H 1568.25 -2.15643 2.0813 0
M  V30 16828 H 1565.81 -1.05915 1.22449 0
M  V30 16829 H 1567.8 -4.02926 0.37854 0
M  V30 16830 H 1566.37 -3.12122 -0.172864 0
M  V30 16831 H 1565.59 -3.19295 2.3118 0
M  V30 16832 H 1566.88 -4.37789 2.59264 0
M  V30 16833 H 1566.27 -5.64771 -0.324121 0
M  V30 16834 H 1564.83 -6.51799 0.0109044 0
M  V30 16835 N 1568.26 -1.13026 -1.09832 0
M  V30 16836 C 1569.68 -0.902826 -1.6342 0
M  V30 16837 C 1570.03 0.561547 -1.87992 0
M  V30 16838 O 1569.15 1.42735 -1.62652 0
M  V30 16839 C 1569.75 -1.6324 -2.96881 0
M  V30 16840 C 1568.31 -1.45095 -3.4731 0
M  V30 16841 C 1567.45 -1.66431 -2.21802 0
M  V30 16842 H 1570.4 -1.28414 -0.932492 0
M  V30 16843 H 1570.42 -1.08706 -3.64641 0
M  V30 16844 H 1569.94 -2.69816 -2.78964 0
M  V30 16845 H 1568.04 -0.408031 -3.70359 0
M  V30 16846 H 1568.15 -2.21123 -4.25019 0
M  V30 16847 H 1566.51 -1.08885 -2.30252 0
M  V30 16848 H 1567.3 -2.74317 -2.0641 0
M  V30 16849 N 1569.74 1.27735 -0.923117 0
M  V30 16850 C 1570.97 1.9922 -0.57672 0
M  V30 16851 C 1571.39 1.68446 0.837113 0
M  V30 16852 O 1570.75 0.922129 1.56098 0
M  V30 16853 C 1570.8 3.51528 -0.803768 0
M  V30 16854 O 1569.9 4.12186 0.132829 0
M  V30 16855 H 1569.24 0.625593 -0.222553 0
M  V30 16856 H 1571.77 1.62657 -1.24112 0
M  V30 16857 H 1571.78 4.01641 -0.717534 0
M  V30 16858 H 1570.46 3.7326 -1.83439 0
M  V30 16859 H 1569.04 3.729 -0.00292957 0
M  V30 16860 N 1571.22 0.688118 1.41784 0
M  V30 16861 C 1572.45 0.223231 2.06195 0
M  V30 16862 C 1572.87 -1.11601 1.51416 0
M  V30 16863 O 1572.23 -1.69701 0.638059 0
M  V30 16864 C 1572.28 0.183257 3.60134 0
M  V30 16865 O 1571.38 -0.844186 4.03667 0
M  V30 16866 H 1570.72 0.110925 0.654669 0
M  V30 16867 H 1573.25 0.940882 1.81683 0
M  V30 16868 H 1573.26 0.0115951 4.07998 0
M  V30 16869 H 1571.94 1.16072 3.99375 0
M  V30 16870 H 1570.51 -0.642484 3.67323 0
M  V30 16871 N 1572.7 -1.51554 0.432352 0
M  V30 16872 C 1573.66 -2.26195 -0.369912 0
M  V30 16873 C 1574.66 -1.29446 -0.953961 0
M  V30 16874 O 1575.85 -1.53199 -0.829193 0
M  V30 16875 C 1572.98 -3.04993 -1.52289 0
M  V30 16876 H 1574.18 -2.98551 0.284173 0
M  V30 16877 H 1571.73 -1.55197 0.1854 0
M  V30 16878 H 1572.46 -2.37043 -2.21317 0
M  V30 16879 H 1572.25 -3.76051 -1.11032 0
M  V30 16880 H 1573.74 -3.61547 -2.08982 0
M  V30 16881 N 1574.18 -0.163538 -1.56749 0
M  V30 16882 C 1575.42 0.483404 -1.96646 0
M  V30 16883 C 1575.75 1.63776 -1.04918 0
M  V30 16884 O 1575.01 1.95529 -0.0816828 0
M  V30 16885 C 1575.31 1.0153 -3.42675 0
M  V30 16886 C 1574.97 -0.0223402 -4.50894 0
M  V30 16887 C 1573.63 -0.30754 -4.80216 0
M  V30 16888 C 1575.99 -0.727064 -5.16104 0
M  V30 16889 C 1573.31 -1.30299 -5.72048 0
M  V30 16890 C 1575.67 -1.71144 -6.09009 0
M  V30 16891 C 1574.33 -2.00417 -6.36702 0
M  V30 16892 H 1573.6 0.17689 -0.719577 0
M  V30 16893 H 1576.25 -0.253859 -1.8981 0
M  V30 16894 H 1574.55 1.83023 -3.46425 0
M  V30 16895 H 1576.25 1.52472 -3.70882 0
M  V30 16896 H 1572.84 0.210124 -4.28085 0
M  V30 16897 H 1577.02 -0.519934 -4.93569 0
M  V30 16898 H 1572.28 -1.53604 -5.9179 0
M  V30 16899 H 1576.45 -2.26292 -6.58608 0
M  V30 16900 H 1574.08 -2.77701 -7.07663 0
M  V30 16901 N 1575.65 1.57214 0.110213 0
M  V30 16902 C 1576.62 2.00034 1.11888 0
M  V30 16903 C 1577.62 0.891697 1.33811 0
M  V30 16904 O 1578.81 1.15754 1.3018 0
M  V30 16905 C 1575.94 2.34806 2.47142 0
M  V30 16906 H 1577.13 2.90354 0.750647 0
M  V30 16907 H 1574.69 1.5222 0.35479 0
M  V30 16908 H 1575.42 1.47393 2.8887 0
M  V30 16909 H 1575.21 3.15671 2.32581 0
M  V30 16910 H 1576.7 2.68644 3.19719 0
M  V30 16911 N 1577.13 -0.380637 1.52934 0
M  V30 16912 C 1578.1 -1.44819 1.77652 0
M  V30 16913 C 1579.1 -1.47224 0.646657 0
M  V30 16914 O 1580.29 -1.48248 0.91477 0
M  V30 16915 C 1577.42 -2.8405 1.8849 0
M  V30 16916 H 1578.61 -1.24183 2.72981 0
M  V30 16917 H 1576.16 -0.61288 1.43783 0
M  V30 16918 H 1576.9 -3.1002 0.951751 0
M  V30 16919 H 1576.68 -2.83704 2.70655 0
M  V30 16920 H 1578.17 -3.61388 2.09257 0
M  V30 16921 N 1578.61 -1.44039 -0.639573 0
M  V30 16922 C 1579.86 -1.46377 -1.39928 0
M  V30 16923 C 1580.19 -0.0931685 -1.94277 0
M  V30 16924 O 1579.44 0.903841 -1.73578 0
M  V30 16925 C 1579.74 -2.46459 -2.5883 0
M  V30 16926 C 1579.41 -3.91998 -2.2282 0
M  V30 16927 C 1578.07 -4.31633 -2.12712 0
M  V30 16928 C 1580.42 -4.83656 -1.94232 0
M  V30 16929 C 1577.75 -5.60863 -1.72191 0
M  V30 16930 C 1580.1 -6.13265 -1.55206 0
M  V30 16931 C 1578.76 -6.51863 -1.43633 0
M  V30 16932 H 1578.03 -0.535633 -0.512034 0
M  V30 16933 H 1580.68 -1.77202 -0.72607 0
M  V30 16934 H 1578.99 -2.09087 -3.31345 0
M  V30 16935 H 1580.68 -2.45518 -3.17052 0
M  V30 16936 H 1577.27 -3.60636 -2.31602 0
M  V30 16937 H 1581.46 -4.53796 -2.00955 0
M  V30 16938 H 1576.71 -5.89595 -1.61828 0
M  V30 16939 H 1580.89 -6.83752 -1.32121 0
M  V30 16940 H 1578.51 -7.51903 -1.12006 0
M  V30 16941 N 1580.09 0.879207 -1.30796 0
M  V30 16942 C 1581.33 1.63392 -1.20129 0
M  V30 16943 C 1581.67 1.92684 0.242164 0
M  V30 16944 O 1580.94 1.55188 1.17247 0
M  V30 16945 C 1581.23 2.97005 -2.03618 0
M  V30 16946 C 1581.08 2.74649 -3.56214 0
M  V30 16947 C 1582.4 3.97998 -1.87845 0
M  V30 16948 H 1579.52 0.592911 -0.437751 0
M  V30 16949 H 1582.16 1.017 -1.6049 0
M  V30 16950 H 1580.31 3.49659 -1.69326 0
M  V30 16951 H 1581.98 2.28738 -4.00595 0
M  V30 16952 H 1580.22 2.09048 -3.80107 0
M  V30 16953 H 1580.89 3.69681 -4.09927 0
M  V30 16954 H 1583.37 3.54523 -2.17836 0
M  V30 16955 H 1582.25 4.89388 -2.48578 0
M  V30 16956 H 1582.51 4.34062 -0.839183 0
M  V30 16957 N 1581.57 1.13606 1.09231 0
M  V30 16958 C 1582.51 0.815279 2.15921 0
M  V30 16959 C 1583.48 -0.223501 1.64589 0
M  V30 16960 O 1584.67 -0.0952982 1.90562 0
M  V30 16961 C 1581.81 0.289655 3.43882 0
M  V30 16962 C 1580.92 1.38773 4.09104 0
M  V30 16963 C 1580.06 0.820238 5.24829 0
M  V30 16964 C 1579.1 1.89658 5.81976 0
M  V30 16965 N 1578.23 1.34688 6.8906 0
M  V30 16966 H 1583.07 1.72914 2.42703 0
M  V30 16967 H 1580.61 0.863101 1.19117 0
M  V30 16968 H 1582.57 -0.0332398 4.17187 0
M  V30 16969 H 1581.2 -0.587329 3.17412 0
M  V30 16970 H 1580.25 1.82718 3.33644 0
M  V30 16971 H 1581.56 2.20114 4.47606 0
M  V30 16972 H 1580.72 0.448745 6.05038 0
M  V30 16973 H 1579.46 -0.0242261 4.87694 0
M  V30 16974 H 1578.46 2.27712 5.00427 0
M  V30 16975 H 1579.69 2.74448 6.21172 0
M  V30 16976 H 1577.63 0.524453 6.539 0
M  V30 16977 H 1577.55 2.09675 7.26342 0
M  V30 16978 H 1578.82 1.00302 7.7302 0
M  V30 16979 N 1583.05 -1.27244 0.929878 0
M  V30 16980 C 1584.46 -1.4662 0.630451 0
M  V30 16981 C 1584.66 -1.84077 -0.819633 0
M  V30 16982 O 1583.72 -1.95555 -1.59733 0
M  V30 16983 C 1585.03 -2.55709 1.58219 0
M  V30 16984 C 1586.58 -2.69569 1.59065 0
M  V30 16985 C 1587.05 -3.81818 2.52941 0
M  V30 16986 N 1588.54 -3.89195 2.51161 0
M  V30 16987 C 1589.28 -4.75474 3.20488 0
M  V30 16988 N 1588.78 -5.66225 3.99201 0
M  V30 16989 N 1590.57 -4.69222 3.09495 0
M  V30 16990 H 1582.72 -1.01216 1.86733 0
M  V30 16991 H 1584.98 -0.505737 0.801832 0
M  V30 16992 H 1584.69 -2.34985 2.61677 0
M  V30 16993 H 1584.56 -3.53141 1.32556 0
M  V30 16994 H 1586.95 -2.89672 0.563375 0
M  V30 16995 H 1587.03 -1.72616 1.88778 0
M  V30 16996 H 1586.67 -3.62467 3.55781 0
M  V30 16997 H 1586.6 -4.78202 2.20524 0
M  V30 16998 H 1589.1 -3.24305 1.93997 0
M  V30 16999 H 1589.41 -6.28925 4.4908 0
M  V30 17000 H 1587.75 -5.66013 4.03304 0
M  V30 17001 H 1590.94 -3.97322 2.47493 0
M  V30 17002 H 1591.12 -5.36244 3.63794 0
M  V30 17003 N 1584.52 -0.695628 -1.41417 0
M  V30 17004 C 1585.49 -0.0392949 -2.29166 0
M  V30 17005 C 1586.49 0.70789 -1.4438 0
M  V30 17006 O 1587.68 0.542771 -1.65528 0
M  V30 17007 C 1584.81 0.954719 -3.27258 0
M  V30 17008 H 1586 -0.811902 -2.88701 0
M  V30 17009 H 1583.55 -0.459128 -1.49405 0
M  V30 17010 H 1584.29 1.75509 -2.72703 0
M  V30 17011 H 1584.07 0.422079 -3.89822 0
M  V30 17012 H 1585.56 1.41174 -3.93014 0
M  V30 17013 N 1586 1.51322 -0.440383 0
M  V30 17014 C 1587.41 1.86687 0.0220272 0
M  V30 17015 C 1587.76 1.35734 1.41671 0
M  V30 17016 O 1586.89 0.709408 2.04442 0
M  V30 17017 C 1587.48 3.38768 0.0467477 0
M  V30 17018 C 1586.04 3.73657 0.45358 0
M  V30 17019 C 1585.19 2.7506 -0.351779 0
M  V30 17020 H 1588.14 1.44503 -0.65609 0
M  V30 17021 H 1588.16 3.70756 0.855589 0
M  V30 17022 H 1587.67 3.75823 -0.968451 0
M  V30 17023 H 1585.77 3.42193 1.47427 0
M  V30 17024 H 1585.89 4.78776 0.176262 0
M  V30 17025 H 1584.25 2.53988 0.190334 0
M  V30 17026 H 1585.03 3.14957 -1.36591 0
M  V30 17027 N 1587.48 0.171848 1.5666 0
M  V30 17028 C 1588.7 -0.482396 2.01712 0
M  V30 17029 C 1589.13 -1.5598 1.05128 0
M  V30 17030 O 1588.49 -1.81274 0.0309178 0
M  V30 17031 C 1588.54 -1.03716 3.45363 0
M  V30 17032 O 1587.64 -2.15114 3.51852 0
M  V30 17033 H 1586.98 -0.115439 0.653888 0
M  V30 17034 H 1589.51 0.275895 2.02731 0
M  V30 17035 H 1589.52 -1.35964 3.84679 0
M  V30 17036 H 1588.2 -0.24832 4.15158 0
M  V30 17037 H 1586.77 -1.83907 3.24396 0
M  V30 17038 N 1588.96 -1.5727 -0.101874 0
M  V30 17039 C 1590.19 -1.89943 -0.820329 0
M  V30 17040 C 1590.6 -0.764867 -1.72613 0
M  V30 17041 O 1589.96 0.263499 -1.80588 0
M  V30 17042 C 1590.01 -3.2219 -1.63939 0
M  V30 17043 O 1589.73 -4.31279 -0.770039 0
M  V30 17044 C 1591.23 -3.6868 -2.46151 0
M  V30 17045 H 1588.45 -0.628532 -0.234922 0
M  V30 17046 H 1590.99 -2.04339 -0.0811362 0
M  V30 17047 H 1589.15 -3.09411 -2.33117 0
M  V30 17048 H 1589.56 -5.07182 -1.33665 0
M  V30 17049 H 1591.04 -4.63928 -2.99124 0
M  V30 17050 H 1591.51 -2.96183 -3.24303 0
M  V30 17051 H 1592.12 -3.84303 -1.82185 0
M  V30 17052 N 1590.44 0.372521 -1.53134 0
M  V30 17053 C 1591.68 1.11405 -1.70178 0
M  V30 17054 C 1592.04 1.87194 -0.444559 0
M  V30 17055 O 1591.33 1.83165 0.562249 0
M  V30 17056 C 1591.52 2.10742 -2.88656 0
M  V30 17057 C 1591.35 1.44713 -4.25779 0
M  V30 17058 C 1590.12 1.2042 -4.90741 0
M  V30 17059 C 1592.32 0.888496 -5.06567 0
M  V30 17060 N 1590.3 0.506685 -6.11805 0
M  V30 17061 C 1591.67 0.319961 -6.19174 0
M  V30 17062 C 1593.73 0.786508 -4.91649 0
M  V30 17063 C 1592.43 -0.340609 -7.18493 0
M  V30 17064 C 1594.46 0.139732 -5.91235 0
M  V30 17065 C 1593.82 -0.41796 -7.03159 0
M  V30 17066 H 1589.92 0.393051 -0.676044 0
M  V30 17067 H 1592.5 0.401356 -1.90518 0
M  V30 17068 H 1590.67 2.79332 -2.69867 0
M  V30 17069 H 1592.41 2.77522 -2.94557 0
M  V30 17070 H 1589.16 1.48362 -4.49762 0
M  V30 17071 H 1589.58 0.173493 -6.76778 0
M  V30 17072 H 1594.23 1.20345 -4.05311 0
M  V30 17073 H 1591.94 -0.769521 -8.04428 0
M  V30 17074 H 1595.53 0.0618412 -5.81767 0
M  V30 17075 H 1594.41 -0.910519 -7.78896 0
M  V30 17076 N 1591.91 1.44376 0.631925 0
M  V30 17077 C 1592.84 1.54005 1.75512 0
M  V30 17078 C 1593.82 0.393126 1.65495 0
M  V30 17079 O 1595.01 0.613143 1.84267 0
M  V30 17080 C 1592.14 1.48313 3.14039 0
M  V30 17081 C 1591.09 2.61474 3.38844 0
M  V30 17082 C 1590.42 2.40834 4.77392 0
M  V30 17083 C 1591.72 4.03627 3.31485 0
M  V30 17084 H 1593.41 2.48019 1.6771 0
M  V30 17085 H 1590.96 1.19368 0.80543 0
M  V30 17086 H 1592.91 1.5365 3.9239 0
M  V30 17087 H 1591.64 0.508152 3.22623 0
M  V30 17088 H 1590.3 2.55525 2.62874 0
M  V30 17089 H 1589.94 1.4153 4.82678 0
M  V30 17090 H 1589.64 3.16703 4.94947 0
M  V30 17091 H 1591.17 2.47988 5.57974 0
M  V30 17092 H 1592.58 4.1095 3.99741 0
M  V30 17093 H 1590.98 4.79694 3.60574 0
M  V30 17094 H 1592.05 4.27255 2.29307 0
M  V30 17095 N 1593.39 -0.872258 1.31261 0
M  V30 17096 C 1594.62 -1.65795 1.23772 0
M  V30 17097 C 1595.03 -1.87766 -0.197351 0
M  V30 17098 O 1594.39 -1.43418 -1.1286 0
M  V30 17099 C 1594.44 -3.02722 1.9759 0
M  V30 17100 O 1594.16 -2.81734 3.35496 0
M  V30 17101 C 1595.66 -3.97165 1.96913 0
M  V30 17102 H 1592.88 -0.516959 0.427778 0
M  V30 17103 H 1595.43 -1.0889 1.73099 0
M  V30 17104 H 1593.58 -3.56322 1.5203 0
M  V30 17105 H 1594 -3.6869 3.73052 0
M  V30 17106 H 1595.47 -4.90566 2.53079 0
M  V30 17107 H 1595.95 -4.28778 0.951089 0
M  V30 17108 H 1596.55 -3.495 2.42342 0
M  V30 17109 N 1594.87 -1.14184 -1.08627 0
M  V30 17110 C 1595.83 -0.82954 -2.13662 0
M  V30 17111 C 1596.83 0.164794 -1.59953 0
M  V30 17112 O 1598.02 -0.0632831 -1.74085 0
M  V30 17113 C 1595.15 -0.236176 -3.40081 0
M  V30 17114 H 1596.35 -1.76038 -2.42797 0
M  V30 17115 H 1593.9 -0.947568 -1.24301 0
M  V30 17116 H 1594.64 0.70349 -3.16578 0
M  V30 17117 H 1594.42 -0.952341 -3.80359 0
M  V30 17118 H 1595.91 -0.03481 -4.17585 0
M  V30 17119 N 1596.35 1.26749 -0.936613 0
M  V30 17120 C 1597.58 1.97772 -0.597489 0
M  V30 17121 C 1597.99 1.69984 0.830796 0
M  V30 17122 O 1597.33 0.962037 1.56495 0
M  V30 17123 C 1597.39 3.51497 -0.754307 0
M  V30 17124 C 1597.06 4.02926 -2.15637 0
M  V30 17125 C 1598.05 4.15016 -3.13141 0
M  V30 17126 C 1595.74 4.37051 -2.47572 0
M  V30 17127 C 1597.73 4.60518 -4.40683 0
M  V30 17128 C 1595.42 4.82242 -3.75347 0
M  V30 17129 C 1596.42 4.93936 -4.71716 0
M  V30 17130 O 1596.1 5.38133 -5.97217 0
M  V30 17131 H 1595.84 0.637664 -0.224412 0
M  V30 17132 H 1598.39 1.62341 -1.25836 0
M  V30 17133 H 1596.62 3.86683 -0.0363189 0
M  V30 17134 H 1598.31 4.03732 -0.418921 0
M  V30 17135 H 1599.08 3.88903 -2.89792 0
M  V30 17136 H 1594.95 4.27186 -1.733 0
M  V30 17137 H 1598.5 4.69561 -5.15906 0
M  V30 17138 H 1594.4 5.07799 -3.98511 0
M  V30 17139 H 1595.16 5.56365 -6.00334 0
M  V30 17140 N 1597.83 0.703118 1.41046 0
M  V30 17141 C 1599.07 0.237638 2.01403 0
M  V30 17142 C 1599.41 -1.16217 1.55587 0
M  V30 17143 O 1598.68 -1.78593 0.770377 0
M  V30 17144 C 1598.96 0.303738 3.58817 0
M  V30 17145 C 1598.82 1.74103 4.14739 0
M  V30 17146 C 1600.14 -0.332186 4.38845 0
M  V30 17147 H 1597.25 0.0878243 0.731749 0
M  V30 17148 H 1599.9 0.893264 1.67693 0
M  V30 17149 H 1598.05 -0.254485 3.87666 0
M  V30 17150 H 1599.72 2.35368 3.96736 0
M  V30 17151 H 1597.96 2.27277 3.69496 0
M  V30 17152 H 1598.63 1.73876 5.239 0
M  V30 17153 H 1601.11 0.143312 4.15853 0
M  V30 17154 H 1599.98 -0.255429 5.48305 0
M  V30 17155 H 1600.25 -1.41397 4.18878 0
M  V30 17156 N 1599.3 -1.51086 0.448402 0
M  V30 17157 C 1600.55 -2.02476 -0.114511 0
M  V30 17158 C 1600.88 -1.33126 -1.4139 0
M  V30 17159 O 1600.16 -0.449665 -1.89231 0
M  V30 17160 C 1600.44 -3.58659 -0.321842 0
M  V30 17161 C 1600.29 -4.38612 0.996975 0
M  V30 17162 C 1601.61 -4.26473 -1.08667 0
M  V30 17163 H 1598.73 -0.735906 -0.0401431 0
M  V30 17164 H 1601.37 -1.80622 0.589563 0
M  V30 17165 H 1599.52 -3.77411 -0.92157 0
M  V30 17166 H 1601.2 -4.31484 1.63154 0
M  V30 17167 H 1599.44 -4.03255 1.599 0
M  V30 17168 H 1600.11 -5.46087 0.805817 0
M  V30 17169 H 1602.59 -4.12058 -0.578559 0
M  V30 17170 H 1601.46 -5.35611 -1.20051 0
M  V30 17171 H 1601.72 -3.88086 -2.11758 0
M  V30 17172 N 1600.78 -0.180154 -1.56567 0
M  V30 17173 C 1601.73 0.746666 -2.18389 0
M  V30 17174 C 1602.7 1.22058 -1.12655 0
M  V30 17175 O 1603.88 1.28716 -1.40843 0
M  V30 17176 C 1601.02 1.96688 -2.83563 0
M  V30 17177 C 1600.14 1.53572 -4.03782 0
M  V30 17178 C 1599.27 2.71028 -4.56856 0
M  V30 17179 C 1598.31 2.24445 -5.69465 0
M  V30 17180 N 1597.45 3.35026 -6.17011 0
M  V30 17181 H 1602.29 0.212707 -2.9724 0
M  V30 17182 H 1599.83 0.093256 -1.46804 0
M  V30 17183 H 1601.78 2.68269 -3.19511 0
M  V30 17184 H 1600.41 2.4744 -2.073 0
M  V30 17185 H 1599.47 0.716323 -3.73595 0
M  V30 17186 H 1600.78 1.15385 -4.85271 0
M  V30 17187 H 1599.93 3.50753 -4.95032 0
M  V30 17188 H 1598.67 3.1248 -3.74443 0
M  V30 17189 H 1597.68 1.43169 -5.30832 0
M  V30 17190 H 1598.9 1.84041 -6.53686 0
M  V30 17191 H 1596.85 3.76037 -5.37524 0
M  V30 17192 H 1596.76 3.0096 -6.93512 0
M  V30 17193 H 1598.03 4.15009 -6.59839 0
M  V30 17194 N 1602.26 1.57322 0.0935319 0
M  V30 17195 C 1603.51 1.86443 0.797919 0
M  V30 17196 C 1603.84 0.769491 1.78304 0
M  V30 17197 O 1603.11 -0.222383 1.93225 0
M  V30 17198 C 1603.4 3.26201 1.52528 0
M  V30 17199 C 1603.25 4.46325 0.558031 0
M  V30 17200 C 1604.57 3.63879 2.47548 0
M  V30 17201 H 1601.69 0.678136 0.288618 0
M  V30 17202 H 1604.33 1.899 0.0615161 0
M  V30 17203 H 1602.48 3.23385 2.15301 0
M  V30 17204 H 1604.15 4.61257 -0.0628154 0
M  V30 17205 H 1602.4 4.3361 -0.128462 0
M  V30 17206 H 1603.07 5.40845 1.10413 0
M  V30 17207 H 1605.54 3.6765 1.94866 0
M  V30 17208 H 1604.42 4.62598 2.95456 0
M  V30 17209 H 1604.68 2.92647 3.31376 0
M  V30 17210 N 1603.74 -0.364395 1.53329 0
M  V30 17211 C 1604.99 -1.10691 1.69569 0
M  V30 17212 C 1605.31 -1.89268 0.448093 0
M  V30 17213 O 1604.57 -1.87216 -0.56997 0
M  V30 17214 C 1604.87 -2.09208 2.8977 0
M  V30 17215 C 1604.53 -1.47103 4.26229 0
M  V30 17216 C 1603.2 -1.29893 4.63337 0
M  V30 17217 C 1605.55 -1.0218 5.11086 0
M  V30 17218 C 1602.88 -0.663463 5.82937 0
M  V30 17219 C 1605.23 -0.400334 6.31332 0
M  V30 17220 C 1603.89 -0.21574 6.67151 0
M  V30 17221 H 1603.16 -0.405048 0.620498 0
M  V30 17222 H 1605.81 -0.388568 1.87516 0
M  V30 17223 H 1604.11 -2.8735 2.6634 0
M  V30 17224 H 1605.81 -2.66615 2.99529 0
M  V30 17225 H 1602.4 -1.61491 3.97012 0
M  V30 17226 H 1606.58 -1.14269 4.82966 0
M  V30 17227 H 1601.84 -0.508867 6.09279 0
M  V30 17228 H 1606.01 -0.0440554 6.96386 0
M  V30 17229 H 1603.64 0.278732 7.59689 0
M  V30 17230 N 1605.22 -1.44709 -0.62426 0
M  V30 17231 C 1606.44 -1.51573 -1.41564 0
M  V30 17232 C 1606.87 -0.143806 -1.87549 0
M  V30 17233 O 1606.22 0.868361 -1.59151 0
M  V30 17234 C 1606.27 -2.49085 -2.60747 0
M  V30 17235 O 1605.38 -1.99712 -3.60817 0
M  V30 17236 H 1604.72 -0.51157 -0.423311 0
M  V30 17237 H 1607.25 -1.89908 -0.761316 0
M  V30 17238 H 1607.26 -2.67346 -3.08205 0
M  V30 17239 H 1605.93 -3.48733 -2.26624 0
M  V30 17240 H 1604.51 -1.9125 -3.20122 0
M  V30 17241 N 1606.69 0.865285 -1.31722 0
M  V30 17242 C 1607.62 1.98871 -1.22362 0
M  V30 17243 C 1608.61 1.69745 -0.109779 0
M  V30 17244 O 1609.79 1.91944 -0.295167 0
M  V30 17245 C 1606.92 3.34477 -0.935 0
M  V30 17246 C 1605.87 3.77924 -2.00892 0
M  V30 17247 C 1605.2 5.11042 -1.57291 0
M  V30 17248 C 1606.5 3.94528 -3.42264 0
M  V30 17249 H 1608.19 2.06959 -2.16352 0
M  V30 17250 H 1605.74 0.994355 -1.04157 0
M  V30 17251 H 1607.69 4.12612 -0.856111 0
M  V30 17252 H 1606.42 3.26575 0.0405536 0
M  V30 17253 H 1605.08 3.02032 -2.07779 0
M  V30 17254 H 1604.72 4.99586 -0.585084 0
M  V30 17255 H 1604.42 5.41082 -2.29138 0
M  V30 17256 H 1605.95 5.91681 -1.50818 0
M  V30 17257 H 1607.36 4.63045 -3.38027 0
M  V30 17258 H 1605.76 4.35972 -4.12369 0
M  V30 17259 H 1606.83 2.97765 -3.82706 0
M  V30 17260 N 1608.17 1.14759 1.0802 0
M  V30 17261 C 1609.14 0.840859 2.13219 0
M  V30 17262 C 1610.14 -0.156309 1.60038 0
M  V30 17263 O 1611.33 0.0725143 1.74049 0
M  V30 17264 C 1608.46 0.254208 3.39951 0
M  V30 17265 H 1609.65 1.77323 2.4186 0
M  V30 17266 H 1607.2 0.954146 1.23797 0
M  V30 17267 H 1607.94 -0.686692 3.16946 0
M  V30 17268 H 1607.72 0.972499 3.79848 0
M  V30 17269 H 1609.21 0.0569551 4.17561 0
M  V30 17270 N 1609.65 -1.26251 0.943322 0
M  V30 17271 C 1610.9 -1.93939 0.592909 0
M  V30 17272 C 1611.23 -1.73814 -0.866155 0
M  V30 17273 O 1610.5 -1.07645 -1.61997 0
M  V30 17274 C 1610.79 -3.47653 0.938601 0
M  V30 17275 C 1610.64 -3.77053 2.45257 0
M  V30 17276 C 1611.96 -4.37736 0.455546 0
M  V30 17277 H 1609.08 -0.704367 0.21688 0
M  V30 17278 H 1611.72 -1.4908 1.17793 0
M  V30 17279 H 1609.87 -3.85992 0.440756 0
M  V30 17280 H 1611.54 -3.48417 3.0233 0
M  V30 17281 H 1609.79 -3.23055 2.89513 0
M  V30 17282 H 1610.46 -4.84506 2.64495 0
M  V30 17283 H 1612.93 -4.06635 0.882435 0
M  V30 17284 H 1611.81 -5.44075 0.72623 0
M  V30 17285 H 1612.07 -4.37377 -0.644508 0
M  V30 17286 N 1611.13 -0.710588 -1.40671 0
M  V30 17287 C 1612.08 -0.043614 -2.32559 0
M  V30 17288 C 1613.07 0.752425 -1.51773 0
M  V30 17289 O 1614.28 0.656356 -1.67607 0
M  V30 17290 H 1610.65 0.00469865 -0.751985 0
M  V30 17291 H 1612.62 -0.835399 -2.86468 0
M  V30 17292 C 1611.37 0.867796 -3.36697 0
M  V30 17293 H 1610.7 0.264667 -3.98923 0
M  V30 17294 H 1612.14 1.30252 -4.03498 0
M  V30 17295 C 1610.59 1.99094 -2.71778 0
M  V30 17296 O 1611.12 3.08129 -2.5772 0
M  V30 17297 N 1609.33 1.77309 -2.30239 0
M  V30 17298 H 1608.88 0.886325 -2.41872 0
M  V30 17299 H 1608.84 2.52639 -1.87139 0
M  V30 17300 N 1612.61 1.50847 -0.456408 0
M  V30 17301 C 1613.54 2.31077 0.335523 0
M  V30 17302 C 1614.52 1.37326 1.00377 0
M  V30 17303 O 1615.7 1.66247 1.00376 0
M  V30 17304 C 1612.83 3.16662 1.42627 0
M  V30 17305 C 1611.79 4.18846 0.88045 0
M  V30 17306 C 1611.11 4.93074 2.06838 0
M  V30 17307 C 1612.41 5.22208 -0.0982288 0
M  V30 17308 H 1614.11 2.97531 -0.334056 0
M  V30 17309 H 1611.65 1.43085 -0.162099 0
M  V30 17310 H 1613.61 3.71578 1.98765 0
M  V30 17311 H 1612.33 2.48066 2.12441 0
M  V30 17312 H 1610.99 3.65009 0.341147 0
M  V30 17313 H 1610.64 4.20963 2.75316 0
M  V30 17314 H 1610.34 5.62184 1.70947 0
M  V30 17315 H 1611.86 5.5082 2.63494 0
M  V30 17316 H 1613.28 5.72082 0.373481 0
M  V30 17317 H 1611.67 5.98954 -0.370674 0
M  V30 17318 H 1612.74 4.73859 -1.02887 0
M  V30 17319 N 1614.09 0.188454 1.56469 0
M  V30 17320 C 1615.33 -0.452238 1.96565 0
M  V30 17321 C 1615.65 -1.63219 1.07792 0
M  V30 17322 O 1616.85 -2.34024 1.37641 0
M  V30 17323 C 1615.31 -0.855966 3.49573 0
M  V30 17324 C 1614.92 0.299329 4.46999 0
M  V30 17325 C 1616.66 -1.46411 3.98452 0
M  V30 17326 C 1614.57 -0.124987 5.91268 0
M  V30 17327 H 1613.5 -0.172729 0.733949 0
M  V30 17328 H 1616.15 0.279415 1.8136 0
M  V30 17329 H 1614.53 -1.64409 3.60258 0
M  V30 17330 H 1615.71 1.07681 4.48042 0
M  V30 17331 H 1614.02 0.818542 4.08275 0
M  V30 17332 H 1616.62 -1.79392 5.03709 0
M  V30 17333 H 1616.96 -2.36822 3.42376 0
M  V30 17334 H 1617.49 -0.740088 3.90855 0
M  V30 17335 H 1614.23 0.744769 6.51255 0
M  V30 17336 H 1613.75 -0.86747 5.93494 0
M  V30 17337 H 1615.43 -0.563054 6.44545 0
M  V30 17338 N 1615.56 -1.5737 -0.0851874 0
M  V30 17339 C 1616.53 -2.01789 -1.08692 0
M  V30 17340 C 1617.53 -0.912872 -1.32376 0
M  V30 17341 O 1618.72 -1.1781 -1.28322 0
M  V30 17342 C 1615.85 -2.38708 -2.43375 0
M  V30 17343 H 1617.04 -2.91511 -0.704359 0
M  V30 17344 H 1614.59 -1.52765 -0.330528 0
M  V30 17345 H 1615.33 -1.5197 -2.86488 0
M  V30 17346 H 1615.11 -3.19331 -2.2753 0
M  V30 17347 H 1616.6 -2.73697 -3.15404 0
M  V30 17348 N 1617.04 0.356258 -1.53521 0
M  V30 17349 C 1618.29 1.09526 -1.69372 0
M  V30 17350 C 1618.6 1.90189 -0.456912 0
M  V30 17351 O 1619.81 2.66928 -0.496141 0
M  V30 17352 C 1618.27 1.99643 -2.99451 0
M  V30 17353 C 1617.87 1.24248 -4.30426 0
M  V30 17354 C 1619.62 2.73478 -3.24669 0
M  V30 17355 C 1617.52 2.13321 -5.51587 0
M  V30 17356 H 1616.45 0.412594 -0.631096 0
M  V30 17357 H 1619.11 0.355603 -1.80021 0
M  V30 17358 H 1617.49 2.77377 -2.82627 0
M  V30 17359 H 1618.66 0.515123 -4.57912 0
M  V30 17360 H 1616.98 0.622355 -4.11723 0
M  V30 17361 H 1619.57 3.40366 -4.12377 0
M  V30 17362 H 1619.92 3.39355 -2.4113 0
M  V30 17363 H 1620.45 2.02823 -3.4221 0
M  V30 17364 H 1617.19 1.52006 -6.37632 0
M  V30 17365 H 1616.71 2.8388 -5.28368 0
M  V30 17366 H 1618.39 2.72666 -5.86739 0
M  V30 17367 N 1618.52 1.45038 0.616577 0
M  V30 17368 C 1619.8 1.39059 1.37557 0
M  V30 17369 C 1620.18 0.0566307 2.11024 0
M  V30 17370 O 1619.52 -0.961203 2.073 0
M  V30 17371 C 1619.73 2.59841 2.32989 0
M  V30 17372 C 1621.08 3.04539 2.95874 0
M  V30 17373 O 1622.11 2.6015 2.43312 0
M  V30 17374 O 1620.97 3.81547 3.9126 0
M  V30 17375 H 1618.06 0.551396 0.616353 0
M  V30 17376 H 1620.61 1.57152 0.640416 0
M  V30 17377 H 1619.38 3.48521 1.779 0
M  V30 17378 H 1619 2.44036 3.13899 0
M  V30 17379 N 1620 -0.858287 1.32179 0
M  V30 17380 C 1621.22 -1.64997 1.25662 0
M  V30 17381 C 1621.65 -1.87303 -0.173021 0
M  V30 17382 O 1621.01 -1.42319 -1.12317 0
M  V30 17383 C 1621.05 -2.98855 2.01787 0
M  V30 17384 O 1620.16 -3.89218 1.36319 0
M  V30 17385 H 1619.5 -0.503169 0.433264 0
M  V30 17386 H 1622.03 -1.06926 1.74436 0
M  V30 17387 H 1622.04 -3.48704 2.11824 0
M  V30 17388 H 1620.71 -2.81941 3.05748 0
M  V30 17389 H 1619.29 -3.4768 1.34807 0
M  V30 17390 N 1621.48 -1.1533 -1.07409 0
M  V30 17391 C 1622.41 -0.807289 -2.14512 0
M  V30 17392 C 1623.42 0.18043 -1.61797 0
M  V30 17393 O 1624.61 -0.042733 -1.78449 0
M  V30 17394 C 1621.71 -0.179338 -3.38425 0
M  V30 17395 C 1620.88 -1.20433 -4.20493 0
M  V30 17396 C 1619.94 -0.598268 -5.22788 0
M  V30 17397 O 1618.97 -1.26405 -5.54987 0
M  V30 17398 N 1620.17 0.620283 -5.77177 0
M  V30 17399 H 1622.93 -1.729 -2.44797 0
M  V30 17400 H 1620.5 -1.0491 -1.23311 0
M  V30 17401 H 1622.49 0.238867 -4.03994 0
M  V30 17402 H 1621.06 0.645706 -3.05858 0
M  V30 17403 H 1620.28 -1.79912 -3.5075 0
M  V30 17404 H 1621.57 -1.89642 -4.72137 0
M  V30 17405 H 1620.96 1.17958 -5.53265 0
M  V30 17406 H 1619.52 0.980853 -6.44378 0
M  V30 17407 N 1622.95 1.25748 -0.950004 0
M  V30 17408 C 1624.2 1.93622 -0.603186 0
M  V30 17409 C 1624.53 1.74271 0.856925 0
M  V30 17410 O 1623.81 1.08502 1.61423 0
M  V30 17411 C 1624.09 3.4715 -0.957024 0
M  V30 17412 C 1623.94 3.75747 -2.47253 0
M  V30 17413 C 1625.26 4.37488 -0.478754 0
M  V30 17414 H 1622.38 0.703206 -0.220612 0
M  V30 17415 H 1625.02 1.48453 -1.18582 0
M  V30 17416 H 1623.17 3.85753 -0.46122 0
M  V30 17417 H 1624.85 3.46808 -3.04174 0
M  V30 17418 H 1623.09 3.21516 -2.91222 0
M  V30 17419 H 1623.76 4.83097 -2.67061 0
M  V30 17420 H 1626.24 4.06162 -0.903987 0
M  V30 17421 H 1625.11 5.43682 -0.755073 0
M  V30 17422 H 1625.37 4.37712 0.621303 0
M  V30 17423 N 1624.43 0.718038 1.40292 0
M  V30 17424 C 1625.36 0.0818367 2.33357 0
M  V30 17425 C 1626.34 -0.742854 1.53022 0
M  V30 17426 O 1627.53 -0.691281 1.8148 0
M  V30 17427 C 1624.66 -0.838843 3.37017 0
M  V30 17428 C 1623.61 -0.119589 4.27833 0
M  V30 17429 C 1622.94 -1.15615 5.22051 0
M  V30 17430 C 1624.24 1.02769 5.1209 0
M  V30 17431 H 1625.93 0.859167 2.86808 0
M  V30 17432 H 1623.48 0.414606 1.37902 0
M  V30 17433 H 1625.43 -1.29332 4.01063 0
M  V30 17434 H 1624.15 -1.6481 2.81967 0
M  V30 17435 H 1622.81 0.315088 3.65243 0
M  V30 17436 H 1622.46 -1.95852 4.63304 0
M  V30 17437 H 1622.16 -0.679767 5.83655 0
M  V30 17438 H 1623.69 -1.61068 5.88973 0
M  V30 17439 H 1625.1 0.652461 5.69575 0
M  V30 17440 H 1623.5 1.4326 5.82749 0
M  V30 17441 H 1624.57 1.85723 4.47923 0
M  V30 17442 N 1625.91 -1.50602 0.464402 0
M  V30 17443 C 1627.15 -2.04194 -0.0917216 0
M  V30 17444 C 1627.51 -1.33921 -1.37584 0
M  V30 17445 O 1628.72 -1.78031 -2.01391 0
M  V30 17446 C 1626.99 -3.56316 -0.278093 0
M  V30 17447 S 1628.55 -4.31561 -0.793734 0
M  V30 17448 H 1625.36 -0.710743 -0.0191155 0
M  V30 17449 H 1627.97 -1.85071 0.63001 0
M  V30 17450 H 1626.67 -4.05019 0.662395 0
M  V30 17451 H 1626.2 -3.79782 -1.02613 0
M  V30 17452 H 1628.22 -4.51052 -2.06801 0
M  V30 17453 N 1627.39 -0.19675 -1.56367 0
M  V30 17454 C 1628.64 0.440711 -1.97236 0
M  V30 17455 C 1628.96 1.62037 -1.08485 0
M  V30 17456 O 1628.23 1.95274 -0.156483 0
M  V30 17457 H 1626.81 0.16581 -0.728365 0
M  V30 17458 H 1629.47 -0.283867 -1.92822 0
M  V30 17459 H 1628.57 0.783731 -3.02099 0
M  V30 17460 N 1628.87 1.57413 0.0768405 0
M  V30 17461 C 1629.83 2.02363 1.0762 0
M  V30 17462 C 1630.83 0.919879 1.3189 0
M  V30 17463 O 1632.02 1.18489 1.27695 0
M  V30 17464 C 1629.15 2.39995 2.42106 0
M  V30 17465 H 1630.34 2.91881 0.688889 0
M  V30 17466 H 1627.9 1.52938 0.322422 0
M  V30 17467 H 1628.63 1.53488 2.85678 0
M  V30 17468 H 1628.42 3.20534 2.25833 0
M  V30 17469 H 1629.91 2.75365 3.13948 0
M  V30 17470 N 1630.34 -0.348112 1.53707 0
M  V30 17471 C 1631.59 -1.09048 1.70987 0
M  V30 17472 C 1631.92 -1.88444 0.469305 0
M  V30 17473 O 1631.2 -1.87037 -0.533629 0
M  V30 17474 C 1631.48 -2.03542 2.97057 0
M  V30 17475 C 1631.33 -1.27638 4.3131 0
M  V30 17476 C 1632.65 -3.03424 3.18782 0
M  V30 17477 H 1629.77 -0.395049 0.622178 0
M  V30 17478 H 1632.41 -0.369498 1.86373 0
M  V30 17479 H 1630.56 -2.65021 2.8407 0
M  V30 17480 H 1632.24 -0.688079 4.56139 0
M  V30 17481 H 1630.48 -0.578349 4.29927 0
M  V30 17482 H 1631.15 -1.96891 5.15692 0
M  V30 17483 H 1633.63 -2.52056 3.31069 0
M  V30 17484 H 1632.5 -3.66748 4.08396 0
M  V30 17485 H 1632.76 -3.74553 2.34866 0
M  V30 17486 N 1631.82 -1.45363 -0.608876 0
M  V30 17487 C 1632.77 -1.53936 -1.71966 0
M  V30 17488 C 1633.74 -0.385352 -1.61568 0
M  V30 17489 O 1634.92 -0.598622 -1.81166 0
M  V30 17490 C 1632.06 -1.51079 -3.10272 0
M  V30 17491 C 1631.18 -2.77022 -3.31486 0
M  V30 17492 C 1630.31 -2.65846 -4.59891 0
M  V30 17493 C 1629.35 -3.86848 -4.74357 0
M  V30 17494 N 1628.49 -3.74214 -5.94061 0
M  V30 17495 H 1633.33 -2.4883 -1.63974 0
M  V30 17496 H 1630.87 -1.23472 -0.799565 0
M  V30 17497 H 1632.82 -1.47411 -3.90289 0
M  V30 17498 H 1631.45 -0.597374 -3.17224 0
M  V30 17499 H 1630.51 -2.90783 -2.45253 0
M  V30 17500 H 1631.82 -3.66776 -3.38049 0
M  V30 17501 H 1630.97 -2.60136 -5.48101 0
M  V30 17502 H 1629.71 -1.73689 -4.55723 0
M  V30 17503 H 1628.72 -3.92918 -3.84572 0
M  V30 17504 H 1629.94 -4.80069 -4.80324 0
M  V30 17505 H 1627.89 -2.84825 -5.9094 0
M  V30 17506 H 1627.8 -4.57601 -6.01779 0
M  V30 17507 H 1629.07 -3.72434 -6.84772 0
M  V30 17508 N 1633.3 0.851265 -1.32632 0
M  V30 17509 C 1634.55 1.60785 -1.24578 0
M  V30 17510 C 1634.9 1.91462 0.189803 0
M  V30 17511 O 1634.19 1.54839 1.12851 0
M  V30 17512 C 1634.39 2.93312 -2.04212 0
M  V30 17513 C 1634.22 2.75579 -3.55368 0
M  V30 17514 C 1632.99 2.73784 -4.247 0
M  V30 17515 C 1635.19 2.49095 -4.49951 0
M  V30 17516 N 1633.17 2.47298 -5.61887 0
M  V30 17517 C 1634.54 2.32046 -5.74939 0
M  V30 17518 C 1636.59 2.34591 -4.39171 0
M  V30 17519 C 1635.3 2.01965 -6.90364 0
M  V30 17520 C 1637.32 2.05902 -5.54399 0
M  V30 17521 C 1636.68 1.89655 -6.78388 0
M  V30 17522 H 1632.78 0.591922 -0.511031 0
M  V30 17523 H 1635.37 1.00037 -1.67035 0
M  V30 17524 H 1633.54 3.52033 -1.64095 0
M  V30 17525 H 1635.27 3.58369 -1.88026 0
M  V30 17526 H 1632.03 2.86845 -3.76851 0
M  V30 17527 H 1632.45 2.36973 -6.34171 0
M  V30 17528 H 1637.09 2.45871 -3.43959 0
M  V30 17529 H 1634.81 1.89423 -7.85585 0
M  V30 17530 H 1638.4 1.95452 -5.47987 0
M  V30 17531 H 1637.28 1.67772 -7.66043 0
M  V30 17532 N 1634.78 1.15898 1.06796 0
M  V30 17533 C 1635.71 0.88395 2.16122 0
M  V30 17534 C 1636.69 -0.167708 1.69271 0
M  V30 17535 O 1637.87 -0.0208846 1.94189 0
M  V30 17536 C 1635 0.378656 3.4523 0
M  V30 17537 C 1633.96 1.36764 4.05561 0
M  V30 17538 C 1633.28 0.720956 5.29817 0
M  V30 17539 C 1634.58 2.73554 4.44933 0
M  V30 17540 H 1636.28 1.79818 2.39386 0
M  V30 17541 H 1633.82 0.866008 1.15049 0
M  V30 17542 H 1635.78 0.17376 4.21042 0
M  V30 17543 H 1634.5 -0.571063 3.21569 0
M  V30 17544 H 1633.16 1.55899 3.318 0
M  V30 17545 H 1632.81 -0.235089 5.0245 0
M  V30 17546 H 1632.51 1.38101 5.71141 0
M  V30 17547 H 1634.03 0.525963 6.0833 0
M  V30 17548 H 1635.45 2.58231 5.11849 0
M  V30 17549 H 1633.84 3.35986 4.97226 0
M  V30 17550 H 1634.91 3.29192 3.56034 0
M  V30 17551 N 1636.26 -1.25243 0.956659 0
M  V30 17552 C 1637.51 -1.92312 0.608196 0
M  V30 17553 C 1637.82 -1.75726 -0.859058 0
M  V30 17554 O 1639.02 -2.37386 -1.31757 0
M  V30 17555 C 1637.48 -3.44634 1.03708 0
M  V30 17556 C 1637.09 -3.69927 2.52702 0
M  V30 17557 C 1638.83 -4.17619 0.761242 0
M  V30 17558 C 1636.74 -5.15765 2.8938 0
M  V30 17559 H 1635.67 -0.720033 0.22376 0
M  V30 17560 H 1638.32 -1.42071 1.16138 0
M  V30 17561 H 1636.7 -3.93848 0.412287 0
M  V30 17562 H 1637.88 -3.31357 3.20217 0
M  V30 17563 H 1636.19 -3.10207 2.77778 0
M  V30 17564 H 1638.79 -5.25047 1.01141 0
M  V30 17565 H 1639.13 -4.152 -0.302375 0
M  V30 17566 H 1639.66 -3.74319 1.34648 0
M  V30 17567 H 1636.4 -5.23296 3.94767 0
M  V30 17568 H 1635.92 -5.55374 2.26539 0
M  V30 17569 H 1637.6 -5.83905 2.78683 0
M  V30 17570 N 1637.73 -0.725468 -1.3991 0
M  V30 17571 C 1638.66 -0.094211 -2.3331 0
M  V30 17572 C 1639.65 0.734728 -1.53414 0
M  V30 17573 O 1640.83 0.681647 -1.81844 0
M  V30 17574 C 1637.96 0.820958 -3.37457 0
M  V30 17575 C 1636.91 0.0968983 -4.2789 0
M  V30 17576 C 1636.24 1.12845 -5.22657 0
M  V30 17577 C 1637.54 -1.05483 -5.11537 0
M  V30 17578 H 1639.23 -0.874365 -2.86348 0
M  V30 17579 H 1636.78 -0.421913 -1.3768 0
M  V30 17580 H 1638.73 1.27203 -4.01743 0
M  V30 17581 H 1637.46 1.63312 -2.82837 0
M  V30 17582 H 1636.12 -0.334454 -3.65071 0
M  V30 17583 H 1635.76 1.93392 -4.64337 0
M  V30 17584 H 1635.46 0.648805 -5.84007 0
M  V30 17585 H 1636.99 1.57942 -5.89819 0
M  V30 17586 H 1638.4 -0.682657 -5.69221 0
M  V30 17587 H 1636.8 -1.46349 -5.81981 0
M  V30 17588 H 1637.87 -1.88095 -4.46932 0
M  V30 17589 N 1639.21 1.50354 -0.472382 0
M  V30 17590 C 1640.12 2.32318 0.326405 0
M  V30 17591 C 1641.14 1.4276 0.994771 0
M  V30 17592 O 1642.31 1.75811 0.98246 0
M  V30 17593 C 1639.38 3.17468 1.39337 0
M  V30 17594 C 1638.44 4.22848 0.741465 0
M  V30 17595 C 1637.67 5.03929 1.75759 0
M  V30 17596 O 1637.9 4.86105 2.98425 0
M  V30 17597 O 1636.83 5.87051 1.32871 0
M  V30 17598 H 1640.66 3.01749 -0.343702 0
M  V30 17599 H 1638.24 1.47553 -0.234207 0
M  V30 17600 H 1640.12 3.703 2.01136 0
M  V30 17601 H 1638.8 2.50764 2.04692 0
M  V30 17602 H 1637.71 3.74005 0.0844848 0
M  V30 17603 H 1639.04 4.92026 0.130838 0
M  V30 17604 N 1640.69 0.205039 1.56261 0
M  V30 17605 C 1641.64 -0.711828 2.19549 0
M  V30 17606 C 1642.61 -1.2025 1.14582 0
M  V30 17607 O 1643.79 -1.26459 1.42873 0
M  V30 17608 C 1640.93 -1.92152 2.86656 0
M  V30 17609 C 1640.05 -1.47129 4.06174 0
M  V30 17610 C 1639.18 -2.63726 4.6111 0
M  V30 17611 C 1638.22 -2.15357 5.72964 0
M  V30 17612 N 1637.36 -3.25167 6.22263 0
M  V30 17613 H 1642.2 -0.165392 2.97541 0
M  V30 17614 H 1639.73 -0.0698889 1.46934 0
M  V30 17615 H 1641.69 -2.63152 3.23739 0
M  V30 17616 H 1640.32 -2.4411 2.11211 0
M  V30 17617 H 1639.37 -0.656797 3.74687 0
M  V30 17618 H 1640.69 -1.0765 4.87045 0
M  V30 17619 H 1639.84 -3.42833 5.0055 0
M  V30 17620 H 1638.58 -3.06484 3.79367 0
M  V30 17621 H 1637.58 -1.34706 5.33043 0
M  V30 17622 H 1638.81 -1.73618 6.56532 0
M  V30 17623 H 1636.76 -3.67438 5.43439 0
M  V30 17624 H 1636.67 -2.89888 6.98213 0
M  V30 17625 H 1637.94 -4.0446 6.66358 0
M  V30 17626 N 1642.17 -1.57451 -0.0684915 0
M  V30 17627 C 1643.1 -2.00648 -1.10783 0
M  V30 17628 C 1644.11 -0.912944 -1.34793 0
M  V30 17629 O 1645.3 -1.19079 -1.32975 0
M  V30 17630 C 1642.4 -2.33309 -2.45805 0
M  V30 17631 C 1641.58 -3.64551 -2.41704 0
M  V30 17632 C 1640.64 -3.84845 -3.5886 0
M  V30 17633 O 1639.66 -4.56392 -3.40139 0
M  V30 17634 N 1640.86 -3.27451 -4.79329 0
M  V30 17635 H 1643.63 -2.90422 -0.739938 0
M  V30 17636 H 1641.19 -1.59846 -0.257093 0
M  V30 17637 H 1643.18 -2.44056 -3.22829 0
M  V30 17638 H 1641.75 -1.49408 -2.74583 0
M  V30 17639 H 1640.97 -3.64528 -1.50043 0
M  V30 17640 H 1642.26 -4.50721 -2.36068 0
M  V30 17641 H 1641.66 -2.69384 -4.97442 0
M  V30 17642 H 1640.21 -3.43641 -5.53854 0
M  V30 17643 N 1643.65 0.339955 -1.5389 0
M  V30 17644 C 1644.59 1.41765 -1.8213 0
M  V30 17645 C 1645.56 1.52109 -0.667235 0
M  V30 17646 O 1646.75 1.67591 -0.91203 0
M  V30 17647 C 1643.89 2.78366 -2.03977 0
M  V30 17648 C 1643 2.76785 -3.31684 0
M  V30 17649 C 1642.14 4.05125 -3.4358 0
M  V30 17650 C 1641.18 3.97787 -4.65223 0
M  V30 17651 N 1640.31 5.17825 -4.74133 0
M  V30 17652 H 1645.15 1.16984 -2.74078 0
M  V30 17653 H 1642.69 0.566618 -1.35749 0
M  V30 17654 H 1644.65 3.57755 -2.14633 0
M  V30 17655 H 1643.28 3.01491 -1.15338 0
M  V30 17656 H 1642.33 1.89481 -3.2985 0
M  V30 17657 H 1643.64 2.67241 -4.2117 0
M  V30 17658 H 1642.8 4.9294 -3.53688 0
M  V30 17659 H 1641.54 4.17455 -2.52157 0
M  V30 17660 H 1640.54 3.08357 -4.55188 0
M  V30 17661 H 1641.77 3.87037 -5.58014 0
M  V30 17662 H 1639.71 5.30691 -3.8562 0
M  V30 17663 H 1639.63 5.10552 -5.5756 0
M  V30 17664 H 1640.9 6.074 -4.88554 0
M  V30 17665 N 1645.13 1.45684 0.601159 0
M  V30 17666 C 1646.54 1.44423 1.18317 0
M  V30 17667 C 1646.89 0.17524 1.95416 0
M  V30 17668 O 1646.01 -0.722816 2.03971 0
M  V30 17669 C 1646.61 2.61651 2.1523 0
M  V30 17670 C 1645.17 2.6349 2.68793 0
M  V30 17671 C 1644.31 2.36787 1.44317 0
M  V30 17672 H 1647.26 1.53831 0.390108 0
M  V30 17673 H 1647.29 2.36117 2.98377 0
M  V30 17674 H 1646.8 3.53995 1.59088 0
M  V30 17675 H 1644.9 1.7517 3.28856 0
M  V30 17676 H 1645.01 3.62906 3.12787 0
M  V30 17677 H 1643.38 1.86472 1.73494 0
M  V30 17678 H 1644.16 3.31284 0.900327 0
M  V30 17679 N 1646.6 -0.84422 1.33082 0
M  V30 17680 C 1647.88 -1.58339 1.1484 0
M  V30 17681 C 1648.26 -2.09136 -0.287273 0
M  V30 17682 O 1647.61 -1.8891 -1.2855 0
M  V30 17683 C 1647.82 -2.72141 2.18496 0
M  V30 17684 C 1649.17 -3.41457 2.52373 0
M  V30 17685 O 1650.19 -2.82377 2.17122 0
M  V30 17686 O 1649.05 -4.48096 3.12845 0
M  V30 17687 H 1646.14 -0.697813 0.443831 0
M  V30 17688 H 1648.69 -0.88744 1.44646 0
M  V30 17689 H 1647.46 -2.32206 3.14954 0
M  V30 17690 H 1647.08 -3.49404 1.89744 0
M  V30 17691 N 1648.08 -1.16463 -1.0618 0
M  V30 17692 C 1649.33 -0.944975 -1.78647 0
M  V30 17693 C 1649.65 0.528486 -1.87702 0
M  V30 17694 O 1648.92 1.38391 -1.38653 0
M  V30 17695 H 1647.5 -0.346637 -0.661704 0
M  V30 17696 H 1650.16 -1.46752 -1.28257 0
M  V30 17697 H 1649.26 -1.36469 -2.80683 0
M  V30 17698 N 1649.56 1.24734 -0.963288 0
M  V30 17699 C 1650.81 1.92971 -0.623688 0
M  V30 17700 C 1651.14 1.7517 0.838393 0
M  V30 17701 O 1650.41 1.10208 1.60264 0
M  V30 17702 C 1650.7 3.46115 -0.99379 0
M  V30 17703 C 1650.55 3.73104 -2.51224 0
M  V30 17704 C 1651.87 4.36956 -0.525128 0
M  V30 17705 H 1648.99 0.700827 -0.228058 0
M  V30 17706 H 1651.63 1.47187 -1.2015 0
M  V30 17707 H 1649.78 3.85242 -0.502108 0
M  V30 17708 H 1651.45 3.43563 -3.07835 0
M  V30 17709 H 1649.69 3.18409 -2.94616 0
M  V30 17710 H 1650.37 4.80237 -2.7217 0
M  V30 17711 H 1652.84 4.0518 -0.947015 0
M  V30 17712 H 1651.72 5.4285 -0.812695 0
M  V30 17713 H 1651.98 4.38347 0.574843 0
M  V30 17714 N 1651.04 0.732878 1.39523 0
M  V30 17715 C 1652.28 0.279891 2.00556 0
M  V30 17716 C 1652.61 -1.13223 1.58148 0
M  V30 17717 O 1651.87 -1.78575 0.800591 0
M  V30 17718 C 1652.17 0.32714 3.559 0
M  V30 17719 C 1651.83 1.69198 4.17951 0
M  V30 17720 C 1650.49 2.06555 4.34613 0
M  V30 17721 C 1652.85 2.58821 4.52395 0
M  V30 17722 C 1650.17 3.33047 4.83008 0
M  V30 17723 C 1652.53 3.84682 5.02197 0
M  V30 17724 C 1651.19 4.22134 5.17068 0
M  V30 17725 H 1650.46 0.102419 0.733888 0
M  V30 17726 H 1653.11 0.939304 1.66881 0
M  V30 17727 H 1651.41 -0.415849 3.89587 0
M  V30 17728 H 1653.11 -0.0414564 4.00979 0
M  V30 17729 H 1649.7 1.39153 4.05382 0
M  V30 17730 H 1653.88 2.31231 4.39142 0
M  V30 17731 H 1649.14 3.6201 4.92706 0
M  V30 17732 H 1653.31 4.54286 5.27823 0
M  V30 17733 H 1650.94 5.20215 5.54329 0
M  V30 17734 N 1652.52 -1.50101 0.480349 0
M  V30 17735 C 1653.45 -2.26582 -0.345418 0
M  V30 17736 C 1654.46 -1.32283 -0.948947 0
M  V30 17737 O 1655.65 -1.57724 -0.835784 0
M  V30 17738 C 1652.75 -3.0393 -1.49932 0
M  V30 17739 C 1651.92 -4.25653 -1.00689 0
M  V30 17740 C 1650.98 -4.85217 -2.03594 0
M  V30 17741 O 1650.01 -5.45873 -1.61281 0
M  V30 17742 N 1651.21 -4.73035 -3.36479 0
M  V30 17743 H 1653.97 -2.98089 0.310285 0
M  V30 17744 H 1651.54 -1.58872 0.311671 0
M  V30 17745 H 1653.53 -3.40656 -2.18485 0
M  V30 17746 H 1652.1 -2.35162 -2.05955 0
M  V30 17747 H 1651.32 -3.93926 -0.146932 0
M  V30 17748 H 1652.61 -5.04554 -0.655957 0
M  V30 17749 H 1652 -4.24818 -3.73559 0
M  V30 17750 H 1650.56 -5.14004 -4.00804 0
M  V30 17751 N 1653.99 -0.213323 -1.5615 0
M  V30 17752 C 1654.9 0.711703 -2.23544 0
M  V30 17753 C 1655.92 1.22027 -1.24038 0
M  V30 17754 O 1657.1 1.26361 -1.56828 0
M  V30 17755 C 1654.16 1.90645 -2.89578 0
M  V30 17756 C 1653.22 1.44066 -4.04405 0
M  V30 17757 C 1652.45 2.57846 -4.6728 0
M  V30 17758 O 1652.68 3.75781 -4.29121 0
M  V30 17759 O 1651.61 2.29518 -5.56422 0
M  V30 17760 H 1655.44 0.167635 -3.03237 0
M  V30 17761 H 1653.02 0.016771 -1.49391 0
M  V30 17762 H 1654.9 2.60435 -3.31288 0
M  V30 17763 H 1653.58 2.43877 -2.12851 0
M  V30 17764 H 1652.49 0.711024 -3.67281 0
M  V30 17765 H 1653.82 0.954809 -4.8285 0
M  V30 17766 N 1655.47 1.57485 0.0601405 0
M  V30 17767 C 1656.75 1.78904 0.790732 0
M  V30 17768 C 1657.13 0.803802 1.95198 0
M  V30 17769 O 1656.48 -0.16067 2.27934 0
M  V30 17770 C 1656.69 3.25738 1.25282 0
M  V30 17771 C 1658.04 3.89887 1.68147 0
M  V30 17772 O 1659.06 3.297 1.3482 0
M  V30 17773 O 1657.92 4.95796 2.29889 0
M  V30 17774 H 1655.01 0.734623 0.379814 0
M  V30 17775 H 1657.56 1.69654 0.0393151 0
M  V30 17776 H 1656.33 3.89013 0.422442 0
M  V30 17777 H 1655.95 3.39757 2.06521 0
M  V30 17778 N 1656.95 -0.331789 1.54068 0
M  V30 17779 C 1657.91 -1.39094 1.82169 0
M  V30 17780 C 1658.91 -1.45092 0.693168 0
M  V30 17781 O 1660.1 -1.45263 0.961471 0
M  V30 17782 C 1657.24 -2.77909 1.97432 0
M  V30 17783 H 1658.43 -1.15435 2.76794 0
M  V30 17784 H 1655.98 -0.566827 1.4566 0
M  V30 17785 H 1656.72 -3.06835 1.0499 0
M  V30 17786 H 1656.5 -2.7495 2.79544 0
M  V30 17787 H 1657.99 -3.54548 2.20649 0
M  V30 17788 N 1658.43 -1.46001 -0.593424 0
M  V30 17789 C 1659.84 -1.45049 -1.17549 0
M  V30 17790 C 1660.19 -0.185601 -1.9532 0
M  V30 17791 O 1659.32 0.711989 -2.04352 0
M  V30 17792 C 1659.91 -2.62789 -2.13839 0
M  V30 17793 C 1658.47 -2.64912 -2.67392 0
M  V30 17794 C 1657.62 -2.37549 -1.43059 0
M  V30 17795 H 1660.57 -1.54035 -0.381944 0
M  V30 17796 H 1660.59 -2.37696 -2.97121 0
M  V30 17797 H 1660.1 -3.54834 -1.57208 0
M  V30 17798 H 1658.2 -1.76911 -3.27922 0
M  V30 17799 H 1658.31 -3.6456 -3.10858 0
M  V30 17800 H 1656.68 -1.8739 -1.72503 0
M  V30 17801 H 1657.46 -3.31757 -0.882746 0
M  V30 17802 N 1659.91 0.83715 -1.33527 0
M  V30 17803 C 1661.15 1.59487 -1.25267 0
M  V30 17804 C 1661.49 1.93357 0.180741 0
M  V30 17805 O 1660.76 1.5884 1.12251 0
M  V30 17806 C 1661.04 2.90376 -2.12964 0
M  V30 17807 C 1660.9 2.63177 -3.64771 0
M  V30 17808 C 1662.22 3.9182 -2.00412 0
M  V30 17809 H 1659.33 0.578684 -0.456392 0
M  V30 17810 H 1661.98 0.965428 -1.63644 0
M  V30 17811 H 1660.13 3.44095 -1.80364 0
M  V30 17812 H 1661.8 2.15878 -4.0767 0
M  V30 17813 H 1660.04 1.96849 -3.86566 0
M  V30 17814 H 1660.71 3.56452 -4.21481 0
M  V30 17815 H 1663.19 3.47413 -2.29005 0
M  V30 17816 H 1662.06 4.81232 -2.64021 0
M  V30 17817 H 1662.33 4.31173 -0.976852 0
M  V30 17818 N 1661.38 1.17024 1.05561 0
M  V30 17819 C 1662.63 0.950769 1.77886 0
M  V30 17820 C 1662.95 -0.522005 1.88506 0
M  V30 17821 O 1664.15 -0.859582 2.57533 0
M  V30 17822 C 1662.61 1.65189 3.19751 0
M  V30 17823 C 1662.22 3.16294 3.17273 0
M  V30 17824 C 1663.96 1.51466 3.96558 0
M  V30 17825 C 1661.87 3.79111 4.53904 0
M  V30 17826 H 1660.8 0.352089 0.666745 0
M  V30 17827 H 1663.45 1.40237 1.18346 0
M  V30 17828 H 1661.83 1.12801 3.79594 0
M  V30 17829 H 1663 3.75585 2.66969 0
M  V30 17830 H 1661.32 3.29986 2.53966 0
M  V30 17831 H 1663.92 1.95772 4.97571 0
M  V30 17832 H 1664.26 0.46467 4.13699 0
M  V30 17833 H 1664.79 2.0105 3.43254 0
M  V30 17834 H 1661.53 4.84091 4.41969 0
M  V30 17835 H 1661.05 3.24606 5.04372 0
M  V30 17836 H 1662.73 3.81099 5.2285 0
M  V30 17837 N 1662.86 -1.24221 0.969889 0
M  V30 17838 C 1663.81 -2.23043 0.472854 0
M  V30 17839 C 1664.8 -1.54585 -0.446344 0
M  V30 17840 O 1665.99 -1.74821 -0.27691 0
M  V30 17841 C 1663.12 -3.42504 -0.233578 0
M  V30 17842 C 1662.2 -4.18206 0.704577 0
M  V30 17843 N 1662.59 -4.71037 1.84276 0
M  V30 17844 C 1660.89 -4.43007 0.515795 0
M  V30 17845 C 1661.59 -5.28525 2.42974 0
M  V30 17846 N 1660.57 -5.15849 1.71467 0
M  V30 17847 H 1664.37 -2.6151 1.34126 0
M  V30 17848 H 1661.89 -1.39632 0.829251 0
M  V30 17849 H 1663.88 -4.12459 -0.606891 0
M  V30 17850 H 1662.54 -3.05557 -1.0984 0
M  V30 17851 H 1663.55 -4.67705 2.22424 0
M  V30 17852 H 1660.23 -4.16385 -0.304885 0
M  V30 17853 H 1661.62 -5.8009 3.39035 0
M  V30 17854 N 1664.34 -0.740267 -1.39132 0
M  V30 17855 C 1665.27 -0.064087 -2.2911 0
M  V30 17856 C 1666.29 0.697897 -1.47082 0
M  V30 17857 O 1667.47 0.541189 -1.70098 0
M  V30 17858 C 1664.57 0.933426 -3.25792 0
M  V30 17859 C 1663.75 0.231867 -4.36785 0
M  V30 17860 C 1662.81 1.13823 -5.13742 0
M  V30 17861 O 1661.83 0.613741 -5.65881 0
M  V30 17862 N 1663.03 2.46751 -5.25447 0
M  V30 17863 H 1665.8 -0.836774 -2.87781 0
M  V30 17864 H 1663.36 -0.589928 -1.5077 0
M  V30 17865 H 1665.35 1.5425 -3.74151 0
M  V30 17866 H 1663.92 1.60728 -2.68114 0
M  V30 17867 H 1663.14 -0.557747 -3.90234 0
M  V30 17868 H 1664.43 -0.254115 -5.08165 0
M  V30 17869 H 1663.83 2.91834 -4.84613 0
M  V30 17870 H 1662.39 3.02741 -5.77227 0
M  V30 17871 N 1665.82 1.49844 -0.488302 0
M  V30 17872 C 1666.73 2.32651 0.301746 0
M  V30 17873 C 1667.74 1.43807 0.979573 0
M  V30 17874 O 1668.92 1.76844 0.963758 0
M  V30 17875 C 1665.99 3.18928 1.35962 0
M  V30 17876 C 1665.05 4.23611 0.696575 0
M  V30 17877 C 1664.28 5.05765 1.70404 0
M  V30 17878 O 1664.5 4.89243 2.93253 0
M  V30 17879 O 1663.44 5.88427 1.26637 0
M  V30 17880 H 1667.26 3.01367 -0.375687 0
M  V30 17881 H 1664.85 1.47296 -0.249844 0
M  V30 17882 H 1666.73 3.72413 1.97198 0
M  V30 17883 H 1665.4 2.52921 2.02021 0
M  V30 17884 H 1664.31 3.74073 0.0448118 0
M  V30 17885 H 1665.64 4.92137 0.0786446 0
M  V30 17886 N 1667.3 0.221601 1.56034 0
M  V30 17887 C 1668.23 -0.728495 2.1626 0
M  V30 17888 C 1669.21 -1.19097 1.107 0
M  V30 17889 O 1670.39 -1.27371 1.38957 0
M  V30 17890 C 1667.52 -1.987 2.74292 0
M  V30 17891 C 1666.56 -1.66449 3.92679 0
M  V30 17892 S 1667.4 -0.78924 5.29652 0
M  V30 17893 C 1668.55 -2.05731 5.91122 0
M  V30 17894 H 1668.79 -0.216607 2.9651 0
M  V30 17895 H 1666.32 0.0062956 1.54399 0
M  V30 17896 H 1668.28 -2.70962 3.08366 0
M  V30 17897 H 1666.94 -2.47001 1.94034 0
M  V30 17898 H 1666.13 -2.59955 4.31786 0
M  V30 17899 H 1665.73 -1.0225 3.59751 0
M  V30 17900 H 1668.03 -3.00728 6.07099 0
M  V30 17901 H 1668.97 -1.71014 6.87139 0
M  V30 17902 H 1669.38 -2.19786 5.19956 0
M  V30 17903 N 1668.77 -1.57515 -0.0517878 0
M  V30 17904 C 1670.02 -1.87396 -0.746022 0
M  V30 17905 C 1670.34 -0.817053 -1.77718 0
M  V30 17906 O 1671.54 -1.00435 -2.5224 0
M  V30 17907 C 1670 -3.32481 -1.37783 0
M  V30 17908 C 1669.61 -4.46349 -0.384208 0
M  V30 17909 C 1671.35 -3.71539 -2.05327 0
M  V30 17910 C 1669.26 -5.82484 -1.02307 0
M  V30 17911 H 1668.19 -0.699127 -0.282379 0
M  V30 17912 H 1670.84 -1.835 0.000245524 0
M  V30 17913 H 1669.22 -3.31051 -2.17304 0
M  V30 17914 H 1670.39 -4.59209 0.382639 0
M  V30 17915 H 1668.71 -4.15976 0.187873 0
M  V30 17916 H 1671.31 -4.70553 -2.53936 0
M  V30 17917 H 1671.65 -3.02361 -2.86153 0
M  V30 17918 H 1672.18 -3.75046 -1.32611 0
M  V30 17919 H 1668.92 -6.55005 -0.254704 0
M  V30 17920 H 1668.44 -5.73388 -1.7603 0
M  V30 17921 H 1670.12 -6.28476 -1.5371 0
M  V30 17922 N 1670.25 0.323614 -1.54242 0
M  V30 17923 C 1671.5 1.05947 -1.72104 0
M  V30 17924 C 1671.82 1.88547 -0.497512 0
M  V30 17925 O 1671.09 1.89712 0.488485 0
M  V30 17926 H 1669.67 0.394141 -0.634557 0
M  V30 17927 H 1672.33 0.360063 -1.91545 0
M  V30 17928 H 1671.43 1.72552 -2.60062 0
M  V30 17929 N 1671.73 1.46313 0.585673 0
M  V30 17930 C 1672.98 1.51171 1.34134 0
M  V30 17931 C 1673.3 0.163691 1.94312 0
M  V30 17932 O 1672.57 -0.809444 1.78395 0
M  V30 17933 H 1671.15 0.556768 0.498014 0
M  V30 17934 H 1673.81 1.82423 0.686133 0
M  V30 17935 H 1672.91 2.26274 2.14957 0
M  V30 17936 N 1673.21 -0.830057 1.33969 0
M  V30 17937 C 1674.14 -1.95557 1.27592 0
M  V30 17938 C 1675.12 -1.69395 0.154745 0
M  V30 17939 O 1676.31 -1.91094 0.345954 0
M  V30 17940 C 1673.44 -3.31881 1.02335 0
M  V30 17941 C 1672.39 -3.72464 2.10842 0
M  V30 17942 C 1671.72 -5.06692 1.70785 0
M  V30 17943 C 1673.02 -3.85315 3.52604 0
M  V30 17944 H 1674.71 -2.0115 2.21763 0
M  V30 17945 H 1672.26 -0.96639 1.06756 0
M  V30 17946 H 1674.21 -4.10197 0.965206 0
M  V30 17947 H 1672.93 -3.26568 0.0460462 0
M  V30 17948 H 1671.59 -2.96417 2.15714 0
M  V30 17949 H 1671.24 -4.97859 0.717334 0
M  V30 17950 H 1670.94 -5.34817 2.43403 0
M  V30 17951 H 1672.46 -5.87474 1.66452 0
M  V30 17952 H 1673.88 -4.5392 3.50185 0
M  V30 17953 H 1672.27 -4.24886 4.23783 0
M  V30 17954 H 1673.34 -2.87514 3.90466 0
M  V30 17955 N 1674.69 -1.17582 -1.04939 0
M  V30 17956 C 1676.1 -0.923633 -1.30158 0
M  V30 17957 C 1676.3 0.415798 -1.97163 0
M  V30 17958 O 1675.36 1.15218 -2.2468 0
M  V30 17959 C 1676.67 -2.0828 -2.16887 0
M  V30 17960 C 1678.22 -2.12011 -2.30262 0
M  V30 17961 C 1678.7 -3.2732 -3.20352 0
M  V30 17962 N 1680.19 -3.27125 -3.27939 0
M  V30 17963 C 1680.92 -4.12988 -3.97779 0
M  V30 17964 N 1680.42 -5.08968 -4.70025 0
M  V30 17965 N 1682.21 -4.0093 -3.93969 0
M  V30 17966 H 1674.36 -2.03794 -0.598485 0
M  V30 17967 H 1676.62 -0.889991 -0.326528 0
M  V30 17968 H 1676.33 -3.051 -1.74948 0
M  V30 17969 H 1676.2 -2.03599 -3.17533 0
M  V30 17970 H 1678.59 -1.15774 -2.71441 0
M  V30 17971 H 1678.67 -2.20752 -1.29236 0
M  V30 17972 H 1678.32 -4.23823 -2.79886 0
M  V30 17973 H 1678.25 -3.15814 -4.21389 0
M  V30 17974 H 1680.74 -2.57634 -2.76465 0
M  V30 17975 H 1681.05 -5.70876 -5.20885 0
M  V30 17976 H 1679.4 -5.12935 -4.68959 0
M  V30 17977 H 1682.59 -3.2524 -3.36654 0
M  V30 17978 H 1682.76 -4.68065 -4.48128 0
M  V30 17979 N 1676.17 1.23705 -0.976463 0
M  V30 17980 C 1677.11 2.27034 -0.505813 0
M  V30 17981 C 1678.11 1.63716 0.435148 0
M  V30 17982 O 1679.31 1.7732 0.309474 0
M  V30 17983 H 1675.69 0.737862 -0.145131 0
M  V30 17984 H 1677.66 2.64097 -1.38908 0
M  V30 17985 C 1676.41 3.47234 0.179987 0
M  V30 17986 H 1675.73 3.96205 -0.534969 0
M  V30 17987 H 1677.17 4.21353 0.472996 0
M  V30 17988 C 1675.63 3.05979 1.40991 0
M  V30 17989 O 1676.16 3.13914 2.50641 0
M  V30 17990 N 1674.37 2.60934 1.27913 0
M  V30 17991 H 1673.91 2.54677 0.38696 0
M  V30 17992 H 1673.87 2.33697 2.10316 0
M  V30 17993 N 1677.64 0.747635 1.38738 0
M  V30 17994 C 1678.59 0.105258 2.32362 0
M  V30 17995 C 1679.59 -0.711921 1.53714 0
M  V30 17996 O 1680.79 -0.611687 1.69288 0
M  V30 17997 H 1677.17 0.0152406 0.751846 0
M  V30 17998 H 1679.14 0.911057 2.84152 0
M  V30 17999 C 1677.89 -0.778221 3.38879 0
M  V30 18000 H 1677.21 -0.158806 3.99484 0
M  V30 18001 H 1678.65 -1.19509 4.06809 0
M  V30 18002 C 1677.11 -1.91819 2.76961 0
M  V30 18003 O 1677.64 -3.01187 2.65799 0
M  V30 18004 N 1675.84 -1.71143 2.34859 0
M  V30 18005 H 1675.39 -0.821885 2.44137 0
M  V30 18006 H 1675.35 -2.47588 1.93772 0
M  V30 18007 N 1679.12 -1.49583 0.496242 0
M  V30 18008 C 1680.07 -2.30677 -0.298474 0
M  V30 18009 C 1681.06 -1.39074 -0.967207 0
M  V30 18010 O 1682.27 -1.56147 -0.895439 0
M  V30 18011 H 1678.64 -0.743138 -0.11511 0
M  V30 18012 H 1680.62 -2.95632 0.405533 0
M  V30 18013 C 1679.36 -3.20297 -1.35297 0
M  V30 18014 H 1678.69 -3.90708 -0.847789 0
M  V30 18015 H 1680.13 -3.79987 -1.88111 0
M  V30 18016 C 1678.59 -2.39584 -2.36857 0
M  V30 18017 O 1679.12 -2.09662 -3.42644 0
M  V30 18018 N 1677.32 -2.01695 -2.09206 0
M  V30 18019 H 1676.87 -2.26229 -1.23201 0
M  V30 18020 H 1676.83 -1.47998 -2.77388 0
M  V30 18021 N 1680.6 -0.229873 -1.55915 0
M  V30 18022 C 1681.51 0.687953 -2.24286 0
M  V30 18023 C 1682.53 1.20705 -1.25325 0
M  V30 18024 O 1683.7 1.2469 -1.58159 0
M  V30 18025 C 1680.77 1.87563 -2.91584 0
M  V30 18026 C 1679.83 1.39769 -4.0591 0
M  V30 18027 C 1679.06 2.52876 -4.69989 0
M  V30 18028 O 1679.28 3.71208 -4.33083 0
M  V30 18029 O 1678.22 2.23603 -5.58825 0
M  V30 18030 H 1682.04 0.135464 -3.03398 0
M  V30 18031 H 1679.63 0.000925172 -1.494 0
M  V30 18032 H 1681.51 2.56907 -3.34031 0
M  V30 18033 H 1680.19 2.41606 -2.15426 0
M  V30 18034 H 1679.09 0.672029 -3.68014 0
M  V30 18035 H 1680.43 0.903543 -4.83836 0
M  V30 18036 N 1682.08 1.5754 0.0434337 0
M  V30 18037 C 1683.02 2.0561 1.04848 0
M  V30 18038 C 1683.99 0.942299 1.36784 0
M  V30 18039 O 1685.18 1.21191 1.47368 0
M  V30 18040 C 1682.32 2.52844 2.3487 0
M  V30 18041 C 1681.43 3.77958 2.09218 0
M  V30 18042 C 1680.57 4.13859 3.33007 0
M  V30 18043 C 1679.61 5.31932 3.02845 0
M  V30 18044 N 1678.74 5.63335 4.19045 0
M  V30 18045 H 1683.58 2.9123 0.631591 0
M  V30 18046 H 1681.12 1.44003 0.300258 0
M  V30 18047 H 1683.08 2.78291 3.10822 0
M  V30 18048 H 1681.71 1.70161 2.74308 0
M  V30 18049 H 1680.76 3.59681 1.23828 0
M  V30 18050 H 1682.07 4.64034 1.82958 0
M  V30 18051 H 1681.23 4.40358 4.17336 0
M  V30 18052 H 1679.97 3.26406 3.62368 0
M  V30 18053 H 1678.97 5.052 2.16916 0
M  V30 18054 H 1680.2 6.21027 2.74777 0
M  V30 18055 H 1678.14 4.7884 4.48384 0
M  V30 18056 H 1678.06 6.4389 3.96158 0
M  V30 18057 H 1679.33 5.94402 5.04289 0
M  V30 18058 N 1683.56 -0.31543 1.54411 0
M  V30 18059 C 1684.83 -1.07113 1.63665 0
M  V30 18060 C 1685.21 -2.05671 0.475688 0
M  V30 18061 O 1684.56 -2.22288 -0.52918 0
M  V30 18062 C 1684.77 -1.76584 3.0103 0
M  V30 18063 C 1686.12 -2.29309 3.57355 0
M  V30 18064 O 1687.14 -1.86638 3.03388 0
M  V30 18065 O 1686 -3.07452 4.51814 0
M  V30 18066 H 1683.1 -0.494217 0.663083 0
M  V30 18067 H 1685.64 -0.31467 1.66757 0
M  V30 18068 H 1684.41 -1.0494 3.76966 0
M  V30 18069 H 1684.04 -2.5902 3.01653 0
M  V30 18070 N 1685.03 -1.46622 -0.577906 0
M  V30 18071 C 1685.97 -1.52068 -1.70148 0
M  V30 18072 C 1686.95 -0.374405 -1.58231 0
M  V30 18073 O 1688.13 -0.579245 -1.79379 0
M  V30 18074 C 1685.26 -1.40377 -3.0824 0
M  V30 18075 C 1684.3 -2.59247 -3.38664 0
M  V30 18076 S 1685.14 -4.21576 -3.30203 0
M  V30 18077 C 1686.29 -4.12401 -4.70825 0
M  V30 18078 H 1686.52 -2.4713 -1.6527 0
M  V30 18079 H 1684.06 -1.34567 -0.757045 0
M  V30 18080 H 1686.02 -1.34318 -3.87903 0
M  V30 18081 H 1684.68 -0.467354 -3.10604 0
M  V30 18082 H 1683.87 -2.47073 -4.39285 0
M  V30 18083 H 1683.47 -2.6232 -2.66579 0
M  V30 18084 H 1685.76 -3.79378 -5.61319 0
M  V30 18085 H 1686.71 -5.13037 -4.88056 0
M  V30 18086 H 1687.11 -3.43578 -4.479 0
M  V30 18087 N 1686.51 0.822941 -1.34408 0
M  V30 18088 C 1687.48 1.91541 -1.25876 0
M  V30 18089 C 1688.48 1.59856 -0.17397 0
M  V30 18090 O 1689.67 1.68896 -0.426592 0
M  V30 18091 C 1686.8 3.27586 -0.943415 0
M  V30 18092 H 1687.99 2.00529 -2.22998 0
M  V30 18093 H 1685.54 1.01691 -1.18695 0
M  V30 18094 H 1686.28 3.24291 0.0246389 0
M  V30 18095 H 1686.06 3.51966 -1.72807 0
M  V30 18096 H 1687.55 4.07589 -0.908891 0
M  V30 18097 N 1687.99 1.18137 1.04314 0
M  V30 18098 C 1688.92 0.929593 2.14198 0
M  V30 18099 C 1689.9 -0.131766 1.69589 0
M  V30 18100 O 1691.09 0.0203104 1.94189 0
M  V30 18101 C 1688.22 0.451799 3.44349 0
M  V30 18102 C 1687.17 1.45336 4.02569 0
M  V30 18103 C 1686.5 0.833176 5.28169 0
M  V30 18104 C 1687.8 2.8293 4.39031 0
M  V30 18105 H 1689.49 1.84856 2.35518 0
M  V30 18106 H 1687.04 0.890217 1.13186 0
M  V30 18107 H 1688.99 0.26303 4.20578 0
M  V30 18108 H 1687.71 -0.502725 3.22708 0
M  V30 18109 H 1686.37 1.62902 3.28418 0
M  V30 18110 H 1686.02 -0.128459 5.02836 0
M  V30 18111 H 1685.72 1.50185 5.68083 0
M  V30 18112 H 1687.24 0.654881 6.07078 0
M  V30 18113 H 1688.66 2.6903 5.06257 0
M  V30 18114 H 1687.06 3.46458 4.89987 0
M  V30 18115 H 1688.13 3.3667 3.48972 0
M  V30 18116 N 1689.47 -1.23186 0.98301 0
M  V30 18117 C 1690.7 -1.95702 0.671453 0
M  V30 18118 C 1691.11 -1.72737 -0.76206 0
M  V30 18119 O 1690.47 -1.02037 -1.5131 0
M  V30 18120 C 1690.52 -3.48642 0.955573 0
M  V30 18121 O 1690.24 -3.70829 2.33275 0
M  V30 18122 C 1691.74 -4.38354 0.660333 0
M  V30 18123 H 1688.96 -0.623006 0.249209 0
M  V30 18124 H 1691.51 -1.56606 1.3151 0
M  V30 18125 H 1689.66 -3.85743 0.357892 0
M  V30 18126 H 1690.07 -4.65104 2.42443 0
M  V30 18127 H 1691.55 -5.44456 0.909477 0
M  V30 18128 H 1692.03 -4.37323 -0.405615 0
M  V30 18129 H 1692.63 -4.06864 1.23861 0
M  V30 18130 N 1690.95 -0.754982 -1.38339 0
M  V30 18131 C 1691.91 -0.136457 -2.28793 0
M  V30 18132 C 1692.91 0.646016 -1.47252 0
M  V30 18133 O 1694.1 0.472077 -1.67681 0
M  V30 18134 C 1691.23 0.815058 -3.31013 0
M  V30 18135 H 1692.42 -0.933619 -2.84997 0
M  V30 18136 H 1689.98 -0.522082 -1.47323 0
M  V30 18137 H 1690.71 1.63785 -2.79902 0
M  V30 18138 H 1690.5 0.256363 -3.91261 0
M  V30 18139 H 1691.99 1.24378 -3.98648 0
M  V30 18140 N 1692.42 1.49318 -0.504168 0
M  V30 18141 C 1693.67 2.02462 0.0392265 0
M  V30 18142 C 1694 1.38359 1.36701 0
M  V30 18143 O 1693.25 0.509579 1.88949 0
M  V30 18144 C 1693.55 3.56613 0.237041 0
M  V30 18145 C 1693.22 4.3937 -1.01314 0
M  V30 18146 C 1691.88 4.61704 -1.35583 0
M  V30 18147 C 1694.23 4.8749 -1.84399 0
M  V30 18148 C 1691.56 5.29403 -2.52882 0
M  V30 18149 C 1693.91 5.56479 -3.00854 0
M  V30 18150 C 1692.58 5.77058 -3.35499 0
M  V30 18151 H 1691.85 0.740861 0.014354 0
M  V30 18152 H 1694.49 1.79584 -0.664967 0
M  V30 18153 H 1692.8 3.78188 1.02379 0
M  V30 18154 H 1694.5 3.95329 0.671987 0
M  V30 18155 H 1691.09 4.2223 -0.736213 0
M  V30 18156 H 1695.27 4.7006 -1.59238 0
M  V30 18157 H 1690.53 5.43538 -2.79958 0
M  V30 18158 H 1694.7 5.9274 -3.65558 0
M  V30 18159 H 1692.33 6.29291 -4.26494 0
M  V30 18160 N 1693.9 0.238138 1.5579 0
M  V30 18161 C 1695.15 -0.389608 1.99022 0
M  V30 18162 C 1695.48 -1.58226 1.12597 0
M  V30 18163 O 1694.76 -1.93595 0.187363 0
M  V30 18164 C 1695.04 -0.808025 3.50917 0
M  V30 18165 C 1694.89 0.389417 4.48111 0
M  V30 18166 C 1696.21 -1.6582 4.07666 0
M  V30 18167 H 1693.33 -0.140141 0.723553 0
M  V30 18168 H 1695.97 0.337696 1.86975 0
M  V30 18169 H 1694.12 -1.42772 3.61315 0
M  V30 18170 H 1695.79 1.02777 4.49705 0
M  V30 18171 H 1694.04 1.03404 4.21296 0
M  V30 18172 H 1694.71 0.0534549 5.51974 0
M  V30 18173 H 1697.18 -1.13518 4.00316 0
M  V30 18174 H 1696.06 -1.91984 5.14231 0
M  V30 18175 H 1696.32 -2.62712 3.55577 0
M  V30 18176 N 1695.38 -1.57561 -0.0350783 0
M  V30 18177 C 1696.31 -2.09201 -1.03716 0
M  V30 18178 C 1697.29 -0.993231 -1.3809 0
M  V30 18179 O 1698.48 -1.26812 -1.47079 0
M  V30 18180 C 1695.61 -2.56643 -2.3399 0
M  V30 18181 C 1694.56 -3.70731 -2.13874 0
M  V30 18182 C 1693.89 -4.04358 -3.49855 0
M  V30 18183 C 1695.19 -4.99393 -1.52982 0
M  V30 18184 H 1696.88 -2.93176 -0.60731 0
M  V30 18185 H 1694.43 -1.41036 -0.290683 0
M  V30 18186 H 1696.38 -2.9139 -3.04417 0
M  V30 18187 H 1695.1 -1.69744 -2.79024 0
M  V30 18188 H 1693.76 -3.36325 -1.45881 0
M  V30 18189 H 1693.41 -3.14534 -3.92527 0
M  V30 18190 H 1693.11 -4.81201 -3.37223 0
M  V30 18191 H 1694.63 -4.41633 -4.21654 0
M  V30 18192 H 1696.05 -5.32135 -2.13319 0
M  V30 18193 H 1694.45 -5.80807 -1.50943 0
M  V30 18194 H 1695.52 -4.82367 -0.494993 0
M  V30 18195 N 1696.86 0.307236 -1.54576 0
M  V30 18196 C 1698.11 1.04082 -1.72771 0
M  V30 18197 C 1698.42 1.88639 -0.517188 0
M  V30 18198 O 1699.63 2.65215 -0.580811 0
M  V30 18199 C 1698.08 1.90015 -3.05651 0
M  V30 18200 C 1697.69 1.10491 -4.34161 0
M  V30 18201 C 1699.43 2.6301 -3.33205 0
M  V30 18202 C 1697.34 1.95664 -5.58094 0
M  V30 18203 H 1696.27 0.392307 -0.643903 0
M  V30 18204 H 1698.92 0.29815 -1.81062 0
M  V30 18205 H 1697.3 2.68245 -2.91309 0
M  V30 18206 H 1698.48 0.369181 -4.59319 0
M  V30 18207 H 1696.79 0.491053 -4.13494 0
M  V30 18208 H 1699.39 3.27074 -4.22997 0
M  V30 18209 H 1699.73 3.31512 -2.51804 0
M  V30 18210 H 1700.27 1.91833 -3.4849 0
M  V30 18211 H 1697.01 1.31643 -6.42145 0
M  V30 18212 H 1696.53 2.66927 -5.37131 0
M  V30 18213 H 1698.2 2.53861 -5.95116 0
M  V30 18214 N 1698.34 1.46926 0.570122 0
M  V30 18215 C 1699.56 1.56722 1.35841 0
M  V30 18216 C 1699.99 0.213314 1.86887 0
M  V30 18217 O 1699.34 -0.808694 1.62265 0
M  V30 18218 C 1699.39 2.5859 2.51323 0
M  V30 18219 O 1698.5 2.12966 3.53156 0
M  V30 18220 H 1697.84 0.526929 0.404032 0
M  V30 18221 H 1700.37 1.92603 0.690308 0
M  V30 18222 H 1700.38 2.78601 2.9807 0
M  V30 18223 H 1699.05 3.56903 2.13525 0
M  V30 18224 H 1697.63 2.02999 3.12803 0
M  V30 18225 N 1699.82 -0.815801 1.34842 0
M  V30 18226 C 1700.75 -1.94193 1.29659 0
M  V30 18227 C 1701.73 -1.69221 0.172703 0
M  V30 18228 O 1702.91 -1.90716 0.366203 0
M  V30 18229 C 1700.04 -3.30777 1.0585 0
M  V30 18230 C 1699 -3.70207 2.1478 0
M  V30 18231 C 1698.32 -5.04852 1.76149 0
M  V30 18232 C 1699.62 -3.81553 3.56671 0
M  V30 18233 H 1701.32 -1.98787 2.23884 0
M  V30 18234 H 1698.86 -0.955013 1.07775 0
M  V30 18235 H 1700.81 -4.0915 1.00866 0
M  V30 18236 H 1699.54 -3.265 0.0806804 0
M  V30 18237 H 1698.2 -2.94113 2.18845 0
M  V30 18238 H 1697.85 -4.9707 0.770099 0
M  V30 18239 H 1697.55 -5.32205 2.49062 0
M  V30 18240 H 1699.07 -5.85676 1.72674 0
M  V30 18241 H 1700.48 -4.50181 3.54979 0
M  V30 18242 H 1698.88 -4.20367 4.28266 0
M  V30 18243 H 1699.95 -2.83356 3.93494 0
M  V30 18244 N 1701.29 -1.18689 -1.03686 0
M  V30 18245 C 1702.23 -0.875126 -2.11835 0
M  V30 18246 C 1703.24 0.128865 -1.62289 0
M  V30 18247 O 1704.43 -0.0994835 -1.78223 0
M  V30 18248 C 1701.53 -0.286914 -3.37683 0
M  V30 18249 C 1700.7 -1.3375 -4.16449 0
M  V30 18250 C 1699.76 -0.764286 -5.2062 0
M  V30 18251 O 1698.79 -1.43998 -5.50684 0
M  V30 18252 N 1699.99 0.436345 -5.78858 0
M  V30 18253 H 1702.75 -1.80601 -2.39172 0
M  V30 18254 H 1700.31 -1.0878 -1.19911 0
M  V30 18255 H 1702.31 0.110219 -4.0455 0
M  V30 18256 H 1700.88 0.548073 -3.07758 0
M  V30 18257 H 1700.1 -1.9098 -3.44848 0
M  V30 18258 H 1701.38 -2.04566 -4.65865 0
M  V30 18259 H 1700.78 1.00296 -5.56738 0
M  V30 18260 H 1699.34 0.775353 -6.47172 0
M  V30 18261 N 1702.77 1.22662 -0.989529 0
M  V30 18262 C 1703.68 2.28162 -0.545835 0
M  V30 18263 C 1704.7 1.69251 0.403762 0
M  V30 18264 O 1705.87 1.99563 0.271428 0
M  V30 18265 C 1702.94 3.46434 0.135808 0
M  V30 18266 C 1702 4.20673 -0.85633 0
M  V30 18267 C 1701.23 5.33298 -0.207121 0
M  V30 18268 O 1701.46 5.6157 0.99975 0
M  V30 18269 O 1700.39 5.94977 -0.910288 0
M  V30 18270 H 1704.22 2.68276 -1.42344 0
M  V30 18271 H 1701.8 1.28766 -0.757609 0
M  V30 18272 H 1703.68 4.18207 0.517776 0
M  V30 18273 H 1702.36 3.08252 0.988035 0
M  V30 18274 H 1701.26 3.51186 -1.28917 0
M  V30 18275 H 1702.6 4.62726 -1.67765 0
M  V30 18276 N 1704.25 0.762308 1.37937 0
M  V30 18277 C 1705.21 0.148588 2.28718 0
M  V30 18278 C 1706.21 -0.638198 1.47593 0
M  V30 18279 O 1707.4 -0.463178 1.67929 0
M  V30 18280 C 1704.53 -0.797492 3.31441 0
M  V30 18281 H 1705.73 0.94872 2.84498 0
M  V30 18282 H 1703.28 0.529888 1.47044 0
M  V30 18283 H 1704.02 -1.62298 2.80767 0
M  V30 18284 H 1703.8 -0.23561 3.91391 0
M  V30 18285 H 1705.29 -1.22262 3.99302 0
M  V30 18286 N 1705.73 -1.49049 0.51208 0
M  V30 18287 C 1706.67 -2.29326 -0.260408 0
M  V30 18288 C 1707.64 -1.36232 -0.950265 0
M  V30 18289 O 1708.83 -1.65193 -0.954777 0
M  V30 18290 C 1705.97 -3.19177 -1.31225 0
M  V30 18291 C 1705.08 -4.27336 -0.63305 0
M  V30 18292 C 1704.22 -5.04389 -1.66628 0
M  V30 18293 C 1703.26 -6.04372 -0.969561 0
M  V30 18294 N 1702.39 -6.74549 -1.94751 0
M  V30 18295 H 1707.23 -2.94876 0.430384 0
M  V30 18296 H 1704.77 -1.45383 0.224086 0
M  V30 18297 H 1706.73 -3.69655 -1.9342 0
M  V30 18298 H 1705.36 -2.55588 -1.97166 0
M  V30 18299 H 1704.41 -3.80262 0.102433 0
M  V30 18300 H 1705.72 -4.98727 -0.0851363 0
M  V30 18301 H 1704.88 -5.58791 -2.36299 0
M  V30 18302 H 1703.62 -4.32797 -2.24807 0
M  V30 18303 H 1702.62 -5.49191 -0.25869 0
M  V30 18304 H 1703.85 -6.77955 -0.394125 0
M  V30 18305 H 1701.79 -6.0572 -2.5187 0
M  V30 18306 H 1701.71 -7.41954 -1.45055 0
M  V30 18307 H 1702.98 -7.3355 -2.63675 0
M  V30 18308 N 1707.21 -0.246397 -1.55662 0
M  V30 18309 C 1708.48 0.42879 -1.90842 0
M  V30 18310 C 1708.86 1.75905 -1.16707 0
M  V30 18311 O 1708.21 2.26723 -0.284391 0
M  V30 18312 C 1708.42 0.597368 -3.4385 0
M  V30 18313 C 1709.77 0.893477 -4.15093 0
M  V30 18314 O 1710.79 0.683251 -3.49586 0
M  V30 18315 O 1709.65 1.2938 -5.30964 0
M  V30 18316 H 1706.75 0.230145 -0.794331 0
M  V30 18317 H 1709.29 -0.290426 -1.67196 0
M  V30 18318 H 1708.06 -0.339952 -3.8982 0
M  V30 18319 H 1707.69 1.36714 -3.73356 0
M  V30 18320 N 1708.68 1.57577 0.026722 0
M  V30 18321 C 1709.93 1.8856 0.716115 0
M  V30 18322 C 1710.25 0.845223 1.76395 0
M  V30 18323 O 1711.45 1.04435 2.5061 0
M  V30 18324 C 1709.91 3.34631 1.32476 0
M  V30 18325 C 1709.52 4.46904 0.313149 0
M  V30 18326 C 1711.26 3.74759 1.9939 0
M  V30 18327 C 1709.17 5.84038 0.930274 0
M  V30 18328 H 1708.1 0.703531 0.271221 0
M  V30 18329 H 1710.75 1.83476 -0.0294388 0
M  V30 18330 H 1709.13 3.34466 2.1201 0
M  V30 18331 H 1710.3 4.58542 -0.455647 0
M  V30 18332 H 1708.62 4.15624 -0.254028 0
M  V30 18333 H 1711.22 4.74534 2.46418 0
M  V30 18334 H 1711.56 3.06875 2.81307 0
M  V30 18335 H 1712.09 3.77108 1.26628 0
M  V30 18336 H 1708.83 6.55327 0.150466 0
M  V30 18337 H 1708.35 5.76116 1.66886 0
M  V30 18338 H 1710.03 6.30842 1.43692 0
M  V30 18339 N 1710.16 -0.299034 1.54737 0
M  V30 18340 C 1711.4 -1.04194 1.75849 0
M  V30 18341 C 1711.77 -1.84422 0.534101 0
M  V30 18342 O 1712.97 -2.61481 0.622996 0
M  V30 18343 C 1711.24 -1.92232 3.013 0
M  V30 18344 S 1712.8 -2.73142 3.43423 0
M  V30 18345 H 1709.61 -0.351367 0.618112 0
M  V30 18346 H 1712.22 -0.315134 1.92943 0
M  V30 18347 H 1710.92 -1.32172 3.88534 0
M  V30 18348 H 1710.45 -2.69277 2.86798 0
M  V30 18349 H 1712.47 -3.94747 3.00647 0
M  V30 18350 N 1711.64 -1.47227 -0.562322 0
M  V30 18351 C 1712.55 -1.61953 -1.69731 0
M  V30 18352 C 1713.57 -0.502478 -1.66587 0
M  V30 18353 O 1714.74 -0.769335 -1.86127 0
M  V30 18354 C 1711.81 -1.62539 -3.06238 0
M  V30 18355 C 1710.87 -2.85632 -3.20489 0
M  V30 18356 C 1710.1 -2.86181 -4.50485 0
M  V30 18357 O 1710.32 -1.96099 -5.35632 0
M  V30 18358 O 1709.26 -3.7798 -4.68417 0
M  V30 18359 H 1713.08 -2.5798 -1.6025 0
M  V30 18360 H 1710.67 -1.30253 -0.73174 0
M  V30 18361 H 1712.55 -1.65634 -3.87483 0
M  V30 18362 H 1711.23 -0.696779 -3.16112 0
M  V30 18363 H 1710.13 -2.88084 -2.3866 0
M  V30 18364 H 1711.47 -3.7777 -3.15517 0
M  V30 18365 N 1713.12 0.808639 -1.35273 0
M  V30 18366 C 1714.03 1.95198 -1.30134 0
M  V30 18367 C 1715.04 1.72769 -0.206587 0
M  V30 18368 O 1716.22 1.96633 -0.4356 0
M  V30 18369 C 1713.28 3.29747 -1.07087 0
M  V30 18370 C 1712.35 3.65086 -2.25855 0
M  V30 18371 C 1711.58 4.93215 -2.03898 0
M  V30 18372 O 1711.8 5.61487 -1.00439 0
M  V30 18373 O 1710.74 5.26765 -2.91208 0
M  V30 18374 H 1714.56 2.0248 -2.26353 0
M  V30 18375 H 1712.15 0.946124 -1.15624 0
M  V30 18376 H 1714.03 4.10302 -0.960734 0
M  V30 18377 H 1712.7 3.23401 -0.139177 0
M  V30 18378 H 1711.61 2.84917 -2.42432 0
M  V30 18379 H 1712.94 3.76135 -3.17464 0
M  V30 18380 N 1714.6 1.19237 1.03055 0
M  V30 18381 C 1715.53 0.886348 2.11368 0
M  V30 18382 C 1716.54 -0.120256 1.62355 0
M  V30 18383 O 1717.73 0.108934 1.78167 0
M  V30 18384 C 1714.83 0.304819 3.37526 0
M  V30 18385 C 1714 1.35957 4.15734 0
M  V30 18386 C 1713.06 0.791885 5.20207 0
M  V30 18387 O 1712.09 1.46916 5.49913 0
M  V30 18388 N 1713.29 -0.40564 5.79081 0
M  V30 18389 H 1716.06 1.81867 2.38211 0
M  V30 18390 H 1713.62 1.09414 1.19332 0
M  V30 18391 H 1715.61 -0.0887629 4.04603 0
M  V30 18392 H 1714.18 -0.531744 3.08044 0
M  V30 18393 H 1713.4 1.92806 3.43831 0
M  V30 18394 H 1714.69 2.07034 4.64773 0
M  V30 18395 H 1714.08 -0.973423 5.57262 0
M  V30 18396 H 1712.64 -0.741021 6.47574 0
M  V30 18397 N 1716.07 -1.22136 0.99602 0
M  V30 18398 C 1717.32 -1.9125 0.674632 0
M  V30 18399 C 1717.65 -1.77331 -0.791655 0
M  V30 18400 O 1716.93 -1.14419 -1.57285 0
M  V30 18401 C 1717.21 -3.43359 1.08521 0
M  V30 18402 C 1717.06 -3.66312 2.61028 0
M  V30 18403 C 1718.38 -4.3541 0.640795 0
M  V30 18404 H 1715.5 -0.694534 0.246559 0
M  V30 18405 H 1718.14 -1.4395 1.2401 0
M  V30 18406 H 1716.29 -3.83775 0.604071 0
M  V30 18407 H 1717.97 -3.3528 3.16836 0
M  V30 18408 H 1716.21 -3.10485 3.02954 0
M  V30 18409 H 1716.88 -4.72852 2.84807 0
M  V30 18410 H 1719.36 -4.02527 1.05411 0
M  V30 18411 H 1718.23 -5.40505 0.956337 0
M  V30 18412 H 1718.49 -4.39717 -0.458421 0
M  V30 18413 N 1717.55 -0.769612 -1.37531 0
M  V30 18414 C 1718.5 -0.142211 -2.32165 0
M  V30 18415 C 1719.49 0.687376 -1.54827 0
M  V30 18416 O 1720.7 0.584677 -1.7024 0
M  V30 18417 H 1717.08 -0.0271998 -0.751508 0
M  V30 18418 H 1719.05 -0.956148 -2.82667 0
M  V30 18419 C 1717.8 0.72421 -3.40074 0
M  V30 18420 H 1717.12 0.0952318 -3.99687 0
M  V30 18421 H 1718.56 1.13021 -4.08659 0
M  V30 18422 C 1717.02 1.87388 -2.79977 0
M  V30 18423 O 1717.55 2.96921 -2.70557 0
M  V30 18424 N 1715.75 1.67384 -2.37552 0
M  V30 18425 H 1715.3 0.782941 -2.45414 0
M  V30 18426 H 1715.26 2.44474 -1.97686 0
M  V30 18427 N 1719.03 1.48775 -0.519977 0
M  V30 18428 C 1720.26 2.07394 0.0161061 0
M  V30 18429 C 1720.68 1.37532 1.28322 0
M  V30 18430 O 1720.04 0.438049 1.75928 0
M  V30 18431 C 1720.09 3.59844 0.233382 0
M  V30 18432 O 1719.19 3.91235 1.30418 0
M  V30 18433 H 1718.53 0.663094 -0.0346678 0
M  V30 18434 H 1721.06 1.91323 -0.725029 0
M  V30 18435 H 1721.07 4.05409 0.45911 0
M  V30 18436 H 1719.75 4.10098 -0.69229 0
M  V30 18437 H 1718.32 3.5746 1.0619 0
M  V30 18438 N 1720.51 0.254649 1.55529 0
M  V30 18439 C 1721.44 -0.635656 2.24681 0
M  V30 18440 C 1722.42 -1.17519 1.22977 0
M  V30 18441 O 1723.6 -1.21311 1.51649 0
M  V30 18442 C 1720.73 -1.82922 2.95224 0
M  V30 18443 C 1719.69 -1.42212 4.03683 0
M  V30 18444 C 1719.01 -2.69713 4.61691 0
M  V30 18445 C 1720.31 -0.587436 5.18986 0
M  V30 18446 H 1722.01 -0.0590063 2.99342 0
M  V30 18447 H 1719.55 -0.02694 1.43975 0
M  V30 18448 H 1721.51 -2.45777 3.42304 0
M  V30 18449 H 1720.23 -2.43137 2.18064 0
M  V30 18450 H 1718.89 -0.81687 3.57383 0
M  V30 18451 H 1718.54 -3.28143 3.81223 0
M  V30 18452 H 1718.24 -2.43194 5.34911 0
M  V30 18453 H 1719.76 -3.33453 5.11509 0
M  V30 18454 H 1721.18 -1.12048 5.62244 0
M  V30 18455 H 1719.57 -0.417988 5.98643 0
M  V30 18456 H 1720.64 0.398577 4.83259 0
M  V30 18457 N 1721.99 -1.57589 -0.0183649 0
M  V30 18458 C 1723.4 -1.7799 -0.563591 0
M  V30 18459 C 1723.75 -0.887064 -1.75002 0
M  V30 18460 O 1722.87 -0.0846843 -2.16234 0
M  V30 18461 C 1723.47 -3.2279 -1.02919 0
M  V30 18462 C 1722.03 -3.44351 -1.51986 0
M  V30 18463 C 1721.17 -2.73412 -0.462727 0
M  V30 18464 H 1724.13 -1.57333 0.207849 0
M  V30 18465 H 1724.15 -3.29892 -1.89609 0
M  V30 18466 H 1723.66 -3.87747 -0.165487 0
M  V30 18467 H 1721.76 -2.84583 -2.40506 0
M  V30 18468 H 1721.87 -4.52992 -1.55998 0
M  V30 18469 H 1720.24 -2.37496 -0.920211 0
M  V30 18470 H 1721.02 -3.41058 0.391698 0
M  V30 18471 N 1723.46 0.290824 -1.54893 0
M  V30 18472 C 1724.71 1.02272 -1.74312 0
M  V30 18473 C 1725.03 1.87449 -0.537393 0
M  V30 18474 O 1724.3 1.90705 0.448135 0
M  V30 18475 H 1722.88 0.380592 -0.642774 0
M  V30 18476 H 1725.55 0.319353 -1.92266 0
M  V30 18477 H 1724.64 1.66997 -2.63663 0
M  V30 18478 N 1724.94 1.47523 0.554506 0
M  V30 18479 C 1726.17 1.58154 1.34172 0
M  V30 18480 C 1726.59 0.233124 1.8665 0
M  V30 18481 O 1725.95 -0.791439 1.63113 0
M  V30 18482 C 1726 2.61242 2.48566 0
M  V30 18483 O 1725.1 2.167 3.50877 0
M  V30 18484 H 1724.44 0.531184 0.398421 0
M  V30 18485 H 1726.97 1.93324 0.669841 0
M  V30 18486 H 1726.98 2.81746 2.95098 0
M  V30 18487 H 1725.66 3.59148 2.09727 0
M  V30 18488 H 1724.24 2.06305 3.10632 0
M  V30 18489 N 1726.42 -0.801453 1.357 0
M  V30 18490 C 1727.67 -1.55392 1.28594 0
M  V30 18491 C 1727.98 -1.95125 -0.136199 0
M  V30 18492 O 1729.19 -2.69492 -0.329568 0
M  V30 18493 C 1727.64 -2.80456 2.2555 0
M  V30 18494 C 1727.25 -2.47939 3.73135 0
M  V30 18495 C 1729 -3.58457 2.27396 0
M  V30 18496 C 1726.9 -3.69326 4.61901 0
M  V30 18497 H 1725.83 -0.583286 0.477801 0
M  V30 18498 H 1728.48 -0.880525 1.60994 0
M  V30 18499 H 1726.87 -3.49532 1.86127 0
M  V30 18500 H 1728.04 -1.86837 4.21223 0
M  V30 18501 H 1726.36 -1.83173 3.73947 0
M  V30 18502 H 1728.95 -4.48625 2.90929 0
M  V30 18503 H 1729.3 -3.96162 1.27912 0
M  V30 18504 H 1729.83 -2.96348 2.65373 0
M  V30 18505 H 1726.57 -3.36726 5.62402 0
M  V30 18506 H 1726.09 -4.29636 4.18536 0
M  V30 18507 H 1727.77 -4.36496 4.77578 0
M  V30 18508 N 1727.9 -1.19782 -1.02421 0
M  V30 18509 C 1729.13 -1.02871 -1.79514 0
M  V30 18510 C 1729.54 0.422387 -1.84014 0
M  V30 18511 O 1728.9 1.29335 -1.28758 0
M  V30 18512 C 1728.95 -1.59634 -3.24344 0
M  V30 18513 O 1728.67 -2.99064 -3.20144 0
M  V30 18514 C 1730.17 -1.47571 -4.18016 0
M  V30 18515 H 1727.39 -0.362301 -0.564782 0
M  V30 18516 H 1729.94 -1.58701 -1.28974 0
M  V30 18517 H 1728.09 -1.07942 -3.72058 0
M  V30 18518 H 1728.5 -3.25859 -4.10994 0
M  V30 18519 H 1729.98 -1.92061 -5.1751 0
M  V30 18520 H 1730.46 -0.426967 -4.3712 0
M  V30 18521 H 1731.06 -1.98417 -3.76179 0
M  V30 18522 N 1729.38 1.21606 -1.00248 0
M  V30 18523 C 1730.32 2.23884 -0.560771 0
M  V30 18524 C 1731.29 1.60913 0.411864 0
M  V30 18525 O 1732.48 1.88191 0.314476 0
M  V30 18526 C 1729.62 3.44928 0.108948 0
M  V30 18527 C 1728.73 4.22381 -0.906566 0
M  V30 18528 C 1727.87 5.30787 -0.20937 0
M  V30 18529 C 1726.91 5.99969 -1.2126 0
M  V30 18530 N 1726.04 6.99997 -0.543057 0
M  V30 18531 H 1730.88 2.61029 -1.43764 0
M  V30 18532 H 1728.42 1.28278 -0.719937 0
M  V30 18533 H 1730.38 4.14019 0.514244 0
M  V30 18534 H 1729.01 3.08518 0.949544 0
M  V30 18535 H 1728.06 3.52493 -1.43012 0
M  V30 18536 H 1729.37 4.70009 -1.67013 0
M  V30 18537 H 1728.53 6.06176 0.252164 0
M  V30 18538 H 1727.27 4.84159 0.586621 0
M  V30 18539 H 1726.27 5.23353 -1.68467 0
M  V30 18540 H 1727.5 6.48684 -2.00963 0
M  V30 18541 H 1725.44 6.55585 0.233324 0
M  V30 18542 H 1725.36 7.45679 -1.24492 0
M  V30 18543 H 1726.63 7.7943 -0.104643 0
M  V30 18544 N 1730.86 0.776895 1.37121 0
M  V30 18545 C 1731.82 0.172839 2.28547 0
M  V30 18546 C 1732.82 -0.622508 1.48262 0
M  V30 18547 O 1734.01 -0.44534 1.68411 0
M  V30 18548 C 1731.14 -0.762294 3.32268 0
M  V30 18549 H 1732.33 0.978842 2.83476 0
M  V30 18550 H 1729.89 0.545454 1.46474 0
M  V30 18551 H 1730.62 -1.59311 2.82472 0
M  V30 18552 H 1730.41 -0.194084 3.91619 0
M  V30 18553 H 1731.9 -1.1802 4.00576 0
M  V30 18554 N 1732.33 -1.48497 0.527859 0
M  V30 18555 C 1733.58 -2.02099 -0.00699772 0
M  V30 18556 C 1733.9 -1.40742 -1.34969 0
M  V30 18557 O 1733.17 -0.572059 -1.87361 0
M  V30 18558 H 1731.75 -0.746979 -0.00557445 0
M  V30 18559 H 1734.41 -1.82231 0.691209 0
M  V30 18560 H 1733.51 -3.11881 -0.116893 0
M  V30 18561 N 1733.81 -0.262893 -1.55392 0
M  V30 18562 C 1735.09 0.408525 -1.91286 0
M  V30 18563 C 1735.47 1.74657 -1.18566 0
M  V30 18564 O 1734.82 2.26409 -0.308422 0
M  V30 18565 C 1735.03 0.560865 -3.44464 0
M  V30 18566 C 1736.37 0.849401 -4.16017 0
M  V30 18567 O 1737.4 0.646134 -3.50291 0
M  V30 18568 O 1736.26 1.23741 -5.32307 0
M  V30 18569 H 1733.35 0.221707 -0.796728 0
M  V30 18570 H 1735.9 -0.308143 -1.66879 0
M  V30 18571 H 1734.67 -0.381279 -3.89438 0
M  V30 18572 H 1734.29 1.32747 -3.74785 0
M  V30 18573 N 1735.29 1.57597 0.0100073 0
M  V30 18574 C 1736.54 1.90129 0.696935 0
M  V30 18575 C 1736.86 0.862514 1.7433 0
M  V30 18576 O 1736.12 -0.134054 1.9524 0
M  V30 18577 C 1736.42 3.29416 1.38635 0
M  V30 18578 C 1736.08 4.484 0.474144 0
M  V30 18579 C 1734.75 4.80683 0.222956 0
M  V30 18580 C 1737.1 5.20971 -0.154514 0
M  V30 18581 C 1734.43 5.82915 -0.665351 0
M  V30 18582 C 1736.78 6.24148 -1.03064 0
M  V30 18583 C 1735.44 6.54895 -1.2911 0
M  V30 18584 H 1734.71 0.695732 0.255027 0
M  V30 18585 H 1737.36 1.91451 -0.0433713 0
M  V30 18586 H 1735.66 3.24172 2.20045 0
M  V30 18587 H 1737.36 3.51843 1.92373 0
M  V30 18588 H 1733.95 4.2317 0.680087 0
M  V30 18589 H 1738.14 4.96293 0.0265512 0
M  V30 18590 H 1733.39 6.05103 -0.875259 0
M  V30 18591 H 1737.57 6.79516 -1.52417 0
M  V30 18592 H 1735.19 7.33931 -1.98113 0
M  V30 18593 N 1736.77 -0.282606 1.55045 0
M  V30 18594 C 1737.7 -1.35347 1.90272 0
M  V30 18595 C 1738.68 -1.52001 0.763532 0
M  V30 18596 O 1739.86 -1.65204 1.02085 0
M  V30 18597 C 1736.99 -2.71464 2.16621 0
M  V30 18598 C 1735.95 -2.69554 3.32453 0
M  V30 18599 C 1735.27 -4.09132 3.4426 0
M  V30 18600 C 1736.57 -2.29669 4.69094 0
M  V30 18601 H 1738.27 -1.06113 2.79965 0
M  V30 18602 H 1735.81 -0.509018 1.34703 0
M  V30 18603 H 1737.77 -3.46482 2.39851 0
M  V30 18604 H 1736.49 -3.02261 1.23717 0
M  V30 18605 H 1735.15 -1.96993 3.09175 0
M  V30 18606 H 1734.8 -4.37136 2.4884 0
M  V30 18607 H 1734.5 -4.08751 4.22133 0
M  V30 18608 H 1736.02 -4.85903 3.69771 0
M  V30 18609 H 1737.44 -2.94407 4.91932 0
M  V30 18610 H 1735.83 -2.40467 5.49814 0
M  V30 18611 H 1736.9 -1.24796 4.68566 0
M  V30 18612 N 1738.25 -1.47815 -0.546675 0
M  V30 18613 C 1739.16 -1.63744 -1.68003 0
M  V30 18614 C 1740.17 -0.520118 -1.66044 0
M  V30 18615 O 1741.35 -0.789033 -1.853 0
M  V30 18616 C 1738.41 -1.65778 -3.04497 0
M  V30 18617 C 1737.47 -2.89015 -3.17441 0
M  V30 18618 C 1736.71 -2.90943 -4.47424 0
M  V30 18619 O 1736.93 -2.01769 -5.33522 0
M  V30 18620 O 1735.86 -3.82927 -4.64382 0
M  V30 18621 H 1739.69 -2.59665 -1.57505 0
M  V30 18622 H 1737.27 -1.31022 -0.717883 0
M  V30 18623 H 1739.16 -1.69734 -3.85705 0
M  V30 18624 H 1737.83 -0.730268 -3.15355 0
M  V30 18625 H 1736.74 -2.90599 -2.35591 0
M  V30 18626 H 1738.07 -3.81095 -3.11492 0
M  V30 18627 N 1739.72 0.794246 -1.36123 0
M  V30 18628 C 1740.69 1.88828 -1.2991 0
M  V30 18629 C 1741.69 1.59451 -0.207839 0
M  V30 18630 O 1742.88 1.67953 -0.462321 0
M  V30 18631 C 1740.01 3.25511 -1.01269 0
M  V30 18632 H 1741.2 1.95753 -2.27202 0
M  V30 18633 H 1738.75 0.991505 -1.20826 0
M  V30 18634 H 1739.49 3.2427 -0.0441535 0
M  V30 18635 H 1739.27 3.48221 -1.80234 0
M  V30 18636 H 1740.76 4.0557 -0.995142 0
M  V30 18637 N 1741.2 1.20323 1.01785 0
M  V30 18638 C 1742.15 0.947754 2.12416 0
M  V30 18639 C 1743.14 -0.100443 1.69102 0
M  V30 18640 O 1744.35 0.0498028 1.79931 0
M  V30 18641 H 1740.72 0.289148 0.694188 0
M  V30 18642 H 1742.7 1.88714 2.31149 0
M  V30 18643 C 1741.44 0.51503 3.43864 0
M  V30 18644 H 1740.77 1.31318 3.77618 0
M  V30 18645 H 1742.21 0.375476 4.22334 0
M  V30 18646 C 1740.67 -0.772413 3.27926 0
M  V30 18647 O 1741.2 -1.83115 3.57536 0
M  V30 18648 N 1739.4 -0.733948 2.81179 0
M  V30 18649 H 1738.95 0.127902 2.57282 0
M  V30 18650 H 1738.91 -1.59571 2.70896 0
M  V30 18651 N 1742.68 -1.21073 1.00892 0
M  V30 18652 C 1743.91 -1.93952 0.71178 0
M  V30 18653 C 1744.32 -1.74538 -0.730278 0
M  V30 18654 O 1743.66 -1.05164 -1.50619 0
M  V30 18655 C 1743.72 -3.46502 0.957957 0
M  V30 18656 C 1743.39 -3.89669 2.38762 0
M  V30 18657 C 1744.38 -3.96053 3.36805 0
M  V30 18658 C 1742.07 -4.21873 2.72632 0
M  V30 18659 C 1744.06 -4.34042 4.66783 0
M  V30 18660 C 1741.75 -4.59538 4.02825 0
M  V30 18661 C 1742.75 -4.65593 4.99712 0
M  V30 18662 O 1742.44 -5.02398 6.27576 0
M  V30 18663 H 1742.17 -0.623495 0.261208 0
M  V30 18664 H 1744.72 -1.54728 1.35086 0
M  V30 18665 H 1742.95 -3.85813 0.261704 0
M  V30 18666 H 1744.64 -4.00603 0.653596 0
M  V30 18667 H 1745.41 -3.71346 3.11974 0
M  V30 18668 H 1741.29 -4.16356 1.97912 0
M  V30 18669 H 1744.83 -4.38683 5.42405 0
M  V30 18670 H 1740.73 -4.837 4.27439 0
M  V30 18671 H 1741.49 -5.20417 6.3175 0
M  V30 18672 N 1744.16 -0.784156 -1.36707 0
M  V30 18673 C 1745.09 -0.124956 -2.27858 0
M  V30 18674 C 1746.07 0.695835 -1.46959 0
M  V30 18675 O 1747.25 0.667944 -1.76269 0
M  V30 18676 C 1744.38 0.828816 -3.28403 0
M  V30 18677 C 1743.43 0.0904776 -4.26404 0
M  V30 18678 S 1744.26 -1.23012 -5.2118 0
M  V30 18679 C 1745.42 -0.280212 -6.25272 0
M  V30 18680 H 1745.65 -0.89783 -2.83419 0
M  V30 18681 H 1743.18 -0.578123 -1.43168 0
M  V30 18682 H 1745.14 1.37367 -3.86834 0
M  V30 18683 H 1743.8 1.5749 -2.71764 0
M  V30 18684 H 1742.99 0.813986 -4.97383 0
M  V30 18685 H 1742.6 -0.383737 -3.72026 0
M  V30 18686 H 1744.89 0.542878 -6.75321 0
M  V30 18687 H 1745.83 -0.958538 -7.01582 0
M  V30 18688 H 1746.24 0.114109 -5.64385 0
M  V30 18689 N 1745.64 1.48215 -0.535727 0
M  V30 18690 C 1746.58 2.31387 0.237209 0
M  V30 18691 C 1747.58 1.41589 0.929995 0
M  V30 18692 O 1748.78 1.58466 0.853725 0
M  V30 18693 H 1745.16 0.745928 0.0953663 0
M  V30 18694 H 1747.13 2.94452 -0.483772 0
M  V30 18695 C 1745.88 3.23771 1.26757 0
M  V30 18696 H 1745.2 3.92818 0.743902 0
M  V30 18697 H 1746.64 3.84841 1.7797 0
M  V30 18698 C 1745.1 2.45779 2.30422 0
M  V30 18699 O 1745.63 2.18673 3.36964 0
M  V30 18700 N 1743.84 2.07171 2.03785 0
M  V30 18701 H 1743.38 2.29416 1.17159 0
M  V30 18702 H 1743.34 1.55301 2.73366 0
M  V30 18703 N 1747.11 0.27113 1.5525 0
M  V30 18704 C 1748.04 -0.61179 2.25343 0
M  V30 18705 C 1749.03 -1.16208 1.24216 0
M  V30 18706 O 1750.21 -1.19696 1.52927 0
M  V30 18707 C 1747.34 -1.7978 2.97147 0
M  V30 18708 C 1746.29 -1.37922 4.05169 0
M  V30 18709 C 1745.62 -2.64801 4.64526 0
M  V30 18710 C 1746.92 -0.532357 5.1958 0
M  V30 18711 H 1748.61 -0.0272538 2.99388 0
M  V30 18712 H 1746.16 -0.0116681 1.43995 0
M  V30 18713 H 1748.11 -2.42132 3.44891 0
M  V30 18714 H 1746.84 -2.40811 2.20631 0
M  V30 18715 H 1745.5 -0.778918 3.5823 0
M  V30 18716 H 1745.14 -3.24081 3.84682 0
M  V30 18717 H 1744.84 -2.37507 5.37461 0
M  V30 18718 H 1746.37 -3.28009 5.15017 0
M  V30 18719 H 1747.78 -1.06078 5.63401 0
M  V30 18720 H 1746.18 -0.35447 5.99052 0
M  V30 18721 H 1747.25 0.44981 4.82809 0
M  V30 18722 N 1748.59 -1.576 -0.00164943 0
M  V30 18723 C 1749.52 -2.05167 -1.02173 0
M  V30 18724 C 1750.54 -0.969293 -1.308 0
M  V30 18725 O 1751.73 -1.24612 -1.27805 0
M  V30 18726 C 1748.83 -2.43525 -2.35688 0
M  V30 18727 C 1748 -3.74475 -2.26025 0
M  V30 18728 C 1747.06 -3.99719 -3.42215 0
M  V30 18729 O 1746.08 -4.70408 -3.20476 0
M  V30 18730 N 1747.29 -3.47486 -4.65009 0
M  V30 18731 H 1750.05 -2.93299 -0.616095 0
M  V30 18732 H 1747.61 -1.60792 -0.189066 0
M  V30 18733 H 1749.6 -2.57528 -3.12188 0
M  V30 18734 H 1748.17 -1.6092 -2.67999 0
M  V30 18735 H 1747.39 -3.70564 -1.34447 0
M  V30 18736 H 1748.68 -4.60328 -2.16739 0
M  V30 18737 H 1748.08 -2.9024 -4.85569 0
M  V30 18738 H 1746.64 -3.66822 -5.38781 0
M  V30 18739 N 1750.07 0.274379 -1.55193 0
M  V30 18740 C 1751.49 0.621497 -1.47002 0
M  V30 18741 C 1751.69 1.89572 -0.682995 0
M  V30 18742 O 1750.74 2.51696 -0.201296 0
M  V30 18743 C 1752.06 0.749741 -2.91203 0
M  V30 18744 C 1753.6 0.843886 -3.01409 0
M  V30 18745 C 1754.08 1.00392 -4.46862 0
M  V30 18746 N 1755.57 1.06947 -4.50684 0
M  V30 18747 C 1756.3 1.21207 -5.60443 0
M  V30 18748 N 1755.8 1.32195 -6.80071 0
M  V30 18749 N 1757.59 1.24307 -5.48183 0
M  V30 18750 H 1749.74 -0.562462 -2.04817 0
M  V30 18751 H 1752.01 -0.190205 -0.928723 0
M  V30 18752 H 1751.71 -0.116074 -3.51508 0
M  V30 18753 H 1751.59 1.63046 -3.40141 0
M  V30 18754 H 1753.97 1.70017 -2.41202 0
M  V30 18755 H 1754.06 -0.061411 -2.55726 0
M  V30 18756 H 1753.7 0.152298 -5.07672 0
M  V30 18757 H 1753.63 1.92384 -4.902 0
M  V30 18758 H 1756.12 0.997012 -3.64511 0
M  V30 18759 H 1756.43 1.42906 -7.59472 0
M  V30 18760 H 1754.78 1.29202 -6.82885 0
M  V30 18761 H 1757.97 1.15352 -4.53665 0
M  V30 18762 H 1758.14 1.35076 -6.33765 0
M  V30 18763 N 1751.55 1.48103 0.538828 0
M  V30 18764 C 1752.77 1.59568 1.32487 0
M  V30 18765 C 1753.2 0.252908 1.86392 0
M  V30 18766 O 1752.56 -0.774094 1.63944 0
M  V30 18767 C 1752.6 2.63863 2.45782 0
M  V30 18768 O 1751.71 2.20409 3.48559 0
M  V30 18769 H 1751.05 0.53538 0.392765 0
M  V30 18770 H 1753.58 1.94024 0.649299 0
M  V30 18771 H 1753.59 2.8486 2.92093 0
M  V30 18772 H 1752.26 3.61352 2.05906 0
M  V30 18773 H 1750.84 2.09588 3.08427 0
M  V30 18774 N 1753.03 -0.787016 1.36542 0
M  V30 18775 C 1754.26 -1.5736 1.33871 0
M  V30 18776 C 1754.66 -1.89024 -0.0814846 0
M  V30 18777 O 1754.01 -1.50771 -1.04947 0
M  V30 18778 C 1754.07 -2.91978 2.09735 0
M  V30 18779 C 1753.73 -2.8303 3.58808 0
M  V30 18780 C 1754.73 -2.55108 4.53008 0
M  V30 18781 C 1752.42 -3.01531 4.01727 0
M  V30 18782 C 1754.41 -2.45793 5.88103 0
M  V30 18783 C 1752.1 -2.91838 5.36911 0
M  V30 18784 C 1753.09 -2.64007 6.29912 0
M  V30 18785 O 1752.78 -2.54312 7.62614 0
M  V30 18786 H 1752.51 -0.494659 0.460748 0
M  V30 18787 H 1755.07 -0.984519 1.80268 0
M  V30 18788 H 1753.3 -3.52946 1.58005 0
M  V30 18789 H 1754.99 -3.53268 1.99891 0
M  V30 18790 H 1755.75 -2.40514 4.21163 0
M  V30 18791 H 1751.63 -3.22199 3.2971 0
M  V30 18792 H 1755.18 -2.23991 6.60662 0
M  V30 18793 H 1751.07 -3.05995 5.68364 0
M  V30 18794 H 1751.84 -2.69776 7.72763 0
M  V30 18795 N 1754.5 -1.20861 -1.01145 0
M  V30 18796 C 1755.73 -1.04769 -1.78413 0
M  V30 18797 C 1756.15 0.402846 -1.84452 0
M  V30 18798 O 1755.5 1.27962 -1.30123 0
M  V30 18799 C 1755.56 -1.63065 -3.22633 0
M  V30 18800 O 1755.28 -3.02443 -3.16954 0
M  V30 18801 C 1756.78 -1.51996 -4.16428 0
M  V30 18802 H 1754 -0.368271 -0.560908 0
M  V30 18803 H 1756.54 -1.6006 -1.27283 0
M  V30 18804 H 1754.7 -1.11882 -3.70892 0
M  V30 18805 H 1755.11 -3.30199 -4.07515 0
M  V30 18806 H 1756.58 -1.97539 -5.15444 0
M  V30 18807 H 1757.06 -0.473305 -4.36642 0
M  V30 18808 H 1757.67 -2.02396 -3.74054 0
M  V30 18809 N 1755.98 1.20536 -1.01532 0
M  V30 18810 C 1757.23 1.90152 -0.704973 0
M  V30 18811 C 1757.56 1.78569 0.763343 0
M  V30 18812 O 1756.84 1.16906 1.55445 0
M  V30 18813 C 1757.12 3.41589 -1.1397 0
M  V30 18814 C 1756.97 3.62113 -2.66823 0
M  V30 18815 C 1758.29 4.34335 -0.709984 0
M  V30 18816 H 1755.41 0.690524 -0.257577 0
M  V30 18817 H 1758.05 1.41959 -1.26284 0
M  V30 18818 H 1756.2 3.82765 -0.66505 0
M  V30 18819 H 1757.87 3.30197 -3.2213 0
M  V30 18820 H 1756.12 3.05626 -3.07855 0
M  V30 18821 H 1756.79 4.68261 -2.92294 0
M  V30 18822 H 1759.26 4.00799 -1.11801 0
M  V30 18823 H 1758.14 5.38915 -1.04221 0
M  V30 18824 H 1758.4 4.40391 0.388408 0
M  V30 18825 N 1757.46 0.791395 1.36289 0
M  V30 18826 C 1758.42 0.197069 2.28351 0
M  V30 18827 C 1759.42 -0.606748 1.48913 0
M  V30 18828 O 1760.61 -0.427453 1.68874 0
M  V30 18829 C 1757.75 -0.727009 3.33058 0
M  V30 18830 H 1758.94 1.00885 2.82422 0
M  V30 18831 H 1756.49 0.560959 1.45887 0
M  V30 18832 H 1757.23 -1.56306 2.84146 0
M  V30 18833 H 1757.01 -0.152537 3.91803 0
M  V30 18834 H 1758.5 -1.13765 4.01805 0
M  V30 18835 N 1758.94 -1.47929 0.54358 0
M  V30 18836 C 1760.19 -2.01696 0.0123924 0
M  V30 18837 C 1760.5 -1.42469 -1.34022 0
M  V30 18838 O 1761.71 -1.87816 -1.96054 0
M  V30 18839 C 1760.16 -3.59889 -0.0282734 0
M  V30 18840 C 1759.77 -4.28104 1.32027 0
M  V30 18841 C 1761.52 -4.21455 -0.507571 0
M  V30 18842 C 1759.42 -5.78266 1.23945 0
M  V30 18843 H 1758.35 -0.754 0.000862593 0
M  V30 18844 H 1761 -1.70058 0.689396 0
M  V30 18845 H 1759.39 -3.88429 -0.770641 0
M  V30 18846 H 1760.56 -4.11221 2.07927 0
M  V30 18847 H 1758.87 -3.78468 1.7364 0
M  V30 18848 H 1761.47 -5.31477 -0.586219 0
M  V30 18849 H 1761.81 -3.87696 -1.51648 0
M  V30 18850 H 1762.35 -3.97395 0.179522 0
M  V30 18851 H 1759.09 -6.16621 2.22393 0
M  V30 18852 H 1758.61 -5.97524 0.522029 0
M  V30 18853 H 1760.29 -6.40197 0.935788 0
M  V30 18854 N 1760.42 -0.27936 -1.55104 0
M  V30 18855 C 1761.38 0.593214 -2.2139 0
M  V30 18856 C 1762.38 1.07807 -1.19308 0
M  V30 18857 O 1763.57 0.97756 -1.44185 0
M  V30 18858 C 1760.7 1.81889 -2.88321 0
M  V30 18859 H 1761.9 0.0143941 -2.99897 0
M  V30 18860 H 1759.45 -0.0300083 -1.56271 0
M  V30 18861 H 1760.18 2.43811 -2.13838 0
M  V30 18862 H 1759.97 1.4791 -3.63132 0
M  V30 18863 H 1761.46 2.4393 -3.38951 0
M  V30 18864 N 1761.9 1.57599 -0.0067085 0
M  V30 18865 C 1763.14 1.90481 0.675393 0
M  V30 18866 C 1763.46 0.881481 1.73939 0
M  V30 18867 O 1762.73 -0.0801928 1.95736 0
M  V30 18868 H 1761.31 0.703048 0.252452 0
M  V30 18869 H 1763.98 1.94838 -0.04922 0
M  V30 18870 H 1763.07 2.90441 1.14239 0
M  V30 18871 N 1763.37 -0.266145 1.55336 0
M  V30 18872 C 1764.6 -1.01342 1.80037 0
M  V30 18873 C 1765.01 -1.80175 0.577368 0
M  V30 18874 O 1764.35 -1.77765 -0.46318 0
M  V30 18875 C 1764.42 -2.0141 2.97782 0
M  V30 18876 C 1764.08 -1.4145 4.34558 0
M  V30 18877 C 1765.08 -0.826689 5.13285 0
M  V30 18878 C 1762.76 -1.43964 4.81227 0
M  V30 18879 C 1764.76 -0.272004 6.36819 0
M  V30 18880 C 1762.44 -0.881101 6.04715 0
M  V30 18881 C 1763.44 -0.298287 6.82348 0
M  V30 18882 O 1763.13 0.251684 8.03506 0
M  V30 18883 H 1762.86 -0.304756 0.603407 0
M  V30 18884 H 1765.42 -0.300216 2.03194 0
M  V30 18885 H 1763.65 -2.76508 2.70334 0
M  V30 18886 H 1765.33 -2.62321 3.09746 0
M  V30 18887 H 1766.1 -0.79991 4.78358 0
M  V30 18888 H 1761.98 -1.88267 4.20805 0
M  V30 18889 H 1765.52 0.183538 6.97359 0
M  V30 18890 H 1761.42 -0.905142 6.39122 0
M  V30 18891 H 1762.19 0.1417 8.18377 0
M  V30 18892 N 1764.85 -1.48386 -0.530967 0
M  V30 18893 C 1765.81 -1.62355 -1.61782 0
M  V30 18894 C 1766.81 -0.496909 -1.5293 0
M  V30 18895 O 1768 -0.762672 -1.56617 0
M  V30 18896 C 1765.14 -1.59282 -3.014 0
M  V30 18897 H 1766.33 -2.59265 -1.50737 0
M  V30 18898 H 1763.88 -1.36969 -0.752948 0
M  V30 18899 H 1764.62 -0.638453 -3.17953 0
M  V30 18900 H 1764.4 -2.41073 -3.09235 0
M  V30 18901 H 1765.89 -1.72248 -3.80421 0
M  V30 18902 N 1766.33 0.779763 -1.36958 0
M  V30 18903 C 1767.26 1.90687 -1.34762 0
M  V30 18904 C 1768.24 1.68704 -0.217508 0
M  V30 18905 O 1769.43 1.89678 -0.416639 0
M  V30 18906 C 1766.56 3.27854 -1.14582 0
M  V30 18907 C 1765.51 3.64383 -2.2452 0
M  V30 18908 C 1764.84 5.00004 -1.89473 0
M  V30 18909 C 1766.14 3.71963 -3.66662 0
M  V30 18910 H 1767.83 1.92781 -2.29076 0
M  V30 18911 H 1765.38 0.926102 -1.10269 0
M  V30 18912 H 1767.33 4.06332 -1.11678 0
M  V30 18913 H 1766.05 3.26172 -0.167218 0
M  V30 18914 H 1764.71 2.88207 -2.26566 0
M  V30 18915 H 1764.36 4.94853 -0.901617 0
M  V30 18916 H 1764.06 5.25414 -2.63085 0
M  V30 18917 H 1765.58 5.80892 -1.88141 0
M  V30 18918 H 1767 4.40611 -3.6679 0
M  V30 18919 H 1765.39 4.08864 -4.39261 0
M  V30 18920 H 1766.46 2.72824 -4.00868 0
M  V30 18921 N 1767.81 1.21396 1.00503 0
M  V30 18922 C 1768.77 0.974756 2.07439 0
M  V30 18923 C 1769.77 -0.0542142 1.60709 0
M  V30 18924 O 1770.96 0.183056 1.73236 0
M  V30 18925 C 1768.09 0.46989 3.37646 0
M  V30 18926 H 1769.29 1.92346 2.30094 0
M  V30 18927 H 1766.84 1.03095 1.17479 0
M  V30 18928 H 1767.57 -0.483735 3.20672 0
M  V30 18929 H 1767.36 1.2121 3.72895 0
M  V30 18930 H 1768.85 0.322393 4.16354 0
M  V30 18931 N 1769.29 -1.19996 1.0217 0
M  V30 18932 C 1770.22 -2.22392 0.55446 0
M  V30 18933 C 1771.23 -1.58636 -0.36586 0
M  V30 18934 O 1772.42 -1.77751 -0.163394 0
M  V30 18935 C 1769.52 -3.38235 -0.212234 0
M  V30 18936 C 1768.69 -4.31578 0.711253 0
M  V30 18937 C 1767.75 -5.26199 -0.00876314 0
M  V30 18938 O 1766.78 -5.65863 0.615435 0
M  V30 18939 N 1767.98 -5.66169 -1.28192 0
M  V30 18940 H 1770.74 -2.63107 1.43509 0
M  V30 18941 H 1768.31 -1.34589 0.899853 0
M  V30 18942 H 1770.3 -3.98542 -0.703282 0
M  V30 18943 H 1768.87 -2.96369 -0.994205 0
M  V30 18944 H 1768.09 -3.69161 1.38252 0
M  V30 18945 H 1769.38 -4.90861 1.33915 0
M  V30 18946 H 1768.77 -5.35966 -1.8099 0
M  V30 18947 H 1767.33 -6.28762 -1.7176 0
M  V30 18948 N 1770.76 -0.798611 -1.35867 0
M  V30 18949 C 1771.7 -0.149116 -2.27712 0
M  V30 18950 C 1772.67 0.680209 -1.47689 0
M  V30 18951 O 1773.86 0.649211 -1.76968 0
M  V30 18952 C 1770.99 0.793938 -3.29263 0
M  V30 18953 C 1770.03 0.0452467 -4.26476 0
M  V30 18954 S 1770.86 -1.28533 -5.19846 0
M  V30 18955 C 1772.02 -0.346515 -6.2494 0
M  V30 18956 H 1772.25 -0.92784 -2.82451 0
M  V30 18957 H 1769.79 -0.593276 -1.42547 0
M  V30 18958 H 1771.74 1.33256 -3.88269 0
M  V30 18959 H 1770.41 1.54598 -2.73419 0
M  V30 18960 H 1769.6 0.761186 -4.98219 0
M  V30 18961 H 1769.2 -0.423174 -3.71598 0
M  V30 18962 H 1771.49 0.47122 -6.75859 0
M  V30 18963 H 1772.44 -1.0329 -7.00526 0
M  V30 18964 H 1772.84 0.0542422 -5.64474 0
M  V30 18965 N 1772.24 1.47639 -0.551417 0
M  V30 18966 C 1773.49 2.02084 -0.0251553 0
M  V30 18967 C 1773.81 1.42872 1.32713 0
M  V30 18968 O 1773.08 0.601794 1.86428 0
M  V30 18969 H 1771.66 0.746973 -0.00631005 0
M  V30 18970 H 1774.32 1.81109 -0.720113 0
M  V30 18971 H 1773.42 3.12028 0.0672608 0
M  V30 18972 N 1773.72 0.287581 1.54954 0
M  V30 18973 C 1775.14 -0.0662092 1.59463 0
M  V30 18974 C 1775.34 -1.53556 1.30471 0
M  V30 18975 O 1774.39 -2.28632 1.07161 0
M  V30 18976 C 1775.71 0.319651 2.98996 0
M  V30 18977 C 1777.25 0.2673 3.11857 0
M  V30 18978 C 1777.73 0.627784 4.53677 0
M  V30 18979 N 1779.22 0.579808 4.59557 0
M  V30 18980 C 1779.95 0.831377 5.67341 0
M  V30 18981 N 1779.45 1.14821 6.83219 0
M  V30 18982 N 1781.24 0.759337 5.56947 0
M  V30 18983 H 1773.39 1.24534 1.72062 0
M  V30 18984 H 1775.66 0.503969 0.802944 0
M  V30 18985 H 1775.36 1.34201 3.25089 0
M  V30 18986 H 1775.24 -0.333373 3.75724 0
M  V30 18987 H 1777.62 -0.745794 2.8552 0
M  V30 18988 H 1777.71 0.954759 2.37314 0
M  V30 18989 H 1777.35 1.63862 4.80741 0
M  V30 18990 H 1777.28 -0.0816007 5.26537 0
M  V30 18991 H 1779.77 0.34531 3.76319 0
M  V30 18992 H 1780.08 1.32651 7.6133 0
M  V30 18993 H 1778.43 1.18612 6.84804 0
M  V30 18994 H 1781.62 0.511563 4.65296 0
M  V30 18995 H 1781.79 0.95877 6.40868 0
M  V30 18996 N 1775.2 -1.57593 0.0150662 0
M  V30 18997 C 1776.13 -2.12395 -0.970081 0
M  V30 18998 C 1777.11 -1.03666 -1.34861 0
M  V30 18999 O 1778.29 -1.31427 -1.4297 0
M  V30 19000 C 1775.42 -2.63958 -2.25707 0
M  V30 19001 C 1774.38 -3.77348 -2.01971 0
M  V30 19002 C 1773.7 -4.15284 -3.36814 0
M  V30 19003 C 1775 -5.04008 -1.37017 0
M  V30 19004 H 1776.7 -2.9496 -0.513731 0
M  V30 19005 H 1774.24 -1.41889 -0.245666 0
M  V30 19006 H 1776.2 -3.00927 -2.94993 0
M  V30 19007 H 1774.92 -1.78535 -2.73483 0
M  V30 19008 H 1773.58 -3.40795 -1.35107 0
M  V30 19009 H 1773.23 -3.26863 -3.82321 0
M  V30 19010 H 1772.93 -4.91686 -3.21744 0
M  V30 19011 H 1774.45 -4.54824 -4.07391 0
M  V30 19012 H 1775.87 -5.38652 -1.96282 0
M  V30 19013 H 1774.26 -5.85315 -1.32388 0
M  V30 19014 H 1775.33 -4.83698 -0.341281 0
M  V30 19015 N 1776.68 0.257904 -1.55475 0
M  V30 19016 C 1777.62 1.31912 -1.89388 0
M  V30 19017 C 1778.59 1.48358 -0.746927 0
M  V30 19018 O 1779.78 1.62521 -0.999584 0
M  V30 19019 C 1776.92 2.67162 -2.18446 0
M  V30 19020 C 1776.03 2.58814 -3.45889 0
M  V30 19021 C 1775.17 3.86343 -3.64571 0
M  V30 19022 C 1774.21 3.72567 -4.85654 0
M  V30 19023 N 1773.34 4.91964 -5.00915 0
M  V30 19024 H 1778.18 1.02291 -2.79894 0
M  V30 19025 H 1775.72 0.493864 -1.38562 0
M  V30 19026 H 1777.68 3.45874 -2.33296 0
M  V30 19027 H 1776.31 2.94954 -1.31157 0
M  V30 19028 H 1775.36 1.7173 -3.39431 0
M  V30 19029 H 1776.67 2.4454 -4.34743 0
M  V30 19030 H 1775.83 4.73498 -3.79321 0
M  V30 19031 H 1774.56 4.03501 -2.7393 0
M  V30 19032 H 1773.57 2.83795 -4.70893 0
M  V30 19033 H 1774.79 3.56914 -5.77745 0
M  V30 19034 H 1772.74 5.09505 -4.13208 0
M  V30 19035 H 1772.66 4.80279 -5.83839 0
M  V30 19036 H 1773.93 5.80649 -5.20064 0
M  V30 19037 N 1778.15 1.48666 0.52309 0
M  V30 19038 C 1779.4 1.56724 1.27601 0
M  V30 19039 C 1779.72 0.245958 1.93443 0
M  V30 19040 O 1778.99 -0.733053 1.81668 0
M  V30 19041 H 1777.57 0.57739 0.473952 0
M  V30 19042 H 1780.24 1.85169 0.608144 0
M  V30 19043 H 1779.33 2.35188 2.05166 0
M  V30 19044 N 1779.63 -0.772489 1.37369 0
M  V30 19045 C 1781.04 -1.34873 1.29098 0
M  V30 19046 C 1781.39 -1.96103 -0.0617433 0
M  V30 19047 O 1780.52 -1.93764 -0.963562 0
M  V30 19048 C 1781.11 -2.45218 2.33781 0
M  V30 19049 C 1779.67 -2.98612 2.29146 0
M  V30 19050 C 1778.82 -1.71823 2.17651 0
M  V30 19051 H 1781.77 -0.572805 1.48002 0
M  V30 19052 H 1781.79 -3.24679 1.98404 0
M  V30 19053 H 1781.3 -2.00624 3.32222 0
M  V30 19054 H 1779.41 -3.47583 1.34225 0
M  V30 19055 H 1779.52 -3.54276 3.22529 0
M  V30 19056 H 1777.88 -1.94719 1.64185 0
M  V30 19057 H 1778.67 -1.29334 3.18006 0
M  V30 19058 N 1781.11 -1.21927 -0.998575 0
M  V30 19059 C 1782.04 -1.00845 -2.106 0
M  V30 19060 C 1783.02 0.068733 -1.69961 0
M  V30 19061 O 1784.21 -0.0923686 -1.9398 0
M  V30 19062 C 1781.34 -0.57929 -3.42435 0
M  V30 19063 C 1780.29 -1.60177 -3.96897 0
M  V30 19064 C 1779.62 -1.02863 -5.24713 0
M  V30 19065 C 1780.92 -2.9903 -4.28227 0
M  V30 19066 H 1782.61 -1.93469 -2.28495 0
M  V30 19067 H 1780.16 -0.931612 -1.09804 0
M  V30 19068 H 1782.11 -0.418944 -4.19312 0
M  V30 19069 H 1780.83 0.382608 -3.24351 0
M  V30 19070 H 1779.49 -1.74979 -3.22146 0
M  V30 19071 H 1779.14 -0.058254 -5.02966 0
M  V30 19072 H 1778.84 -1.71166 -5.62117 0
M  V30 19073 H 1780.36 -0.879743 -6.04229 0
M  V30 19074 H 1781.78 -2.87634 -4.95923 0
M  V30 19075 H 1780.18 -3.64404 -4.76791 0
M  V30 19076 H 1781.25 -3.4939 -3.36236 0
M  V30 19077 N 1782.59 1.19452 -1.02805 0
M  V30 19078 C 1783.52 2.24875 -0.628752 0
M  V30 19079 C 1784.5 1.66207 0.361844 0
M  V30 19080 O 1785.68 1.92652 0.244743 0
M  V30 19081 C 1782.81 3.47293 0.0220954 0
M  V30 19082 C 1781.77 4.1863 -0.890693 0
M  V30 19083 C 1781.09 5.34597 -0.104997 0
M  V30 19084 C 1782.39 4.73518 -2.20405 0
M  V30 19085 H 1784.09 2.5853 -1.51005 0
M  V30 19086 H 1781.63 1.24271 -0.727518 0
M  V30 19087 H 1783.59 4.20235 0.313073 0
M  V30 19088 H 1782.31 3.12835 0.938182 0
M  V30 19089 H 1780.97 3.47568 -1.16585 0
M  V30 19090 H 1780.62 4.96385 0.813098 0
M  V30 19091 H 1780.32 5.83258 -0.712983 0
M  V30 19092 H 1781.84 6.10337 0.179259 0
M  V30 19093 H 1783.26 5.3822 -1.97465 0
M  V30 19094 H 1781.65 5.32663 -2.76388 0
M  V30 19095 H 1782.72 3.9163 -2.85926 0
M  V30 19096 N 1784.07 0.805805 1.35442 0
M  V30 19097 C 1785.01 0.203715 2.31706 0
M  V30 19098 C 1786.01 -0.646084 1.56595 0
M  V30 19099 O 1787.21 -0.539336 1.7173 0
M  V30 19100 H 1783.59 0.0471152 0.750523 0
M  V30 19101 H 1785.56 1.03076 2.80032 0
M  V30 19102 C 1784.31 -0.633791 3.41875 0
M  V30 19103 H 1783.63 0.0107715 3.99799 0
M  V30 19104 H 1785.07 -1.02147 4.11512 0
M  V30 19105 C 1783.53 -1.79899 2.84847 0
M  V30 19106 O 1784.06 -2.89643 2.78334 0
M  V30 19107 N 1782.27 -1.61027 2.41906 0
M  V30 19108 H 1781.81 -0.717599 2.47403 0
M  V30 19109 H 1781.77 -2.39147 2.04099 0
M  V30 19110 N 1785.54 -1.47344 0.559239 0
M  V30 19111 C 1786.49 -2.30039 -0.187317 0
M  V30 19112 C 1787.46 -1.39186 -0.906443 0
M  V30 19113 O 1788.65 -1.68147 -0.901739 0
M  V30 19114 C 1785.79 -3.2319 -1.21004 0
M  V30 19115 C 1784.9 -4.29134 -0.496776 0
M  V30 19116 C 1784.03 -5.09435 -1.50497 0
M  V30 19117 C 1783.07 -6.07151 -0.776794 0
M  V30 19118 N 1782.21 -6.80404 -1.73192 0
M  V30 19119 H 1787.05 -2.93357 0.523978 0
M  V30 19120 H 1784.59 -1.44597 0.270225 0
M  V30 19121 H 1786.55 -3.75621 -1.81561 0
M  V30 19122 H 1785.18 -2.61732 -1.88935 0
M  V30 19123 H 1784.23 -3.79744 0.223359 0
M  V30 19124 H 1785.54 -4.98746 0.0735731 0
M  V30 19125 H 1784.69 -5.66026 -2.18402 0
M  V30 19126 H 1783.43 -4.3973 -2.10924 0
M  V30 19127 H 1782.44 -5.49736 -0.0838382 0
M  V30 19128 H 1783.66 -6.78866 -0.178239 0
M  V30 19129 H 1781.61 -6.13427 -2.32472 0
M  V30 19130 H 1781.53 -7.46193 -1.21377 0
M  V30 19131 H 1782.79 -7.41567 -2.40204 0
M  V30 19132 N 1787.02 -0.295795 -1.54799 0
M  V30 19133 C 1788.27 0.315007 -2.00035 0
M  V30 19134 C 1788.6 1.54295 -1.1842 0
M  V30 19135 O 1787.85 1.94134 -0.247101 0
M  V30 19136 C 1788.15 0.721225 -3.50047 0
M  V30 19137 C 1787.82 -0.404395 -4.49083 0
M  V30 19138 C 1786.48 -0.713419 -4.75882 0
M  V30 19139 C 1788.83 -1.16185 -5.08085 0
M  V30 19140 C 1786.16 -1.78311 -5.58947 0
M  V30 19141 C 1788.51 -2.22142 -5.92314 0
M  V30 19142 C 1787.18 -2.53657 -6.17426 0
M  V30 19143 H 1786.45 0.115269 -0.73198 0
M  V30 19144 H 1789.09 -0.41381 -1.86976 0
M  V30 19145 H 1787.4 1.53005 -3.60689 0
M  V30 19146 H 1789.09 1.20491 -3.82469 0
M  V30 19147 H 1785.68 -0.153436 -4.28325 0
M  V30 19148 H 1789.87 -0.936365 -4.87387 0
M  V30 19149 H 1785.12 -2.03206 -5.76643 0
M  V30 19150 H 1789.3 -2.81296 -6.3706 0
M  V30 19151 H 1786.93 -3.36676 -6.81581 0
M  V30 19152 N 1788.5 1.57583 -0.0234236 0
M  V30 19153 C 1789.43 2.12907 0.958804 0
M  V30 19154 C 1790.41 1.0438 1.34309 0
M  V30 19155 O 1791.6 1.32184 1.42271 0
M  V30 19156 C 1788.73 2.65151 2.24304 0
M  V30 19157 C 1787.68 3.78414 1.99967 0
M  V30 19158 C 1787.01 4.17064 3.34607 0
M  V30 19159 C 1788.31 5.04727 1.34342 0
M  V30 19160 H 1790 2.95228 0.498081 0
M  V30 19161 H 1787.55 1.42017 0.238138 0
M  V30 19162 H 1789.5 3.02487 2.93393 0
M  V30 19163 H 1788.22 1.79983 2.72532 0
M  V30 19164 H 1786.88 3.41507 1.33298 0
M  V30 19165 H 1786.53 3.28886 3.80583 0
M  V30 19166 H 1786.23 4.93385 3.19132 0
M  V30 19167 H 1787.76 4.56978 4.04973 0
M  V30 19168 H 1789.17 5.39686 1.93422 0
M  V30 19169 H 1787.57 5.86009 1.29282 0
M  V30 19170 H 1788.64 4.83872 0.315625 0
M  V30 19171 N 1789.98 -0.249655 1.5561 0
M  V30 19172 C 1791.21 -0.995707 1.81365 0
M  V30 19173 C 1791.62 -1.79054 0.598767 0
M  V30 19174 O 1790.98 -1.773 -0.432538 0
M  V30 19175 C 1791.03 -1.93577 3.05303 0
M  V30 19176 O 1790.75 -1.17311 4.22102 0
M  V30 19177 C 1792.25 -2.79804 3.43838 0
M  V30 19178 H 1789.47 -0.293118 0.603591 0
M  V30 19179 H 1792.02 -0.273374 2.02665 0
M  V30 19180 H 1790.17 -2.61242 2.86062 0
M  V30 19181 H 1790.59 -1.80875 4.92326 0
M  V30 19182 H 1792.06 -3.4152 4.33668 0
M  V30 19183 H 1792.54 -3.50776 2.64298 0
M  V30 19184 H 1793.14 -2.17596 3.6542 0
M  V30 19185 N 1791.46 -1.48941 -0.515198 0
M  V30 19186 C 1792.69 -1.61396 -1.29457 0
M  V30 19187 C 1793.1 -0.279847 -1.86714 0
M  V30 19188 O 1792.46 0.732861 -1.67139 0
M  V30 19189 C 1792.51 -2.67194 -2.43494 0
M  V30 19190 O 1792.23 -3.95429 -1.88593 0
M  V30 19191 C 1793.73 -2.90224 -3.35089 0
M  V30 19192 H 1790.95 -0.543754 -0.393157 0
M  V30 19193 H 1793.49 -1.94875 -0.619996 0
M  V30 19194 H 1791.65 -2.36532 -3.06808 0
M  V30 19195 H 1792.06 -4.53593 -2.63351 0
M  V30 19196 H 1793.54 -3.68018 -4.1142 0
M  V30 19197 H 1794.01 -1.99601 -3.91224 0
M  V30 19198 H 1794.62 -3.22247 -2.77555 0
M  V30 19199 N 1792.94 0.765193 -1.37777 0
M  V30 19200 C 1793.9 1.8603 -1.33886 0
M  V30 19201 C 1794.9 1.58974 -0.241614 0
M  V30 19202 O 1796.09 1.66935 -0.497843 0
M  V30 19203 C 1793.22 3.2329 -1.08151 0
M  V30 19204 H 1794.41 1.9089 -2.31303 0
M  V30 19205 H 1791.97 0.965653 -1.22902 0
M  V30 19206 H 1792.7 3.24103 -0.112926 0
M  V30 19207 H 1792.49 3.4432 -1.8758 0
M  V30 19208 H 1793.98 4.03367 -1.08095 0
M  V30 19209 N 1794.41 1.22455 0.992094 0
M  V30 19210 C 1795.36 0.99534 2.08235 0
M  V30 19211 C 1796.33 -0.0832064 1.65891 0
M  V30 19212 O 1797.52 0.0665468 1.90684 0
M  V30 19213 C 1794.66 0.580055 3.4019 0
M  V30 19214 C 1793.77 1.72946 3.95871 0
M  V30 19215 C 1792.9 1.26208 5.15989 0
M  V30 19216 C 1791.94 2.38298 5.63809 0
M  V30 19217 N 1791.08 1.92602 6.75166 0
M  V30 19218 H 1795.92 1.92861 2.27175 0
M  V30 19219 H 1793.46 0.960948 1.11374 0
M  V30 19220 H 1795.41 0.320448 4.15968 0
M  V30 19221 H 1794.04 -0.316208 3.21248 0
M  V30 19222 H 1793.1 2.10337 3.16958 0
M  V30 19223 H 1794.41 2.57257 4.27341 0
M  V30 19224 H 1793.56 0.959904 5.99058 0
M  V30 19225 H 1792.3 0.389184 4.86145 0
M  V30 19226 H 1791.31 2.69304 4.79328 0
M  V30 19227 H 1792.53 3.26105 5.95678 0
M  V30 19228 H 1790.48 1.07675 6.47103 0
M  V30 19229 H 1790.39 2.70478 7.05959 0
M  V30 19230 H 1791.66 1.65455 7.61738 0
M  V30 19231 N 1795.89 -1.18905 1.03437 0
M  V30 19232 C 1797.17 -1.84537 0.648503 0
M  V30 19233 C 1797.55 -1.92228 -0.872445 0
M  V30 19234 O 1796.9 -1.44342 -1.77137 0
M  V30 19235 C 1797.11 -3.23198 1.31698 0
M  V30 19236 C 1798.45 -3.99301 1.44374 0
M  V30 19237 O 1799.48 -3.32615 1.27458 0
M  V30 19238 O 1798.34 -5.18767 1.7188 0
M  V30 19239 H 1795.43 -0.795488 0.226114 0
M  V30 19240 H 1797.98 -1.2635 1.13287 0
M  V30 19241 H 1796.75 -3.12466 2.35543 0
M  V30 19242 H 1796.37 -3.89035 0.820829 0
M  V30 19243 N 1797.37 -0.812977 -1.35013 0
M  V30 19244 C 1798.32 -0.225816 -2.29693 0
M  V30 19245 C 1799.29 0.643767 -1.53117 0
M  V30 19246 O 1800.47 0.587505 -1.8153 0
M  V30 19247 C 1797.61 0.614444 -3.39586 0
M  V30 19248 C 1796.72 -0.276281 -4.31116 0
M  V30 19249 C 1795.86 0.572595 -5.28105 0
M  V30 19250 C 1794.9 -0.318133 -6.11273 0
M  V30 19251 N 1794.04 0.491086 -7.0038 0
M  V30 19252 H 1798.88 -1.03861 -2.79315 0
M  V30 19253 H 1796.41 -0.523695 -1.37462 0
M  V30 19254 H 1798.37 1.11683 -4.01973 0
M  V30 19255 H 1797 1.39244 -2.91223 0
M  V30 19256 H 1796.05 -0.89682 -3.69677 0
M  V30 19257 H 1797.36 -0.961601 -4.89443 0
M  V30 19258 H 1796.52 1.13986 -5.95896 0
M  V30 19259 H 1795.26 1.29146 -4.7029 0
M  V30 19260 H 1794.26 -0.897622 -5.42423 0
M  V30 19261 H 1795.49 -1.03496 -6.71167 0
M  V30 19262 H 1793.43 1.19381 -6.45046 0
M  V30 19263 H 1793.35 -0.136054 -7.55878 0
M  V30 19264 H 1794.62 1.04143 -7.72512 0
M  V30 19265 N 1798.85 1.47045 -0.567045 0
M  V30 19266 C 1799.8 2.31838 0.188075 0
M  V30 19267 C 1800.79 1.4353 0.899752 0
M  V30 19268 O 1802 1.60241 0.81992 0
M  V30 19269 H 1798.37 0.747783 0.0795226 0
M  V30 19270 H 1800.34 2.9336 -0.546121 0
M  V30 19271 C 1799.09 3.26387 1.19861 0
M  V30 19272 H 1798.41 3.94308 0.660412 0
M  V30 19273 H 1799.85 3.8853 1.69767 0
M  V30 19274 C 1798.31 2.50612 2.25157 0
M  V30 19275 O 1798.84 2.25771 3.3225 0
M  V30 19276 N 1797.05 2.11447 1.99345 0
M  V30 19277 H 1796.6 2.31849 1.12267 0
M  V30 19278 H 1796.55 1.61064 2.7001 0
M  V30 19279 N 1800.33 0.304 1.5464 0
M  V30 19280 C 1801.74 -0.0492924 1.59524 0
M  V30 19281 C 1801.94 -1.52164 1.32093 0
M  V30 19282 O 1801 -2.27483 1.0958 0
M  V30 19283 C 1802.31 0.351346 2.9864 0
M  V30 19284 C 1803.86 0.300362 3.11555 0
M  V30 19285 C 1804.33 0.675867 4.52986 0
M  V30 19286 N 1805.82 0.628517 4.58916 0
M  V30 19287 C 1806.56 0.891504 5.66427 0
M  V30 19288 N 1806.06 1.22061 6.81962 0
M  V30 19289 N 1807.85 0.818366 5.56111 0
M  V30 19290 H 1800 1.26351 1.70731 0
M  V30 19291 H 1802.26 0.512457 0.797554 0
M  V30 19292 H 1801.97 1.37642 3.23647 0
M  V30 19293 H 1801.84 -0.293504 3.76056 0
M  V30 19294 H 1804.23 -0.715468 2.86295 0
M  V30 19295 H 1804.31 0.979876 2.36288 0
M  V30 19296 H 1803.95 1.68952 4.78976 0
M  V30 19297 H 1803.88 -0.0257498 5.26594 0
M  V30 19298 H 1806.38 0.385204 3.75932 0
M  V30 19299 H 1806.69 1.40718 7.5988 0
M  V30 19300 H 1805.03 1.25868 6.83507 0
M  V30 19301 H 1808.22 0.560885 4.64728 0
M  V30 19302 H 1808.4 1.02669 6.39815 0
M  V30 19303 N 1801.8 -1.57568 0.0317802 0
M  V30 19304 C 1803.05 -1.93021 -0.641437 0
M  V30 19305 C 1803.4 -0.908815 -1.69583 0
M  V30 19306 O 1802.7 0.0747763 -1.91454 0
M  V30 19307 C 1802.89 -3.32976 -1.29852 0
M  V30 19308 C 1802.72 -4.48635 -0.3093 0
M  V30 19309 C 1801.49 -5.05217 0.0917902 0
M  V30 19310 C 1803.69 -5.12436 0.437482 0
M  V30 19311 N 1801.67 -6.04399 1.0759 0
M  V30 19312 C 1803.04 -6.06743 1.27526 0
M  V30 19313 C 1805.1 -4.95404 0.497895 0
M  V30 19314 C 1803.8 -6.8585 2.16801 0
M  V30 19315 C 1805.83 -5.75122 1.37799 0
M  V30 19316 C 1805.19 -6.69047 2.20354 0
M  V30 19317 H 1801.29 -0.754119 -0.206951 0
M  V30 19318 H 1803.87 -1.94445 0.0995777 0
M  V30 19319 H 1802.04 -3.32366 -2.00966 0
M  V30 19320 H 1803.77 -3.5577 -1.92898 0
M  V30 19321 H 1800.53 -4.72752 -0.283202 0
M  V30 19322 H 1800.95 -6.5868 1.56427 0
M  V30 19323 H 1805.59 -4.22612 -0.126117 0
M  V30 19324 H 1803.31 -7.57946 2.80256 0
M  V30 19325 H 1806.9 -5.63976 1.42906 0
M  V30 19326 H 1805.78 -7.29656 2.87352 0
M  V30 19327 N 1803.28 0.241399 -1.5574 0
M  V30 19328 C 1804.19 1.32034 -1.93918 0
M  V30 19329 C 1805.21 1.52363 -0.840331 0
M  V30 19330 O 1806.38 1.65879 -1.1422 0
M  V30 19331 C 1803.45 2.6539 -2.2309 0
M  V30 19332 C 1802.51 2.53536 -3.46436 0
M  V30 19333 C 1801.74 3.80532 -3.74208 0
M  V30 19334 O 1801.97 4.82662 -3.03964 0
M  V30 19335 O 1800.9 3.78834 -4.67727 0
M  V30 19336 H 1804.73 1.02647 -2.85827 0
M  V30 19337 H 1802.31 0.442616 -1.42693 0
M  V30 19338 H 1804.19 3.44184 -2.43137 0
M  V30 19339 H 1802.87 2.94499 -1.34358 0
M  V30 19340 H 1801.78 1.73009 -3.3169 0
M  V30 19341 H 1803.11 2.29371 -4.35488 0
M  V30 19342 N 1804.76 1.49212 0.507292 0
M  V30 19343 C 1806.04 1.4888 1.26863 0
M  V30 19344 C 1806.42 0.213007 2.10023 0
M  V30 19345 O 1805.77 -0.804785 2.13858 0
M  V30 19346 C 1805.98 2.76407 2.13073 0
M  V30 19347 C 1807.32 3.25647 2.72468 0
M  V30 19348 O 1808.35 2.77481 2.23344 0
M  V30 19349 O 1807.21 4.09518 3.6188 0
M  V30 19350 H 1804.3 0.595597 0.573754 0
M  V30 19351 H 1806.85 1.6147 0.52208 0
M  V30 19352 H 1805.62 3.60758 1.51558 0
M  V30 19353 H 1805.24 2.66648 2.94932 0
M  V30 19354 N 1806.24 -0.757876 1.38181 0
M  V30 19355 C 1807.65 -1.33496 1.30521 0
M  V30 19356 C 1808 -1.96157 -0.0409405 0
M  V30 19357 O 1807.13 -1.94775 -0.942957 0
M  V30 19358 C 1807.72 -2.42725 2.36369 0
M  V30 19359 C 1806.28 -2.96165 2.323 0
M  V30 19360 C 1805.43 -1.69505 2.19461 0
M  V30 19361 H 1808.38 -0.557075 1.48601 0
M  V30 19362 H 1808.4 -3.22556 2.01836 0
M  V30 19363 H 1807.91 -1.97089 3.34331 0
M  V30 19364 H 1806.01 -3.4614 1.37904 0
M  V30 19365 H 1806.12 -3.50836 3.26269 0
M  V30 19366 H 1804.49 -1.92967 1.66241 0
M  V30 19367 H 1805.27 -1.25954 3.1936 0
M  V30 19368 N 1807.72 -1.22979 -0.985586 0
M  V30 19369 C 1808.96 -1.05667 -1.72275 0
M  V30 19370 C 1809.29 0.408045 -1.90683 0
M  V30 19371 O 1808.56 1.29293 -1.47174 0
M  V30 19372 H 1807.14 -0.388017 -0.63832 0
M  V30 19373 H 1809.8 -1.54612 -1.18665 0
M  V30 19374 H 1808.89 -1.54043 -2.71436 0
M  V30 19375 N 1809.19 1.18355 -1.04066 0
M  V30 19376 C 1810.14 2.21987 -0.631714 0
M  V30 19377 C 1811.11 1.62142 0.360462 0
M  V30 19378 O 1812.3 1.89096 0.254445 0
M  V30 19379 C 1809.44 3.451 -0.000843566 0
M  V30 19380 C 1808.55 4.19283 -1.04048 0
M  V30 19381 C 1807.68 5.29852 -0.37813 0
M  V30 19382 C 1806.72 5.95807 -1.40287 0
M  V30 19383 N 1805.86 6.97915 -0.765481 0
M  V30 19384 H 1810.7 2.56323 -1.51995 0
M  V30 19385 H 1808.24 1.25923 -0.760384 0
M  V30 19386 H 1810.2 4.15445 0.382267 0
M  V30 19387 H 1808.83 3.11383 0.850911 0
M  V30 19388 H 1807.88 3.47765 -1.54154 0
M  V30 19389 H 1809.19 4.64457 -1.81882 0
M  V30 19390 H 1808.34 6.06671 0.059186 0
M  V30 19391 H 1807.08 4.8578 0.432293 0
M  V30 19392 H 1806.09 5.17729 -1.85032 0
M  V30 19393 H 1807.31 6.41962 -2.21499 0
M  V30 19394 H 1805.26 6.55995 0.0246364 0
M  V30 19395 H 1805.18 7.41341 -1.48152 0
M  V30 19396 H 1806.44 7.78702 -0.35256 0
M  V30 19397 N 1810.67 0.820125 1.3458 0
M  V30 19398 C 1811.6 0.197556 2.28347 0
M  V30 19399 C 1812.62 -0.610956 1.50901 0
M  V30 19400 O 1813.81 -0.441096 1.72964 0
M  V30 19401 C 1810.91 -0.741893 3.3068 0
M  V30 19402 C 1810.08 0.0231854 4.37394 0
M  V30 19403 C 1809.14 -0.83677 5.19504 0
M  V30 19404 O 1808.16 -0.282772 5.68497 0
M  V30 19405 N 1809.37 -2.15696 5.38939 0
M  V30 19406 H 1812.13 1.00314 2.82413 0
M  V30 19407 H 1809.69 0.676827 1.47074 0
M  V30 19408 H 1811.68 -1.32173 3.82508 0
M  V30 19409 H 1810.25 -1.44823 2.77029 0
M  V30 19410 H 1809.47 0.784316 3.86319 0
M  V30 19411 H 1810.76 0.549958 5.05819 0
M  V30 19412 H 1810.16 -2.63083 5.00803 0
M  V30 19413 H 1808.72 -2.68572 5.93896 0
M  V30 19414 N 1812.15 -1.46743 0.574835 0
M  V30 19415 C 1813.08 -2.33012 -0.150836 0
M  V30 19416 C 1814.06 -1.44868 -0.891472 0
M  V30 19417 O 1815.25 -1.73698 -0.868481 0
M  V30 19418 C 1812.38 -3.26995 -1.17012 0
M  V30 19419 C 1811.33 -4.24518 -0.544829 0
M  V30 19420 C 1810.66 -5.07951 -1.67002 0
M  V30 19421 C 1811.96 -5.19776 0.512891 0
M  V30 19422 H 1813.65 -2.93935 0.569433 0
M  V30 19423 H 1811.2 -1.41344 0.275289 0
M  V30 19424 H 1813.15 -3.86198 -1.68609 0
M  V30 19425 H 1811.87 -2.64163 -1.92056 0
M  V30 19426 H 1810.53 -3.66566 -0.0500133 0
M  V30 19427 H 1810.18 -4.4151 -2.40993 0
M  V30 19428 H 1809.88 -5.73991 -1.25732 0
M  V30 19429 H 1811.4 -5.70017 -2.1889 0
M  V30 19430 H 1812.82 -5.73241 0.0823064 0
M  V30 19431 H 1811.22 -5.94114 0.845462 0
M  V30 19432 H 1812.29 -4.64184 1.40217 0
M  V30 19433 N 1813.63 -0.312197 -1.54477 0
M  V30 19434 C 1814.86 0.295632 -2.04474 0
M  V30 19435 C 1815.27 1.47211 -1.18851 0
M  V30 19436 O 1814.61 1.82503 -0.209347 0
M  V30 19437 C 1814.67 0.804123 -3.50391 0
M  V30 19438 C 1814.34 -0.248547 -4.56324 0
M  V30 19439 C 1815.33 -1.0808 -5.08542 0
M  V30 19440 C 1813.02 -0.393467 -5.00757 0
M  V30 19441 C 1815.01 -2.04381 -6.03744 0
M  V30 19442 C 1812.7 -1.35991 -5.95777 0
M  V30 19443 C 1813.7 -2.18355 -6.47155 0
M  V30 19444 O 1813.38 -3.13359 -7.40311 0
M  V30 19445 H 1813.12 0.0665366 -0.672718 0
M  V30 19446 H 1815.67 -0.45308 -2.00341 0
M  V30 19447 H 1813.9 1.60355 -3.51885 0
M  V30 19448 H 1815.59 1.32905 -3.83524 0
M  V30 19449 H 1816.36 -0.979766 -4.75001 0
M  V30 19450 H 1812.23 0.237709 -4.60387 0
M  V30 19451 H 1815.78 -2.68708 -6.43771 0
M  V30 19452 H 1811.68 -1.46162 -6.28734 0
M  V30 19453 H 1812.44 -3.08467 -7.58149 0
M  V30 19454 N 1815.11 1.57549 -0.040136 0
M  V30 19455 C 1816.05 2.12048 0.955943 0
M  V30 19456 C 1817.05 1.04965 1.32962 0
M  V30 19457 O 1818.25 1.23387 1.31056 0
M  V30 19458 H 1814.63 0.677616 0.326099 0
M  V30 19459 H 1816.6 2.94658 0.471075 0
M  V30 19460 C 1815.35 2.67157 2.22537 0
M  V30 19461 H 1814.67 3.4921 1.9466 0
M  V30 19462 H 1816.11 3.08924 2.90417 0
M  V30 19463 C 1814.57 1.60413 2.96259 0
M  V30 19464 O 1815.1 1.01042 3.88785 0
M  V30 19465 N 1813.31 1.32196 2.58791 0
M  V30 19466 H 1812.85 1.80663 1.83626 0
M  V30 19467 H 1812.81 0.610023 3.08425 0
M  V30 19468 N 1816.58 -0.233136 1.55866 0
M  V30 19469 C 1817.83 -0.96064 1.78604 0
M  V30 19470 C 1818.16 -1.84444 0.607795 0
M  V30 19471 O 1817.44 -1.9048 -0.39342 0
M  V30 19472 C 1817.72 -1.80946 3.11337 0
M  V30 19473 C 1817.57 -0.952929 4.3959 0
M  V30 19474 C 1818.89 -2.78941 3.40411 0
M  V30 19475 H 1816.01 -0.347809 0.649767 0
M  V30 19476 H 1818.65 -0.230233 1.886 0
M  V30 19477 H 1816.8 -2.43219 3.02946 0
M  V30 19478 H 1818.48 -0.347831 4.59987 0
M  V30 19479 H 1816.72 -0.257846 4.33033 0
M  V30 19480 H 1817.39 -1.58096 5.28876 0
M  V30 19481 H 1819.87 -2.26804 3.48854 0
M  V30 19482 H 1818.74 -3.35443 4.34475 0
M  V30 19483 H 1819 -3.561 2.62003 0
M  V30 19484 N 1818.06 -1.49479 -0.499372 0
M  V30 19485 C 1818.97 -1.69006 -1.62709 0
M  V30 19486 C 1819.99 -0.572681 -1.64306 0
M  V30 19487 O 1821.17 -0.847586 -1.82696 0
M  V30 19488 C 1818.23 -1.75382 -2.99069 0
M  V30 19489 C 1817.29 -2.98968 -3.08086 0
M  V30 19490 C 1816.52 -3.0503 -4.37941 0
M  V30 19491 O 1816.75 -2.18641 -5.26832 0
M  V30 19492 O 1815.68 -3.97507 -4.51964 0
M  V30 19493 H 1819.51 -2.64544 -1.49164 0
M  V30 19494 H 1817.09 -1.3324 -0.675836 0
M  V30 19495 H 1818.97 -1.81919 -3.8011 0
M  V30 19496 H 1817.65 -0.830226 -3.12872 0
M  V30 19497 H 1816.56 -2.97947 -2.26227 0
M  V30 19498 H 1817.89 -3.90812 -2.9921 0
M  V30 19499 N 1819.54 0.750537 -1.38581 0
M  V30 19500 C 1820.5 1.84599 -1.35852 0
M  V30 19501 C 1821.5 1.58709 -0.258462 0
M  V30 19502 O 1822.69 1.66397 -0.51552 0
M  V30 19503 C 1819.83 3.22124 -1.11573 0
M  V30 19504 H 1821.02 1.88426 -2.33314 0
M  V30 19505 H 1818.57 0.952564 -1.23919 0
M  V30 19506 H 1819.31 3.23965 -0.147295 0
M  V30 19507 H 1819.09 3.42311 -1.91221 0
M  V30 19508 H 1820.58 4.02198 -1.12367 0
M  V30 19509 N 1821.02 1.235 0.979051 0
M  V30 19510 C 1822.25 1.09462 1.75572 0
M  V30 19511 C 1822.66 -0.3538 1.85455 0
M  V30 19512 O 1822.02 -1.24467 1.3347 0
M  V30 19513 C 1822.07 1.71562 3.18196 0
M  V30 19514 O 1821.79 3.1074 3.08824 0
M  V30 19515 C 1823.29 1.62984 4.12251 0
M  V30 19516 H 1820.51 0.383013 0.550946 0
M  V30 19517 H 1823.06 1.63378 1.22995 0
M  V30 19518 H 1821.21 1.21676 3.67796 0
M  V30 19519 H 1821.63 3.40888 3.98617 0
M  V30 19520 H 1823.1 2.11135 5.10025 0
M  V30 19521 H 1823.58 0.588907 4.35234 0
M  V30 19522 H 1824.18 2.12242 3.68556 0
M  V30 19523 N 1822.5 -1.17802 1.04693 0
M  V30 19524 C 1823.72 -1.92408 0.774194 0
M  V30 19525 C 1824.15 -1.76012 -0.663424 0
M  V30 19526 O 1823.51 -1.07447 -1.4603 0
M  V30 19527 C 1823.55 -3.4166 1.1533 0
M  V30 19528 O 1822.66 -4.11431 0.282469 0
M  V30 19529 H 1822 -0.600033 0.284353 0
M  V30 19530 H 1824.53 -1.49348 1.39844 0
M  V30 19531 H 1824.54 -3.92386 1.11791 0
M  V30 19532 H 1823.21 -3.52914 2.20056 0
M  V30 19533 H 1821.79 -3.70979 0.378021 0
M  V30 19534 N 1823.98 -0.827251 -1.34143 0
M  V30 19535 C 1825.21 -0.429878 -2.02078 0
M  V30 19536 C 1825.61 0.970141 -1.62434 0
M  V30 19537 O 1824.96 1.63997 -0.827692 0
M  V30 19538 C 1825.02 -0.457493 -3.56577 0
M  V30 19539 C 1824.68 -1.8116 -4.19559 0
M  V30 19540 C 1825.68 -2.7731 -4.39767 0
M  V30 19541 C 1823.36 -2.10126 -4.56237 0
M  V30 19542 C 1825.36 -4.00596 -4.95784 0
M  V30 19543 C 1823.05 -3.33672 -5.11963 0
M  V30 19544 C 1824.04 -4.28724 -5.31681 0
M  V30 19545 O 1823.73 -5.50086 -5.86226 0
M  V30 19546 H 1823.46 -0.170259 -0.654208 0
M  V30 19547 H 1826.02 -1.11808 -1.72303 0
M  V30 19548 H 1824.25 0.287424 -3.8563 0
M  V30 19549 H 1825.94 -0.0795677 -4.05822 0
M  V30 19550 H 1826.7 -2.56228 -4.11791 0
M  V30 19551 H 1822.58 -1.36941 -4.40191 0
M  V30 19552 H 1826.13 -4.74798 -5.11089 0
M  V30 19553 H 1822.02 -3.54615 -5.39369 0
M  V30 19554 H 1822.79 -5.51665 -6.04655 0
M  V30 19555 N 1825.45 1.46436 -0.582609 0
M  V30 19556 C 1826.42 2.28769 0.140502 0
M  V30 19557 C 1827.42 1.38385 0.818911 0
M  V30 19558 O 1828.61 1.60763 0.670882 0
M  V30 19559 C 1825.74 3.18765 1.20836 0
M  V30 19560 H 1826.93 2.94178 -0.583049 0
M  V30 19561 H 1824.48 1.52544 -0.340575 0
M  V30 19562 H 1825.22 2.58103 1.9635 0
M  V30 19563 H 1825 3.85312 0.726417 0
M  V30 19564 H 1826.49 3.80735 1.71553 0
M  V30 19565 N 1826.93 0.320385 1.54309 0
M  V30 19566 C 1827.86 -0.539789 2.27175 0
M  V30 19567 C 1828.84 -1.12198 1.2785 0
M  V30 19568 O 1830.03 -1.1477 1.56657 0
M  V30 19569 C 1827.16 -1.70236 3.02716 0
M  V30 19570 C 1826.11 -1.24962 4.09351 0
M  V30 19571 C 1825.44 -2.49888 4.72715 0
M  V30 19572 C 1826.74 -0.366788 5.21011 0
M  V30 19573 H 1828.43 0.0680079 2.99323 0
M  V30 19574 H 1825.98 0.0341488 1.4396 0
M  V30 19575 H 1827.93 -2.31037 3.5242 0
M  V30 19576 H 1826.65 -2.33669 2.2818 0
M  V30 19577 H 1825.31 -0.664556 3.60526 0
M  V30 19578 H 1824.96 -3.11679 3.94798 0
M  V30 19579 H 1824.66 -2.20288 5.44745 0
M  V30 19580 H 1826.19 -3.11458 5.25192 0
M  V30 19581 H 1827.6 -0.881001 5.6649 0
M  V30 19582 H 1826 -0.163707 5.99877 0
M  V30 19583 H 1827.07 0.603185 4.81134 0
M  V30 19584 N 1828.41 -1.57525 0.0484906 0
M  V30 19585 C 1829.34 -2.14405 -0.924811 0
M  V30 19586 C 1830.32 -1.06503 -1.32631 0
M  V30 19587 O 1831.51 -1.3443 -1.4015 0
M  V30 19588 C 1828.64 -2.68686 -2.20057 0
M  V30 19589 C 1827.59 -3.81547 -1.93922 0
M  V30 19590 C 1826.92 -4.22334 -3.27929 0
M  V30 19591 C 1828.22 -5.06801 -1.26295 0
M  V30 19592 H 1829.91 -2.95983 -0.45105 0
M  V30 19593 H 1827.46 -1.42378 -0.215514 0
M  V30 19594 H 1829.41 -3.07117 -2.88543 0
M  V30 19595 H 1828.13 -1.84296 -2.69634 0
M  V30 19596 H 1826.79 -3.43585 -1.27848 0
M  V30 19597 H 1826.44 -3.34899 -3.75302 0
M  V30 19598 H 1826.14 -4.984 -3.11242 0
M  V30 19599 H 1827.66 -4.63363 -3.97652 0
M  V30 19600 H 1829.08 -5.42695 -1.84812 0
M  V30 19601 H 1827.47 -5.87991 -1.19943 0
M  V30 19602 H 1828.54 -4.84313 -0.238605 0
M  V30 19603 N 1829.89 0.224867 -1.55988 0
M  V30 19604 C 1830.85 1.26214 -1.91318 0
M  V30 19605 C 1831.85 1.39973 -0.791472 0
M  V30 19606 O 1833.04 1.38295 -1.05926 0
M  V30 19607 C 1830.17 2.63648 -2.16107 0
M  V30 19608 H 1831.37 0.960933 -2.84088 0
M  V30 19609 H 1828.92 0.465138 -1.49218 0
M  V30 19610 H 1829.65 2.98873 -1.25878 0
M  V30 19611 H 1829.44 2.5504 -2.97821 0
M  V30 19612 H 1830.93 3.38505 -2.44548 0
M  V30 19613 N 1831.37 1.49742 0.491438 0
M  V30 19614 C 1832.3 1.70033 1.60034 0
M  V30 19615 C 1833.28 0.549076 1.60994 0
M  V30 19616 O 1834.46 0.785983 1.77584 0
M  V30 19617 C 1831.59 1.7757 2.98473 0
M  V30 19618 C 1830.55 2.9258 3.12379 0
M  V30 19619 C 1829.87 2.85239 4.52264 0
M  V30 19620 C 1831.17 4.33385 2.91504 0
M  V30 19621 H 1832.87 2.62875 1.43307 0
M  V30 19622 H 1830.41 1.26502 0.687989 0
M  V30 19623 H 1832.36 1.90351 3.75958 0
M  V30 19624 H 1831.09 0.813343 3.1631 0
M  V30 19625 H 1829.75 2.79417 2.37322 0
M  V30 19626 H 1829.4 1.86892 4.66991 0
M  V30 19627 H 1829.1 3.62437 4.62508 0
M  V30 19628 H 1830.62 3.00041 5.31797 0
M  V30 19629 H 1832.03 4.4718 3.58752 0
M  V30 19630 H 1830.43 5.11878 3.13211 0
M  V30 19631 H 1831.5 4.47166 1.87539 0
M  V30 19632 N 1832.84 -0.743177 1.38977 0
M  V30 19633 C 1833.77 -1.87047 1.3977 0
M  V30 19634 C 1834.76 -1.68068 0.262161 0
M  V30 19635 O 1835.94 -1.88507 0.466782 0
M  V30 19636 C 1833.07 -3.24701 1.23234 0
M  V30 19637 C 1832.02 -3.58302 2.34102 0
M  V30 19638 C 1831.35 -4.94805 2.02663 0
M  V30 19639 C 1832.65 -3.62111 3.76395 0
M  V30 19640 H 1834.34 -1.8664 2.34107 0
M  V30 19641 H 1831.89 -0.896541 1.12686 0
M  V30 19642 H 1833.84 -4.03228 1.22412 0
M  V30 19643 H 1832.57 -3.25614 0.253638 0
M  V30 19644 H 1831.23 -2.82099 2.34128 0
M  V30 19645 H 1830.87 -4.92289 1.0325 0
M  V30 19646 H 1830.57 -5.18254 2.76922 0
M  V30 19647 H 1832.1 -5.75699 2.03477 0
M  V30 19648 H 1833.51 -4.30731 3.78343 0
M  V30 19649 H 1831.91 -3.97075 4.49946 0
M  V30 19650 H 1832.98 -2.62099 4.07961 0
M  V30 19651 N 1834.32 -1.24018 -0.972487 0
M  V30 19652 C 1835.25 -0.986185 -2.06899 0
M  V30 19653 C 1836.27 0.0426574 -1.62744 0
M  V30 19654 O 1837.46 -0.193816 -1.77445 0
M  V30 19655 C 1834.56 -0.46551 -3.35688 0
M  V30 19656 C 1833.73 -1.55637 -4.08774 0
M  V30 19657 C 1832.79 -1.03918 -5.15837 0
M  V30 19658 O 1831.81 -1.72986 -5.42277 0
M  V30 19659 N 1833.02 0.128891 -5.80357 0
M  V30 19660 H 1835.78 -1.93025 -2.29263 0
M  V30 19661 H 1833.34 -1.14983 -1.13976 0
M  V30 19662 H 1835.33 -0.104379 -4.04565 0
M  V30 19663 H 1833.9 0.384166 -3.1023 0
M  V30 19664 H 1833.12 -2.08991 -3.3424 0
M  V30 19665 H 1834.41 -2.28973 -4.54366 0
M  V30 19666 H 1833.81 0.706438 -5.61272 0
M  V30 19667 H 1832.37 0.431211 -6.50372 0
M  V30 19668 N 1835.8 1.17245 -1.05316 0
M  V30 19669 C 1836.73 2.23491 -0.67631 0
M  V30 19670 C 1837.71 1.66937 0.326507 0
M  V30 19671 O 1838.9 1.93127 0.203823 0
M  V30 19672 C 1836.03 3.47262 -0.0515755 0
M  V30 19673 C 1834.98 4.16646 -0.97929 0
M  V30 19674 C 1834.31 5.34254 -0.218369 0
M  V30 19675 C 1835.61 4.68736 -2.30399 0
M  V30 19676 H 1837.3 2.55269 -1.56455 0
M  V30 19677 H 1834.85 1.22699 -0.753714 0
M  V30 19678 H 1836.8 4.20805 0.223865 0
M  V30 19679 H 1835.52 3.14755 0.871614 0
M  V30 19680 H 1834.18 3.45017 -1.23931 0
M  V30 19681 H 1833.83 4.97998 0.707624 0
M  V30 19682 H 1833.53 5.81615 -0.83654 0
M  V30 19683 H 1835.05 6.1058 0.0497574 0
M  V30 19684 H 1836.47 5.3391 -2.08837 0
M  V30 19685 H 1834.87 5.2668 -2.87625 0
M  V30 19686 H 1835.94 3.85477 -2.94169 0
M  V30 19687 N 1837.28 0.834353 1.33702 0
M  V30 19688 C 1838.23 0.26233 2.29304 0
M  V30 19689 C 1839.2 -0.619326 1.54122 0
M  V30 19690 O 1840.38 -0.558551 1.82441 0
M  V30 19691 C 1837.52 -0.560341 3.4052 0
M  V30 19692 C 1836.63 0.344832 4.30622 0
M  V30 19693 C 1835.77 -0.488505 5.28949 0
M  V30 19694 C 1834.81 0.415341 6.10689 0
M  V30 19695 N 1833.94 -0.3796 7.01073 0
M  V30 19696 H 1838.78 1.08291 2.77628 0
M  V30 19697 H 1836.32 0.545497 1.36612 0
M  V30 19698 H 1838.28 -1.05274 4.03699 0
M  V30 19699 H 1836.91 -1.34593 2.93402 0
M  V30 19700 H 1835.96 0.955519 3.68204 0
M  V30 19701 H 1837.27 1.03935 4.87851 0
M  V30 19702 H 1836.43 -1.04492 5.97634 0
M  V30 19703 H 1835.17 -1.21648 4.72285 0
M  V30 19704 H 1834.17 0.983803 5.40926 0
M  V30 19705 H 1835.4 1.1416 6.69436 0
M  V30 19706 H 1833.34 -1.09103 6.46864 0
M  V30 19707 H 1833.26 0.25629 7.55565 0
M  V30 19708 H 1834.53 -0.918394 7.74071 0
M  V30 19709 N 1838.76 -1.46125 0.590367 0
M  V30 19710 C 1840.03 -1.95597 0.0116648 0
M  V30 19711 C 1840.41 -1.53298 -1.45131 0
M  V30 19712 O 1839.76 -0.787298 -2.14508 0
M  V30 19713 C 1839.97 -3.48473 0.191727 0
M  V30 19714 C 1841.32 -4.24552 0.0635332 0
M  V30 19715 O 1842.34 -3.55995 0.120955 0
M  V30 19716 O 1841.2 -5.4646 -0.0657772 0
M  V30 19717 H 1838.3 -0.825748 -0.0454921 0
M  V30 19718 H 1840.84 -1.56372 0.659223 0
M  V30 19719 H 1839.61 -3.72172 1.20846 0
M  V30 19720 H 1839.24 -3.94545 -0.491905 0
M  V30 19721 N 1840.23 -0.328564 -1.54137 0
M  V30 19722 C 1841.48 0.272505 -2.00658 0
M  V30 19723 C 1841.81 1.51748 -1.21666 0
M  V30 19724 O 1841.06 1.93566 -0.288224 0
M  V30 19725 C 1841.36 0.646813 -3.51498 0
M  V30 19726 C 1841.03 -0.499561 -4.48124 0
M  V30 19727 C 1839.69 -0.8142 -4.74262 0
M  V30 19728 C 1842.04 -1.26936 -5.05506 0
M  V30 19729 C 1839.37 -1.90127 -5.55039 0
M  V30 19730 C 1841.72 -2.34656 -5.87469 0
M  V30 19731 C 1840.39 -2.66696 -6.11906 0
M  V30 19732 H 1839.66 0.0997168 -0.73426 0
M  V30 19733 H 1842.3 -0.453377 -1.86056 0
M  V30 19734 H 1840.61 1.45319 -3.63854 0
M  V30 19735 H 1842.31 1.12352 -3.84939 0
M  V30 19736 H 1838.9 -0.244255 -4.27903 0
M  V30 19737 H 1843.08 -1.03954 -4.85291 0
M  V30 19738 H 1838.34 -2.15392 -5.72203 0
M  V30 19739 H 1842.51 -2.94745 -6.3095 0
M  V30 19740 H 1840.14 -3.51058 -6.74287 0
M  V30 19741 N 1841.71 1.57497 -0.0568439 0
M  V30 19742 C 1842.99 1.84277 0.655847 0
M  V30 19743 C 1843.37 0.94638 1.88698 0
M  V30 19744 O 1842.72 0.00884889 2.28498 0
M  V30 19745 C 1842.93 3.34134 1.00775 0
M  V30 19746 C 1844.28 4.01286 1.38763 0
M  V30 19747 O 1845.3 3.38792 1.09992 0
M  V30 19748 O 1844.16 5.11482 1.92479 0
M  V30 19749 H 1841.25 0.760773 0.324275 0
M  V30 19750 H 1843.8 1.69479 -0.0866388 0
M  V30 19751 H 1842.57 3.91075 0.132718 0
M  V30 19752 H 1842.19 3.5414 1.80749 0
M  V30 19753 N 1843.19 -0.216591 1.56105 0
M  V30 19754 C 1844.44 -0.940249 1.79348 0
M  V30 19755 C 1844.77 -1.84135 0.626451 0
M  V30 19756 O 1844.02 -1.91796 -0.388932 0
M  V30 19757 C 1844.32 -1.80637 3.08391 0
M  V30 19758 C 1843.99 -1.05808 4.3831 0
M  V30 19759 C 1842.65 -0.851392 4.73608 0
M  V30 19760 C 1845 -0.530015 5.18498 0
M  V30 19761 C 1842.33 -0.104822 5.86606 0
M  V30 19762 C 1844.68 0.203236 6.32273 0
M  V30 19763 C 1843.34 0.42113 6.6617 0
M  V30 19764 H 1842.61 -0.344062 0.656279 0
M  V30 19765 H 1845.26 -0.208069 1.90366 0
M  V30 19766 H 1843.57 -2.60656 2.92516 0
M  V30 19767 H 1845.26 -2.36852 3.23577 0
M  V30 19768 H 1841.85 -1.22915 4.10597 0
M  V30 19769 H 1846.04 -0.677154 4.91659 0
M  V30 19770 H 1841.29 0.074177 6.11355 0
M  V30 19771 H 1845.47 0.619898 6.93636 0
M  V30 19772 H 1843.09 1.00155 7.53573 0
M  V30 19773 N 1844.67 -1.5 -0.48349 0
M  V30 19774 C 1845.91 -1.60606 -1.23829 0
M  V30 19775 C 1846.25 -0.299778 -1.91872 0
M  V30 19776 O 1845.52 0.697925 -1.81547 0
M  V30 19777 C 1845.81 -2.77769 -2.29165 0
M  V30 19778 C 1845.66 -4.18243 -1.65507 0
M  V30 19779 C 1846.98 -2.90521 -3.30584 0
M  V30 19780 H 1844.1 -0.584561 -0.44884 0
M  V30 19781 H 1846.74 -1.82346 -0.533855 0
M  V30 19782 H 1844.89 -2.59364 -2.89245 0
M  V30 19783 H 1846.56 -4.48208 -1.09119 0
M  V30 19784 H 1844.8 -4.23077 -0.958577 0
M  V30 19785 H 1845.47 -4.96128 -2.41994 0
M  V30 19786 H 1847.95 -3.0733 -2.80513 0
M  V30 19787 H 1846.83 -3.74146 -4.0163 0
M  V30 19788 H 1847.09 -2.00609 -3.93965 0
M  V30 19789 N 1846.15 0.735796 -1.39369 0
M  V30 19790 C 1847.56 1.31402 -1.32628 0
M  V30 19791 C 1847.91 1.96198 0.00972836 0
M  V30 19792 O 1847.03 1.9625 0.91185 0
M  V30 19793 C 1847.63 2.38934 -2.402 0
M  V30 19794 C 1846.19 2.92432 -2.36982 0
M  V30 19795 C 1845.33 1.65992 -2.2213 0
M  V30 19796 H 1848.29 0.533364 -1.49469 0
M  V30 19797 H 1848.31 3.19304 -2.06942 0
M  V30 19798 H 1847.82 1.91745 -3.37425 0
M  V30 19799 H 1845.92 3.43903 -1.43394 0
M  V30 19800 H 1846.03 3.456 -3.31809 0
M  V30 19801 H 1844.4 1.90298 -1.69289 0
M  V30 19802 H 1845.18 1.20857 -3.21323 0
M  V30 19803 N 1847.63 1.24532 0.965897 0
M  V30 19804 C 1849.04 1.07886 1.52373 0
M  V30 19805 C 1849.39 -0.349136 1.93069 0
M  V30 19806 O 1848.51 -1.23774 1.77508 0
M  V30 19807 C 1849.11 1.95224 2.76899 0
M  V30 19808 C 1847.67 1.82796 3.29033 0
M  V30 19809 C 1846.81 1.9005 2.01931 0
M  V30 19810 H 1849.76 1.37982 0.783997 0
M  V30 19811 H 1849.79 1.48558 3.50301 0
M  V30 19812 H 1849.3 2.99148 2.47249 0
M  V30 19813 H 1847.4 0.817115 3.6353 0
M  V30 19814 H 1847.51 2.66989 3.97811 0
M  V30 19815 H 1845.88 1.338 2.16725 0
M  V30 19816 H 1846.66 2.95558 1.74644 0
M  V30 19817 N 1849.1 -1.16685 1.05936 0
M  V30 19818 C 1850.35 -1.87405 0.775061 0
M  V30 19819 C 1850.68 -1.81279 -0.696543 0
M  V30 19820 O 1849.96 -1.22595 -1.50999 0
M  V30 19821 C 1850.24 -3.37124 1.26569 0
M  V30 19822 C 1850.09 -3.5196 2.80078 0
M  V30 19823 C 1851.41 -4.31401 0.870695 0
M  V30 19824 H 1848.53 -0.680488 0.283028 0
M  V30 19825 H 1851.17 -1.37174 1.31466 0
M  V30 19826 H 1849.32 -3.80033 0.806653 0
M  V30 19827 H 1851 -3.18014 3.34163 0
M  V30 19828 H 1849.24 -2.9399 3.18986 0
M  V30 19829 H 1849.91 -4.5709 3.09471 0
M  V30 19830 H 1852.39 -3.96373 1.266 0
M  V30 19831 H 1851.26 -5.34676 1.2415 0
M  V30 19832 H 1851.52 -4.41529 -0.224692 0
M  V30 19833 N 1850.58 -0.841432 -1.33258 0
M  V30 19834 C 1851.83 -0.439027 -1.97991 0
M  V30 19835 C 1852.16 0.999767 -1.66488 0
M  V30 19836 O 1851.44 1.69938 -0.94612 0
M  V30 19837 C 1851.72 -0.663137 -3.53941 0
M  V30 19838 C 1851.57 -2.14939 -3.95122 0
M  V30 19839 C 1852.89 -0.11094 -4.3996 0
M  V30 19840 H 1850.01 -0.160987 -0.719203 0
M  V30 19841 H 1852.65 -1.05742 -1.57856 0
M  V30 19842 H 1850.8 -0.136765 -3.88259 0
M  V30 19843 H 1852.47 -2.74082 -3.71048 0
M  V30 19844 H 1850.72 -2.63293 -3.4476 0
M  V30 19845 H 1851.39 -2.25694 -5.03752 0
M  V30 19846 H 1853.86 -0.560898 -4.12302 0
M  V30 19847 H 1852.74 -0.297416 -5.48094 0
M  V30 19848 H 1853 0.985446 -4.30977 0
M  V30 19849 N 1852.06 1.4581 -0.598108 0
M  V30 19850 C 1853.48 1.57452 -0.260993 0
M  V30 19851 C 1853.68 1.59093 1.2366 0
M  V30 19852 O 1852.73 1.51614 2.01915 0
M  V30 19853 C 1854.04 2.86158 -0.923801 0
M  V30 19854 C 1855.59 2.99817 -0.89883 0
M  V30 19855 C 1856.07 4.3128 -1.54147 0
M  V30 19856 N 1857.56 4.38016 -1.50652 0
M  V30 19857 C 1858.29 5.38387 -1.973 0
M  V30 19858 N 1857.79 6.45347 -2.51991 0
M  V30 19859 N 1859.58 5.29684 -1.88124 0
M  V30 19860 H 1851.73 1.42988 -1.57061 0
M  V30 19861 H 1854 0.683038 -0.657391 0
M  V30 19862 H 1853.7 2.90812 -1.97791 0
M  V30 19863 H 1853.58 3.74609 -0.441318 0
M  V30 19864 H 1855.96 2.94735 0.146702 0
M  V30 19865 H 1856.04 2.12801 -1.41949 0
M  V30 19866 H 1855.69 4.3712 -2.58628 0
M  V30 19867 H 1855.62 5.17097 -0.995911 0
M  V30 19868 H 1858.11 3.61326 -1.1069 0
M  V30 19869 H 1858.42 7.18168 -2.85403 0
M  V30 19870 H 1856.77 6.46124 -2.56025 0
M  V30 19871 H 1859.96 4.45029 -1.45144 0
M  V30 19872 H 1860.13 6.0776 -2.24793 0
M  V30 19873 N 1853.54 0.336733 1.53961 0
M  V30 19874 C 1854.78 -0.254954 2.01796 0
M  V30 19875 C 1855.14 -1.4874 1.22042 0
M  V30 19876 O 1854.43 -1.8927 0.297911 0
M  V30 19877 C 1854.63 -0.628163 3.51836 0
M  V30 19878 C 1854.45 0.566566 4.46117 0
M  V30 19879 C 1853.22 1.06977 4.93846 0
M  V30 19880 C 1855.42 1.42289 4.94225 0
M  V30 19881 N 1853.4 2.22753 5.72062 0
M  V30 19882 C 1854.78 2.42765 5.70495 0
M  V30 19883 C 1856.83 1.44913 4.76345 0
M  V30 19884 C 1855.53 3.45686 6.30788 0
M  V30 19885 C 1857.56 2.46711 5.37483 0
M  V30 19886 C 1856.92 3.45913 6.13615 0
M  V30 19887 H 1853.02 -0.0567832 0.779936 0
M  V30 19888 H 1855.6 0.474756 1.88823 0
M  V30 19889 H 1853.78 -1.32699 3.65028 0
M  V30 19890 H 1855.51 -1.20245 3.86424 0
M  V30 19891 H 1852.26 0.638937 4.6927 0
M  V30 19892 H 1852.69 2.81189 6.15842 0
M  V30 19893 H 1857.33 0.695807 4.17035 0
M  V30 19894 H 1855.05 4.21917 6.89211 0
M  V30 19895 H 1858.63 2.4956 5.25558 0
M  V30 19896 H 1857.51 4.23393 6.60082 0
M  V30 19897 N 1855.02 -1.57465 0.0651956 0
M  V30 19898 C 1855.95 -2.15374 -0.902018 0
M  V30 19899 C 1856.93 -1.07904 -1.31494 0
M  V30 19900 O 1858.11 -1.35909 -1.38717 0
M  V30 19901 C 1855.24 -2.71005 -2.17195 0
M  V30 19902 C 1854.2 -3.83583 -1.89864 0
M  V30 19903 C 1853.52 -4.25789 -3.23432 0
M  V30 19904 C 1854.82 -5.08112 -1.20913 0
M  V30 19905 H 1856.52 -2.96445 -0.419631 0
M  V30 19906 H 1854.06 -1.42599 -0.200401 0
M  V30 19907 H 1856.01 -3.1016 -2.8527 0
M  V30 19908 H 1854.74 -1.87146 -2.67664 0
M  V30 19909 H 1853.4 -3.44921 -1.24197 0
M  V30 19910 H 1853.05 -3.38861 -3.71729 0
M  V30 19911 H 1852.75 -5.01673 -3.05938 0
M  V30 19912 H 1854.27 -4.67555 -3.92715 0
M  V30 19913 H 1855.68 -5.44624 -1.79046 0
M  V30 19914 H 1854.08 -5.8923 -1.137 0
M  V30 19915 H 1855.15 -4.84538 -0.187224 0
M  V30 19916 N 1856.49 0.20831 -1.56217 0
M  V30 19917 C 1857.44 1.27775 -1.94362 0
M  V30 19918 C 1858.44 1.47824 -0.827316 0
M  V30 19919 O 1859.64 1.48841 -1.01224 0
M  V30 19920 H 1856.02 0.428676 -0.617852 0
M  V30 19921 H 1857.99 0.928929 -2.83573 0
M  V30 19922 C 1856.74 2.61808 -2.28806 0
M  V30 19923 H 1856.06 2.47192 -3.14223 0
M  V30 19924 H 1857.5 3.35416 -2.59369 0
M  V30 19925 C 1855.96 3.17812 -1.1179 0
M  V30 19926 O 1856.49 3.99841 -0.385968 0
M  V30 19927 N 1854.69 2.7637 -0.898205 0
M  V30 19928 H 1854.24 2.0977 -1.49514 0
M  V30 19929 H 1854.2 3.14182 -0.117031 0
M  V30 19930 N 1857.97 1.50255 0.475528 0
M  V30 19931 C 1858.88 1.71573 1.6 0
M  V30 19932 C 1859.9 0.598748 1.63374 0
M  V30 19933 O 1861.07 0.876544 1.81325 0
M  V30 19934 C 1858.14 1.80117 2.96241 0
M  V30 19935 C 1857.2 3.03831 3.03291 0
M  V30 19936 C 1856.43 3.11958 4.33033 0
M  V30 19937 O 1856.66 2.26995 5.23287 0
M  V30 19938 O 1855.59 4.04647 4.45583 0
M  V30 19939 H 1859.42 2.66884 1.44937 0
M  V30 19940 H 1857 1.34298 0.654553 0
M  V30 19941 H 1858.88 1.87943 3.77167 0
M  V30 19942 H 1857.56 0.879896 3.11512 0
M  V30 19943 H 1856.46 3.01508 2.21458 0
M  V30 19944 H 1857.8 3.95523 2.92955 0
M  V30 19945 N 1859.45 -0.728395 1.39758 0
M  V30 19946 C 1860.38 -1.85288 1.34911 0
M  V30 19947 C 1861.39 -1.60763 0.25671 0
M  V30 19948 O 1862.58 -1.70875 0.516143 0
M  V30 19949 C 1859.68 -3.21445 1.07361 0
M  V30 19950 C 1858.86 -3.73272 2.28006 0
M  V30 19951 C 1857.92 -4.88008 1.96812 0
M  V30 19952 O 1856.94 -5.01325 2.69559 0
M  V30 19953 N 1858.14 -5.72867 0.938278 0
M  V30 19954 H 1860.91 -1.89949 2.31818 0
M  V30 19955 H 1858.47 -0.909409 1.33945 0
M  V30 19956 H 1860.46 -3.9578 0.845002 0
M  V30 19957 H 1859.03 -3.12012 0.191644 0
M  V30 19958 H 1858.25 -2.90214 2.66777 0
M  V30 19959 H 1859.54 -4.04633 3.08463 0
M  V30 19960 H 1858.94 -5.64704 0.335517 0
M  V30 19961 H 1857.49 -6.47241 0.769572 0
M  V30 19962 N 1860.93 -1.25042 -0.959279 0
M  V30 19963 C 1862.34 -1.01764 -1.22948 0
M  V30 19964 C 1862.54 0.268402 -1.99704 0
M  V30 19965 O 1861.6 0.982348 -2.32607 0
M  V30 19966 C 1862.91 -2.23794 -2.0084 0
M  V30 19967 C 1864.46 -2.28507 -2.13901 0
M  V30 19968 C 1864.94 -3.50181 -2.9519 0
M  V30 19969 N 1866.43 -3.50549 -3.0277 0
M  V30 19970 C 1867.16 -4.41357 -3.66049 0
M  V30 19971 N 1866.66 -5.42431 -4.30976 0
M  V30 19972 N 1868.45 -4.29049 -3.63143 0
M  V30 19973 H 1860.6 -2.07672 -0.445667 0
M  V30 19974 H 1862.86 -0.91176 -0.259611 0
M  V30 19975 H 1862.57 -3.17237 -1.51835 0
M  V30 19976 H 1862.44 -2.26592 -3.01556 0
M  V30 19977 H 1864.83 -1.3559 -2.62105 0
M  V30 19978 H 1864.91 -2.29731 -1.12505 0
M  V30 19979 H 1864.56 -4.43417 -2.47677 0
M  V30 19980 H 1864.49 -3.46202 -3.96802 0
M  V30 19981 H 1866.98 -2.77432 -2.56593 0
M  V30 19982 H 1867.29 -6.07941 -4.77104 0
M  V30 19983 H 1865.64 -5.46308 -4.29619 0
M  V30 19984 H 1868.83 -3.49317 -3.11601 0
M  V30 19985 H 1869 -5.00017 -4.12174 0
M  V30 19986 N 1862.41 1.16121 -1.06553 0
M  V30 19987 C 1863.64 1.90335 -0.803506 0
M  V30 19988 C 1864.04 1.77824 0.646172 0
M  V30 19989 O 1863.39 1.12231 1.4543 0
M  V30 19990 C 1863.45 3.41537 -1.12219 0
M  V30 19991 C 1863.11 3.77833 -2.57082 0
M  V30 19992 C 1864.11 3.79533 -3.55318 0
M  V30 19993 C 1861.8 4.08385 -2.92449 0
M  V30 19994 C 1863.79 4.11277 -4.8696 0
M  V30 19995 C 1861.48 4.39795 -4.24291 0
M  V30 19996 C 1862.47 4.41221 -5.21357 0
M  V30 19997 O 1862.16 4.71883 -6.50831 0
M  V30 19998 H 1861.89 0.610323 -0.290658 0
M  V30 19999 H 1864.45 1.48107 -1.42315 0
M  V30 20000 H 1862.68 3.84125 -0.445483 0
M  V30 20001 H 1864.37 3.97029 -0.843985 0
M  V30 20002 H 1865.13 3.56038 -3.29336 0
M  V30 20003 H 1861.01 4.06439 -2.17551 0
M  V30 20004 H 1864.56 4.12305 -5.62717 0
M  V30 20005 H 1860.45 4.62756 -4.5003 0
M  V30 20006 H 1861.22 4.89683 -6.5586 0
M  V30 20007 N 1863.88 0.848487 1.3281 0
M  V30 20008 C 1865.11 0.461973 2.01369 0
M  V30 20009 C 1865.52 -0.944176 1.63957 0
M  V30 20010 O 1864.87 -1.62659 0.853677 0
M  V30 20011 C 1864.93 0.514163 3.55804 0
M  V30 20012 C 1864.59 1.87812 4.16624 0
M  V30 20013 C 1865.59 2.84271 4.353 0
M  V30 20014 C 1863.27 2.17358 4.52836 0
M  V30 20015 C 1865.27 4.08433 4.89348 0
M  V30 20016 C 1862.95 3.41774 5.0659 0
M  V30 20017 C 1863.95 4.37128 5.24793 0
M  V30 20018 O 1863.64 5.59342 5.774 0
M  V30 20019 H 1863.37 0.180645 0.651416 0
M  V30 20020 H 1865.93 1.14535 1.70502 0
M  V30 20021 H 1864.16 -0.226037 3.86039 0
M  V30 20022 H 1865.85 0.14412 4.05644 0
M  V30 20023 H 1866.61 2.62747 4.07663 0
M  V30 20024 H 1862.49 1.43927 4.37957 0
M  V30 20025 H 1866.03 4.82869 5.03471 0
M  V30 20026 H 1861.93 3.63151 5.33659 0
M  V30 20027 H 1862.7 5.61215 5.95802 0
M  V30 20028 N 1865.36 -1.4549 0.605832 0
M  V30 20029 C 1866.61 -2.01852 0.10014 0
M  V30 20030 C 1866.93 -1.47699 -1.27319 0
M  V30 20031 O 1866.2 -0.670571 -1.84066 0
M  V30 20032 H 1864.78 -0.746225 0.0340291 0
M  V30 20033 H 1867.44 -1.78311 0.786834 0
M  V30 20034 H 1866.54 -3.12062 0.0485925 0
M  V30 20035 N 1866.84 -0.344893 -1.5378 0
M  V30 20036 C 1868.09 0.250711 -2.00539 0
M  V30 20037 C 1868.41 1.5096 -1.23435 0
M  V30 20038 O 1867.68 1.92893 -0.341893 0
M  V30 20039 H 1866.26 0.0956318 -0.740853 0
M  V30 20040 H 1868.92 -0.466361 -1.89238 0
M  V30 20041 H 1868.02 0.49222 -3.08194 0
M  V30 20042 N 1868.32 1.57428 -0.0735454 0
M  V30 20043 C 1869.57 1.93174 0.593996 0
M  V30 20044 C 1869.89 0.954462 1.70044 0
M  V30 20045 O 1869.16 0.00289765 1.959 0
M  V30 20046 H 1867.74 0.713123 0.222407 0
M  V30 20047 H 1870.4 1.94454 -0.131813 0
M  V30 20048 H 1869.5 2.95025 1.01818 0
M  V30 20049 N 1869.8 -0.200022 1.56326 0
M  V30 20050 C 1871.03 -0.936144 1.84174 0
M  V30 20051 C 1871.43 -1.77564 0.653267 0
M  V30 20052 O 1870.78 -1.79569 -0.387368 0
M  V30 20053 C 1870.84 -1.88598 3.06057 0
M  V30 20054 C 1870.5 -1.22892 4.40167 0
M  V30 20055 C 1871.5 -0.608243 5.1633 0
M  V30 20056 C 1869.19 -1.23424 4.869 0
M  V30 20057 C 1871.18 -0.00166268 6.374 0
M  V30 20058 C 1868.87 -0.623827 6.07908 0
M  V30 20059 C 1869.86 -0.00861163 6.82999 0
M  V30 20060 O 1869.55 0.592252 8.01715 0
M  V30 20061 H 1869.28 -0.278889 0.615789 0
M  V30 20062 H 1871.84 -0.213764 2.04285 0
M  V30 20063 H 1870.07 -2.64793 2.81818 0
M  V30 20064 H 1871.76 -2.48948 3.20593 0
M  V30 20065 H 1872.52 -0.596302 4.8132 0
M  V30 20066 H 1868.4 -1.7025 4.28411 0
M  V30 20067 H 1871.95 0.479147 6.95953 0
M  V30 20068 H 1867.84 -0.633254 6.42386 0
M  V30 20069 H 1868.61 0.488674 8.1704 0
M  V30 20070 N 1871.27 -1.50505 -0.467553 0
M  V30 20071 C 1872.52 -1.61352 -1.21697 0
M  V30 20072 C 1872.84 -0.317583 -1.92396 0
M  V30 20073 O 1872.11 0.665123 -1.84263 0
M  V30 20074 H 1870.69 -0.594582 -0.452196 0
M  V30 20075 H 1873.36 -1.87299 -0.539 0
M  V30 20076 H 1872.45 -2.4264 -1.96296 0
M  V30 20077 N 1872.75 0.720973 -1.40142 0
M  V30 20078 C 1873.98 1.51519 -1.41622 0
M  V30 20079 C 1874.4 1.88093 -0.0162669 0
M  V30 20080 O 1873.76 1.52895 0.974307 0
M  V30 20081 C 1873.81 2.77041 -2.30826 0
M  V30 20082 O 1872.91 3.73532 -1.74779 0
M  V30 20083 H 1872.25 0.457034 -0.481681 0
M  V30 20084 H 1874.78 0.88837 -1.84307 0
M  V30 20085 H 1874.79 3.25628 -2.45826 0
M  V30 20086 H 1873.47 2.49755 -3.32558 0
M  V30 20087 H 1872.05 3.32356 -1.69097 0
M  V30 20088 N 1874.23 1.25549 0.952634 0
M  V30 20089 C 1875.46 1.13162 1.73211 0
M  V30 20090 C 1875.87 -0.314383 1.86164 0
M  V30 20091 O 1875.23 -1.21608 1.3608 0
M  V30 20092 C 1875.28 1.78273 3.14485 0
M  V30 20093 O 1875 3.17221 3.02163 0
M  V30 20094 C 1876.5 1.71691 4.08702 0
M  V30 20095 H 1873.72 0.394613 0.542698 0
M  V30 20096 H 1876.27 1.65951 1.19502 0
M  V30 20097 H 1874.42 1.2945 3.65132 0
M  V30 20098 H 1874.84 3.49266 3.91297 0
M  V30 20099 H 1876.31 2.21906 5.05432 0
M  V30 20100 H 1876.79 0.681094 4.33887 0
M  V30 20101 H 1877.39 2.20012 3.63971 0
M  V30 20102 N 1875.71 -1.15554 1.07168 0
M  V30 20103 C 1876.64 -2.19841 0.648285 0
M  V30 20104 C 1877.65 -1.60045 -0.298247 0
M  V30 20105 O 1878.84 -1.78284 -0.0878565 0
M  V30 20106 C 1875.94 -3.38831 -0.068586 0
M  V30 20107 C 1875.12 -4.28173 0.89366 0
M  V30 20108 C 1874.17 -5.25763 0.214424 0
M  V30 20109 O 1873.2 -5.62744 0.854883 0
M  V30 20110 N 1874.4 -5.71096 -1.04063 0
M  V30 20111 H 1877.17 -2.56784 1.54539 0
M  V30 20112 H 1874.73 -1.30652 0.956127 0
M  V30 20113 H 1876.72 -4.01167 -0.533614 0
M  V30 20114 H 1875.29 -3.00319 -0.86761 0
M  V30 20115 H 1874.51 -3.62965 1.53785 0
M  V30 20116 H 1875.8 -4.84739 1.54613 0
M  V30 20117 H 1875.2 -5.4316 -1.58095 0
M  V30 20118 H 1873.75 -6.35481 -1.44937 0
M  V30 20119 N 1877.19 -0.855519 -1.32358 0
M  V30 20120 C 1878.15 -0.305794 -2.27151 0
M  V30 20121 C 1879.15 0.535008 -1.51639 0
M  V30 20122 O 1880.34 0.346394 -1.70721 0
M  V30 20123 C 1877.47 0.567275 -3.36147 0
M  V30 20124 H 1878.67 -1.14245 -2.77287 0
M  V30 20125 H 1876.22 -0.629924 -1.43044 0
M  V30 20126 H 1876.95 1.42571 -2.9128 0
M  V30 20127 H 1876.74 -0.0345714 -3.92085 0
M  V30 20128 H 1878.23 0.944644 -4.06775 0
M  V30 20129 N 1878.67 1.45167 -0.61354 0
M  V30 20130 C 1879.89 2.06565 -0.117608 0
M  V30 20131 C 1880.31 1.45716 1.20051 0
M  V30 20132 O 1879.67 0.573512 1.73254 0
M  V30 20133 C 1879.72 3.61493 0.0221474 0
M  V30 20134 O 1879.44 4.20072 -1.24383 0
M  V30 20135 C 1880.94 4.39889 0.548841 0
M  V30 20136 H 1878.16 0.667172 -0.0715756 0
M  V30 20137 H 1880.7 1.86318 -0.84296 0
M  V30 20138 H 1878.86 3.81063 0.697854 0
M  V30 20139 H 1879.27 5.13317 -1.07733 0
M  V30 20140 H 1880.75 5.48776 0.595696 0
M  V30 20141 H 1881.22 4.1009 1.57234 0
M  V30 20142 H 1881.83 4.25198 -0.0930203 0
M  V30 20143 N 1880.14 0.353044 1.53595 0
M  V30 20144 C 1881.39 -0.240548 2.01066 0
M  V30 20145 C 1881.72 -1.49793 1.24065 0
M  V30 20146 O 1880.97 -1.93083 0.318982 0
M  V30 20147 C 1881.27 -0.590811 3.52483 0
M  V30 20148 C 1880.94 0.570791 4.47273 0
M  V30 20149 C 1879.6 0.889548 4.72906 0
M  V30 20150 C 1881.95 1.34962 5.03423 0
M  V30 20151 C 1879.28 1.98933 5.51944 0
M  V30 20152 C 1881.63 2.43972 5.83661 0
M  V30 20153 C 1880.3 2.76397 6.07586 0
M  V30 20154 H 1879.57 -0.0880227 0.735753 0
M  V30 20155 H 1882.21 0.48292 1.85311 0
M  V30 20156 H 1880.52 -1.39512 3.6612 0
M  V30 20157 H 1882.22 -1.06213 3.86678 0
M  V30 20158 H 1878.81 0.3123 4.27461 0
M  V30 20159 H 1882.99 1.11661 4.83576 0
M  V30 20160 H 1878.25 2.24468 5.68704 0
M  V30 20161 H 1882.42 3.04746 6.26181 0
M  V30 20162 H 1880.05 3.61741 6.68616 0
M  V30 20163 N 1881.62 -1.57387 0.0818932 0
M  V30 20164 C 1882.55 -2.0892 -0.91802 0
M  V30 20165 C 1883.53 -0.996648 -1.28474 0
M  V30 20166 O 1884.72 -1.27073 -1.39229 0
M  V30 20167 C 1881.84 -2.55525 -2.22317 0
M  V30 20168 C 1880.89 -3.76312 -2.00727 0
M  V30 20169 S 1881.72 -5.20529 -1.25736 0
M  V30 20170 C 1882.88 -5.70473 -2.57509 0
M  V30 20171 H 1883.11 -2.93407 -0.479563 0
M  V30 20172 H 1880.64 -1.53842 -0.131103 0
M  V30 20173 H 1882.6 -2.83035 -2.97324 0
M  V30 20174 H 1881.26 -1.71288 -2.63285 0
M  V30 20175 H 1880.46 -4.06945 -2.97342 0
M  V30 20176 H 1880.06 -3.49227 -1.33853 0
M  V30 20177 H 1882.35 -5.77934 -3.53551 0
M  V30 20178 H 1883.29 -6.69198 -2.31473 0
M  V30 20179 H 1883.7 -4.98339 -2.65177 0
M  V30 20180 N 1883.1 0.191729 -1.56429 0
M  V30 20181 C 1884.35 0.912948 -1.81089 0
M  V30 20182 C 1884.68 1.82767 -0.656483 0
M  V30 20183 O 1883.95 1.91456 0.342779 0
M  V30 20184 C 1884.24 1.72628 -3.16025 0
M  V30 20185 C 1884.09 0.836045 -4.41962 0
M  V30 20186 C 1885.41 2.69818 -3.47687 0
M  V30 20187 H 1882.53 0.33046 -0.658761 0
M  V30 20188 H 1885.17 0.180148 -1.89144 0
M  V30 20189 H 1883.32 2.35102 -3.09289 0
M  V30 20190 H 1884.99 0.225751 -4.60747 0
M  V30 20191 H 1883.23 0.142944 -4.33564 0
M  V30 20192 H 1883.91 1.44019 -5.32881 0
M  V30 20193 H 1886.38 2.17475 -3.54745 0
M  V30 20194 H 1885.26 3.23806 -4.43216 0
M  V30 20195 H 1885.52 3.49028 -2.71352 0
M  V30 20196 N 1884.58 1.50751 0.459565 0
M  V30 20197 C 1885.82 1.62315 1.21078 0
M  V30 20198 C 1886.15 0.328859 1.917 0
M  V30 20199 O 1885.41 -0.685929 1.83285 0
M  V30 20200 C 1885.71 2.7612 2.26919 0
M  V30 20201 C 1885.37 4.16196 1.73469 0
M  V30 20202 C 1884.03 4.54307 1.58613 0
M  V30 20203 C 1886.39 5.03696 1.33941 0
M  V30 20204 C 1883.71 5.77647 1.0267 0
M  V30 20205 C 1886.07 6.27593 0.794349 0
M  V30 20206 C 1884.73 6.64496 0.632515 0
M  V30 20207 H 1884 0.593954 0.443057 0
M  V30 20208 H 1886.65 1.8472 0.505069 0
M  V30 20209 H 1884.95 2.47849 3.03443 0
M  V30 20210 H 1886.65 2.8227 2.84824 0
M  V30 20211 H 1883.24 3.86136 1.86002 0
M  V30 20212 H 1887.42 4.74875 1.44247 0
M  V30 20213 H 1882.68 6.04904 0.888879 0
M  V30 20214 H 1886.85 6.94748 0.479449 0
M  V30 20215 H 1884.48 7.59945 0.196879 0
M  V30 20216 N 1886.06 -0.713531 1.40522 0
M  V30 20217 C 1886.99 -1.83847 1.36868 0
M  V30 20218 C 1888 -1.60482 0.273746 0
M  V30 20219 O 1889.19 -1.70318 0.534238 0
M  V30 20220 C 1886.29 -3.20288 1.10764 0
M  V30 20221 C 1885.46 -3.70833 2.31952 0
M  V30 20222 C 1884.52 -4.85893 2.01977 0
M  V30 20223 O 1883.55 -4.98438 2.74861 0
M  V30 20224 N 1884.75 -5.7184 0.998985 0
M  V30 20225 H 1887.51 -1.87479 2.3382 0
M  V30 20226 H 1885.08 -0.895151 1.34902 0
M  V30 20227 H 1887.07 -3.94861 0.886932 0
M  V30 20228 H 1885.64 -3.11791 0.224726 0
M  V30 20229 H 1884.86 -2.87368 2.6984 0
M  V30 20230 H 1886.15 -4.01339 3.12738 0
M  V30 20231 H 1885.54 -5.64317 0.395392 0
M  V30 20232 H 1884.1 -6.46388 0.838178 0
M  V30 20233 N 1887.53 -1.26053 -0.945962 0
M  V30 20234 C 1888.5 -1.07262 -2.02553 0
M  V30 20235 C 1889.5 -0.0225237 -1.60784 0
M  V30 20236 O 1890.69 -0.265501 -1.72165 0
M  V30 20237 C 1887.82 -0.63045 -3.3502 0
M  V30 20238 H 1889.01 -2.03105 -2.20655 0
M  V30 20239 H 1886.56 -1.08582 -1.12426 0
M  V30 20240 H 1887.3 0.330188 -3.22615 0
M  V30 20241 H 1887.08 -1.38863 -3.66687 0
M  V30 20242 H 1888.57 -0.520674 -4.14341 0
M  V30 20243 N 1889.01 1.14984 -1.07779 0
M  V30 20244 C 1889.94 2.22006 -0.723564 0
M  V30 20245 C 1890.92 1.67592 0.291024 0
M  V30 20246 O 1892.11 1.93516 0.162812 0
M  V30 20247 C 1889.24 3.47074 -0.125223 0
M  V30 20248 C 1888.19 4.14475 -1.06745 0
M  V30 20249 C 1887.52 5.33671 -0.331643 0
M  V30 20250 C 1888.82 4.63744 -2.4029 0
M  V30 20251 H 1890.51 2.51893 -1.61834 0
M  V30 20252 H 1888.06 1.21073 -0.779571 0
M  V30 20253 H 1890.01 4.21185 0.134555 0
M  V30 20254 H 1888.73 3.16533 0.804654 0
M  V30 20255 H 1887.39 3.4231 -1.31222 0
M  V30 20256 H 1887.04 4.99387 0.601833 0
M  V30 20257 H 1886.74 5.7971 -0.959721 0
M  V30 20258 H 1888.27 6.10548 -0.0797668 0
M  V30 20259 H 1889.68 5.2936 -2.20115 0
M  V30 20260 H 1888.08 5.20461 -2.98732 0
M  V30 20261 H 1889.15 3.79151 -3.02279 0
M  V30 20262 N 1890.49 0.862526 1.31902 0
M  V30 20263 C 1891.45 0.317836 2.26986 0
M  V30 20264 C 1892.45 -0.526959 1.5192 0
M  V30 20265 O 1893.64 -0.337336 1.70903 0
M  V30 20266 C 1890.77 -0.549441 3.36443 0
M  V30 20267 H 1891.97 1.15714 2.76677 0
M  V30 20268 H 1889.52 0.637501 1.42708 0
M  V30 20269 H 1890.26 -1.41024 2.92032 0
M  V30 20270 H 1890.04 0.0553642 3.92061 0
M  V30 20271 H 1891.53 -0.923059 4.07271 0
M  V30 20272 N 1891.97 -1.4484 0.62123 0
M  V30 20273 C 1892.9 -2.28843 -0.127881 0
M  V30 20274 C 1893.91 -1.40726 -0.818542 0
M  V30 20275 O 1895.1 -1.64972 -0.681645 0
M  V30 20276 C 1892.2 -3.16837 -1.20281 0
M  V30 20277 C 1891.38 -4.33312 -0.5966 0
M  V30 20278 C 1890.43 -5.02414 -1.56419 0
M  V30 20279 O 1889.46 -5.5876 -1.08517 0
M  V30 20280 N 1890.66 -5.02953 -2.8986 0
M  V30 20281 H 1893.43 -2.93775 0.592994 0
M  V30 20282 H 1890.99 -1.55178 0.461679 0
M  V30 20283 H 1892.98 -3.59929 -1.85021 0
M  V30 20284 H 1891.55 -2.53722 -1.82603 0
M  V30 20285 H 1890.77 -3.93533 0.229203 0
M  V30 20286 H 1892.06 -5.08509 -0.17206 0
M  V30 20287 H 1891.46 -4.58489 -3.31367 0
M  V30 20288 H 1890.01 -5.49866 -3.49987 0
M  V30 20289 N 1893.45 -0.361184 -1.53405 0
M  V30 20290 C 1894.68 0.23043 -2.05311 0
M  V30 20291 C 1895.08 1.43355 -1.23475 0
M  V30 20292 O 1894.43 1.81745 -0.267304 0
M  V30 20293 C 1894.49 0.692241 -3.52772 0
M  V30 20294 C 1894.15 -0.393597 -4.55302 0
M  V30 20295 C 1895.15 -1.24204 -5.04846 0
M  V30 20296 C 1892.84 -0.55258 -4.99251 0
M  V30 20297 C 1894.83 -2.23485 -5.96936 0
M  V30 20298 C 1892.52 -1.54876 -5.91149 0
M  V30 20299 C 1893.51 -2.38834 -6.39881 0
M  V30 20300 O 1893.2 -3.36753 -7.29967 0
M  V30 20301 H 1892.93 0.0451009 -0.674494 0
M  V30 20302 H 1895.49 -0.516588 -1.98798 0
M  V30 20303 H 1893.72 1.49079 -3.56809 0
M  V30 20304 H 1895.41 1.20637 -3.87559 0
M  V30 20305 H 1896.17 -1.13039 -4.71643 0
M  V30 20306 H 1892.05 0.0911198 -4.6091 0
M  V30 20307 H 1895.6 -2.89053 -6.34897 0
M  V30 20308 H 1891.49 -1.66091 -6.23766 0
M  V30 20309 H 1892.26 -3.32431 -7.47952 0
M  V30 20310 N 1894.92 1.57341 -0.0902386 0
M  V30 20311 C 1895.86 2.10775 0.900374 0
M  V30 20312 C 1896.87 1.0439 1.24926 0
M  V30 20313 O 1898.06 1.31851 1.20322 0
M  V30 20314 C 1895.16 2.56852 2.21089 0
M  V30 20315 C 1894.33 3.87016 2.03808 0
M  V30 20316 C 1893.39 4.18991 3.18328 0
M  V30 20317 O 1892.42 4.88292 2.92505 0
M  V30 20318 N 1893.62 3.74006 4.43959 0
M  V30 20319 H 1896.38 2.96392 0.444045 0
M  V30 20320 H 1893.94 1.61621 0.0949979 0
M  V30 20321 H 1895.94 2.75292 2.96642 0
M  V30 20322 H 1894.51 1.76271 2.58161 0
M  V30 20323 H 1893.73 3.77772 1.12613 0
M  V30 20324 H 1895.01 4.72181 1.89532 0
M  V30 20325 H 1894.41 3.18056 4.67821 0
M  V30 20326 H 1892.97 3.97611 5.16477 0
M  V30 20327 N 1896.4 -0.183431 1.56529 0
M  V30 20328 C 1897.35 -1.22726 1.95466 0
M  V30 20329 C 1898.32 -1.44626 0.81686 0
M  V30 20330 O 1899.5 -1.57566 1.07599 0
M  V30 20331 C 1896.64 -2.56435 2.30944 0
M  V30 20332 C 1895.76 -2.42016 3.57844 0
M  V30 20333 C 1894.89 -3.68509 3.82589 0
M  V30 20334 C 1893.93 -3.48972 5.02877 0
M  V30 20335 N 1893.07 -4.67505 5.23817 0
M  V30 20336 H 1897.91 -0.888204 2.84456 0
M  V30 20337 H 1895.45 -0.427192 1.4076 0
M  V30 20338 H 1897.4 -3.3435 2.49532 0
M  V30 20339 H 1896.03 -2.8836 1.4508 0
M  V30 20340 H 1895.09 -1.55339 3.47237 0
M  V30 20341 H 1896.4 -2.23519 4.45915 0
M  V30 20342 H 1895.55 -4.54861 4.0148 0
M  V30 20343 H 1894.29 -3.89972 2.9287 0
M  V30 20344 H 1893.3 -2.61005 4.83897 0
M  V30 20345 H 1894.52 -3.28942 5.94116 0
M  V30 20346 H 1892.47 -4.8921 4.37047 0
M  V30 20347 H 1892.38 -4.51876 6.06089 0
M  V30 20348 H 1893.65 -5.55175 5.47176 0
M  V30 20349 N 1897.88 -1.50992 -0.451564 0
M  V30 20350 C 1899.16 -1.53486 -1.2125 0
M  V30 20351 C 1899.54 -0.290809 -2.09087 0
M  V30 20352 O 1898.89 0.724859 -2.16698 0
M  V30 20353 C 1899.1 -2.84125 -2.02667 0
M  V30 20354 C 1900.44 -3.35535 -2.60195 0
M  V30 20355 O 1901.47 -2.85579 -2.12892 0
M  V30 20356 O 1900.33 -4.22667 -3.46432 0
M  V30 20357 H 1897.42 -0.616481 -0.551253 0
M  V30 20358 H 1899.97 -1.63296 -0.461792 0
M  V30 20359 H 1898.74 -3.66134 -1.38064 0
M  V30 20360 H 1898.36 -2.7741 -2.84832 0
M  V30 20361 N 1899.36 0.706069 -1.40899 0
M  V30 20362 C 1900.32 1.80184 -1.41656 0
M  V30 20363 C 1901.32 1.57807 -0.308823 0
M  V30 20364 O 1902.51 1.64673 -0.568197 0
M  V30 20365 C 1899.64 3.18412 -1.21765 0
M  V30 20366 H 1900.84 1.80908 -2.39191 0
M  V30 20367 H 1898.39 0.912658 -1.26887 0
M  V30 20368 H 1899.12 3.23333 -0.250288 0
M  V30 20369 H 1898.91 3.36054 -2.02015 0
M  V30 20370 H 1900.4 3.9842 -1.25106 0
M  V30 20371 N 1900.84 1.26553 0.939264 0
M  V30 20372 C 1902.25 1.11093 1.50051 0
M  V30 20373 C 1902.6 -0.308105 1.93766 0
M  V30 20374 O 1901.72 -1.19981 1.80093 0
M  V30 20375 C 1902.32 2.01053 2.72696 0
M  V30 20376 C 1900.88 1.89734 3.25082 0
M  V30 20377 C 1900.02 1.94291 1.97854 0
M  V30 20378 H 1902.98 1.39614 0.754553 0
M  V30 20379 H 1903 1.55955 3.47071 0
M  V30 20380 H 1902.51 3.04325 2.40848 0
M  V30 20381 H 1900.61 0.894042 3.61715 0
M  V30 20382 H 1900.72 2.75368 3.92058 0
M  V30 20383 H 1899.09 1.38367 2.13838 0
M  V30 20384 H 1899.87 2.99196 1.68335 0
M  V30 20385 N 1902.31 -1.14411 1.08387 0
M  V30 20386 C 1903.59 -1.8162 0.726188 0
M  V30 20387 C 1903.97 -1.95755 -0.790129 0
M  V30 20388 O 1903.32 -1.51725 -1.70856 0
M  V30 20389 C 1903.53 -3.17321 1.45287 0
M  V30 20390 C 1904.88 -3.92818 1.6118 0
M  V30 20391 O 1905.9 -3.2691 1.41451 0
M  V30 20392 O 1904.76 -5.1101 1.93728 0
M  V30 20393 H 1901.85 -0.785182 0.25965 0
M  V30 20394 H 1904.4 -1.21431 1.18544 0
M  V30 20395 H 1903.17 -3.02195 2.48584 0
M  V30 20396 H 1902.8 -3.85203 0.985093 0
M  V30 20397 N 1903.79 -0.869509 -1.31443 0
M  V30 20398 C 1904.74 -0.296524 -2.26064 0
M  V30 20399 C 1905.73 0.566171 -1.5061 0
M  V30 20400 O 1906.92 0.413124 -1.72111 0
M  V30 20401 C 1904.05 0.501397 -3.39619 0
M  V30 20402 C 1903.13 -0.374516 -4.22443 0
M  V30 20403 N 1903.52 -1.46777 -4.84035 0
M  V30 20404 C 1901.82 -0.16687 -4.45688 0
M  V30 20405 C 1902.52 -2.00787 -5.45948 0
M  V30 20406 N 1901.5 -1.30494 -5.27705 0
M  V30 20407 H 1905.3 -1.1321 -2.71221 0
M  V30 20408 H 1902.82 -0.71722 -1.45704 0
M  V30 20409 H 1904.81 0.928409 -4.06431 0
M  V30 20410 H 1903.47 1.33459 -2.96005 0
M  V30 20411 H 1904.48 -1.85069 -4.83704 0
M  V30 20412 H 1901.16 0.630411 -4.12713 0
M  V30 20413 H 1902.55 -2.9251 -6.04887 0
M  V30 20414 N 1905.27 1.44508 -0.628902 0
M  V30 20415 C 1906.2 2.28908 0.115743 0
M  V30 20416 C 1907.22 1.41158 0.811067 0
M  V30 20417 O 1908.4 1.65331 0.672887 0
M  V30 20418 C 1905.5 3.17471 1.18599 0
M  V30 20419 C 1904.68 4.33622 0.573612 0
M  V30 20420 C 1903.74 5.03236 1.53752 0
M  V30 20421 O 1902.76 5.59328 1.05553 0
M  V30 20422 N 1903.96 5.04483 2.87189 0
M  V30 20423 H 1906.73 2.93456 -0.608565 0
M  V30 20424 H 1904.29 1.54931 -0.469902 0
M  V30 20425 H 1906.28 3.60906 1.8311 0
M  V30 20426 H 1904.85 2.54687 1.81255 0
M  V30 20427 H 1904.07 3.93406 -0.25007 0
M  V30 20428 H 1905.36 5.08593 0.14509 0
M  V30 20429 H 1904.76 4.6024 3.28931 0
M  V30 20430 H 1903.32 5.51714 3.47066 0
M  V30 20431 N 1906.75 0.369315 1.53212 0
M  V30 20432 C 1907.66 -0.483226 2.29569 0
M  V30 20433 C 1908.68 -1.08931 1.35684 0
M  V30 20434 O 1909.85 -1.09944 1.68743 0
M  V30 20435 C 1906.92 -1.60549 3.07286 0
M  V30 20436 C 1905.98 -1.02656 4.16846 0
M  V30 20437 C 1905.21 -2.09534 4.90847 0
M  V30 20438 O 1905.43 -3.30709 4.64745 0
M  V30 20439 O 1904.37 -1.72382 5.76687 0
M  V30 20440 H 1908.19 0.138246 3.03385 0
M  V30 20441 H 1905.78 0.133589 1.48802 0
M  V30 20442 H 1907.66 -2.25789 3.55805 0
M  V30 20443 H 1906.34 -2.21229 2.36303 0
M  V30 20444 H 1905.24 -0.337963 3.7257 0
M  V30 20445 H 1906.58 -0.464259 4.90006 0
M  V30 20446 N 1908.23 -1.57291 0.0985816 0
M  V30 20447 C 1909.16 -2.17239 -0.856131 0
M  V30 20448 C 1910.14 -1.10669 -1.29176 0
M  V30 20449 O 1911.32 -1.38821 -1.35803 0
M  V30 20450 C 1908.45 -2.75551 -2.11398 0
M  V30 20451 C 1907.41 -3.87524 -1.81685 0
M  V30 20452 C 1906.73 -4.32553 -3.14327 0
M  V30 20453 C 1908.03 -5.10562 -1.10108 0
M  V30 20454 H 1909.73 -2.97268 -0.356657 0
M  V30 20455 H 1907.27 -1.42992 -0.170108 0
M  V30 20456 H 1909.23 -3.16141 -2.78627 0
M  V30 20457 H 1907.95 -1.92781 -2.63634 0
M  V30 20458 H 1906.61 -3.47478 -1.16853 0
M  V30 20459 H 1906.26 -3.46669 -3.64458 0
M  V30 20460 H 1905.96 -5.08049 -2.95228 0
M  V30 20461 H 1907.48 -4.7578 -3.82709 0
M  V30 20462 H 1908.9 -5.483 -1.67453 0
M  V30 20463 H 1907.29 -5.91509 -1.01176 0
M  V30 20464 H 1908.36 -4.84827 -0.0844041 0
M  V30 20465 N 1909.71 0.175127 -1.56624 0
M  V30 20466 C 1910.65 1.23623 -1.97028 0
M  V30 20467 C 1911.65 1.46036 -0.858485 0
M  V30 20468 O 1912.85 1.46661 -1.04358 0
M  V30 20469 H 1909.23 0.415474 -0.626806 0
M  V30 20470 H 1911.2 0.86857 -2.85479 0
M  V30 20471 C 1909.95 2.56896 -2.34307 0
M  V30 20472 H 1909.27 2.40471 -3.19396 0
M  V30 20473 H 1910.71 3.29839 -2.66425 0
M  V30 20474 C 1909.17 3.15369 -1.18506 0
M  V30 20475 O 1909.7 3.98933 -0.470694 0
M  V30 20476 N 1907.91 2.74403 -0.956625 0
M  V30 20477 H 1907.45 2.06551 -1.5393 0
M  V30 20478 H 1907.41 3.13863 -0.183647 0
M  V30 20479 N 1911.18 1.5123 0.44355 0
M  V30 20480 C 1912.11 1.75038 1.54544 0
M  V30 20481 C 1913.09 0.600017 1.59166 0
M  V30 20482 O 1914.28 0.842082 1.74993 0
M  V30 20483 C 1911.41 1.86976 2.92673 0
M  V30 20484 C 1910.36 3.0237 3.02913 0
M  V30 20485 C 1909.69 2.99483 4.4296 0
M  V30 20486 C 1910.99 4.4244 2.77569 0
M  V30 20487 H 1912.68 2.67301 1.34872 0
M  V30 20488 H 1910.23 1.28627 0.647395 0
M  V30 20489 H 1912.18 2.02215 3.69712 0
M  V30 20490 H 1910.91 0.913563 3.13563 0
M  V30 20491 H 1909.57 2.86826 2.28312 0
M  V30 20492 H 1909.21 2.01654 4.60809 0
M  V30 20493 H 1908.91 3.76968 4.50743 0
M  V30 20494 H 1910.44 3.16808 5.21982 0
M  V30 20495 H 1911.85 4.58367 3.44344 0
M  V30 20496 H 1910.25 5.21583 2.96768 0
M  V30 20497 H 1911.32 4.52906 1.73218 0
M  V30 20498 N 1912.66 -0.698586 1.41271 0
M  V30 20499 C 1913.94 -1.45291 1.30957 0
M  V30 20500 C 1914.32 -2.11002 -0.0642533 0
M  V30 20501 O 1913.67 -2.01458 -1.07829 0
M  V30 20502 C 1913.88 -2.4748 2.46078 0
M  V30 20503 C 1915.22 -3.1282 2.87104 0
M  V30 20504 O 1916.25 -2.57804 2.45796 0
M  V30 20505 O 1915.11 -4.12458 3.58525 0
M  V30 20506 H 1912.2 -0.646905 0.515212 0
M  V30 20507 H 1914.75 -0.72932 1.53229 0
M  V30 20508 H 1913.52 -1.97558 3.37767 0
M  V30 20509 H 1913.14 -3.27353 2.25668 0
M  V30 20510 N 1914.14 -1.27049 -0.93254 0
M  V30 20511 C 1915.39 -1.1327 -1.68219 0
M  V30 20512 C 1915.72 0.321632 -1.91518 0
M  V30 20513 O 1914.99 1.23564 -1.50207 0
M  V30 20514 C 1915.28 -1.91162 -3.0517 0
M  V30 20515 C 1915.13 -3.44552 -2.89143 0
M  V30 20516 C 1916.45 -1.71227 -4.05425 0
M  V30 20517 H 1913.57 -0.412859 -0.610505 0
M  V30 20518 H 1916.21 -1.56148 -1.08249 0
M  V30 20519 H 1914.36 -1.54722 -3.56361 0
M  V30 20520 H 1916.03 -3.90794 -2.45107 0
M  V30 20521 H 1914.27 -3.71138 -2.24586 0
M  V30 20522 H 1914.95 -3.9429 -3.86315 0
M  V30 20523 H 1917.42 -2.0299 -3.63227 0
M  V30 20524 H 1916.3 -2.28129 -4.99248 0
M  V30 20525 H 1916.56 -0.65898 -4.37161 0
M  V30 20526 N 1915.62 1.13835 -1.08993 0
M  V30 20527 C 1916.84 1.89402 -0.845071 0
M  V30 20528 C 1917.27 1.78353 0.597641 0
M  V30 20529 O 1916.63 1.12793 1.41942 0
M  V30 20530 C 1916.67 3.37144 -1.27931 0
M  V30 20531 O 1915.78 4.101 -0.434975 0
M  V30 20532 H 1915.12 0.589066 -0.306427 0
M  V30 20533 H 1917.65 1.44055 -1.45291 0
M  V30 20534 H 1917.66 3.87967 -1.26277 0
M  V30 20535 H 1916.33 3.44504 -2.33002 0
M  V30 20536 H 1914.91 3.6932 -0.515447 0
M  V30 20537 N 1917.1 0.876467 1.3098 0
M  V30 20538 C 1918.03 0.352925 2.30817 0
M  V30 20539 C 1919.01 -0.559675 1.60629 0
M  V30 20540 O 1920.19 -0.475326 1.88293 0
M  V30 20541 C 1917.32 -0.440827 3.44491 0
M  V30 20542 C 1916.28 0.379253 4.26316 0
M  V30 20543 C 1915.6 -0.540582 5.3196 0
M  V30 20544 C 1916.9 1.61682 4.96645 0
M  V30 20545 H 1918.6 1.18719 2.74857 0
M  V30 20546 H 1916.14 0.572316 1.32138 0
M  V30 20547 H 1918.09 -0.817661 4.13391 0
M  V30 20548 H 1916.82 -1.30866 2.99235 0
M  V30 20549 H 1915.48 0.738117 3.59092 0
M  V30 20550 H 1915.13 -1.40588 4.82953 0
M  V30 20551 H 1914.83 0.00427133 5.876 0
M  V30 20552 H 1916.35 -0.914118 6.03719 0
M  V30 20553 H 1917.76 1.31105 5.58108 0
M  V30 20554 H 1916.16 2.10123 5.62111 0
M  V30 20555 H 1917.23 2.36602 4.23258 0
M  V30 20556 N 1918.57 -1.44173 0.636557 0
M  V30 20557 C 1919.51 -2.28966 -0.103602 0
M  V30 20558 C 1920.52 -1.41586 -0.80357 0
M  V30 20559 O 1921.71 -1.65686 -0.66411 0
M  V30 20560 C 1918.81 -3.18095 -1.16913 0
M  V30 20561 C 1917.98 -4.33921 -0.550607 0
M  V30 20562 C 1917.04 -5.04044 -1.51081 0
M  V30 20563 O 1916.07 -5.59879 -1.02585 0
M  V30 20564 N 1917.27 -5.05999 -2.84509 0
M  V30 20565 H 1920.03 -2.93129 0.624119 0
M  V30 20566 H 1917.59 -1.54679 0.478112 0
M  V30 20567 H 1919.59 -3.61872 -1.81193 0
M  V30 20568 H 1918.16 -2.55645 -1.79902 0
M  V30 20569 H 1917.38 -3.93268 0.27093 0
M  V30 20570 H 1918.66 -5.08663 -0.118116 0
M  V30 20571 H 1918.06 -4.61978 -3.26486 0
M  V30 20572 H 1916.62 -5.53547 -3.44135 0
M  V30 20573 N 1920.05 -0.377435 -1.53014 0
M  V30 20574 C 1920.98 0.455103 -2.29022 0
M  V30 20575 C 1921.96 1.07375 -1.31926 0
M  V30 20576 O 1923.15 1.08877 -1.60809 0
M  V30 20577 C 1920.28 1.58883 -3.08826 0
M  V30 20578 C 1919.23 1.09683 -4.13707 0
M  V30 20579 C 1918.56 2.32172 -4.81664 0
M  V30 20580 C 1919.86 0.173165 -5.22013 0
M  V30 20581 H 1921.55 -0.179053 -2.98864 0
M  V30 20582 H 1919.1 -0.0875549 -1.43734 0
M  V30 20583 H 1921.05 2.17798 -3.60752 0
M  V30 20584 H 1919.77 2.2504 -2.36695 0
M  V30 20585 H 1918.43 0.530291 -3.62744 0
M  V30 20586 H 1918.08 2.96811 -4.06094 0
M  V30 20587 H 1917.78 1.99919 -5.52545 0
M  V30 20588 H 1919.31 2.91751 -5.3639 0
M  V30 20589 H 1920.72 0.670145 -5.6937 0
M  V30 20590 H 1919.12 -0.0590463 -6.00071 0
M  V30 20591 H 1920.19 -0.781339 -4.78564 0
M  V30 20592 N 1921.53 1.57237 -0.106922 0
M  V30 20593 C 1922.94 1.81906 0.420368 0
M  V30 20594 C 1923.29 1.02332 1.67399 0
M  V30 20595 O 1922.42 0.256247 2.14877 0
M  V30 20596 C 1923.01 3.29947 0.769432 0
M  V30 20597 C 1921.57 3.55339 1.24141 0
M  V30 20598 C 1920.72 2.76224 0.243997 0
M  V30 20599 H 1923.67 1.55184 -0.332216 0
M  V30 20600 H 1923.69 3.43916 1.62794 0
M  V30 20601 H 1923.2 3.87836 -0.14316 0
M  V30 20602 H 1921.3 3.02795 2.17131 0
M  V30 20603 H 1921.42 4.63956 1.19508 0
M  V30 20604 H 1919.78 2.44057 0.728574 0
M  V30 20605 H 1920.56 3.36867 -0.661482 0
M  V30 20606 N 1923.01 -0.166818 1.56715 0
M  V30 20607 C 1924.23 -0.902208 1.86748 0
M  V30 20608 C 1924.66 -1.74838 0.693767 0
M  V30 20609 O 1924.02 -1.77749 -0.35708 0
M  V30 20610 C 1924.06 -1.75107 3.1523 0
M  V30 20611 O 1923.17 -2.85319 2.9777 0
M  V30 20612 H 1922.51 -0.252474 0.614128 0
M  V30 20613 H 1925.04 -0.163603 2.03945 0
M  V30 20614 H 1925.05 -2.15009 3.46749 0
M  V30 20615 H 1923.72 -1.12955 4.00267 0
M  V30 20616 H 1922.3 -2.48967 2.77615 0
M  V30 20617 N 1924.49 -1.51463 -0.435524 0
M  V30 20618 C 1925.9 -1.39679 -0.772145 0
M  V30 20619 C 1926.1 -0.480546 -1.95686 0
M  V30 20620 O 1925.16 0.063611 -2.5242 0
M  V30 20621 C 1926.47 -2.81742 -1.05082 0
M  V30 20622 C 1928.02 -2.90905 -1.15514 0
M  V30 20623 C 1928.49 -4.33879 -1.46674 0
M  V30 20624 N 1929.99 -4.36993 -1.53594 0
M  V30 20625 C 1930.72 -5.44653 -1.79279 0
M  V30 20626 N 1930.22 -6.6247 -2.02744 0
M  V30 20627 N 1932.01 -5.32135 -1.81076 0
M  V30 20628 H 1924.16 -2.09584 0.344699 0
M  V30 20629 H 1926.42 -0.943543 0.0918199 0
M  V30 20630 H 1926.13 -3.50789 -0.252975 0
M  V30 20631 H 1926 -3.21179 -1.97798 0
M  V30 20632 H 1928.39 -2.22054 -1.94361 0
M  V30 20633 H 1928.47 -2.54961 -0.20695 0
M  V30 20634 H 1928.12 -5.03279 -0.683541 0
M  V30 20635 H 1928.05 -4.67337 -2.42702 0
M  V30 20636 H 1930.54 -3.52054 -1.37356 0
M  V30 20637 H 1930.85 -7.40311 -2.21718 0
M  V30 20638 H 1929.19 -6.65582 -2.00063 0
M  V30 20639 H 1932.39 -4.39076 -1.62264 0
M  V30 20640 H 1932.56 -6.16118 -2.00756 0
M  V30 20641 N 1925.96 0.691085 -1.4164 0
M  V30 20642 C 1927.19 1.48481 -1.44804 0
M  V30 20643 C 1927.61 1.88016 -0.0561606 0
M  V30 20644 O 1926.97 1.54927 0.941657 0
M  V30 20645 C 1927.02 2.72083 -2.3665 0
M  V30 20646 O 1926.12 3.6974 -1.82663 0
M  V30 20647 H 1925.47 0.446714 -0.491267 0
M  V30 20648 H 1928 0.849076 -1.8615 0
M  V30 20649 H 1928.01 3.2034 -2.52678 0
M  V30 20650 H 1926.68 2.42645 -3.37781 0
M  V30 20651 H 1925.26 3.28695 -1.76108 0
M  V30 20652 N 1927.44 1.27542 0.925789 0
M  V30 20653 C 1928.67 1.16921 1.71301 0
M  V30 20654 C 1929.09 -0.270082 1.86151 0
M  V30 20655 O 1928.45 -1.19558 1.36293 0
M  V30 20656 C 1928.5 1.8599 3.08934 0
M  V30 20657 O 1927.6 1.15917 3.95774 0
M  V30 20658 H 1926.94 0.406542 0.524995 0
M  V30 20659 H 1929.47 1.68646 1.15843 0
M  V30 20660 H 1929.48 1.93424 3.59237 0
M  V30 20661 H 1928.16 2.9069 2.97443 0
M  V30 20662 H 1926.74 1.16564 3.54213 0
M  V30 20663 N 1928.92 -1.13255 1.09595 0
M  V30 20664 C 1929.87 -2.1872 0.736907 0
M  V30 20665 C 1930.84 -1.63677 -0.282692 0
M  V30 20666 O 1932.02 -1.90094 -0.163936 0
M  V30 20667 C 1929.16 -3.44703 0.165494 0
M  V30 20668 C 1928.28 -4.13841 1.23934 0
M  V30 20669 C 1927.41 -5.27445 0.630499 0
M  V30 20670 C 1926.45 -5.88435 1.68554 0
M  V30 20671 N 1925.59 -6.93468 1.09759 0
M  V30 20672 H 1930.43 -2.48779 1.64052 0
M  V30 20673 H 1927.96 -1.22152 0.819597 0
M  V30 20674 H 1929.92 -4.16796 -0.183618 0
M  V30 20675 H 1928.55 -3.15088 -0.701377 0
M  V30 20676 H 1927.6 -3.40014 1.70571 0
M  V30 20677 H 1928.92 -4.5525 2.03834 0
M  V30 20678 H 1928.07 -6.06263 0.230332 0
M  V30 20679 H 1926.81 -4.8729 -0.200028 0
M  V30 20680 H 1925.81 -5.08311 2.09523 0
M  V30 20681 H 1927.04 -6.30663 2.51876 0
M  V30 20682 H 1924.98 -6.55366 0.288376 0
M  V30 20683 H 1924.9 -7.33429 1.83353 0
M  V30 20684 H 1926.17 -7.76133 0.723688 0
M  V30 20685 N 1930.4 -0.883401 -1.30514 0
M  V30 20686 C 1931.65 -0.497118 -1.95478 0
M  V30 20687 C 1931.96 0.958235 -1.7052 0
M  V30 20688 O 1933.17 1.45129 -2.29455 0
M  V30 20689 C 1931.62 -0.838108 -3.50005 0
M  V30 20690 C 1931.23 -2.31113 -3.83785 0
M  V30 20691 C 1932.97 -0.520947 -4.21291 0
M  V30 20692 C 1930.88 -2.59383 -5.31483 0
M  V30 20693 H 1929.81 -0.182178 -0.731661 0
M  V30 20694 H 1932.46 -1.07816 -1.48486 0
M  V30 20695 H 1930.84 -0.186171 -3.95562 0
M  V30 20696 H 1932.02 -3.00725 -3.49144 0
M  V30 20697 H 1930.33 -2.59566 -3.25598 0
M  V30 20698 H 1932.93 -0.709216 -5.29976 0
M  V30 20699 H 1933.27 0.539542 -4.12789 0
M  V30 20700 H 1933.81 -1.13001 -3.81413 0
M  V30 20701 H 1930.55 -3.64166 -5.45035 0
M  V30 20702 H 1930.07 -1.94378 -5.6743 0
M  V30 20703 H 1931.74 -2.44803 -5.989 0
M  V30 20704 N 1931.88 1.43833 -0.644194 0
M  V30 20705 C 1933.1 2.0627 -0.161397 0
M  V30 20706 C 1933.52 1.4823 1.16933 0
M  V30 20707 O 1932.88 0.610133 1.71999 0
M  V30 20708 C 1932.93 3.61459 -0.0545357 0
M  V30 20709 O 1932.65 4.17339 -1.33265 0
M  V30 20710 C 1934.15 4.40955 0.455411 0
M  V30 20711 H 1931.37 0.665503 -0.0857112 0
M  V30 20712 H 1933.91 1.84488 -0.882291 0
M  V30 20713 H 1932.07 3.82457 0.616868 0
M  V30 20714 H 1932.48 5.10916 -1.18597 0
M  V30 20715 H 1933.96 5.49916 0.479159 0
M  V30 20716 H 1934.43 4.13333 1.485 0
M  V30 20717 H 1935.04 4.24905 -0.18319 0
M  V30 20718 N 1933.35 0.385544 1.52811 0
M  V30 20719 C 1934.3 -0.468278 2.23139 0
M  V30 20720 C 1935.29 -1.03267 1.23388 0
M  V30 20721 O 1936.48 -0.959402 1.48743 0
M  V30 20722 C 1933.61 -1.59702 3.03892 0
M  V30 20723 C 1932.7 -1.04454 4.11035 0
M  V30 20724 N 1933.09 -0.216705 5.05336 0
M  V30 20725 C 1931.38 -1.31741 4.26099 0
M  V30 20726 C 1932.09 0.0880825 5.81633 0
M  V30 20727 N 1931.06 -0.514871 5.41156 0
M  V30 20728 H 1934.86 0.170786 2.93403 0
M  V30 20729 H 1932.38 0.194643 1.61229 0
M  V30 20730 H 1934.37 -2.22107 3.52809 0
M  V30 20731 H 1933.03 -2.23894 2.35162 0
M  V30 20732 H 1934.05 0.145732 5.17695 0
M  V30 20733 H 1930.72 -1.96065 3.68598 0
M  V30 20734 H 1932.11 0.758586 6.67604 0
M  V30 20735 N 1934.83 -1.57178 0.115259 0
M  V30 20736 C 1936.25 -1.57765 -0.241345 0
M  V30 20737 C 1936.45 -1.12775 -1.66985 0
M  V30 20738 O 1935.5 -0.813419 -2.39039 0
M  V30 20739 C 1936.82 -3.00698 -0.0114291 0
M  V30 20740 C 1938.37 -3.12904 -0.0776187 0
M  V30 20741 C 1938.84 -4.57831 0.124557 0
M  V30 20742 N 1940.33 -4.63146 0.0703998 0
M  V30 20743 C 1941.07 -5.73045 0.20179 0
M  V30 20744 N 1940.56 -6.91706 0.389143 0
M  V30 20745 N 1942.36 -5.61922 0.141629 0
M  V30 20746 H 1934.51 -1.84725 1.04836 0
M  V30 20747 H 1936.77 -0.853542 0.412517 0
M  V30 20748 H 1936.48 -3.37886 0.975995 0
M  V30 20749 H 1936.35 -3.69771 -0.744947 0
M  V30 20750 H 1938.74 -2.75575 -1.05556 0
M  V30 20751 H 1938.82 -2.46382 0.687719 0
M  V30 20752 H 1938.46 -4.95857 1.09946 0
M  V30 20753 H 1938.39 -5.22439 -0.660721 0
M  V30 20754 H 1940.88 -3.77833 -0.0710442 0
M  V30 20755 H 1941.2 -7.71306 0.480365 0
M  V30 20756 H 1939.54 -6.93699 0.425069 0
M  V30 20757 H 1942.73 -4.681 -0.00374873 0
M  V30 20758 H 1942.9 -6.47527 0.24747 0
M  V30 20759 N 1936.31 0.158505 -1.56801 0
M  V30 20760 C 1937.56 0.871408 -1.81905 0
M  V30 20761 C 1937.87 1.8285 -0.694632 0
M  V30 20762 O 1939.08 2.58471 -0.830953 0
M  V30 20763 C 1937.54 1.60017 -3.2237 0
M  V30 20764 C 1937.14 0.686065 -4.42716 0
M  V30 20765 C 1938.89 2.30054 -3.56757 0
M  V30 20766 C 1936.79 1.41579 -5.74203 0
M  V30 20767 H 1935.72 0.329148 -0.678364 0
M  V30 20768 H 1938.38 0.124216 -1.83079 0
M  V30 20769 H 1936.76 2.39258 -3.1555 0
M  V30 20770 H 1937.93 -0.0702946 -4.60746 0
M  V30 20771 H 1936.25 0.0947 -4.16292 0
M  V30 20772 H 1938.84 2.85268 -4.52246 0
M  V30 20773 H 1939.19 3.06002 -2.82256 0
M  V30 20774 H 1939.72 1.57744 -3.65187 0
M  V30 20775 H 1936.46 0.698382 -6.51769 0
M  V30 20776 H 1935.98 2.14515 -5.60128 0
M  V30 20777 H 1937.66 1.95983 -6.16603 0
M  V30 20778 N 1937.79 1.51692 0.427485 0
M  V30 20779 C 1938.74 1.70099 1.51823 0
M  V30 20780 C 1939.72 0.554908 1.51028 0
M  V30 20781 O 1940.92 0.811233 1.57315 0
M  V30 20782 C 1938.04 1.8384 2.89927 0
M  V30 20783 C 1937.13 3.04263 2.9544 0
M  V30 20784 N 1937.52 4.27277 2.7068 0
M  V30 20785 C 1935.82 3.0372 3.26604 0
M  V30 20786 C 1936.52 5.08613 2.8229 0
M  V30 20787 N 1935.5 4.43468 3.14384 0
M  V30 20788 H 1939.3 2.62867 1.31447 0
M  V30 20789 H 1936.81 1.49473 0.63494 0
M  V30 20790 H 1938.81 1.95139 3.6841 0
M  V30 20791 H 1937.47 0.922599 3.11317 0
M  V30 20792 H 1938.48 4.56058 2.45421 0
M  V30 20793 H 1935.16 2.21808 3.53705 0
M  V30 20794 H 1936.55 6.16564 2.67017 0
M  V30 20795 N 1939.27 -0.683564 1.42004 0
M  V30 20796 C 1940.51 -1.44433 1.43215 0
M  V30 20797 C 1940.87 -1.92348 0.0445644 0
M  V30 20798 O 1940.16 -1.6742 -0.931726 0
M  V30 20799 C 1940.36 -2.66286 2.38383 0
M  V30 20800 C 1940.18 -2.30293 3.86258 0
M  V30 20801 C 1938.95 -2.20076 4.54857 0
M  V30 20802 C 1941.15 -1.92498 4.76916 0
M  V30 20803 N 1939.13 -1.77094 5.87802 0
M  V30 20804 C 1940.51 -1.60367 5.98901 0
M  V30 20805 C 1942.56 -1.79413 4.64452 0
M  V30 20806 C 1941.26 -1.16466 7.09809 0
M  V30 20807 C 1943.29 -1.36916 5.75333 0
M  V30 20808 C 1942.65 -1.05704 6.96424 0
M  V30 20809 H 1938.75 -0.525345 0.579255 0
M  V30 20810 H 1941.33 -0.789697 1.77966 0
M  V30 20811 H 1939.51 -3.29452 2.05708 0
M  V30 20812 H 1941.24 -3.32829 2.30233 0
M  V30 20813 H 1937.99 -2.38861 4.08953 0
M  V30 20814 H 1938.42 -1.58051 6.58292 0
M  V30 20815 H 1943.06 -2.02193 3.71319 0
M  V30 20816 H 1940.78 -0.924313 8.02796 0
M  V30 20817 H 1944.36 -1.27325 5.67697 0
M  V30 20818 H 1943.24 -0.733189 7.80765 0
M  V30 20819 N 1940.75 -1.28031 -0.919012 0
M  V30 20820 C 1941.66 -1.13341 -2.05404 0
M  V30 20821 C 1942.67 -0.0612715 -1.73892 0
M  V30 20822 O 1943.85 -0.26951 -1.99589 0
M  V30 20823 C 1940.91 -0.791143 -3.37553 0
M  V30 20824 C 1939.97 -1.94509 -3.82707 0
M  V30 20825 C 1939.21 -1.61905 -5.08549 0
M  V30 20826 O 1939.43 -0.530962 -5.67923 0
M  V30 20827 O 1938.36 -2.46102 -5.49288 0
M  V30 20828 H 1942.19 -2.08613 -2.20713 0
M  V30 20829 H 1939.77 -1.073 -1.03957 0
M  V30 20830 H 1941.66 -0.613981 -4.16903 0
M  V30 20831 H 1940.33 0.131966 -3.23431 0
M  V30 20832 H 1939.24 -2.17737 -3.04206 0
M  V30 20833 H 1940.57 -2.84871 -4.01384 0
M  V30 20834 N 1942.22 1.12672 -1.10194 0
M  V30 20835 C 1943.45 1.88496 -0.865112 0
M  V30 20836 C 1943.87 1.78977 0.578691 0
M  V30 20837 O 1943.23 1.14292 1.40737 0
M  V30 20838 C 1943.28 3.35768 -1.315 0
M  V30 20839 O 1942.38 4.09615 -0.478447 0
M  V30 20840 H 1941.72 0.585782 -0.312658 0
M  V30 20841 H 1944.25 1.42506 -1.46811 0
M  V30 20842 H 1944.26 3.86605 -1.30385 0
M  V30 20843 H 1942.94 3.42013 -2.36643 0
M  V30 20844 H 1941.52 3.68753 -0.554589 0
M  V30 20845 N 1943.7 0.89031 1.30043 0
M  V30 20846 C 1944.66 0.365912 2.2626 0
M  V30 20847 C 1945.66 -0.494616 1.53004 0
M  V30 20848 O 1946.85 -0.301009 1.7158 0
M  V30 20849 C 1943.99 -0.477952 3.37533 0
M  V30 20850 H 1945.18 1.21557 2.7416 0
M  V30 20851 H 1942.73 0.667628 1.41324 0
M  V30 20852 H 1943.47 -1.34798 2.94958 0
M  V30 20853 H 1943.25 0.138514 3.91855 0
M  V30 20854 H 1944.74 -0.836463 4.09137 0
M  V30 20855 N 1945.18 -1.43489 0.651812 0
M  V30 20856 C 1946.4 -2.06696 0.170683 0
M  V30 20857 C 1946.83 -1.48527 -1.15418 0
M  V30 20858 O 1946.19 -0.594665 -1.7127 0
M  V30 20859 C 1946.24 -3.60484 0.0915457 0
M  V30 20860 O 1945.34 -4.01388 -0.946644 0
M  V30 20861 H 1944.68 -0.65728 0.0942276 0
M  V30 20862 H 1947.21 -1.84018 0.89434 0
M  V30 20863 H 1947.22 -4.07896 -0.0922419 0
M  V30 20864 H 1945.9 -4.02199 1.0587 0
M  V30 20865 H 1944.47 -3.65569 -0.735758 0
M  V30 20866 N 1946.66 -0.393643 -1.52605 0
M  V30 20867 C 1947.59 0.430786 -2.29492 0
M  V30 20868 C 1948.57 1.0597 -1.33058 0
M  V30 20869 O 1949.75 1.07165 -1.61955 0
M  V30 20870 C 1946.88 1.55599 -3.10494 0
M  V30 20871 C 1945.84 1.05289 -4.14847 0
M  V30 20872 C 1945.16 2.2705 -4.841 0
M  V30 20873 C 1946.46 0.117789 -5.22167 0
M  V30 20874 H 1948.16 -0.210741 -2.98657 0
M  V30 20875 H 1945.7 -0.102795 -1.43633 0
M  V30 20876 H 1947.66 2.1396 -3.63042 0
M  V30 20877 H 1946.38 2.22517 -2.39069 0
M  V30 20878 H 1945.04 0.491788 -3.63286 0
M  V30 20879 H 1944.69 2.92487 -4.09219 0
M  V30 20880 H 1944.39 1.94047 -5.54635 0
M  V30 20881 H 1945.91 2.86045 -5.39454 0
M  V30 20882 H 1947.33 0.609718 -5.70049 0
M  V30 20883 H 1945.72 -0.122689 -5.99975 0
M  V30 20884 H 1946.79 -0.832053 -4.77708 0
M  V30 20885 N 1948.14 1.57115 -0.123593 0
M  V30 20886 C 1949.07 2.18573 0.821462 0
M  V30 20887 C 1950.05 1.1271 1.27399 0
M  V30 20888 O 1951.23 1.40964 1.33577 0
M  V30 20889 C 1948.36 2.78879 2.06987 0
M  V30 20890 C 1947.32 3.90365 1.75497 0
M  V30 20891 C 1946.64 4.37499 3.07406 0
M  V30 20892 C 1947.94 5.12249 1.01972 0
M  V30 20893 H 1949.64 2.97798 0.309319 0
M  V30 20894 H 1947.18 1.43244 0.147338 0
M  V30 20895 H 1949.13 3.20534 2.73562 0
M  V30 20896 H 1947.86 1.96951 2.60534 0
M  V30 20897 H 1946.52 3.49293 1.1131 0
M  V30 20898 H 1946.17 3.52424 3.58896 0
M  V30 20899 H 1945.87 5.12682 2.87108 0
M  V30 20900 H 1947.39 4.81808 3.75091 0
M  V30 20901 H 1948.8 5.50894 1.58709 0
M  V30 20902 H 1947.2 5.93044 0.917526 0
M  V30 20903 H 1948.27 4.84899 0.00726173 0
M  V30 20904 N 1949.61 -0.150187 1.56883 0
M  V30 20905 C 1951.03 -0.502717 1.51476 0
M  V30 20906 C 1951.23 -1.83545 0.831478 0
M  V30 20907 O 1950.29 -2.49301 0.400671 0
M  V30 20908 C 1951.6 -0.515965 2.9624 0
M  V30 20909 C 1953.15 -0.601702 3.07162 0
M  V30 20910 C 1953.62 -0.645643 4.53426 0
M  V30 20911 N 1955.11 -0.707954 4.57758 0
M  V30 20912 C 1955.85 -0.762883 5.68302 0
M  V30 20913 N 1955.34 -0.777353 6.88425 0
M  V30 20914 N 1957.14 -0.803521 5.56327 0
M  V30 20915 H 1949.29 0.723442 1.997 0
M  V30 20916 H 1951.55 0.263405 0.910671 0
M  V30 20917 H 1951.26 0.395034 3.49474 0
M  V30 20918 H 1951.13 -1.35501 3.52022 0
M  V30 20919 H 1953.52 -1.50312 2.53949 0
M  V30 20920 H 1953.6 0.26443 2.5443 0
M  V30 20921 H 1953.24 0.251606 5.07276 0
M  V30 20922 H 1953.17 -1.52822 5.03937 0
M  V30 20923 H 1955.66 -0.7042 3.71281 0
M  V30 20924 H 1955.98 -0.821026 7.68426 0
M  V30 20925 H 1954.32 -0.745281 6.90992 0
M  V30 20926 H 1957.51 -0.789365 4.61396 0
M  V30 20927 H 1957.69 -0.842864 6.42495 0
M  V30 20928 N 1951.09 -1.51916 -0.419434 0
M  V30 20929 C 1952.32 -1.69592 -1.19387 0
M  V30 20930 C 1952.74 -0.400225 -1.83793 0
M  V30 20931 O 1952.1 0.641368 -1.69576 0
M  V30 20932 C 1952.15 -2.8256 -2.24036 0
M  V30 20933 O 1951.25 -2.4741 -3.29942 0
M  V30 20934 H 1950.59 -0.564898 -0.348978 0
M  V30 20935 H 1953.12 -1.9857 -0.493064 0
M  V30 20936 H 1953.13 -3.07171 -2.68533 0
M  V30 20937 H 1951.81 -3.76572 -1.7654 0
M  V30 20938 H 1950.39 -2.33435 -2.90796 0
M  V30 20939 N 1952.57 0.676023 -1.42365 0
M  V30 20940 C 1953.48 1.81906 -1.48147 0
M  V30 20941 C 1954.5 1.70014 -0.37032 0
M  V30 20942 O 1955.67 1.91586 -0.621036 0
M  V30 20943 C 1952.74 3.18039 -1.38029 0
M  V30 20944 C 1951.8 3.41897 -2.59625 0
M  V30 20945 C 1951.03 4.71536 -2.4998 0
M  V30 20946 O 1951.25 5.49358 -1.535 0
M  V30 20947 O 1950.19 4.9661 -3.40091 0
M  V30 20948 H 1954.01 1.79984 -2.44621 0
M  V30 20949 H 1951.6 0.831611 -1.24115 0
M  V30 20950 H 1953.48 3.99277 -1.34743 0
M  V30 20951 H 1952.16 3.20602 -0.446789 0
M  V30 20952 H 1951.06 2.60512 -2.68485 0
M  V30 20953 H 1952.4 3.44164 -3.51869 0
M  V30 20954 N 1954.05 1.28517 0.912209 0
M  V30 20955 C 1954.96 1.14429 2.048 0
M  V30 20956 C 1955.97 0.0704926 1.73857 0
M  V30 20957 O 1957.15 0.280091 1.99443 0
M  V30 20958 C 1954.22 0.809034 3.37128 0
M  V30 20959 C 1953.28 1.96535 3.8167 0
M  V30 20960 C 1952.51 1.646 5.07684 0
M  V30 20961 O 1952.73 0.561072 5.67634 0
M  V30 20962 O 1951.67 2.49011 5.47975 0
M  V30 20963 H 1955.49 2.0978 2.19604 0
M  V30 20964 H 1953.08 1.0785 1.03387 0
M  V30 20965 H 1954.96 0.636082 4.16572 0
M  V30 20966 H 1953.63 -0.114812 3.23496 0
M  V30 20967 H 1952.54 2.19347 3.03047 0
M  V30 20968 H 1953.87 2.86996 3.99868 0
M  V30 20969 N 1955.53 -1.12086 1.1079 0
M  V30 20970 C 1956.75 -1.87493 0.874862 0
M  V30 20971 C 1957.17 -1.79834 -0.574907 0
M  V30 20972 O 1956.53 -1.17483 -1.39657 0
M  V30 20973 C 1956.58 -3.36566 1.3193 0
M  V30 20974 O 1956.3 -3.4405 2.71222 0
M  V30 20975 C 1957.8 -4.289 1.12069 0
M  V30 20976 H 1955.02 -0.593122 0.313764 0
M  V30 20977 H 1957.56 -1.41803 1.4735 0
M  V30 20978 H 1955.72 -3.79787 0.764254 0
M  V30 20979 H 1956.13 -4.36824 2.90319 0
M  V30 20980 H 1957.61 -5.31768 1.48076 0
M  V30 20981 H 1958.08 -4.3916 0.0596432 0
M  V30 20982 H 1958.69 -3.91465 1.66238 0
M  V30 20983 N 1957 -0.897194 -1.29569 0
M  V30 20984 C 1957.95 -0.371435 -2.27792 0
M  V30 20985 C 1958.92 0.545087 -1.56901 0
M  V30 20986 O 1960.11 0.47087 -1.84899 0
M  V30 20987 C 1957.25 0.397236 -3.42806 0
M  V30 20988 C 1956.36 -0.549895 -4.28486 0
M  V30 20989 C 1955.49 0.23558 -5.30677 0
M  V30 20990 C 1954.53 -0.706236 -6.08012 0
M  V30 20991 N 1953.67 0.0446763 -7.02086 0
M  V30 20992 H 1958.51 -1.21414 -2.72145 0
M  V30 20993 H 1956.05 -0.610055 -1.33853 0
M  V30 20994 H 1958.01 0.858933 -4.08262 0
M  V30 20995 H 1956.64 1.20441 -2.99489 0
M  V30 20996 H 1955.69 -1.13011 -3.63226 0
M  V30 20997 H 1957 -1.27092 -4.82337 0
M  V30 20998 H 1956.15 0.758588 -6.01939 0
M  V30 20999 H 1954.89 0.989757 -4.77551 0
M  V30 21000 H 1953.9 -1.24077 -5.35617 0
M  V30 21001 H 1955.12 -1.4597 -6.63227 0
M  V30 21002 H 1953.07 0.781165 -6.51332 0
M  V30 21003 H 1952.99 -0.616488 -7.53482 0
M  V30 21004 H 1954.25 0.548029 -7.77571 0
M  V30 21005 N 1958.48 1.43142 -0.659413 0
M  V30 21006 C 1959.39 2.34582 0.0288714 0
M  V30 21007 C 1960.41 1.54232 0.805512 0
M  V30 21008 O 1961.58 1.8686 0.751347 0
M  V30 21009 C 1958.65 3.32587 0.97912 0
M  V30 21010 C 1957.71 4.2884 0.198725 0
M  V30 21011 C 1956.94 5.22163 1.10371 0
M  V30 21012 O 1957.17 5.20054 2.34308 0
M  V30 21013 O 1956.1 5.99168 0.572785 0
M  V30 21014 H 1959.93 2.94945 -0.723947 0
M  V30 21015 H 1957.51 1.43386 -0.419609 0
M  V30 21016 H 1959.39 3.92836 1.52505 0
M  V30 21017 H 1958.07 2.74719 1.71206 0
M  V30 21018 H 1956.98 3.72052 -0.390942 0
M  V30 21019 H 1958.31 4.89707 -0.494774 0
M  V30 21020 N 1959.96 0.40173 1.52394 0
M  V30 21021 C 1960.91 -0.442142 2.28359 0
M  V30 21022 C 1961.9 -1.05228 1.32753 0
M  V30 21023 O 1963.11 -0.991332 1.50242 0
M  V30 21024 H 1959.48 -0.161356 0.734485 0
M  V30 21025 H 1961.45 0.219869 2.97589 0
M  V30 21026 C 1960.2 -1.55062 3.11209 0
M  V30 21027 H 1959.53 -1.09046 3.84642 0
M  V30 21028 H 1960.97 -2.11505 3.6748 0
M  V30 21029 C 1959.43 -2.51376 2.24303 0
M  V30 21030 O 1959.96 -3.55084 1.87825 0
M  V30 21031 N 1958.16 -2.2141 1.88218 0
M  V30 21032 H 1957.71 -1.37106 2.18082 0
M  V30 21033 H 1957.67 -2.861 1.30362 0
M  V30 21034 N 1961.44 -1.57047 0.131923 0
M  V30 21035 C 1962.35 -2.19545 -0.826862 0
M  V30 21036 C 1963.36 -1.17532 -1.28305 0
M  V30 21037 O 1964.54 -1.50052 -1.34337 0
M  V30 21038 C 1961.61 -2.79284 -2.0543 0
M  V30 21039 C 1960.67 -3.96375 -1.64879 0
M  V30 21040 C 1959.9 -4.53256 -2.81771 0
M  V30 21041 O 1960.12 -4.09022 -3.97564 0
M  V30 21042 O 1959.06 -5.43748 -2.58111 0
M  V30 21043 H 1962.88 -3.01957 -0.324926 0
M  V30 21044 H 1960.47 -1.49102 -0.0943495 0
M  V30 21045 H 1962.35 -3.17312 -2.77292 0
M  V30 21046 H 1961.02 -1.99895 -2.54605 0
M  V30 21047 H 1959.93 -3.63092 -0.900848 0
M  V30 21048 H 1961.26 -4.77238 -1.20434 0
M  V30 21049 N 1962.92 0.141865 -1.5696 0
M  V30 21050 C 1964.16 0.851923 -1.83267 0
M  V30 21051 C 1964.49 1.81473 -0.713611 0
M  V30 21052 O 1963.76 1.94109 0.264326 0
M  V30 21053 H 1962.34 0.317594 -0.676124 0
M  V30 21054 H 1965 0.134643 -1.94434 0
M  V30 21055 H 1964.09 1.41106 -2.7838 0
M  V30 21056 N 1964.39 1.52136 0.411372 0
M  V30 21057 C 1965.64 1.66085 1.15853 0
M  V30 21058 C 1965.97 0.38968 1.90556 0
M  V30 21059 O 1965.22 -0.62727 1.85375 0
M  V30 21060 C 1965.52 2.832 2.1802 0
M  V30 21061 C 1965.19 4.21504 1.6014 0
M  V30 21062 C 1963.85 4.59124 1.4408 0
M  V30 21063 C 1966.2 5.07702 1.17848 0
M  V30 21064 C 1963.53 5.80621 0.842405 0
M  V30 21065 C 1965.88 6.29802 0.594283 0
M  V30 21066 C 1964.55 6.66172 0.420791 0
M  V30 21067 H 1963.82 0.607749 0.423937 0
M  V30 21068 H 1966.46 1.86233 0.446046 0
M  V30 21069 H 1964.77 2.57378 2.95405 0
M  V30 21070 H 1966.47 2.91189 2.75699 0
M  V30 21071 H 1963.06 3.91858 1.73623 0
M  V30 21072 H 1967.24 4.79224 1.29066 0
M  V30 21073 H 1962.5 6.07426 0.695983 0
M  V30 21074 H 1966.67 6.95921 0.258177 0
M  V30 21075 H 1964.3 7.60187 -0.044991 0
M  V30 21076 N 1965.87 -0.668464 1.42721 0
M  V30 21077 C 1967.1 -1.45659 1.46939 0
M  V30 21078 C 1967.52 -1.88619 0.0826133 0
M  V30 21079 O 1966.87 -1.58537 -0.904 0
M  V30 21080 C 1966.92 -2.70158 2.40202 0
M  V30 21081 O 1966.65 -2.28999 3.73485 0
M  V30 21082 C 1968.15 -3.63662 2.53505 0
M  V30 21083 H 1965.37 -0.447982 0.499553 0
M  V30 21084 H 1967.91 -0.820826 1.87304 0
M  V30 21085 H 1966.07 -3.29909 2.03074 0
M  V30 21086 H 1966.48 -3.09441 4.23493 0
M  V30 21087 H 1967.95 -4.47726 3.22871 0
M  V30 21088 H 1968.43 -4.09989 1.57498 0
M  V30 21089 H 1969.04 -3.09801 2.91382 0
M  V30 21090 N 1967.35 -1.28999 -0.905381 0
M  V30 21091 C 1968.6 -1.16813 -1.65779 0
M  V30 21092 C 1968.93 0.280936 -1.92157 0
M  V30 21093 O 1968.21 1.2035 -1.52794 0
M  V30 21094 C 1968.49 -1.97593 -3.01047 0
M  V30 21095 C 1968.34 -3.50608 -2.8177 0
M  V30 21096 C 1969.66 -1.79788 -4.01702 0
M  V30 21097 H 1966.78 -0.425716 -0.60161 0
M  V30 21098 H 1969.42 -1.58409 -1.04913 0
M  V30 21099 H 1967.57 -1.62246 -3.52999 0
M  V30 21100 H 1969.24 -3.95905 -2.36763 0
M  V30 21101 H 1967.49 -3.75818 -2.16663 0
M  V30 21102 H 1968.16 -4.02396 -3.77865 0
M  V30 21103 H 1970.63 -2.10649 -3.5884 0
M  V30 21104 H 1969.51 -2.38667 -4.94297 0
M  V30 21105 H 1969.77 -0.75156 -4.35665 0
M  V30 21106 N 1968.83 1.11497 -1.11383 0
M  V30 21107 C 1970.06 1.87027 -0.884793 0
M  V30 21108 C 1970.47 1.80136 0.565362 0
M  V30 21109 O 1969.83 1.18222 1.39032 0
M  V30 21110 C 1969.88 3.35862 -1.33713 0
M  V30 21111 O 1969.6 3.42606 -2.73043 0
M  V30 21112 C 1971.1 4.283 -1.14342 0
M  V30 21113 H 1968.32 0.591449 -0.316905 0
M  V30 21114 H 1970.87 1.4102 -1.481 0
M  V30 21115 H 1969.02 3.79376 -0.784385 0
M  V30 21116 H 1969.44 4.35278 -2.92632 0
M  V30 21117 H 1970.91 5.30975 -1.50894 0
M  V30 21118 H 1971.39 4.39122 -0.0829321 0
M  V30 21119 H 1971.99 3.90578 -1.68312 0
M  V30 21120 N 1970.31 0.904053 1.29092 0
M  V30 21121 C 1971.27 0.389889 2.25859 0
M  V30 21122 C 1972.27 -0.47836 1.5352 0
M  V30 21123 O 1973.46 -0.282793 1.71889 0
M  V30 21124 C 1970.59 -0.442126 3.38021 0
M  V30 21125 H 1971.79 1.24458 2.72856 0
M  V30 21126 H 1969.34 0.68258 1.40608 0
M  V30 21127 H 1970.07 -1.31662 2.96371 0
M  V30 21128 H 1969.86 0.180067 3.91686 0
M  V30 21129 H 1971.35 -0.793021 4.10001 0
M  V30 21130 N 1971.79 -1.4279 0.666995 0
M  V30 21131 C 1972.7 -2.34594 -0.0164305 0
M  V30 21132 C 1973.71 -1.54657 -0.797322 0
M  V30 21133 O 1974.89 -1.87256 -0.741426 0
M  V30 21134 C 1971.95 -3.33102 -0.961469 0
M  V30 21135 C 1971.01 -4.28939 -0.17598 0
M  V30 21136 C 1970.25 -5.22741 -1.076 0
M  V30 21137 O 1970.47 -5.21289 -2.31546 0
M  V30 21138 O 1969.4 -5.99464 -0.541001 0
M  V30 21139 H 1973.23 -2.94557 0.739579 0
M  V30 21140 H 1970.81 -1.43162 0.427207 0
M  V30 21141 H 1972.7 -3.93639 -1.5042 0
M  V30 21142 H 1971.37 -2.75623 -1.69746 0
M  V30 21143 H 1970.28 -3.71839 0.410667 0
M  V30 21144 H 1971.61 -4.89438 0.520737 0
M  V30 21145 N 1973.26 -0.409806 -1.52179 0
M  V30 21146 C 1974.51 0.16543 -2.01422 0
M  V30 21147 C 1974.83 1.45588 -1.29727 0
M  V30 21148 O 1974.1 1.9127 -0.423399 0
M  V30 21149 H 1972.68 0.0641237 -0.744243 0
M  V30 21150 H 1975.34 -0.546204 -1.8709 0
M  V30 21151 H 1974.44 0.361061 -3.10004 0
M  V30 21152 N 1974.74 1.56975 -0.14025 0
M  V30 21153 C 1975.69 2.16418 0.802003 0
M  V30 21154 C 1976.66 1.09512 1.24885 0
M  V30 21155 O 1977.84 1.37522 1.32259 0
M  V30 21156 C 1974.98 2.78465 2.03841 0
M  V30 21157 C 1974.1 3.99743 1.63798 0
M  V30 21158 C 1973.23 4.4981 2.82567 0
M  V30 21159 C 1972.27 5.63569 2.38865 0
M  V30 21160 N 1971.41 6.08285 3.5062 0
M  V30 21161 H 1976.25 2.96602 0.288284 0
M  V30 21162 H 1973.78 1.46519 0.130587 0
M  V30 21163 H 1975.74 3.12581 2.76314 0
M  V30 21164 H 1974.37 2.00936 2.52635 0
M  V30 21165 H 1973.42 3.71651 0.811169 0
M  V30 21166 H 1974.74 4.82177 1.27697 0
M  V30 21167 H 1973.89 4.85945 3.63238 0
M  V30 21168 H 1972.63 3.66369 3.21908 0
M  V30 21169 H 1971.63 5.27017 1.56632 0
M  V30 21170 H 1972.86 6.48791 2.00617 0
M  V30 21171 H 1970.81 5.2778 3.89595 0
M  V30 21172 H 1970.72 6.85628 3.18512 0
M  V30 21173 H 1971.99 6.49063 4.31668 0
M  V30 21174 N 1976.22 -0.133539 1.57033 0
M  V30 21175 C 1977.47 -0.842192 1.83716 0
M  V30 21176 C 1977.79 -1.81092 0.723225 0
M  V30 21177 O 1977.06 -1.94246 -0.254028 0
M  V30 21178 H 1975.64 -0.314004 0.677798 0
M  V30 21179 H 1978.3 -0.124329 1.94503 0
M  V30 21180 H 1977.4 -1.39628 2.79125 0
M  V30 21181 N 1977.7 -1.52352 -0.403298 0
M  V30 21182 C 1978.63 -1.72347 -1.51093 0
M  V30 21183 C 1979.64 -0.603886 -1.51186 0
M  V30 21184 O 1980.83 -0.879203 -1.55346 0
M  V30 21185 C 1977.93 -1.75407 -2.89975 0
M  V30 21186 C 1977.1 -3.04495 -3.14009 0
M  V30 21187 C 1976.16 -2.9929 -4.32795 0
M  V30 21188 O 1975.19 -3.73185 -4.29792 0
M  V30 21189 N 1976.39 -2.17484 -5.3822 0
M  V30 21190 H 1979.16 -2.67908 -1.34333 0
M  V30 21191 H 1976.72 -1.50662 -0.592661 0
M  V30 21192 H 1978.71 -1.6945 -3.67517 0
M  V30 21193 H 1977.28 -0.87295 -3.00164 0
M  V30 21194 H 1976.5 -3.24056 -2.24458 0
M  V30 21195 H 1977.79 -3.89879 -3.26913 0
M  V30 21196 H 1977.19 -1.56888 -5.4351 0
M  V30 21197 H 1975.74 -2.17378 -6.14484 0
M  V30 21198 N 1979.18 0.660885 -1.43074 0
M  V30 21199 C 1980.42 1.41805 -1.43999 0
M  V30 21200 C 1980.74 1.949 -0.0625341 0
M  V30 21201 O 1980.01 1.7395 0.901019 0
M  V30 21202 H 1978.59 0.526263 -0.530147 0
M  V30 21203 H 1981.26 0.779967 -1.78613 0
M  V30 21204 H 1980.35 2.2642 -2.14803 0
M  V30 21205 N 1980.65 1.29477 0.898527 0
M  V30 21206 C 1981.88 1.20406 1.68255 0
M  V30 21207 C 1982.3 -0.235141 1.8733 0
M  V30 21208 O 1981.65 -1.15727 1.41115 0
M  V30 21209 C 1981.71 1.91451 3.06641 0
M  V30 21210 O 1981.43 3.29751 2.88437 0
M  V30 21211 C 1982.93 1.88871 4.01052 0
M  V30 21212 H 1980.15 0.417276 0.525473 0
M  V30 21213 H 1982.69 1.7087 1.12356 0
M  V30 21214 H 1980.85 1.4482 3.59313 0
M  V30 21215 H 1981.26 3.65548 3.76131 0
M  V30 21216 H 1982.73 2.43144 4.95566 0
M  V30 21217 H 1983.21 0.864507 4.30608 0
M  V30 21218 H 1983.82 2.35251 3.54312 0
M  V30 21219 N 1982.13 -1.10905 1.11972 0
M  V30 21220 C 1983.06 -2.19168 0.805461 0
M  V30 21221 C 1984.04 -1.68557 -0.228623 0
M  V30 21222 O 1985.23 -1.93987 -0.0908778 0
M  V30 21223 C 1982.36 -3.4637 0.253951 0
M  V30 21224 C 1981.31 -4.10228 1.22054 0
M  V30 21225 C 1980.64 -5.32072 0.529483 0
M  V30 21226 C 1981.94 -4.54506 2.57336 0
M  V30 21227 H 1983.63 -2.45713 1.71071 0
M  V30 21228 H 1981.18 -1.18096 0.823969 0
M  V30 21229 H 1983.13 -4.21394 0.0218576 0
M  V30 21230 H 1981.86 -3.19301 -0.68662 0
M  V30 21231 H 1980.51 -3.37204 1.43836 0
M  V30 21232 H 1980.16 -5.01276 -0.416074 0
M  V30 21233 H 1979.86 -5.75748 1.17422 0
M  V30 21234 H 1981.39 -6.09831 0.306313 0
M  V30 21235 H 1982.8 -5.20826 2.3961 0
M  V30 21236 H 1981.2 -5.09015 3.17842 0
M  V30 21237 H 1982.27 -3.67671 3.16143 0
M  V30 21238 N 1983.61 -0.910886 -1.2861 0
M  V30 21239 C 1984.84 -0.557684 -1.99761 0
M  V30 21240 C 1985.26 0.853148 -1.67639 0
M  V30 21241 O 1984.62 1.5697 -0.907192 0
M  V30 21242 C 1984.67 -0.770188 -3.52279 0
M  V30 21243 O 1983.77 0.172155 -4.12041 0
M  V30 21244 H 1983.11 -0.216573 -0.627688 0
M  V30 21245 H 1985.64 -1.22554 -1.63834 0
M  V30 21246 H 1985.65 -0.679176 -4.02307 0
M  V30 21247 H 1984.33 -1.79869 -3.74993 0
M  V30 21248 H 1982.9 0.0326535 -3.72886 0
M  V30 21249 N 1985.09 1.42434 -0.674558 0
M  V30 21250 C 1986.33 2.01841 -0.197012 0
M  V30 21251 C 1986.67 1.53214 1.19328 0
M  V30 21252 O 1985.94 0.734239 1.80109 0
M  V30 21253 C 1986.23 3.59356 -0.231383 0
M  V30 21254 C 1986.08 4.18162 -1.65711 0
M  V30 21255 C 1987.4 4.38086 0.420535 0
M  V30 21256 H 1984.52 0.733369 -0.0730636 0
M  V30 21257 H 1987.16 1.69458 -0.859297 0
M  V30 21258 H 1985.31 3.87074 0.332539 0
M  V30 21259 H 1986.98 4.01398 -2.27327 0
M  V30 21260 H 1985.22 3.74 -2.19787 0
M  V30 21261 H 1985.89 5.27297 -1.63285 0
M  V30 21262 H 1988.37 4.16057 -0.0594985 0
M  V30 21263 H 1987.25 5.47679 0.365847 0
M  V30 21264 H 1987.51 4.15945 1.49808 0
M  V30 21265 N 1986.57 0.417871 1.51959 0
M  V30 21266 C 1987.81 -0.155282 2.02205 0
M  V30 21267 C 1988.15 -1.44044 1.3025 0
M  V30 21268 O 1987.42 -1.90098 0.411449 0
M  V30 21269 C 1987.7 -0.394038 3.57938 0
M  V30 21270 C 1987.56 0.908404 4.40532 0
M  V30 21271 C 1988.88 -1.17238 4.24197 0
M  V30 21272 H 1985.99 -0.0549616 0.734948 0
M  V30 21273 H 1988.64 0.553053 1.81773 0
M  V30 21274 H 1986.79 -0.997422 3.75478 0
M  V30 21275 H 1988.46 1.54427 4.34684 0
M  V30 21276 H 1986.7 1.51743 4.06395 0
M  V30 21277 H 1987.37 0.69563 5.47599 0
M  V30 21278 H 1989.85 -0.661461 4.10809 0
M  V30 21279 H 1988.72 -1.30818 5.33083 0
M  V30 21280 H 1988.99 -2.19534 3.83741 0
M  V30 21281 N 1988.04 -1.56898 0.148573 0
M  V30 21282 C 1989.27 -2.0054 -0.509047 0
M  V30 21283 C 1989.69 -1.02867 -1.58315 0
M  V30 21284 O 1989.04 -0.0259297 -1.82482 0
M  V30 21285 C 1989.1 -3.44093 -1.10825 0
M  V30 21286 O 1988.82 -4.38032 -0.077048 0
M  V30 21287 C 1990.32 -4.03021 -1.84633 0
M  V30 21288 H 1987.54 -0.657812 -0.132378 0
M  V30 21289 H 1990.08 -2.03044 0.243618 0
M  V30 21290 H 1988.24 -3.42436 -1.81153 0
M  V30 21291 H 1988.65 -5.21953 -0.516256 0
M  V30 21292 H 1990.12 -5.05458 -2.21847 0
M  V30 21293 H 1990.6 -3.43821 -2.73283 0
M  V30 21294 H 1991.21 -4.08313 -1.19 0
M  V30 21295 N 1989.52 0.125209 -1.57102 0
M  V30 21296 C 1990.46 1.18407 -1.95077 0
M  V30 21297 C 1991.43 1.40435 -0.819562 0
M  V30 21298 O 1992.62 1.54691 -1.07717 0
M  V30 21299 C 1989.74 2.53906 -2.24164 0
M  V30 21300 C 1988.79 2.48343 -3.46739 0
M  V30 21301 S 1989.62 1.92912 -4.99545 0
M  V30 21302 C 1990.78 3.30096 -5.31777 0
M  V30 21303 H 1991.01 0.860191 -2.84584 0
M  V30 21304 H 1988.55 0.331718 -1.50795 0
M  V30 21305 H 1990.5 3.31873 -2.416 0
M  V30 21306 H 1989.16 2.83474 -1.35282 0
M  V30 21307 H 1988.36 3.4814 -3.64437 0
M  V30 21308 H 1987.96 1.78494 -3.28658 0
M  V30 21309 H 1990.25 4.26287 -5.26579 0
M  V30 21310 H 1991.19 3.17232 -6.33064 0
M  V30 21311 H 1991.6 3.28238 -4.5926 0
M  V30 21312 N 1991 1.52564 0.395213 0
M  V30 21313 C 1992.23 1.70924 1.16053 0
M  V30 21314 C 1992.64 0.424554 1.84375 0
M  V30 21315 O 1991.98 -0.610327 1.73265 0
M  V30 21316 C 1992.04 2.79882 2.25625 0
M  V30 21317 C 1991.71 4.21196 1.77322 0
M  V30 21318 C 1992.7 5.04566 1.25336 0
M  V30 21319 C 1990.39 4.6749 1.83733 0
M  V30 21320 C 1992.38 6.32309 0.804005 0
M  V30 21321 C 1990.07 5.95219 1.3841 0
M  V30 21322 C 1991.07 6.77458 0.868299 0
M  V30 21323 O 1990.76 8.02793 0.421654 0
M  V30 21324 H 1990.49 0.575785 0.354186 0
M  V30 21325 H 1993.04 1.99969 0.469216 0
M  V30 21326 H 1991.27 2.46245 2.98162 0
M  V30 21327 H 1992.96 2.86705 2.87324 0
M  V30 21328 H 1993.73 4.69985 1.19744 0
M  V30 21329 H 1989.61 4.03572 2.22823 0
M  V30 21330 H 1993.15 6.96448 0.400726 0
M  V30 21331 H 1989.05 6.29305 1.43685 0
M  V30 21332 H 1989.82 8.16692 0.543698 0
M  V30 21333 N 1992.48 -0.653289 1.43422 0
M  V30 21334 C 1993.43 -1.75934 1.45021 0
M  V30 21335 C 1994.41 -1.57713 0.318677 0
M  V30 21336 O 1995.6 -1.67826 0.562454 0
M  V30 21337 C 1992.73 -3.14521 1.37591 0
M  V30 21338 C 1991.82 -3.38291 2.55773 0
M  V30 21339 N 1992.21 -3.32534 3.81123 0
M  V30 21340 C 1990.51 -3.6901 2.50495 0
M  V30 21341 C 1991.21 -3.56383 4.59746 0
M  V30 21342 N 1990.19 -3.78192 3.90476 0
M  V30 21343 H 1993.99 -1.69909 2.39809 0
M  V30 21344 H 1991.5 -0.854954 1.38074 0
M  V30 21345 H 1993.5 -3.9381 1.36819 0
M  V30 21346 H 1992.16 -3.21729 0.438229 0
M  V30 21347 H 1993.17 -3.11948 4.13412 0
M  V30 21348 H 1989.85 -3.83333 1.65415 0
M  V30 21349 H 1991.24 -3.57711 5.68764 0
M  V30 21350 N 1993.96 -1.29952 -0.891648 0
M  V30 21351 C 1994.92 -1.15756 -1.97821 0
M  V30 21352 C 1995.92 -0.0906975 -1.60544 0
M  V30 21353 O 1997.11 -0.338283 -1.70884 0
M  V30 21354 C 1994.24 -0.771976 -3.32044 0
M  V30 21355 H 1995.43 -2.12281 -2.11842 0
M  V30 21356 H 1992.99 -1.13253 -1.07719 0
M  V30 21357 H 1993.72 0.193059 -3.23725 0
M  V30 21358 H 1993.51 -1.54291 -3.60467 0
M  V30 21359 H 1995 -0.695941 -4.1176 0
M  V30 21360 N 1995.44 1.1031 -1.12559 0
M  V30 21361 C 1996.38 2.16689 -0.794638 0
M  V30 21362 C 1997.35 1.64369 0.239196 0
M  V30 21363 O 1998.54 1.90462 0.113478 0
M  V30 21364 C 1995.68 3.44143 -0.256828 0
M  V30 21365 C 1994.79 4.10409 -1.34863 0
M  V30 21366 C 1993.93 5.25588 -0.77012 0
M  V30 21367 C 1992.96 5.8376 -1.84096 0
M  V30 21368 N 1992.1 6.90314 -1.28107 0
M  V30 21369 H 1996.94 2.44342 -1.7059 0
M  V30 21370 H 1994.48 1.19936 -0.851695 0
M  V30 21371 H 1996.44 4.17136 0.0730472 0
M  V30 21372 H 1995.07 3.16837 0.61759 0
M  V30 21373 H 1994.12 3.35372 -1.79526 0
M  V30 21374 H 1995.43 4.49686 -2.15833 0
M  V30 21375 H 1994.58 6.05439 -0.390991 0
M  V30 21376 H 1993.32 4.87649 0.0707618 0
M  V30 21377 H 1992.33 5.02577 -2.22926 0
M  V30 21378 H 1993.55 6.23763 -2.68508 0
M  V30 21379 H 1991.5 6.54371 -0.462033 0
M  V30 21380 H 1991.42 7.28309 -2.02735 0
M  V30 21381 H 1992.68 7.73942 -0.929211 0
M  V30 21382 N 1996.91 0.917694 1.28125 0
M  V30 21383 C 1997.88 0.413823 2.25433 0
M  V30 21384 C 1998.88 -0.46205 1.54019 0
M  V30 21385 O 2000.07 -0.264546 1.7218 0
M  V30 21386 C 1997.2 -0.406249 3.38471 0
M  V30 21387 H 1998.39 1.27345 2.7152 0
M  V30 21388 H 1995.94 0.697455 1.39876 0
M  V30 21389 H 1996.68 -1.28511 2.97751 0
M  V30 21390 H 1996.46 0.221601 3.91473 0
M  V30 21391 H 1997.95 -0.749491 4.10819 0
M  V30 21392 N 1998.39 -1.42074 0.682102 0
M  V30 21393 C 1999.34 -2.30799 0.00831535 0
M  V30 21394 C 2000.31 -1.46368 -0.785221 0
M  V30 21395 O 2001.49 -1.75184 -0.755989 0
M  V30 21396 C 1998.63 -3.32283 -0.931784 0
M  V30 21397 C 1997.75 -4.318 -0.131295 0
M  V30 21398 C 1996.88 -5.20357 -1.06781 0
M  V30 21399 C 1995.92 -6.1155 -0.259435 0
M  V30 21400 N 1995.06 -6.92634 -1.14904 0
M  V30 21401 H 1999.9 -2.87861 0.770715 0
M  V30 21402 H 1997.43 -1.41786 0.391799 0
M  V30 21403 H 1999.39 -3.89657 -1.49074 0
M  V30 21404 H 1998.02 -2.76802 -1.66073 0
M  V30 21405 H 1997.07 -3.76484 0.54439 0
M  V30 21406 H 1998.39 -4.96328 0.495998 0
M  V30 21407 H 1997.54 -5.82499 -1.69645 0
M  V30 21408 H 1996.28 -4.56024 -1.72898 0
M  V30 21409 H 1995.28 -5.48469 0.382368 0
M  V30 21410 H 1996.51 -6.77934 0.397744 0
M  V30 21411 H 1994.46 -6.30922 -1.79648 0
M  V30 21412 H 1994.37 -7.53795 -0.577001 0
M  V30 21413 H 1995.64 -7.59257 -1.76492 0
M  V30 21414 N 1999.87 -0.425924 -1.51735 0
M  V30 21415 C 2001.15 0.203721 -1.94536 0
M  V30 21416 C 2001.53 1.61124 -1.3639 0
M  V30 21417 O 2000.87 2.21871 -0.54638 0
M  V30 21418 C 2001.08 0.193041 -3.48466 0
M  V30 21419 C 2002.43 0.404204 -4.22672 0
M  V30 21420 O 2003.46 0.271662 -3.55163 0
M  V30 21421 O 2002.32 0.666926 -5.42415 0
M  V30 21422 H 1999.41 0.136115 -0.815722 0
M  V30 21423 H 2001.96 -0.48308 -1.62679 0
M  V30 21424 H 2000.73 -0.791421 -3.83213 0
M  V30 21425 H 2000.35 0.923235 -3.86733 0
M  V30 21426 N 2001.35 1.56817 -0.156891 0
M  V30 21427 C 2002.28 2.14404 0.810167 0
M  V30 21428 C 2003.29 1.09595 1.20386 0
M  V30 21429 O 2004.48 1.36836 1.14622 0
M  V30 21430 C 2001.58 2.65998 2.09996 0
M  V30 21431 C 2000.75 3.95312 1.87209 0
M  V30 21432 C 1999.81 4.32116 3.00271 0
M  V30 21433 O 1998.84 5.00259 2.71532 0
M  V30 21434 N 2000.04 3.925 4.27696 0
M  V30 21435 H 2002.81 2.98009 0.317935 0
M  V30 21436 H 2000.37 1.61879 0.0263634 0
M  V30 21437 H 2002.36 2.87626 2.84699 0
M  V30 21438 H 2000.93 1.87062 2.50453 0
M  V30 21439 H 2000.15 3.82209 0.964891 0
M  V30 21440 H 2001.44 4.79795 1.69335 0
M  V30 21441 H 2000.84 3.37612 4.5391 0
M  V30 21442 H 1999.39 4.19159 4.99148 0
M  V30 21443 N 2002.83 -0.116876 1.57166 0
M  V30 21444 C 2003.76 -1.14443 2.03531 0
M  V30 21445 C 2004.74 -1.43063 0.920159 0
M  V30 21446 O 2005.92 -1.53468 1.19001 0
M  V30 21447 C 2003.05 -2.47006 2.44142 0
M  V30 21448 C 2002.01 -2.32843 3.59121 0
M  V30 21449 C 2001.33 -3.70388 3.85639 0
M  V30 21450 C 2002.63 -1.78717 4.90772 0
M  V30 21451 H 2004.33 -0.75878 2.89625 0
M  V30 21452 H 2001.87 -0.363551 1.39335 0
M  V30 21453 H 2003.82 -3.19143 2.75184 0
M  V30 21454 H 2002.55 -2.87465 1.55021 0
M  V30 21455 H 2001.21 -1.63155 3.28293 0
M  V30 21456 H 2000.86 -4.08335 2.9372 0
M  V30 21457 H 2000.56 -3.61764 4.63034 0
M  V30 21458 H 2002.08 -4.44026 4.19134 0
M  V30 21459 H 2003.49 -2.40673 5.20336 0
M  V30 21460 H 2001.89 -1.80909 5.72182 0
M  V30 21461 H 2002.96 -0.744891 4.79144 0
M  V30 21462 N 2004.3 -1.52772 -0.387116 0
M  V30 21463 C 2005.53 -1.71787 -1.15312 0
M  V30 21464 C 2005.95 -0.437082 -1.83671 0
M  V30 21465 O 2005.3 0.588573 -1.72749 0
M  V30 21466 C 2005.35 -2.86869 -2.19974 0
M  V30 21467 O 2005.08 -4.0999 -1.54402 0
M  V30 21468 C 2006.58 -3.17579 -3.09287 0
M  V30 21469 H 2003.8 -0.575118 -0.345659 0
M  V30 21470 H 2006.34 -1.99428 -0.452607 0
M  V30 21471 H 2004.5 -2.61684 -2.85658 0
M  V30 21472 H 2004.91 -4.7428 -2.23961 0
M  V30 21473 H 2006.38 -4.01562 -3.7875 0
M  V30 21474 H 2006.86 -2.3204 -3.729 0
M  V30 21475 H 2007.47 -3.44611 -2.49246 0
M  V30 21476 N 2005.78 0.645673 -1.43767 0
M  V30 21477 C 2007.02 1.41719 -1.47293 0
M  V30 21478 C 2007.39 1.91753 -0.0972655 0
M  V30 21479 O 2008.59 2.68799 -0.007206 0
M  V30 21480 C 2006.86 2.56163 -2.4923 0
M  V30 21481 S 2008.42 3.44572 -2.7169 0
M  V30 21482 H 2005.23 0.483664 -0.521143 0
M  V30 21483 H 2007.84 0.748898 -1.80587 0
M  V30 21484 H 2006.54 2.17691 -3.47906 0
M  V30 21485 H 2006.07 3.27834 -2.17458 0
M  V30 21486 H 2008.09 4.53139 -2.02186 0
M  V30 21487 N 2007.26 1.30423 0.884744 0
M  V30 21488 C 2008.21 1.1673 2.01188 0
M  V30 21489 C 2009.2 0.0791439 1.69215 0
M  V30 21490 O 2010.41 0.24001 1.78393 0
M  V30 21491 H 2006.78 0.361014 0.659676 0
M  V30 21492 H 2008.75 2.12124 2.09871 0
M  V30 21493 C 2007.5 0.876173 3.3648 0
M  V30 21494 H 2006.83 1.70557 3.61594 0
M  V30 21495 H 2008.27 0.820477 4.15986 0
M  V30 21496 C 2006.72 -0.420908 3.3426 0
M  V30 21497 O 2007.25 -1.44235 3.74912 0
M  V30 21498 N 2005.46 -0.432149 2.87369 0
M  V30 21499 H 2005.01 0.399559 2.54482 0
M  V30 21500 H 2004.97 -1.29995 2.86267 0
M  V30 21501 N 2008.74 -1.09711 1.13142 0
M  V30 21502 C 2009.68 -2.16265 0.806118 0
M  V30 21503 C 2010.65 -1.64493 -0.230476 0
M  V30 21504 O 2011.84 -1.9052 -0.103375 0
M  V30 21505 C 2008.98 -3.44002 0.275075 0
M  V30 21506 C 2008.09 -4.09688 1.37038 0
M  V30 21507 C 2007.23 -5.25172 0.797983 0
M  V30 21508 C 2006.27 -5.82775 1.87189 0
M  V30 21509 N 2005.4 -6.89625 1.31766 0
M  V30 21510 H 2010.24 -2.43434 1.71883 0
M  V30 21511 H 2007.78 -1.19482 0.858044 0
M  V30 21512 H 2009.74 -4.17169 -0.0509244 0
M  V30 21513 H 2008.37 -3.1716 -0.600779 0
M  V30 21514 H 2007.42 -3.34415 1.81302 0
M  V30 21515 H 2008.73 -4.48535 2.18215 0
M  V30 21516 H 2007.89 -6.05223 0.423093 0
M  V30 21517 H 2006.63 -4.87679 -0.0448997 0
M  V30 21518 H 2005.63 -5.01388 2.25588 0
M  V30 21519 H 2006.86 -6.2233 2.71812 0
M  V30 21520 H 2004.8 -6.54117 0.496729 0
M  V30 21521 H 2004.72 -7.27224 2.06594 0
M  V30 21522 H 2005.99 -7.73438 0.970242 0
M  V30 21523 N 2010.22 -0.924476 -1.27637 0
M  V30 21524 C 2011.46 -0.563219 -1.9451 0
M  V30 21525 C 2011.79 0.894968 -1.72686 0
M  V30 21526 O 2011.05 1.65323 -1.04722 0
M  V30 21527 C 2011.35 -0.831659 -3.47589 0
M  V30 21528 C 2011.01 -2.27108 -3.89529 0
M  V30 21529 C 2009.67 -2.6646 -4.0069 0
M  V30 21530 C 2012.03 -3.20729 -4.10832 0
M  V30 21531 C 2009.35 -3.98563 -4.3054 0
M  V30 21532 C 2011.71 -4.52409 -4.42164 0
M  V30 21533 C 2010.37 -4.91599 -4.51538 0
M  V30 21534 H 2009.64 -0.206096 -0.711762 0
M  V30 21535 H 2012.29 -1.16783 -1.51769 0
M  V30 21536 H 2010.59 -0.144345 -3.91534 0
M  V30 21537 H 2012.29 -0.531162 -3.97467 0
M  V30 21538 H 2008.88 -1.95577 -3.81376 0
M  V30 21539 H 2013.06 -2.9153 -4.01652 0
M  V30 21540 H 2008.32 -4.28614 -4.36005 0
M  V30 21541 H 2012.49 -5.24957 -4.57595 0
M  V30 21542 H 2010.12 -5.93994 -4.74421 0
M  V30 21543 N 2011.69 1.41711 -0.689627 0
M  V30 21544 C 2012.97 1.95052 -0.146379 0
M  V30 21545 C 2013.35 1.62932 1.34225 0
M  V30 21546 O 2012.7 0.933198 2.08575 0
M  V30 21547 C 2012.91 3.46324 -0.431327 0
M  V30 21548 C 2014.26 4.23106 -0.355847 0
M  V30 21549 O 2015.28 3.54316 -0.365905 0
M  V30 21550 O 2014.14 5.45615 -0.310824 0
M  V30 21551 H 2011.23 0.82692 -0.0115 0
M  V30 21552 H 2013.78 1.5146 -0.765378 0
M  V30 21553 H 2012.55 3.62963 -1.46197 0
M  V30 21554 H 2012.18 3.96997 0.218942 0
M  V30 21555 N 2013.17 0.433965 1.51507 0
M  V30 21556 C 2014.1 -0.369789 2.30553 0
M  V30 21557 C 2015.08 -1.02405 1.35821 0
M  V30 21558 O 2016.27 -1.02833 1.64739 0
M  V30 21559 C 2013.4 -1.47312 3.1451 0
M  V30 21560 C 2012.35 -0.942531 4.17493 0
M  V30 21561 C 2011.68 -2.14135 4.89949 0
M  V30 21562 C 2012.98 0.0206958 5.22296 0
M  V30 21563 H 2014.67 0.289851 2.97994 0
M  V30 21564 H 2012.22 0.14084 1.4331 0
M  V30 21565 H 2014.17 -2.04259 3.68587 0
M  V30 21566 H 2012.9 -2.161 2.44884 0
M  V30 21567 H 2011.55 -0.395296 3.64463 0
M  V30 21568 H 2011.2 -2.81535 4.1683 0
M  V30 21569 H 2010.9 -1.79273 5.59584 0
M  V30 21570 H 2012.43 -2.71642 5.46848 0
M  V30 21571 H 2013.84 -0.458366 5.71465 0
M  V30 21572 H 2012.24 0.281718 5.99438 0
M  V30 21573 H 2013.31 0.958416 4.75334 0
M  V30 21574 N 2014.65 -1.56732 0.165206 0
M  V30 21575 C 2015.6 -2.17666 -0.767471 0
M  V30 21576 C 2016.57 -1.11485 -1.23127 0
M  V30 21577 O 2017.75 -1.39609 -1.30054 0
M  V30 21578 C 2014.89 -2.81673 -1.99385 0
M  V30 21579 C 2014.01 -4.02298 -1.57418 0
M  V30 21580 C 2013.14 -4.54249 -2.75375 0
M  V30 21581 C 2012.18 -5.67298 -2.29869 0
M  V30 21582 N 2011.32 -6.13786 -3.40898 0
M  V30 21583 H 2016.16 -2.97023 -0.24106 0
M  V30 21584 H 2013.69 -1.46708 -0.10726 0
M  V30 21585 H 2015.65 -3.16937 -2.71306 0
M  V30 21586 H 2014.28 -2.0493 -2.49407 0
M  V30 21587 H 2013.33 -3.72894 -0.75194 0
M  V30 21588 H 2014.65 -4.84148 -1.2001 0
M  V30 21589 H 2013.8 -4.91663 -3.55461 0
M  V30 21590 H 2012.54 -3.71444 -3.16039 0
M  V30 21591 H 2011.54 -5.29442 -1.48228 0
M  V30 21592 H 2012.77 -6.519 -1.9027 0
M  V30 21593 H 2010.71 -5.33911 -3.81149 0
M  V30 21594 H 2010.63 -6.90609 -3.07563 0
M  V30 21595 H 2011.9 -6.55849 -4.21287 0
M  V30 21596 N 2016.13 0.10854 -1.57226 0
M  V30 21597 C 2017.37 0.815673 -1.85673 0
M  V30 21598 C 2017.71 1.79031 -0.752441 0
M  V30 21599 O 2016.98 1.93004 0.240811 0
M  V30 21600 C 2017.27 1.55633 -3.24731 0
M  V30 21601 C 2017.12 0.600595 -4.45772 0
M  V30 21602 C 2018.44 2.51009 -3.61501 0
M  V30 21603 H 2015.56 0.295076 -0.675351 0
M  V30 21604 H 2018.2 0.079634 -1.89833 0
M  V30 21605 H 2016.35 2.18377 -3.21316 0
M  V30 21606 H 2018.02 -0.0187984 -4.61296 0
M  V30 21607 H 2016.26 -0.0870799 -4.33713 0
M  V30 21608 H 2016.93 1.15569 -5.39766 0
M  V30 21609 H 2019.41 1.98365 -3.65774 0
M  V30 21610 H 2018.29 2.99857 -4.59758 0
M  V30 21611 H 2018.55 3.34154 -2.89472 0
M  V30 21612 N 2017.61 1.52975 0.379009 0
M  V30 21613 C 2018.83 1.72396 1.144 0
M  V30 21614 C 2019.25 0.446816 1.83437 0
M  V30 21615 O 2018.61 -0.579403 1.73058 0
M  V30 21616 C 2018.66 2.88032 2.18449 0
M  V30 21617 O 2018.38 4.10803 1.52225 0
M  V30 21618 C 2019.88 3.19215 3.07599 0
M  V30 21619 H 2017.1 0.576943 0.342605 0
M  V30 21620 H 2019.64 1.99666 0.442025 0
M  V30 21621 H 2017.8 2.63195 2.84266 0
M  V30 21622 H 2018.21 4.75461 2.21443 0
M  V30 21623 H 2019.69 4.03565 3.76615 0
M  V30 21624 H 2020.16 2.34014 3.71664 0
M  V30 21625 H 2020.77 3.45928 2.47415 0
M  V30 21626 N 2019.08 -0.63804 1.44107 0
M  V30 21627 C 2020.33 -1.39366 1.45808 0
M  V30 21628 C 2020.65 -1.95384 0.091867 0
M  V30 21629 O 2021.85 -2.71497 -0.0136182 0
M  V30 21630 C 2020.31 -2.52293 2.56663 0
M  V30 21631 C 2019.92 -2.02818 3.99461 0
M  V30 21632 C 2021.66 -3.29549 2.67577 0
M  V30 21633 C 2019.57 -3.13047 5.01753 0
M  V30 21634 H 2018.5 -0.5237 0.542452 0
M  V30 21635 H 2021.15 -0.687131 1.70149 0
M  V30 21636 H 2019.53 -3.25489 2.2555 0
M  V30 21637 H 2020.7 -1.36533 4.40108 0
M  V30 21638 H 2019.02 -1.38398 3.92728 0
M  V30 21639 H 2021.62 -4.11709 3.41174 0
M  V30 21640 H 2021.96 -3.78579 1.73159 0
M  V30 21641 H 2022.49 -2.63441 2.98066 0
M  V30 21642 H 2019.23 -2.68969 5.97776 0
M  V30 21643 H 2018.75 -3.77995 4.65704 0
M  V30 21644 H 2020.43 -3.77934 5.25142 0
M  V30 21645 N 2020.56 -1.3089 -0.877815 0
M  V30 21646 C 2021.51 -1.17878 -1.98427 0
M  V30 21647 C 2022.48 -0.0664893 -1.65967 0
M  V30 21648 O 2023.66 -0.237956 -1.8931 0
M  V30 21649 C 2020.8 -0.883984 -3.33586 0
M  V30 21650 C 2019.92 -2.07885 -3.78692 0
M  V30 21651 C 2019.05 -1.72152 -5.02531 0
M  V30 21652 C 2018.09 -2.88092 -5.40064 0
M  V30 21653 N 2017.23 -2.52607 -6.55083 0
M  V30 21654 H 2022.07 -2.12531 -2.08889 0
M  V30 21655 H 2019.61 -1.05732 -1.0227 0
M  V30 21656 H 2021.56 -0.693656 -4.11393 0
M  V30 21657 H 2020.19 0.0256933 -3.2279 0
M  V30 21658 H 2019.25 -2.3802 -2.96733 0
M  V30 21659 H 2020.56 -2.94687 -4.02444 0
M  V30 21660 H 2019.71 -1.49536 -5.87983 0
M  V30 21661 H 2018.45 -0.825297 -4.80666 0
M  V30 21662 H 2017.46 -3.11366 -4.53135 0
M  V30 21663 H 2018.68 -3.78412 -5.63898 0
M  V30 21664 H 2016.63 -1.65499 -6.3478 0
M  V30 21665 H 2016.54 -3.3294 -6.78739 0
M  V30 21666 H 2017.81 -2.33365 -7.43748 0
M  V30 21667 N 2022.04 1.0911 -1.13723 0
M  V30 21668 C 2023.45 1.62841 -0.913213 0
M  V30 21669 C 2023.8 1.88346 0.549566 0
M  V30 21670 O 2022.93 1.63558 1.41696 0
M  V30 21671 C 2023.52 2.95835 -1.65127 0
M  V30 21672 C 2022.08 3.46379 -1.47304 0
M  V30 21673 C 2021.23 2.20738 -1.6784 0
M  V30 21674 H 2024.18 0.924297 -1.29006 0
M  V30 21675 H 2024.2 3.63942 -1.11026 0
M  V30 21676 H 2023.71 2.77241 -2.71587 0
M  V30 21677 H 2021.81 3.70092 -0.431605 0
M  V30 21678 H 2021.93 4.23603 -2.23825 0
M  V30 21679 H 2020.29 2.29554 -1.10349 0
M  V30 21680 H 2021.07 2.04659 -2.75626 0
M  V30 21681 N 2023.52 0.931232 1.27145 0
M  V30 21682 C 2024.48 0.43771 2.24982 0
M  V30 21683 C 2025.48 -0.445689 1.545 0
M  V30 21684 O 2026.67 -0.24627 1.7245 0
M  V30 21685 C 2023.8 -0.370327 3.38883 0
M  V30 21686 H 2025 1.30217 2.70154 0
M  V30 21687 H 2022.55 0.712252 1.39128 0
M  V30 21688 H 2023.28 -1.25346 2.99097 0
M  V30 21689 H 2023.07 0.263109 3.91216 0
M  V30 21690 H 2024.56 -0.705876 4.11591 0
M  V30 21691 N 2025 -1.41343 0.697132 0
M  V30 21692 C 2026.41 -1.84219 0.303361 0
M  V30 21693 C 2026.76 -1.58328 -1.15874 0
M  V30 21694 O 2025.88 -1.05454 -1.88967 0
M  V30 21695 C 2026.48 -3.34407 0.543815 0
M  V30 21696 C 2025.04 -3.75847 0.203944 0
M  V30 21697 C 2024.19 -2.64733 0.825329 0
M  V30 21698 H 2027.14 -1.30872 0.897671 0
M  V30 21699 H 2027.16 -3.7999 -0.196975 0
M  V30 21700 H 2026.67 -3.5322 1.60802 0
M  V30 21701 H 2024.77 -3.62635 -0.855939 0
M  V30 21702 H 2024.88 -4.74531 0.660055 0
M  V30 21703 H 2023.25 -2.53422 0.254806 0
M  V30 21704 H 2024.03 -2.86363 1.89344 0
M  V30 21705 N 2026.48 -0.441993 -1.51275 0
M  V30 21706 C 2027.39 0.373145 -2.31613 0
M  V30 21707 C 2028.4 1.02333 -1.40726 0
M  V30 21708 O 2029.58 1.01768 -1.73796 0
M  V30 21709 C 2026.64 1.45705 -3.14597 0
M  V30 21710 C 2025.7 0.826508 -4.21269 0
M  V30 21711 C 2024.94 1.85876 -5.00286 0
M  V30 21712 O 2025.16 3.08159 -4.79994 0
M  V30 21713 O 2024.09 1.44671 -5.84255 0
M  V30 21714 H 2027.92 -0.282837 -3.0238 0
M  V30 21715 H 2025.5 -0.204432 -1.47995 0
M  V30 21716 H 2027.39 2.08556 -3.66172 0
M  V30 21717 H 2026.06 2.09703 -2.46589 0
M  V30 21718 H 2024.97 0.15982 -3.73758 0
M  V30 21719 H 2026.3 0.229942 -4.91663 0
M  V30 21720 N 2027.95 1.56642 -0.173515 0
M  V30 21721 C 2029.18 2.01325 0.477079 0
M  V30 21722 C 2029.6 1.05373 1.56659 0
M  V30 21723 O 2028.95 0.0549577 1.82417 0
M  V30 21724 C 2029 3.45813 1.05337 0
M  V30 21725 O 2028.73 4.38099 0.00735116 0
M  V30 21726 C 2030.23 4.05907 1.78198 0
M  V30 21727 H 2027.45 0.659835 0.121896 0
M  V30 21728 H 2029.99 2.0263 -0.27589 0
M  V30 21729 H 2028.15 3.45275 1.75682 0
M  V30 21730 H 2028.56 5.22708 0.433152 0
M  V30 21731 H 2030.03 5.08923 2.13778 0
M  V30 21732 H 2030.51 3.48125 2.67779 0
M  V30 21733 H 2031.12 4.10154 1.12489 0
M  V30 21734 N 2029.43 -0.1002 1.57281 0
M  V30 21735 C 2030.34 -1.14039 2.05018 0
M  V30 21736 C 2031.36 -1.44178 0.974096 0
M  V30 21737 O 2032.53 -1.54921 1.28691 0
M  V30 21738 C 2029.6 -2.44226 2.46078 0
M  V30 21739 C 2028.66 -2.21315 3.67856 0
M  V30 21740 C 2027.89 -3.45295 4.06948 0
M  V30 21741 O 2028.12 -4.53334 3.46185 0
M  V30 21742 O 2027.05 -3.35185 4.99935 0
M  V30 21743 H 2030.88 -0.764957 2.93908 0
M  V30 21744 H 2028.46 -0.312347 1.46098 0
M  V30 21745 H 2030.34 -3.20895 2.73138 0
M  V30 21746 H 2029.02 -2.81206 1.60327 0
M  V30 21747 H 2027.92 -1.42444 3.4592 0
M  V30 21748 H 2029.26 -1.89231 4.54371 0
M  V30 21749 N 2030.91 -1.53174 -0.370891 0
M  V30 21750 C 2031.86 -1.79236 -1.45406 0
M  V30 21751 C 2032.83 -0.636453 -1.53423 0
M  V30 21752 O 2034.01 -0.878079 -1.69394 0
M  V30 21753 C 2031.15 -1.98327 -2.82419 0
M  V30 21754 C 2030.26 -3.2604 -2.83411 0
M  V30 21755 C 2029.4 -3.35348 -4.11965 0
M  V30 21756 C 2028.44 -4.57114 -4.07079 0
M  V30 21757 N 2027.58 -4.63603 -5.27272 0
M  V30 21758 H 2032.42 -2.71666 -1.22482 0
M  V30 21759 H 2029.95 -1.3458 -0.593853 0
M  V30 21760 H 2031.91 -2.07382 -3.62006 0
M  V30 21761 H 2030.54 -1.0924 -3.03754 0
M  V30 21762 H 2029.59 -3.25966 -1.96088 0
M  V30 21763 H 2030.9 -4.157 -2.75672 0
M  V30 21764 H 2030.06 -3.43685 -4.99966 0
M  V30 21765 H 2028.8 -2.43695 -4.2245 0
M  V30 21766 H 2027.8 -4.48883 -3.17466 0
M  V30 21767 H 2029.03 -5.50102 -3.98201 0
M  V30 21768 H 2026.97 -3.74849 -5.38353 0
M  V30 21769 H 2026.89 -5.4716 -5.21682 0
M  V30 21770 H 2028.16 -4.76218 -6.1712 0
M  V30 21771 N 2032.39 0.630389 -1.44443 0
M  V30 21772 C 2033.8 0.948649 -1.28346 0
M  V30 21773 C 2034 2.00298 -0.219776 0
M  V30 21774 O 2033.06 2.49406 0.394082 0
M  V30 21775 C 2034.37 1.41121 -2.65528 0
M  V30 21776 C 2035.92 1.52665 -2.73244 0
M  V30 21777 C 2036.4 2.02305 -4.10897 0
M  V30 21778 N 2037.89 2.09574 -4.13077 0
M  V30 21779 C 2038.62 2.49156 -5.16439 0
M  V30 21780 N 2038.12 2.87869 -6.30161 0
M  V30 21781 N 2039.91 2.49296 -5.03794 0
M  V30 21782 H 2032.06 -0.0668759 -2.12295 0
M  V30 21783 H 2034.32 0.032708 -0.947436 0
M  V30 21784 H 2034.03 0.710811 -3.44442 0
M  V30 21785 H 2033.9 2.38208 -2.92466 0
M  V30 21786 H 2036.29 2.21802 -1.94648 0
M  V30 21787 H 2036.37 0.539516 -2.50046 0
M  V30 21788 H 2036.02 1.33763 -4.89969 0
M  V30 21789 H 2035.95 3.01892 -4.31473 0
M  V30 21790 H 2038.44 1.82338 -3.31001 0
M  V30 21791 H 2038.75 3.16887 -7.04842 0
M  V30 21792 H 2037.1 2.85619 -6.33598 0
M  V30 21793 H 2040.29 2.18443 -4.14005 0
M  V30 21794 H 2040.46 2.79819 -5.8447 0
M  V30 21795 N 2033.87 1.31354 0.870861 0
M  V30 21796 C 2035.28 1.18891 1.43951 0
M  V30 21797 C 2035.63 -0.204961 1.95126 0
M  V30 21798 O 2034.75 -1.10266 1.862 0
M  V30 21799 C 2035.35 2.15226 2.61655 0
M  V30 21800 C 2033.91 2.06699 3.14567 0
M  V30 21801 C 2033.05 2.04505 1.87277 0
M  V30 21802 H 2036 1.43418 0.679486 0
M  V30 21803 H 2036.03 1.74134 3.38316 0
M  V30 21804 H 2035.54 3.16664 2.24378 0
M  V30 21805 H 2033.64 1.08452 3.56467 0
M  V30 21806 H 2033.75 2.95763 3.7691 0
M  V30 21807 H 2032.12 1.49508 2.06202 0
M  V30 21808 H 2032.9 3.07698 1.52239 0
M  V30 21809 N 2035.34 -1.08505 1.143 0
M  V30 21810 C 2036.28 -2.15273 0.786783 0
M  V30 21811 C 2037.29 -1.61618 -0.195861 0
M  V30 21812 O 2038.48 -1.78481 0.0257031 0
M  V30 21813 C 2035.58 -3.38581 0.147036 0
M  V30 21814 C 2034.75 -4.21623 1.16415 0
M  V30 21815 C 2033.81 -5.23335 0.548355 0
M  V30 21816 O 2032.84 -5.56168 1.21104 0
M  V30 21817 N 2034.04 -5.76558 -0.67533 0
M  V30 21818 H 2036.8 -2.46436 1.70557 0
M  V30 21819 H 2034.36 -1.24306 1.03728 0
M  V30 21820 H 2036.36 -4.03748 -0.277407 0
M  V30 21821 H 2034.93 -3.05228 -0.674862 0
M  V30 21822 H 2034.15 -3.5245 1.76557 0
M  V30 21823 H 2035.43 -4.73925 1.85128 0
M  V30 21824 H 2034.83 -5.52115 -1.23232 0
M  V30 21825 H 2033.39 -6.43412 -1.0423 0
M  V30 21826 N 2036.82 -0.937962 -1.26649 0
M  V30 21827 C 2038.1 -0.501822 -1.89053 0
M  V30 21828 C 2038.48 1.02047 -1.84796 0
M  V30 21829 O 2037.83 1.87909 -1.3001 0
M  V30 21830 C 2038.04 -1.05952 -3.32528 0
M  V30 21831 C 2039.38 -1.12622 -4.09391 0
M  V30 21832 O 2040.41 -1.00988 -3.41584 0
M  V30 21833 O 2039.27 -1.30677 -5.30646 0
M  V30 21834 H 2036.36 -0.163048 -0.810768 0
M  V30 21835 H 2038.91 -1.03032 -1.34843 0
M  V30 21836 H 2037.68 -2.10319 -3.29972 0
M  V30 21837 H 2037.3 -0.513282 -3.94273 0
M  V30 21838 N 2038.3 1.40971 -0.704618 0
M  V30 21839 C 2039.26 2.29137 -0.053886 0
M  V30 21840 C 2040.26 1.44828 0.698682 0
M  V30 21841 O 2041.45 1.65871 0.532221 0
M  V30 21842 C 2038.58 3.27859 0.933861 0
M  V30 21843 H 2039.78 2.88178 -0.830268 0
M  V30 21844 H 2037.33 1.49109 -0.468632 0
M  V30 21845 H 2038.07 2.73815 1.73769 0
M  V30 21846 H 2037.85 3.90082 0.397249 0
M  V30 21847 H 2039.34 3.93905 1.38669 0
M  V30 21848 N 2039.78 0.45001 1.51039 0
M  V30 21849 C 2040.73 -0.355012 2.28053 0
M  V30 21850 C 2041.7 -1.00578 1.32186 0
M  V30 21851 O 2042.88 -1.02227 1.61103 0
M  V30 21852 C 2040.02 -1.44311 3.13478 0
M  V30 21853 C 2039.13 -0.809213 4.24353 0
M  V30 21854 C 2038.27 -1.87342 4.97068 0
M  V30 21855 C 2037.31 -1.21864 5.99846 0
M  V30 21856 N 2036.44 -2.22477 6.65919 0
M  V30 21857 H 2041.28 0.308084 2.96403 0
M  V30 21858 H 2038.82 0.163778 1.46185 0
M  V30 21859 H 2040.78 -2.08539 3.61341 0
M  V30 21860 H 2039.41 -2.07566 2.47217 0
M  V30 21861 H 2038.46 -0.0548937 3.8036 0
M  V30 21862 H 2039.77 -0.291288 4.97949 0
M  V30 21863 H 2038.93 -2.59203 5.48542 0
M  V30 21864 H 2037.67 -2.42511 4.23131 0
M  V30 21865 H 2036.67 -0.48556 5.47652 0
M  V30 21866 H 2037.9 -0.674124 6.75746 0
M  V30 21867 H 2035.84 -2.76702 5.94788 0
M  V30 21868 H 2035.76 -1.75611 7.35321 0
M  V30 21869 H 2037.03 -2.93782 7.2202 0
M  V30 21870 N 2041.26 -1.56548 0.18182 0
M  V30 21871 C 2042.2 -2.19794 -0.761146 0
M  V30 21872 C 2043.2 -1.16509 -1.22971 0
M  V30 21873 O 2044.4 -1.34685 -1.19415 0
M  V30 21874 H 2040.78 -0.704224 -0.263766 0
M  V30 21875 H 2042.75 -2.97703 -0.203871 0
M  V30 21876 C 2041.5 -2.86108 -1.9758 0
M  V30 21877 H 2040.82 -3.65317 -1.62429 0
M  V30 21878 H 2042.26 -3.33816 -2.61424 0
M  V30 21879 C 2040.72 -1.86435 -2.80613 0
M  V30 21880 O 2041.25 -1.35635 -3.78109 0
M  V30 21881 N 2039.46 -1.54958 -2.45838 0
M  V30 21882 H 2039 -1.96462 -1.66614 0
M  V30 21883 H 2038.96 -0.885231 -3.0168 0
M  V30 21884 N 2042.73 0.0918577 -1.57332 0
M  V30 21885 C 2043.96 0.808218 -1.90461 0
M  V30 21886 C 2044.38 1.72122 -0.775843 0
M  V30 21887 O 2043.73 1.80752 0.251995 0
M  V30 21888 C 2043.79 1.61885 -3.23227 0
M  V30 21889 O 2043.51 0.742563 -4.31761 0
M  V30 21890 C 2045.01 2.43798 -3.7024 0
M  V30 21891 H 2042.23 0.230915 -0.630015 0
M  V30 21892 H 2044.77 0.0681235 -2.04387 0
M  V30 21893 H 2042.93 2.31142 -3.1089 0
M  V30 21894 H 2043.34 1.30433 -5.08023 0
M  V30 21895 H 2044.81 2.96164 -4.65823 0
M  V30 21896 H 2045.29 3.2241 -2.98242 0
M  V30 21897 H 2045.9 1.79734 -3.85455 0
M  V30 21898 N 2044.21 1.53368 0.362763 0
M  V30 21899 C 2045.15 1.74792 1.46707 0
M  V30 21900 C 2046.12 0.596367 1.51269 0
M  V30 21901 O 2047.31 0.829291 1.69278 0
M  V30 21902 C 2044.43 1.82926 2.85054 0
M  V30 21903 C 2043.48 3.04921 2.98204 0
M  V30 21904 S 2044.31 4.64381 2.66666 0
M  V30 21905 C 2045.47 4.75367 4.07157 0
M  V30 21906 H 2045.7 2.68184 1.28314 0
M  V30 21907 H 2043.24 1.43993 0.557272 0
M  V30 21908 H 2045.19 1.88297 3.64766 0
M  V30 21909 H 2043.85 0.905801 3.00756 0
M  V30 21910 H 2043.05 3.0723 3.99532 0
M  V30 21911 H 2042.65 2.97676 2.26418 0
M  V30 21912 H 2044.94 4.55595 5.01437 0
M  V30 21913 H 2045.88 5.77432 4.09852 0
M  V30 21914 H 2046.29 4.03977 3.94288 0
M  V30 21915 N 2045.69 -0.62272 1.44776 0
M  V30 21916 C 2046.94 -1.37812 1.47278 0
M  V30 21917 C 2047.25 -1.95276 0.112585 0
M  V30 21918 O 2048.46 -2.71496 0.0151784 0
M  V30 21919 C 2046.91 -2.49557 2.59325 0
M  V30 21920 C 2046.52 -1.9857 4.01589 0
M  V30 21921 C 2048.27 -3.26693 2.71057 0
M  V30 21922 C 2046.17 -3.07707 5.05045 0
M  V30 21923 H 2045.1 -0.517918 0.547976 0
M  V30 21924 H 2047.75 -0.669045 1.70868 0
M  V30 21925 H 2046.14 -3.23078 2.2899 0
M  V30 21926 H 2047.31 -1.31858 4.41532 0
M  V30 21927 H 2045.63 -1.34224 3.94174 0
M  V30 21928 H 2048.22 -4.08067 3.45521 0
M  V30 21929 H 2048.57 -3.76721 1.77164 0
M  V30 21930 H 2049.1 -2.60265 3.00844 0
M  V30 21931 H 2045.84 -2.62614 6.00595 0
M  V30 21932 H 2045.36 -3.73034 4.69687 0
M  V30 21933 H 2047.04 -3.72343 5.29121 0
M  V30 21934 N 2047.17 -1.31814 -0.863883 0
M  V30 21935 C 2048.1 -1.22574 -1.98741 0
M  V30 21936 C 2049.08 -0.111585 -1.69734 0
M  V30 21937 O 2050.26 -0.29721 -1.91912 0
M  V30 21938 C 2047.39 -0.938559 -3.34378 0
M  V30 21939 C 2046.35 -2.01295 -3.7771 0
M  V30 21940 C 2045.67 -1.57834 -5.10874 0
M  V30 21941 C 2046.97 -3.42684 -3.94164 0
M  V30 21942 H 2048.67 -2.16572 -2.06729 0
M  V30 21943 H 2046.21 -1.04262 -0.993246 0
M  V30 21944 H 2048.17 -0.860501 -4.12521 0
M  V30 21945 H 2046.89 0.0370783 -3.26579 0
M  V30 21946 H 2045.55 -2.081 -3.01811 0
M  V30 21947 H 2045.2 -0.5904 -4.99523 0
M  V30 21948 H 2044.9 -2.29713 -5.40838 0
M  V30 21949 H 2046.42 -1.51448 -5.9152 0
M  V30 21950 H 2047.84 -3.38519 -4.62685 0
M  V30 21951 H 2046.23 -4.12833 -4.35533 0
M  V30 21952 H 2047.3 -3.83023 -2.97358 0
M  V30 21953 N 2048.65 1.07897 -1.14873 0
M  V30 21954 C 2049.56 2.18494 -0.854259 0
M  V30 21955 C 2050.57 1.73194 0.167297 0
M  V30 21956 O 2051.75 2.01399 -0.00544437 0
M  V30 21957 C 2048.81 3.45013 -0.341649 0
M  V30 21958 C 2047.87 4.0491 -1.42641 0
M  V30 21959 C 2047.11 5.2539 -0.938165 0
M  V30 21960 O 2047.33 5.69982 0.218391 0
M  V30 21961 O 2046.26 5.76818 -1.71943 0
M  V30 21962 H 2050.09 2.46164 -1.77867 0
M  V30 21963 H 2047.68 1.1713 -0.927406 0
M  V30 21964 H 2049.56 4.21354 -0.0619573 0
M  V30 21965 H 2048.23 3.18907 0.554969 0
M  V30 21966 H 2047.14 3.30133 -1.75963 0
M  V30 21967 H 2048.47 4.35276 -2.29774 0
M  V30 21968 N 2050.12 0.944665 1.2615 0
M  V30 21969 C 2051.37 0.589817 1.92884 0
M  V30 21970 C 2051.69 -0.875787 1.74898 0
M  V30 21971 O 2052.89 -1.34016 2.36118 0
M  V30 21972 C 2051.35 1.00415 3.45608 0
M  V30 21973 C 2050.96 2.4916 3.72321 0
M  V30 21974 C 2052.7 0.721357 4.18326 0
M  V30 21975 C 2050.61 2.84445 5.18503 0
M  V30 21976 H 2049.54 0.216879 0.722135 0
M  V30 21977 H 2052.19 1.14777 1.43173 0
M  V30 21978 H 2050.57 0.374687 3.94223 0
M  V30 21979 H 2051.74 3.1704 3.34398 0
M  V30 21980 H 2050.06 2.74805 3.12843 0
M  V30 21981 H 2052.66 0.961267 5.25988 0
M  V30 21982 H 2053 -0.341981 4.14893 0
M  V30 21983 H 2053.53 1.3107 3.75587 0
M  V30 21984 H 2050.27 3.89756 5.2704 0
M  V30 21985 H 2049.79 2.2123 5.5751 0
M  V30 21986 H 2051.47 2.73098 5.86538 0
M  V30 21987 N 2051.6 -1.40596 0.712085 0
M  V30 21988 C 2052.84 -2.0281 0.254462 0
M  V30 21989 C 2053.21 -1.55234 -1.12989 0
M  V30 21990 O 2054.41 -2.09487 -1.6843 0
M  V30 21991 C 2052.68 -3.55895 0.327689 0
M  V30 21992 S 2054.24 -4.38767 -0.0534624 0
M  V30 21993 H 2051.06 -0.703761 0.101197 0
M  V30 21994 H 2053.66 -1.71772 0.933528 0
M  V30 21995 H 2052.36 -3.88014 1.33692 0
M  V30 21996 H 2051.89 -3.91656 -0.369973 0
M  V30 21997 H 2053.91 -4.79499 -1.27652 0
M  V30 21998 N 2053.08 -0.458013 -1.50798 0
M  V30 21999 C 2054.31 0.0995379 -2.0666 0
M  V30 22000 C 2054.72 1.34662 -1.32331 0
M  V30 22001 O 2054.08 1.78311 -0.388768 0
M  V30 22002 C 2054.13 0.400901 -3.5927 0
M  V30 22003 O 2053.85 -0.796705 -4.30795 0
M  V30 22004 C 2055.35 1.00686 -4.31714 0
M  V30 22005 H 2052.57 -0.00125628 -0.670999 0
M  V30 22006 H 2055.12 -0.643041 -1.94127 0
M  V30 22007 H 2053.27 1.0934 -3.7165 0
M  V30 22008 H 2053.69 -0.533396 -5.21781 0
M  V30 22009 H 2055.16 1.16758 -5.39511 0
M  V30 22010 H 2055.64 1.99349 -3.91352 0
M  V30 22011 H 2056.24 0.353135 -4.23831 0
M  V30 22012 N 2054.56 1.56449 -0.190119 0
M  V30 22013 C 2055.98 1.58736 0.165798 0
M  V30 22014 C 2056.18 1.20613 1.61414 0
M  V30 22015 O 2055.23 0.926541 2.34886 0
M  V30 22016 C 2056.54 3.0041 -0.132051 0
M  V30 22017 C 2058.09 3.12918 -0.0717601 0
M  V30 22018 C 2058.57 4.56715 -0.342852 0
M  V30 22019 N 2060.06 4.62283 -0.291293 0
M  V30 22020 C 2060.79 5.71429 -0.474968 0
M  V30 22021 N 2060.29 6.89062 -0.718722 0
M  V30 22022 N 2062.08 5.60606 -0.409568 0
M  V30 22023 H 2054.23 1.79512 -1.1353 0
M  V30 22024 H 2056.5 0.832888 -0.452771 0
M  V30 22025 H 2056.2 3.32845 -1.13609 0
M  V30 22026 H 2056.08 3.72904 0.567676 0
M  V30 22027 H 2058.46 2.80298 0.922882 0
M  V30 22028 H 2058.54 2.4282 -0.804488 0
M  V30 22029 H 2058.19 4.90047 -1.33479 0
M  V30 22030 H 2058.12 5.24996 0.410707 0
M  V30 22031 H 2060.61 3.77742 -0.109306 0
M  V30 22032 H 2060.92 7.68135 -0.847818 0
M  V30 22033 H 2059.27 6.90881 -0.755557 0
M  V30 22034 H 2062.46 4.67585 -0.219592 0
M  V30 22035 H 2062.63 6.45609 -0.556132 0
M  V30 22036 N 2056.04 -0.0835127 1.57379 0
M  V30 22037 C 2057.27 -0.796949 1.9061 0
M  V30 22038 C 2057.68 -1.72229 0.78318 0
M  V30 22039 O 2057.02 -1.81948 -0.2531 0
M  V30 22040 C 2057.08 -1.65376 3.19204 0
M  V30 22041 C 2056.74 -0.899027 4.4807 0
M  V30 22042 C 2057.74 -0.223567 5.19419 0
M  V30 22043 C 2055.43 -0.869673 4.94714 0
M  V30 22044 C 2057.42 0.47115 6.35656 0
M  V30 22045 C 2055.11 -0.171178 6.1086 0
M  V30 22046 C 2056.11 0.498044 6.81182 0
M  V30 22047 O 2055.79 1.18531 7.95114 0
M  V30 22048 H 2055.53 -0.232443 0.63478 0
M  V30 22049 H 2058.08 -0.0616418 2.05307 0
M  V30 22050 H 2056.31 -2.43159 3.00684 0
M  V30 22051 H 2058 -2.24481 3.38176 0
M  V30 22052 H 2058.76 -0.237628 4.84418 0
M  V30 22053 H 2054.64 -1.38002 4.3986 0
M  V30 22054 H 2058.19 0.994067 6.90481 0
M  V30 22055 H 2054.08 -0.155003 6.45314 0
M  V30 22056 H 2054.85 1.09339 8.11164 0
M  V30 22057 N 2057.52 -1.53558 -0.354624 0
M  V30 22058 C 2058.93 -1.43575 -0.697019 0
M  V30 22059 C 2059.13 -0.583599 -1.92864 0
M  V30 22060 O 2058.19 -0.0702807 -2.52402 0
M  V30 22061 C 2059.5 -2.86916 -0.899995 0
M  V30 22062 C 2061.05 -2.96619 -0.999314 0
M  V30 22063 C 2061.52 -4.41044 -1.23468 0
M  V30 22064 N 2063.01 -4.44521 -1.30214 0
M  V30 22065 C 2063.75 -5.5339 -1.50156 0
M  V30 22066 N 2063.25 -6.72286 -1.67343 0
M  V30 22067 N 2065.04 -5.40985 -1.52614 0
M  V30 22068 H 2057.19 -2.07462 0.45531 0
M  V30 22069 H 2059.45 -0.937349 0.141706 0
M  V30 22070 H 2059.16 -3.51637 -0.066674 0
M  V30 22071 H 2059.03 -3.31212 -1.80495 0
M  V30 22072 H 2061.42 -2.32044 -1.82317 0
M  V30 22073 H 2061.5 -2.557 -0.0715092 0
M  V30 22074 H 2061.14 -5.06195 -0.415803 0
M  V30 22075 H 2061.07 -4.79545 -2.17588 0
M  V30 22076 H 2063.57 -3.5884 -1.18501 0
M  V30 22077 H 2063.88 -7.51023 -1.82164 0
M  V30 22078 H 2062.22 -6.75252 -1.645 0
M  V30 22079 H 2065.41 -4.4706 -1.38762 0
M  V30 22080 H 2065.59 -6.25893 -1.67815 0
M  V30 22081 N 2058.99 0.615033 -1.45104 0
M  V30 22082 C 2060.24 1.37152 -1.48438 0
M  V30 22083 C 2060.56 1.94602 -0.124508 0
M  V30 22084 O 2059.83 1.76728 0.845222 0
M  V30 22085 H 2058.41 0.509131 -0.546621 0
M  V30 22086 H 2061.07 0.722747 -1.81004 0
M  V30 22087 H 2060.17 2.19472 -2.21898 0
M  V30 22088 N 2060.47 1.3227 0.85688 0
M  V30 22089 C 2061.75 1.13324 1.59427 0
M  V30 22090 C 2062.13 -0.307216 2.08853 0
M  V30 22091 O 2061.48 -1.30347 1.87675 0
M  V30 22092 C 2061.69 2.15889 2.74213 0
M  V30 22093 C 2063.03 2.49103 3.4385 0
M  V30 22094 O 2064.06 2.14417 2.84436 0
M  V30 22095 O 2062.92 3.08555 4.51061 0
M  V30 22096 H 2060.01 0.437152 0.702016 0
M  V30 22097 H 2062.56 1.43793 0.901202 0
M  V30 22098 H 2061.33 3.12724 2.35201 0
M  V30 22099 H 2060.95 1.86401 3.51198 0
M  V30 22100 N 2061.95 -1.07287 1.15444 0
M  V30 22101 C 2062.88 -2.14426 0.809571 0
M  V30 22102 C 2063.89 -1.61816 -0.178709 0
M  V30 22103 O 2065.08 -1.78444 0.044632 0
M  V30 22104 C 2062.18 -3.38406 0.182939 0
M  V30 22105 C 2061.36 -4.20365 1.20881 0
M  V30 22106 C 2060.42 -5.22724 0.603831 0
M  V30 22107 O 2059.44 -5.54852 1.26996 0
M  V30 22108 N 2060.64 -5.77242 -0.614141 0
M  V30 22109 H 2063.41 -2.44613 1.73161 0
M  V30 22110 H 2060.97 -1.23199 1.05041 0
M  V30 22111 H 2062.96 -4.0402 -0.234568 0
M  V30 22112 H 2061.53 -3.05927 -0.642451 0
M  V30 22113 H 2060.75 -3.50558 1.80285 0
M  V30 22114 H 2062.04 -4.71935 1.90144 0
M  V30 22115 H 2061.44 -5.53391 -1.17369 0
M  V30 22116 H 2059.99 -6.44482 -0.973996 0
M  V30 22117 N 2063.43 -0.951342 -1.25647 0
M  V30 22118 C 2064.7 -0.521845 -1.8851 0
M  V30 22119 C 2065.08 1.00082 -1.85868 0
M  V30 22120 O 2064.43 1.86519 -1.31995 0
M  V30 22121 C 2064.64 -1.09473 -3.31386 0
M  V30 22122 C 2065.99 -1.16958 -4.08174 0
M  V30 22123 O 2067.01 -1.04605 -3.40494 0
M  V30 22124 O 2065.87 -1.36298 -5.29231 0
M  V30 22125 H 2062.97 -0.171638 -0.808993 0
M  V30 22126 H 2065.51 -1.04456 -1.33742 0
M  V30 22127 H 2064.29 -2.13807 -3.27723 0
M  V30 22128 H 2063.91 -0.555071 -3.93706 0
M  V30 22129 N 2064.91 1.40216 -0.719531 0
M  V30 22130 C 2065.87 2.29067 -0.078186 0
M  V30 22131 C 2066.87 1.45561 0.683282 0
M  V30 22132 O 2068.06 1.66426 0.514598 0
M  V30 22133 C 2065.19 3.28832 0.899035 0
M  V30 22134 H 2066.38 2.87281 -0.860786 0
M  V30 22135 H 2063.94 1.48604 -0.48442 0
M  V30 22136 H 2064.67 2.75643 1.70855 0
M  V30 22137 H 2064.46 3.90482 0.355853 0
M  V30 22138 H 2065.95 3.95353 1.34483 0
M  V30 22139 N 2066.38 0.466004 1.50553 0
M  V30 22140 C 2067.61 -0.0885768 2.0671 0
M  V30 22141 C 2068.03 -1.33958 1.33044 0
M  V30 22142 O 2067.38 -1.78102 0.398219 0
M  V30 22143 C 2067.43 -0.381842 3.59478 0
M  V30 22144 O 2067.16 0.81954 4.30366 0
M  V30 22145 C 2068.66 -0.98395 4.32242 0
M  V30 22146 H 2065.88 0.00481473 0.670983 0
M  V30 22147 H 2068.42 0.653327 1.93783 0
M  V30 22148 H 2066.58 -1.07367 3.72224 0
M  V30 22149 H 2066.99 0.56106 5.21491 0
M  V30 22150 H 2068.46 -1.13895 5.40122 0
M  V30 22151 H 2068.94 -1.97271 3.92404 0
M  V30 22152 H 2069.55 -0.330654 4.24013 0
M  V30 22153 N 2067.86 -1.56346 0.198413 0
M  V30 22154 C 2068.79 -2.15154 -0.760519 0
M  V30 22155 C 2069.77 -1.0892 -1.20728 0
M  V30 22156 O 2070.96 -1.37051 -1.29419 0
M  V30 22157 C 2068.08 -2.71312 -2.0275 0
M  V30 22158 C 2067.13 -3.90165 -1.7226 0
M  V30 22159 S 2067.96 -5.28422 -0.86778 0
M  V30 22160 C 2069.12 -5.88003 -2.14483 0
M  V30 22161 H 2069.35 -2.96156 -0.2606 0
M  V30 22162 H 2066.88 -1.54391 -0.0166257 0
M  V30 22163 H 2068.84 -3.0431 -2.7551 0
M  V30 22164 H 2067.5 -1.90346 -2.49854 0
M  V30 22165 H 2066.7 -4.2788 -2.66336 0
M  V30 22166 H 2066.3 -3.58194 -1.0758 0
M  V30 22167 H 2068.59 -6.02568 -3.09707 0
M  V30 22168 H 2069.53 -6.84524 -1.81196 0
M  V30 22169 H 2069.94 -5.16636 -2.27481 0
M  V30 22170 N 2069.34 0.0751653 -1.57421 0
M  V30 22171 C 2070.57 0.791793 -1.91691 0
M  V30 22172 C 2070.99 1.70496 -0.794522 0
M  V30 22173 O 2070.35 1.79528 0.25284 0
M  V30 22174 C 2070.4 1.5643 -3.24903 0
M  V30 22175 O 2069.5 2.67473 -3.13898 0
M  V30 22176 H 2068.84 0.21624 -0.627803 0
M  V30 22177 H 2071.37 0.0444189 -2.04552 0
M  V30 22178 H 2071.38 1.94427 -3.58695 0
M  V30 22179 H 2070.06 0.894266 -4.06172 0
M  V30 22180 H 2068.63 2.32357 -2.91658 0
M  V30 22181 N 2070.82 1.53744 0.346476 0
M  V30 22182 C 2072.07 1.70066 1.08445 0
M  V30 22183 C 2072.38 0.469013 1.89894 0
M  V30 22184 O 2073.59 0.513127 2.66607 0
M  V30 22185 C 2072.04 3.00716 1.97732 0
M  V30 22186 C 2071.65 4.31208 1.21504 0
M  V30 22187 C 2073.39 3.26404 2.71405 0
M  V30 22188 C 2071.3 5.52934 2.09804 0
M  V30 22189 H 2070.23 0.633711 0.408567 0
M  V30 22190 H 2072.88 1.80244 0.344133 0
M  V30 22191 H 2071.26 2.84388 2.75572 0
M  V30 22192 H 2072.44 4.5823 0.485955 0
M  V30 22193 H 2070.75 4.12111 0.596126 0
M  V30 22194 H 2073.35 4.14536 3.37733 0
M  V30 22195 H 2073.69 2.43286 3.37813 0
M  V30 22196 H 2074.23 3.43495 2.0064 0
M  V30 22197 H 2070.97 6.38587 1.47943 0
M  V30 22198 H 2070.49 5.30164 2.8051 0
M  V30 22199 H 2072.16 5.88463 2.68924 0
M  V30 22200 N 2072.3 -0.607329 1.45428 0
M  V30 22201 C 2073.23 -1.72873 1.56962 0
M  V30 22202 C 2074.21 -1.64804 0.421159 0
M  V30 22203 O 2075.39 -1.83199 0.64433 0
M  V30 22204 C 2072.52 -3.11476 1.53622 0
M  V30 22205 C 2071.48 -3.34357 2.67188 0
M  V30 22206 C 2070.8 -4.73236 2.48902 0
M  V30 22207 C 2072.1 -3.24586 4.09196 0
M  V30 22208 H 2073.8 -1.63477 2.5083 0
M  V30 22209 H 2071.34 -0.785054 1.20718 0
M  V30 22210 H 2073.3 -3.89725 1.60288 0
M  V30 22211 H 2072.02 -3.21714 0.562838 0
M  V30 22212 H 2070.68 -2.58499 2.5995 0
M  V30 22213 H 2070.33 -4.80206 1.49702 0
M  V30 22214 H 2070.03 -4.895 3.25059 0
M  V30 22215 H 2071.55 -5.53684 2.57422 0
M  V30 22216 H 2072.96 -3.92709 4.17676 0
M  V30 22217 H 2071.36 -3.52381 4.85745 0
M  V30 22218 H 2072.43 -2.22022 4.31085 0
M  V30 22219 N 2073.77 -1.32722 -0.849853 0
M  V30 22220 C 2075.05 -1.14168 -1.58824 0
M  V30 22221 C 2075.43 0.296136 -2.09013 0
M  V30 22222 O 2074.78 1.2935 -1.88364 0
M  V30 22223 C 2074.99 -2.1734 -2.73065 0
M  V30 22224 C 2076.34 -2.50923 -3.42524 0
M  V30 22225 O 2077.36 -2.15923 -2.83295 0
M  V30 22226 O 2076.22 -3.10942 -4.49419 0
M  V30 22227 H 2073.31 -0.440869 -0.699688 0
M  V30 22228 H 2075.86 -1.44269 -0.893563 0
M  V30 22229 H 2074.63 -3.13967 -2.33539 0
M  V30 22230 H 2074.26 -1.88261 -3.50205 0
M  V30 22231 N 2075.25 1.06673 -1.16011 0
M  V30 22232 C 2076.5 1.78785 -0.933751 0
M  V30 22233 C 2076.81 1.87999 0.539969 0
M  V30 22234 O 2078.02 2.56701 0.884117 0
M  V30 22235 C 2076.48 3.21313 -1.6213 0
M  V30 22236 C 2076.08 3.20277 -3.13252 0
M  V30 22237 C 2077.83 3.97985 -1.47675 0
M  V30 22238 C 2075.74 4.57501 -3.74762 0
M  V30 22239 H 2074.67 0.670074 -0.345711 0
M  V30 22240 H 2077.32 1.19679 -1.39101 0
M  V30 22241 H 2075.7 3.80653 -1.09174 0
M  V30 22242 H 2076.87 2.70541 -3.7302 0
M  V30 22243 H 2075.19 2.57103 -3.27547 0
M  V30 22244 H 2077.78 4.99417 -1.91016 0
M  V30 22245 H 2078.13 4.14123 -0.425173 0
M  V30 22246 H 2078.66 3.45157 -1.97766 0
M  V30 22247 H 2075.4 4.46568 -4.79851 0
M  V30 22248 H 2074.92 5.07446 -3.19778 0
M  V30 22249 H 2076.6 5.26463 -3.76093 0
M  V30 22250 N 2076.73 0.957992 1.25141 0
M  V30 22251 C 2077.96 0.631439 1.97554 0
M  V30 22252 C 2078.38 -0.790342 1.7069 0
M  V30 22253 O 2077.74 -1.53495 0.964826 0
M  V30 22254 C 2077.79 0.900403 3.49178 0
M  V30 22255 O 2076.89 -0.01911 4.12396 0
M  V30 22256 H 2076.23 0.23972 0.619217 0
M  V30 22257 H 2078.76 1.2855 1.59173 0
M  V30 22258 H 2078.77 0.828022 3.99509 0
M  V30 22259 H 2077.45 1.93663 3.68059 0
M  V30 22260 H 2076.02 0.105763 3.7275 0
M  V30 22261 N 2078.21 -1.39832 0.726957 0
M  V30 22262 C 2079.14 -2.28179 0.0306291 0
M  V30 22263 C 2080.12 -1.43956 -0.756008 0
M  V30 22264 O 2081.3 -1.73356 -0.74026 0
M  V30 22265 C 2078.43 -3.24695 -0.963903 0
M  V30 22266 C 2077.48 -4.25665 -0.266719 0
M  V30 22267 S 2078.31 -5.2582 1.01356 0
M  V30 22268 C 2079.47 -6.25896 0.0214211 0
M  V30 22269 H 2079.7 -2.86889 0.779868 0
M  V30 22270 H 2077.23 -1.45436 0.518429 0
M  V30 22271 H 2079.19 -3.80823 -1.53245 0
M  V30 22272 H 2077.85 -2.6502 -1.68592 0
M  V30 22273 H 2077.04 -4.93592 -1.01896 0
M  V30 22274 H 2076.65 -3.73295 0.229576 0
M  V30 22275 H 2078.94 -6.72499 -0.82166 0
M  V30 22276 H 2079.88 -7.04946 0.667612 0
M  V30 22277 H 2080.29 -5.6343 -0.347386 0
M  V30 22278 N 2079.69 -0.473982 -1.50304 0
M  V30 22279 C 2080.62 0.364738 -2.25266 0
M  V30 22280 C 2081.6 0.993741 -1.28699 0
M  V30 22281 O 2082.78 1.02911 -1.57929 0
M  V30 22282 C 2079.91 1.5113 -3.03113 0
M  V30 22283 C 2078.95 0.999384 -4.14626 0
M  V30 22284 S 2079.79 -0.0882399 -5.35427 0
M  V30 22285 C 2080.94 1.06213 -6.16822 0
M  V30 22286 H 2081.18 -0.271587 -2.96057 0
M  V30 22287 H 2078.71 -0.258902 -1.52214 0
M  V30 22288 H 2080.67 2.16841 -3.48555 0
M  V30 22289 H 2079.33 2.11915 -2.31843 0
M  V30 22290 H 2078.52 1.85783 -4.68509 0
M  V30 22291 H 2078.12 0.419942 -3.71635 0
M  V30 22292 H 2080.42 1.97314 -6.48131 0
M  V30 22293 H 2081.36 0.562496 -7.05862 0
M  V30 22294 H 2081.77 1.31726 -5.48916 0
M  V30 22295 N 2081.16 1.56239 -0.206702 0
M  V30 22296 C 2082.39 2.02291 0.434267 0
M  V30 22297 C 2082.81 1.08672 1.54388 0
M  V30 22298 O 2082.16 0.0936387 1.8226 0
M  V30 22299 C 2082.22 3.47969 0.97978 0
M  V30 22300 O 2081.94 4.38016 -0.0855779 0
M  V30 22301 C 2083.44 4.09596 1.69548 0
M  V30 22302 H 2080.66 0.662272 0.107873 0
M  V30 22303 H 2083.2 2.02 -0.318809 0
M  V30 22304 H 2081.36 3.48923 1.68319 0
M  V30 22305 H 2081.77 5.2351 0.32218 0
M  V30 22306 H 2083.24 5.13343 2.02935 0
M  V30 22307 H 2083.72 3.53727 2.60334 0
M  V30 22308 H 2084.33 4.12448 1.03764 0
M  V30 22309 N 2082.64 -0.0668159 1.57458 0
M  V30 22310 C 2083.89 -0.763514 1.87123 0
M  V30 22311 C 2084.21 -1.77862 0.799382 0
M  V30 22312 O 2083.48 -1.95149 -0.171413 0
M  V30 22313 H 2082.06 -0.284974 0.690506 0
M  V30 22314 H 2084.72 -0.0417221 1.94855 0
M  V30 22315 H 2083.82 -1.27663 2.84796 0
M  V30 22316 N 2084.12 -1.53926 -0.338317 0
M  V30 22317 C 2085.37 -1.71424 -1.07797 0
M  V30 22318 C 2085.7 -0.480153 -1.8848 0
M  V30 22319 O 2084.95 0.538111 -1.88156 0
M  V30 22320 C 2085.25 -2.93279 -2.0426 0
M  V30 22321 C 2084.92 -4.28665 -1.39847 0
M  V30 22322 C 2083.58 -4.65475 -1.2201 0
M  V30 22323 C 2085.93 -5.12746 -0.934908 0
M  V30 22324 C 2083.26 -5.83979 -0.564424 0
M  V30 22325 C 2085.61 -6.31921 -0.293119 0
M  V30 22326 C 2084.27 -6.67421 -0.102472 0
M  V30 22327 H 2083.54 -0.627283 -0.394458 0
M  V30 22328 H 2086.19 -1.88149 -0.356684 0
M  V30 22329 H 2084.5 -2.71179 -2.82788 0
M  V30 22330 H 2086.19 -3.04011 -2.61492 0
M  V30 22331 H 2082.78 -3.99696 -1.54729 0
M  V30 22332 H 2086.97 -4.84836 -1.06055 0
M  V30 22333 H 2082.22 -6.10055 -0.40538 0
M  V30 22334 H 2086.4 -6.96361 0.0741496 0
M  V30 22335 H 2084.02 -7.59106 0.407635 0
M  V30 22336 N 2085.6 0.599608 -1.45748 0
M  V30 22337 C 2086.56 1.6918 -1.54631 0
M  V30 22338 C 2087.56 1.55081 -0.425029 0
M  V30 22339 O 2088.75 1.60004 -0.688782 0
M  V30 22340 C 2085.88 3.08502 -1.45049 0
M  V30 22341 H 2087.08 1.62667 -2.51951 0
M  V30 22342 H 2084.63 0.816022 -1.33307 0
M  V30 22343 H 2085.37 3.20585 -0.489439 0
M  V30 22344 H 2085.15 3.20144 -2.26386 0
M  V30 22345 H 2086.64 3.88042 -1.54315 0
M  V30 22346 N 2087.08 1.33171 0.842803 0
M  V30 22347 C 2088.49 1.21918 1.41397 0
M  V30 22348 C 2088.84 -0.163526 1.95517 0
M  V30 22349 O 2087.96 -1.06291 1.88497 0
M  V30 22350 C 2088.56 2.20727 2.57031 0
M  V30 22351 C 2087.12 2.13325 3.10112 0
M  V30 22352 C 2086.27 2.08432 1.82897 0
M  V30 22353 H 2089.22 1.44827 0.648912 0
M  V30 22354 H 2089.24 1.81271 3.34546 0
M  V30 22355 H 2088.75 3.21352 2.1761 0
M  V30 22356 H 2086.85 1.15989 3.54087 0
M  V30 22357 H 2086.96 3.03691 3.70552 0
M  V30 22358 H 2085.33 1.53848 2.02985 0
M  V30 22359 H 2086.11 3.10858 1.45678 0
M  V30 22360 N 2088.56 -1.06056 1.16576 0
M  V30 22361 C 2089.83 -1.75733 0.858908 0
M  V30 22362 C 2090.21 -2.01077 -0.642746 0
M  V30 22363 O 2089.56 -1.63981 -1.5913 0
M  V30 22364 C 2089.77 -3.0567 1.68425 0
M  V30 22365 C 2091.12 -3.7978 1.89874 0
M  V30 22366 O 2092.14 -3.15517 1.65311 0
M  V30 22367 O 2091 -4.95232 2.311 0
M  V30 22368 H 2088.1 -0.763759 0.317177 0
M  V30 22369 H 2090.64 -1.12303 1.27225 0
M  V30 22370 H 2089.41 -2.82923 2.70315 0
M  V30 22371 H 2089.04 -3.76835 1.26811 0
M  V30 22372 N 2090.03 -0.964615 -1.24631 0
M  V30 22373 C 2091.26 -0.642327 -1.96677 0
M  V30 22374 C 2091.68 0.787619 -1.71587 0
M  V30 22375 O 2091.03 1.52808 -0.9978 0
M  V30 22376 C 2091.08 -0.903712 -3.50022 0
M  V30 22377 O 2090.81 -2.27744 -3.74252 0
M  V30 22378 C 2092.31 -0.595187 -4.39286 0
M  V30 22379 H 2089.53 -0.239932 -0.626637 0
M  V30 22380 H 2092.07 -1.29171 -1.58541 0
M  V30 22381 H 2090.23 -0.300589 -3.86232 0
M  V30 22382 H 2090.64 -2.35512 -4.68652 0
M  V30 22383 H 2092.11 -0.828552 -5.45746 0
M  V30 22384 H 2092.59 0.470491 -4.36673 0
M  V30 22385 H 2093.2 -1.17808 -4.08658 0
M  V30 22386 N 2091.51 1.39445 -0.734362 0
M  V30 22387 C 2092.79 1.94487 -0.208359 0
M  V30 22388 C 2093.17 1.6712 1.28974 0
M  V30 22389 O 2092.52 0.999082 2.05501 0
M  V30 22390 C 2092.73 3.44777 -0.541289 0
M  V30 22391 C 2094.07 4.2176 -0.490275 0
M  V30 22392 O 2095.1 3.52972 -0.478443 0
M  V30 22393 O 2093.96 5.4435 -0.48425 0
M  V30 22394 H 2091.05 0.826136 -0.037802 0
M  V30 22395 H 2093.6 1.48948 -0.813177 0
M  V30 22396 H 2092.37 3.58128 -1.5767 0
M  V30 22397 H 2091.99 3.97492 0.0925302 0
M  V30 22398 N 2092.99 0.481946 1.5005 0
M  V30 22399 C 2094.27 -0.131379 1.95158 0
M  V30 22400 C 2094.65 -1.55951 1.42276 0
M  V30 22401 O 2093.99 -2.19691 0.62835 0
M  V30 22402 C 2094.2 -0.0635771 3.48942 0
M  V30 22403 C 2095.55 -0.247054 4.23881 0
M  V30 22404 O 2096.58 -0.139659 3.55926 0
M  V30 22405 O 2095.44 -0.465153 5.44517 0
M  V30 22406 H 2092.53 -0.105746 0.820211 0
M  V30 22407 H 2095.08 0.543125 1.60774 0
M  V30 22408 H 2093.85 0.933103 3.80012 0
M  V30 22409 H 2093.47 -0.779065 3.89893 0
M  V30 22410 N 2094.47 -1.56127 0.214985 0
M  V30 22411 C 2095.4 -2.22991 -0.69263 0
M  V30 22412 C 2096.38 -1.19946 -1.20611 0
M  V30 22413 O 2097.56 -1.48512 -1.25131 0
M  V30 22414 C 2094.69 -2.90473 -1.90376 0
M  V30 22415 C 2093.65 -3.99933 -1.52439 0
M  V30 22416 C 2092.97 -4.54678 -2.81375 0
M  V30 22417 C 2094.27 -5.17323 -0.719325 0
M  V30 22418 H 2095.97 -2.99095 -0.135168 0
M  V30 22419 H 2093.51 -1.4386 -0.0635721 0
M  V30 22420 H 2095.47 -3.35938 -2.54408 0
M  V30 22421 H 2094.19 -2.11806 -2.48608 0
M  V30 22422 H 2092.85 -3.55189 -0.907557 0
M  V30 22423 H 2092.5 -3.72749 -3.37739 0
M  V30 22424 H 2092.2 -5.28549 -2.56729 0
M  V30 22425 H 2093.72 -5.02857 -3.46362 0
M  V30 22426 H 2095.14 -5.5921 -1.2632 0
M  V30 22427 H 2093.53 -5.97385 -0.570203 0
M  V30 22428 H 2094.6 -4.84117 0.275461 0
M  V30 22429 N 2095.95 0.0584645 -1.57492 0
M  V30 22430 C 2096.89 1.06805 -2.04601 0
M  V30 22431 C 2097.86 1.37677 -0.929204 0
M  V30 22432 O 2099.05 1.48518 -1.19779 0
M  V30 22433 C 2096.19 2.37272 -2.50591 0
M  V30 22434 C 2095.3 2.12815 -3.75944 0
M  V30 22435 C 2094.44 3.36941 -4.10663 0
M  V30 22436 C 2093.47 3.07907 -5.29018 0
M  V30 22437 N 2092.61 4.24401 -5.5931 0
M  V30 22438 H 2097.45 0.659352 -2.90614 0
M  V30 22439 H 2094.99 0.313985 -1.4371 0
M  V30 22440 H 2096.95 3.13463 -2.75312 0
M  V30 22441 H 2095.58 2.75919 -1.67536 0
M  V30 22442 H 2094.63 1.27255 -3.58483 0
M  V30 22443 H 2095.94 1.87378 -4.62267 0
M  V30 22444 H 2095.09 4.21519 -4.36356 0
M  V30 22445 H 2093.83 3.65466 -3.22933 0
M  V30 22446 H 2092.84 2.21727 -5.03108 0
M  V30 22447 H 2094.06 2.80691 -6.18377 0
M  V30 22448 H 2092.01 4.52933 -4.7454 0
M  V30 22449 H 2091.93 4.02284 -6.40081 0
M  V30 22450 H 2093.19 5.09938 -5.89562 0
M  V30 22451 N 2097.42 1.54103 0.330149 0
M  V30 22452 C 2098.36 1.7936 1.42698 0
M  V30 22453 C 2099.37 0.67533 1.48132 0
M  V30 22454 O 2100.56 0.952319 1.50974 0
M  V30 22455 C 2097.66 1.89043 2.81276 0
M  V30 22456 C 2096.83 3.1913 2.99123 0
M  V30 22457 C 2095.89 3.19599 4.18023 0
M  V30 22458 O 2094.92 3.93266 4.11498 0
M  V30 22459 N 2096.12 2.42915 5.27231 0
M  V30 22460 H 2098.88 2.74012 1.21398 0
M  V30 22461 H 2096.44 1.53318 0.520103 0
M  V30 22462 H 2098.44 1.86791 3.59014 0
M  V30 22463 H 2097.01 1.01517 2.95657 0
M  V30 22464 H 2096.23 3.34396 2.08742 0
M  V30 22465 H 2097.51 4.05032 3.07939 0
M  V30 22466 H 2096.91 1.82641 5.35405 0
M  V30 22467 H 2095.47 2.46448 6.03412 0
M  V30 22468 N 2098.9 -0.59187 1.46064 0
M  V30 22469 C 2099.83 -1.71199 1.58787 0
M  V30 22470 C 2100.81 -1.64348 0.438615 0
M  V30 22471 O 2102 -1.82506 0.663725 0
M  V30 22472 C 2099.13 -3.0983 1.56917 0
M  V30 22473 C 2098.08 -3.31505 2.70719 0
M  V30 22474 C 2097.41 -4.70569 2.53907 0
M  V30 22475 C 2098.71 -3.20228 4.12615 0
M  V30 22476 H 2100.4 -1.60807 2.5255 0
M  V30 22477 H 2097.95 -0.772206 1.21544 0
M  V30 22478 H 2099.9 -3.88003 1.64413 0
M  V30 22479 H 2098.63 -3.21099 0.596928 0
M  V30 22480 H 2097.28 -2.55727 2.62677 0
M  V30 22481 H 2096.93 -4.78592 1.54787 0
M  V30 22482 H 2096.63 -4.86025 3.30232 0
M  V30 22483 H 2098.16 -5.50923 2.6328 0
M  V30 22484 H 2099.57 -3.88257 4.21817 0
M  V30 22485 H 2097.97 -3.47209 4.89455 0
M  V30 22486 H 2099.04 -2.17437 4.33416 0
M  V30 22487 N 2100.38 -1.33616 -0.835729 0
M  V30 22488 C 2101.34 -1.24042 -1.92733 0
M  V30 22489 C 2102.34 -0.158708 -1.60015 0
M  V30 22490 O 2103.53 -0.410456 -1.69295 0
M  V30 22491 C 2100.67 -0.912113 -3.28471 0
M  V30 22492 H 2101.86 -2.21075 -2.02647 0
M  V30 22493 H 2099.41 -1.1772 -1.02819 0
M  V30 22494 H 2100.15 0.0555823 -3.24252 0
M  V30 22495 H 2099.93 -1.69441 -3.53599 0
M  V30 22496 H 2101.42 -0.869957 -4.08438 0
M  V30 22497 N 2101.86 1.05436 -1.17136 0
M  V30 22498 C 2102.81 2.1523 -0.881986 0
M  V30 22499 C 2103.8 1.68713 0.152395 0
M  V30 22500 O 2105.01 1.79999 0.00555059 0
M  V30 22501 H 2101.38 0.702752 -0.267664 0
M  V30 22502 H 2103.35 2.36842 -1.81517 0
M  V30 22503 C 2102.1 3.45286 -0.409046 0
M  V30 22504 H 2101.42 3.81478 -1.19644 0
M  V30 22505 H 2102.86 4.23289 -0.245428 0
M  V30 22506 C 2101.32 3.25396 0.872886 0
M  V30 22507 O 2101.85 3.51736 1.94023 0
M  V30 22508 N 2100.06 2.78789 0.820065 0
M  V30 22509 H 2099.61 2.57554 -0.0487256 0
M  V30 22510 H 2099.56 2.65861 1.67826 0
M  V30 22511 N 2103.34 0.971211 1.24118 0
M  V30 22512 C 2104.58 0.633768 1.91906 0
M  V30 22513 C 2104.91 -0.834157 1.76258 0
M  V30 22514 O 2104.18 -1.59579 1.13628 0
M  V30 22515 H 2102.76 0.231413 0.710251 0
M  V30 22516 H 2105.42 1.23304 1.50938 0
M  V30 22517 H 2104.51 0.877411 2.99513 0
M  V30 22518 N 2104.81 -1.39054 0.741747 0
M  V30 22519 C 2106.06 -2.00671 0.293089 0
M  V30 22520 C 2106.39 -1.58733 -1.11882 0
M  V30 22521 O 2105.67 -0.819335 -1.76401 0
M  V30 22522 C 2105.95 -3.57843 0.402573 0
M  V30 22523 C 2105.8 -4.0978 1.85474 0
M  V30 22524 C 2107.12 -4.39594 -0.211039 0
M  V30 22525 H 2104.24 -0.729048 0.10797 0
M  V30 22526 H 2106.88 -1.65165 0.939169 0
M  V30 22527 H 2105.03 -3.8822 -0.147482 0
M  V30 22528 H 2106.71 -3.90095 2.46219 0
M  V30 22529 H 2104.95 -3.63088 2.3738 0
M  V30 22530 H 2105.62 -5.18906 1.88257 0
M  V30 22531 H 2108.1 -4.153 0.257937 0
M  V30 22532 H 2106.97 -5.48801 -0.104126 0
M  V30 22533 H 2107.23 -4.22618 -1.29792 0
M  V30 22534 N 2106.29 -0.489897 -1.49792 0
M  V30 22535 C 2107.57 0.121028 -1.95225 0
M  V30 22536 C 2107.95 1.55194 -1.43101 0
M  V30 22537 O 2107.3 2.19354 -0.639992 0
M  V30 22538 C 2107.51 0.045071 -3.48971 0
M  V30 22539 C 2108.86 0.224571 -4.24006 0
M  V30 22540 O 2109.88 0.120781 -3.55995 0
M  V30 22541 O 2108.74 0.436269 -5.44756 0
M  V30 22542 H 2105.83 0.101395 -0.820761 0
M  V30 22543 H 2108.38 -0.551643 -1.60484 0
M  V30 22544 H 2107.15 -0.953242 -3.79512 0
M  V30 22545 H 2106.77 0.758377 -3.903 0
M  V30 22546 N 2107.77 1.56011 -0.223262 0
M  V30 22547 C 2109.19 1.59052 0.132091 0
M  V30 22548 C 2109.39 1.2401 1.5882 0
M  V30 22549 O 2108.44 0.976155 2.32868 0
M  V30 22550 C 2109.76 3.00062 -0.195742 0
M  V30 22551 C 2111.3 3.12695 -0.138118 0
M  V30 22552 C 2111.78 4.55885 -0.439651 0
M  V30 22553 N 2113.27 4.61561 -0.389284 0
M  V30 22554 C 2114 5.70293 -0.596069 0
M  V30 22555 N 2113.5 6.87382 -0.86472 0
M  V30 22556 N 2115.29 5.59611 -0.528389 0
M  V30 22557 H 2107.44 1.77064 -1.17312 0
M  V30 22558 H 2109.71 0.823097 -0.470336 0
M  V30 22559 H 2109.41 3.3036 -1.20644 0
M  V30 22560 H 2109.29 3.74024 0.48845 0
M  V30 22561 H 2111.67 2.82192 0.863219 0
M  V30 22562 H 2111.76 2.41059 -0.855813 0
M  V30 22563 H 2111.4 4.87105 -1.43843 0
M  V30 22564 H 2111.33 5.25749 0.299255 0
M  V30 22565 H 2113.82 3.77425 -0.189406 0
M  V30 22566 H 2114.13 7.66164 -1.01056 0
M  V30 22567 H 2112.48 6.89123 -0.901933 0
M  V30 22568 H 2115.67 4.67014 -0.318724 0
M  V30 22569 H 2115.84 6.44284 -0.69295 0
M  V30 22570 N 2109.25 -0.0501116 1.5752 0
M  V30 22571 C 2110.48 -0.756338 1.92258 0
M  V30 22572 C 2110.89 -1.70529 0.819536 0
M  V30 22573 O 2110.23 -1.82444 -0.214449 0
M  V30 22574 C 2110.29 -1.58568 3.2264 0
M  V30 22575 C 2109.96 -0.803782 4.49876 0
M  V30 22576 C 2110.95 -0.11334 5.19776 0
M  V30 22577 C 2108.64 -0.764541 4.96447 0
M  V30 22578 C 2110.63 0.605876 6.34514 0
M  V30 22579 C 2108.32 -0.0415669 6.11086 0
M  V30 22580 C 2109.32 0.642421 6.79972 0
M  V30 22581 O 2109 1.3537 7.9242 0
M  V30 22582 H 2108.74 -0.218926 0.639568 0
M  V30 22583 H 2111.29 -0.0180791 2.05392 0
M  V30 22584 H 2109.52 -2.36726 3.05774 0
M  V30 22585 H 2111.21 -2.17257 3.42862 0
M  V30 22586 H 2111.98 -0.134822 4.84813 0
M  V30 22587 H 2107.85 -1.28641 4.42688 0
M  V30 22588 H 2111.4 1.1403 6.88217 0
M  V30 22589 H 2107.3 -0.0180871 6.45497 0
M  V30 22590 H 2108.06 1.2652 8.08662 0
M  V30 22591 N 2110.73 -1.54276 -0.321972 0
M  V30 22592 C 2111.98 -1.7177 -1.05726 0
M  V30 22593 C 2112.29 -0.499164 -1.89124 0
M  V30 22594 O 2113.49 -0.555477 -2.65757 0
M  V30 22595 C 2111.95 -3.03824 -1.92923 0
M  V30 22596 C 2111.56 -4.33087 -1.14629 0
M  V30 22597 C 2113.3 -3.30681 -2.66178 0
M  V30 22598 C 2111.21 -5.56202 -2.00981 0
M  V30 22599 H 2110.14 -0.64013 -0.398433 0
M  V30 22600 H 2112.79 -1.80769 -0.315414 0
M  V30 22601 H 2111.17 -2.88736 -2.71012 0
M  V30 22602 H 2112.35 -4.58946 -0.412993 0
M  V30 22603 H 2110.66 -4.13007 -0.530488 0
M  V30 22604 H 2113.26 -4.19857 -3.31096 0
M  V30 22605 H 2113.6 -2.48629 -3.339 0
M  V30 22606 H 2114.13 -3.46643 -1.95149 0
M  V30 22607 H 2110.87 -6.4086 -1.37764 0
M  V30 22608 H 2110.39 -5.3456 -2.7204 0
M  V30 22609 H 2112.07 -5.92667 -2.59528 0
M  V30 22610 N 2112.2 0.584116 -1.46376 0
M  V30 22611 C 2113.43 1.37331 -1.55419 0
M  V30 22612 C 2113.85 1.87082 -0.195472 0
M  V30 22613 O 2113.21 1.61486 0.824141 0
M  V30 22614 C 2113.26 2.53779 -2.56181 0
M  V30 22615 O 2112.36 3.55172 -2.09586 0
M  V30 22616 H 2111.71 0.409042 -0.523049 0
M  V30 22617 H 2114.24 0.708655 -1.91936 0
M  V30 22618 H 2114.25 3.00715 -2.75744 0
M  V30 22619 H 2112.92 2.16921 -3.5485 0
M  V30 22620 H 2111.5 3.14726 -2.00005 0
M  V30 22621 N 2113.68 1.34058 0.828631 0
M  V30 22622 C 2114.63 1.25161 1.93916 0
M  V30 22623 C 2115.6 0.128041 1.65606 0
M  V30 22624 O 2116.79 0.308053 1.88297 0
M  V30 22625 C 2113.93 1.00718 3.30075 0
M  V30 22626 C 2113.04 2.21797 3.70716 0
M  V30 22627 C 2112.17 1.90684 4.95795 0
M  V30 22628 C 2111.21 3.07938 5.29 0
M  V30 22629 N 2110.35 2.76746 6.45257 0
M  V30 22630 H 2115.19 2.20137 2.00857 0
M  V30 22631 H 2112.73 1.09455 0.982754 0
M  V30 22632 H 2114.68 0.845864 4.08535 0
M  V30 22633 H 2113.31 0.0941257 3.22663 0
M  V30 22634 H 2112.37 2.48869 2.87695 0
M  V30 22635 H 2113.68 3.09421 3.91229 0
M  V30 22636 H 2112.83 1.71255 5.82028 0
M  V30 22637 H 2111.57 1.00312 4.77272 0
M  V30 22638 H 2110.58 3.27969 4.41267 0
M  V30 22639 H 2111.8 3.9908 5.49465 0
M  V30 22640 H 2109.75 1.88944 6.28201 0
M  V30 22641 H 2109.66 3.57901 6.65915 0
M  V30 22642 H 2110.93 2.60808 7.34574 0
M  V30 22643 N 2115.16 -1.04814 1.17694 0
M  V30 22644 C 2116.39 -1.81287 0.990891 0
M  V30 22645 C 2116.8 -1.83422 -0.464018 0
M  V30 22646 O 2116.14 -1.2629 -1.33403 0
M  V30 22647 C 2116.2 -3.28516 1.46005 0
M  V30 22648 C 2115.87 -3.50056 2.93785 0
M  V30 22649 C 2116.87 -3.41866 3.91693 0
M  V30 22650 C 2114.55 -3.76896 3.32046 0
M  V30 22651 C 2116.54 -3.60206 5.25861 0
M  V30 22652 C 2114.23 -3.94884 4.66379 0
M  V30 22653 C 2115.23 -3.86539 5.63095 0
M  V30 22654 O 2114.92 -4.04021 6.94998 0
M  V30 22655 H 2114.65 -0.577989 0.350578 0
M  V30 22656 H 2117.2 -1.3304 1.56491 0
M  V30 22657 H 2115.43 -3.77696 0.829622 0
M  V30 22658 H 2117.12 -3.86525 1.23908 0
M  V30 22659 H 2117.89 -3.21104 3.6348 0
M  V30 22660 H 2113.77 -3.82493 2.57332 0
M  V30 22661 H 2117.31 -3.53609 6.01337 0
M  V30 22662 H 2113.21 -4.15139 4.94297 0
M  V30 22663 H 2113.98 -4.21225 7.01792 0
M  V30 22664 N 2116.64 -0.977779 -1.23601 0
M  V30 22665 C 2117.55 -0.524039 -2.28672 0
M  V30 22666 C 2118.57 0.419894 -1.68858 0
M  V30 22667 O 2119.74 0.290458 -1.99295 0
M  V30 22668 C 2116.81 0.16886 -3.46289 0
M  V30 22669 C 2115.87 -0.81615 -4.21471 0
M  V30 22670 C 2115.1 -0.156223 -5.33471 0
M  V30 22671 O 2115.32 1.05329 -5.60591 0
M  V30 22672 O 2114.26 -0.853473 -5.95818 0
M  V30 22673 H 2118.08 -1.39778 -2.69622 0
M  V30 22674 H 2115.67 -0.745288 -1.29483 0
M  V30 22675 H 2117.55 0.557659 -4.17694 0
M  V30 22676 H 2116.23 1.0174 -3.07296 0
M  V30 22677 H 2115.13 -1.2556 -3.524 0
M  V30 22678 H 2116.47 -1.63342 -4.64306 0
M  V30 22679 N 2118.12 1.38658 -0.749111 0
M  V30 22680 C 2119.05 2.33116 -0.133797 0
M  V30 22681 C 2120.03 1.54639 0.708583 0
M  V30 22682 O 2121.21 1.82975 0.650684 0
M  V30 22683 C 2118.34 3.38802 0.763563 0
M  V30 22684 C 2117.3 4.27993 0.0242578 0
M  V30 22685 C 2116.62 5.24497 1.03957 0
M  V30 22686 C 2117.92 5.09673 -1.14151 0
M  V30 22687 H 2119.62 2.84823 -0.922842 0
M  V30 22688 H 2117.16 1.36944 -0.445221 0
M  V30 22689 H 2119.12 4.03844 1.20366 0
M  V30 22690 H 2117.84 2.85568 1.58488 0
M  V30 22691 H 2116.5 3.64451 -0.39637 0
M  V30 22692 H 2116.15 4.67552 1.85483 0
M  V30 22693 H 2115.85 5.85024 0.549587 0
M  V30 22694 H 2117.37 5.92415 1.47908 0
M  V30 22695 H 2118.79 5.6798 -0.779174 0
M  V30 22696 H 2117.18 5.79413 -1.56206 0
M  V30 22697 H 2118.25 4.43675 -1.95654 0
M  V30 22698 N 2119.6 0.497834 1.49531 0
M  V30 22699 C 2120.87 -0.110673 1.95287 0
M  V30 22700 C 2121.25 -1.54433 1.43923 0
M  V30 22701 O 2120.6 -2.19012 0.651616 0
M  V30 22702 C 2120.81 -0.0265636 3.4899 0
M  V30 22703 C 2122.16 -0.202082 4.24119 0
M  V30 22704 O 2123.18 -0.1019 3.56054 0
M  V30 22705 O 2122.04 -0.407373 5.4498 0
M  V30 22706 H 2119.14 -0.0970406 0.821287 0
M  V30 22707 H 2121.68 0.560146 1.60189 0
M  V30 22708 H 2120.45 0.973355 3.79001 0
M  V30 22709 H 2120.08 -0.737668 3.90697 0
M  V30 22710 N 2121.07 -1.5589 0.231532 0
M  V30 22711 C 2122.02 -2.20725 -0.674461 0
M  V30 22712 C 2122.99 -1.16607 -1.18288 0
M  V30 22713 O 2124.18 -1.44999 -1.24016 0
M  V30 22714 C 2121.32 -2.89876 -1.87259 0
M  V30 22715 C 2120.43 -4.08613 -1.40213 0
M  V30 22716 C 2119.56 -4.6552 -2.55861 0
M  V30 22717 C 2118.6 -5.76537 -2.05601 0
M  V30 22718 N 2117.74 -6.27692 -3.14558 0
M  V30 22719 H 2122.58 -2.97779 -0.114866 0
M  V30 22720 H 2120.12 -1.47031 -0.0449395 0
M  V30 22721 H 2122.07 -3.28159 -2.57619 0
M  V30 22722 H 2120.7 -2.15324 -2.4049 0
M  V30 22723 H 2119.76 -3.75748 -0.593106 0
M  V30 22724 H 2121.07 -4.88802 -0.993676 0
M  V30 22725 H 2120.22 -5.06297 -3.34288 0
M  V30 22726 H 2118.96 -3.84514 -3.00001 0
M  V30 22727 H 2117.97 -5.35252 -1.25639 0
M  V30 22728 H 2119.19 -6.59384 -1.62449 0
M  V30 22729 H 2117.14 -5.49597 -3.58161 0
M  V30 22730 H 2117.05 -7.03032 -2.77996 0
M  V30 22731 H 2118.32 -6.73127 -3.93091 0
M  V30 22732 N 2122.55 0.0417572 -1.57545 0
M  V30 22733 C 2123.51 1.03085 -2.0471 0
M  V30 22734 C 2124.51 1.29808 -0.94903 0
M  V30 22735 O 2125.7 1.25024 -1.21304 0
M  V30 22736 C 2122.84 2.367 -2.45329 0
M  V30 22737 H 2124.03 0.623701 -2.93343 0
M  V30 22738 H 2121.58 0.288275 -1.53619 0
M  V30 22739 H 2122.32 2.82188 -1.59813 0
M  V30 22740 H 2122.1 2.18637 -3.25485 0
M  V30 22741 H 2123.59 3.07737 -2.8229 0
M  V30 22742 N 2124.03 1.54445 0.313786 0
M  V30 22743 C 2125.28 1.73117 1.05056 0
M  V30 22744 C 2125.6 0.510078 1.87692 0
M  V30 22745 O 2124.86 -0.508109 1.88989 0
M  V30 22746 C 2125.16 2.96492 1.99568 0
M  V30 22747 C 2124.82 4.30835 1.3301 0
M  V30 22748 C 2123.49 4.67357 1.14589 0
M  V30 22749 C 2125.84 5.14169 0.853216 0
M  V30 22750 C 2123.17 5.84803 0.471447 0
M  V30 22751 C 2125.52 6.32307 0.192549 0
M  V30 22752 C 2124.18 6.675 -0.00372174 0
M  V30 22753 H 2123.45 0.633479 0.384428 0
M  V30 22754 H 2126.1 1.88693 0.326706 0
M  V30 22755 H 2124.4 2.75643 2.78438 0
M  V30 22756 H 2126.1 3.08133 2.56623 0
M  V30 22757 H 2122.69 4.02107 1.48351 0
M  V30 22758 H 2126.88 4.86462 0.983284 0
M  V30 22759 H 2122.13 6.10622 0.308274 0
M  V30 22760 H 2126.31 6.96154 -0.184925 0
M  V30 22761 H 2123.93 7.58362 -0.52835 0
M  V30 22762 N 2125.51 -0.576345 1.46683 0
M  V30 22763 C 2126.73 -1.36505 1.56145 0
M  V30 22764 C 2127.16 -1.86975 0.20539 0
M  V30 22765 O 2126.52 -1.6192 -0.815566 0
M  V30 22766 C 2126.56 -2.52417 2.57523 0
M  V30 22767 O 2125.67 -3.54056 2.11467 0
M  V30 22768 H 2125.01 -0.406262 0.525211 0
M  V30 22769 H 2127.54 -0.698466 1.92309 0
M  V30 22770 H 2127.55 -2.99248 2.77335 0
M  V30 22771 H 2126.22 -2.15036 3.55995 0
M  V30 22772 H 2124.8 -3.13661 2.01671 0
M  V30 22773 N 2126.99 -1.34495 -0.82151 0
M  V30 22774 C 2128.26 -1.17511 -1.56367 0
M  V30 22775 C 2128.64 0.251735 -2.09594 0
M  V30 22776 O 2127.99 1.25325 -1.91065 0
M  V30 22777 C 2128.2 -2.23083 -2.68393 0
M  V30 22778 C 2129.55 -2.58132 -3.37124 0
M  V30 22779 O 2130.57 -2.21883 -2.78651 0
M  V30 22780 O 2129.43 -3.20405 -4.42722 0
M  V30 22781 H 2126.53 -0.455611 -0.690179 0
M  V30 22782 H 2129.07 -1.46132 -0.862761 0
M  V30 22783 H 2127.84 -3.1885 -2.26827 0
M  V30 22784 H 2127.47 -1.95647 -3.46133 0
M  V30 22785 N 2128.46 1.04188 -1.18248 0
M  V30 22786 C 2129.88 1.29568 -0.931902 0
M  V30 22787 C 2130.08 1.97424 0.403235 0
M  V30 22788 O 2129.14 2.25409 1.13785 0
M  V30 22789 C 2130.45 2.15557 -2.09656 0
M  V30 22790 C 2132 2.28907 -2.13473 0
M  V30 22791 C 2132.47 3.18262 -3.29353 0
M  V30 22792 N 2133.96 3.25849 -3.29206 0
M  V30 22793 C 2134.7 3.95141 -4.15513 0
M  V30 22794 N 2134.19 4.66775 -5.1195 0
M  V30 22795 N 2135.99 3.91408 -4.03431 0
M  V30 22796 H 2128.14 0.585496 -2.04171 0
M  V30 22797 H 2130.4 0.320854 -0.892052 0
M  V30 22798 H 2130.11 1.73002 -3.06208 0
M  V30 22799 H 2129.98 3.16231 -2.05616 0
M  V30 22800 H 2132.37 2.70698 -1.175 0
M  V30 22801 H 2132.45 1.27828 -2.21571 0
M  V30 22802 H 2132.09 2.77182 -4.25597 0
M  V30 22803 H 2132.02 4.1937 -3.18491 0
M  V30 22804 H 2134.51 2.74819 -2.59389 0
M  V30 22805 H 2134.83 5.17239 -5.74181 0
M  V30 22806 H 2133.17 4.65683 -5.15911 0
M  V30 22807 H 2136.36 3.34577 -3.27377 0
M  V30 22808 H 2136.54 4.45139 -4.70909 0
M  V30 22809 N 2129.94 0.98432 1.23081 0
M  V30 22810 C 2130.89 0.520259 2.26707 0
M  V30 22811 C 2131.88 -0.424715 1.63989 0
M  V30 22812 O 2133.09 -0.298177 1.77513 0
M  V30 22813 H 2129.47 0.149826 0.736923 0
M  V30 22814 H 2131.44 1.40587 2.63207 0
M  V30 22815 C 2130.19 -0.157874 3.47341 0
M  V30 22816 H 2129.51 0.560186 3.95856 0
M  V30 22817 H 2130.95 -0.446157 4.21646 0
M  V30 22818 C 2129.41 -1.3904 3.0687 0
M  V30 22819 O 2129.94 -2.48637 3.15503 0
M  V30 22820 N 2128.14 -1.26249 2.61743 0
M  V30 22821 H 2127.69 -0.370736 2.54918 0
M  V30 22822 H 2127.65 -2.08824 2.35032 0
M  V30 22823 N 2131.42 -1.38259 0.756453 0
M  V30 22824 C 2132.65 -2.04335 0.324799 0
M  V30 22825 C 2133.06 -1.57053 -1.04784 0
M  V30 22826 O 2132.42 -0.744882 -1.66607 0
M  V30 22827 C 2132.47 -3.59882 0.341597 0
M  V30 22828 O 2132.19 -4.0543 1.66008 0
M  V30 22829 C 2133.69 -4.43179 -0.103565 0
M  V30 22830 H 2130.91 -0.656588 0.138324 0
M  V30 22831 H 2133.46 -1.76894 1.02611 0
M  V30 22832 H 2131.61 -3.8615 -0.310997 0
M  V30 22833 H 2132.03 -4.99876 1.58822 0
M  V30 22834 H 2133.5 -5.51985 -0.0406515 0
M  V30 22835 H 2133.98 -4.23827 -1.15185 0
M  V30 22836 H 2134.58 -4.22106 0.520263 0
M  V30 22837 N 2132.9 -0.505757 -1.49264 0
M  V30 22838 C 2133.83 0.259368 -2.32055 0
M  V30 22839 C 2134.81 0.95808 -1.40552 0
M  V30 22840 O 2135.99 0.948562 -1.69458 0
M  V30 22841 C 2133.12 1.32138 -3.2118 0
M  V30 22842 C 2132.08 0.742267 -4.21514 0
M  V30 22843 C 2131.4 1.90515 -4.99608 0
M  V30 22844 C 2132.7 -0.269866 -5.21602 0
M  V30 22845 H 2134.4 -0.431697 -2.96271 0
M  V30 22846 H 2131.94 -0.209055 -1.42474 0
M  V30 22847 H 2133.9 1.86441 -3.77912 0
M  V30 22848 H 2132.62 2.0417 -2.54916 0
M  V30 22849 H 2131.28 0.220956 -3.65934 0
M  V30 22850 H 2130.93 2.61327 -4.29788 0
M  V30 22851 H 2130.63 1.52371 -5.67501 0
M  V30 22852 H 2132.15 2.45242 -5.59186 0
M  V30 22853 H 2133.57 0.18519 -5.73001 0
M  V30 22854 H 2131.96 -0.567397 -5.97412 0
M  V30 22855 H 2133.03 -1.18411 -4.7022 0
M  V30 22856 N 2134.38 1.55765 -0.239796 0
M  V30 22857 C 2135.63 1.97945 0.387367 0
M  V30 22858 C 2135.94 1.131 1.59586 0
M  V30 22859 O 2137.14 1.45261 2.29372 0
M  V30 22860 C 2135.6 3.52198 0.740571 0
M  V30 22861 C 2135.21 4.45773 -0.446131 0
M  V30 22862 C 2136.95 4.0305 1.33232 0
M  V30 22863 C 2134.86 5.91359 -0.0694771 0
M  V30 22864 H 2133.79 0.739231 0.148505 0
M  V30 22865 H 2136.44 1.80343 -0.338891 0
M  V30 22866 H 2134.82 3.65468 1.52476 0
M  V30 22867 H 2136 4.44259 -1.22354 0
M  V30 22868 H 2134.31 4.05364 -0.952332 0
M  V30 22869 H 2136.91 5.09335 1.62734 0
M  V30 22870 H 2137.25 3.49977 2.25437 0
M  V30 22871 H 2137.78 3.93077 0.611183 0
M  V30 22872 H 2134.52 6.48455 -0.958485 0
M  V30 22873 H 2134.04 5.96025 0.671873 0
M  V30 22874 H 2135.72 6.46048 0.350837 0
M  V30 22875 N 2135.85 -0.0334016 1.57565 0
M  V30 22876 C 2137.1 -0.724102 1.88254 0
M  V30 22877 C 2137.42 -1.76752 0.837737 0
M  V30 22878 O 2138.62 -2.51051 1.03372 0
M  V30 22879 C 2137.08 -1.33894 3.34067 0
M  V30 22880 C 2136.69 -0.332091 4.46767 0
M  V30 22881 C 2138.43 -2.00977 3.7391 0
M  V30 22882 C 2136.34 -0.955024 5.83638 0
M  V30 22883 H 2135.27 -0.274201 0.702375 0
M  V30 22884 H 2137.92 0.0216608 1.83487 0
M  V30 22885 H 2136.3 -2.13426 3.33565 0
M  V30 22886 H 2137.47 0.436205 4.58731 0
M  V30 22887 H 2135.79 0.236407 4.15728 0
M  V30 22888 H 2138.39 -2.48428 4.73485 0
M  V30 22889 H 2138.73 -2.82605 3.05679 0
M  V30 22890 H 2139.26 -1.28225 3.76568 0
M  V30 22891 H 2136 -0.178244 6.55258 0
M  V30 22892 H 2135.52 -1.69326 5.75403 0
M  V30 22893 H 2137.2 -1.46364 6.30227 0
M  V30 22894 N 2137.33 -1.54609 -0.305591 0
M  V30 22895 C 2138.56 -1.774 -1.05891 0
M  V30 22896 C 2138.97 -0.531327 -1.81586 0
M  V30 22897 O 2138.31 0.508271 -1.76528 0
M  V30 22898 C 2138.38 -2.9256 -2.08923 0
M  V30 22899 C 2138.04 -4.30818 -1.52464 0
M  V30 22900 C 2139.04 -5.11015 -0.957049 0
M  V30 22901 C 2136.72 -4.77407 -1.56165 0
M  V30 22902 C 2138.72 -6.35921 -0.433983 0
M  V30 22903 C 2136.4 -6.02276 -1.03471 0
M  V30 22904 C 2137.4 -6.81368 -0.471844 0
M  V30 22905 O 2137.09 -8.03886 0.047115 0
M  V30 22906 H 2136.82 -0.595455 -0.320014 0
M  V30 22907 H 2139.37 -2.02364 -0.35183 0
M  V30 22908 H 2137.6 -2.6321 -2.83298 0
M  V30 22909 H 2139.29 -3.02969 -2.70119 0
M  V30 22910 H 2140.06 -4.76167 -0.921391 0
M  V30 22911 H 2135.94 -4.15877 -1.98915 0
M  V30 22912 H 2139.48 -6.976 0.00600517 0
M  V30 22913 H 2135.38 -6.36612 -1.0675 0
M  V30 22914 H 2136.15 -8.18473 -0.0666184 0
M  V30 22915 N 2138.81 0.568558 -1.46987 0
M  V30 22916 C 2139.74 1.68651 -1.61491 0
M  V30 22917 C 2140.72 1.63629 -0.464706 0
M  V30 22918 O 2141.91 1.81427 -0.692676 0
M  V30 22919 C 2139.04 3.07294 -1.61826 0
M  V30 22920 C 2137.99 3.27156 -2.75959 0
M  V30 22921 C 2137.32 4.6647 -2.61361 0
M  V30 22922 C 2138.62 3.13623 -4.17658 0
M  V30 22923 H 2140.31 1.56769 -2.55076 0
M  V30 22924 H 2137.86 0.752771 -1.22757 0
M  V30 22925 H 2139.81 3.85338 -1.70565 0
M  V30 22926 H 2138.53 3.20108 -0.647937 0
M  V30 22927 H 2137.19 2.51516 -2.66712 0
M  V30 22928 H 2136.84 4.76069 -1.62381 0
M  V30 22929 H 2136.54 4.8071 -3.37923 0
M  V30 22930 H 2138.06 5.46664 -2.72012 0
M  V30 22931 H 2139.48 3.81497 -4.27941 0
M  V30 22932 H 2137.88 3.39378 -4.94917 0
M  V30 22933 H 2138.95 2.10514 -4.3682 0
M  V30 22934 N 2140.29 1.34929 0.814366 0
M  V30 22935 C 2141.57 1.18339 1.55741 0
M  V30 22936 C 2141.95 -0.240616 2.09724 0
M  V30 22937 O 2141.29 -1.2431 1.91727 0
M  V30 22938 C 2141.5 2.24503 2.67206 0
M  V30 22939 C 2142.85 2.59917 3.35751 0
M  V30 22940 O 2143.88 2.23358 2.7747 0
M  V30 22941 O 2142.73 3.22749 4.41017 0
M  V30 22942 H 2139.83 0.459265 0.687753 0
M  V30 22943 H 2142.37 1.46587 0.854999 0
M  V30 22944 H 2141.15 3.20048 2.25133 0
M  V30 22945 H 2140.77 1.9748 3.4509 0
M  V30 22946 N 2141.77 -1.0356 1.18799 0
M  V30 22947 C 2142.71 -2.11687 0.919622 0
M  V30 22948 C 2143.68 -1.65484 -0.142958 0
M  V30 22949 O 2144.87 -1.908 -0.00223972 0
M  V30 22950 C 2142.01 -3.4206 0.457036 0
M  V30 22951 C 2141.12 -4.01848 1.58562 0
M  V30 22952 C 2140.26 -5.20204 1.07524 0
M  V30 22953 C 2139.3 -5.72033 2.17817 0
M  V30 22954 N 2138.43 -6.8167 1.68136 0
M  V30 22955 H 2143.27 -2.33981 1.84546 0
M  V30 22956 H 2140.81 -1.14766 0.920172 0
M  V30 22957 H 2142.77 -4.16852 0.170279 0
M  V30 22958 H 2141.4 -3.19899 -0.431815 0
M  V30 22959 H 2140.45 -3.24335 1.98774 0
M  V30 22960 H 2141.76 -4.36338 2.41684 0
M  V30 22961 H 2140.92 -6.02129 0.743314 0
M  V30 22962 H 2139.65 -4.87232 0.213672 0
M  V30 22963 H 2138.66 -4.88725 2.51849 0
M  V30 22964 H 2139.88 -6.07047 3.04418 0
M  V30 22965 H 2137.83 -6.50564 0.842764 0
M  V30 22966 H 2137.75 -7.15251 2.44852 0
M  V30 22967 H 2139.02 -7.67208 1.37886 0
M  V30 22968 N 2143.25 -0.990834 -1.22557 0
M  V30 22969 C 2144.49 -0.666519 -1.91534 0
M  V30 22970 C 2144.82 0.799165 -1.76994 0
M  V30 22971 O 2144.1 1.57769 -1.13751 0
M  V30 22972 C 2144.38 -1.07064 -3.43816 0
M  V30 22973 C 2144.24 -2.59473 -3.67415 0
M  V30 22974 C 2145.55 -0.622332 -4.35678 0
M  V30 22975 H 2142.67 -0.243613 -0.695573 0
M  V30 22976 H 2145.32 -1.23399 -1.44474 0
M  V30 22977 H 2143.47 -0.587797 -3.84028 0
M  V30 22978 H 2145.14 -3.15412 -3.3662 0
M  V30 22979 H 2143.38 -3.01635 -3.11767 0
M  V30 22980 H 2144.05 -2.828 -4.74055 0
M  V30 22981 H 2146.53 -1.03704 -4.0297 0
M  V30 22982 H 2145.4 -0.933416 -5.40905 0
M  V30 22983 H 2145.66 0.477057 -4.39519 0
M  V30 22984 N 2144.72 1.37856 -0.763775 0
M  V30 22985 C 2145.95 2.04686 -0.334395 0
M  V30 22986 C 2146.37 1.57229 1.0325 0
M  V30 22987 O 2145.73 0.728884 1.66003 0
M  V30 22988 C 2145.78 3.58616 -0.377715 0
M  V30 22989 O 2144.88 4.07641 0.624687 0
M  V30 22990 H 2144.22 0.647714 -0.146161 0
M  V30 22991 H 2146.75 1.76329 -1.03774 0
M  V30 22992 H 2146.76 4.07339 -0.232185 0
M  V30 22993 H 2145.44 3.92514 -1.37496 0
M  V30 22994 H 2144.02 3.7026 0.442931 0
M  V30 22995 N 2146.2 0.513665 1.48994 0
M  V30 22996 C 2147.15 -0.277482 2.26305 0
M  V30 22997 C 2148.14 -0.924386 1.31696 0
M  V30 22998 O 2149.33 -0.82989 1.56339 0
M  V30 22999 C 2146.46 -1.33373 3.16333 0
M  V30 23000 C 2145.54 -0.692431 4.18409 0
M  V30 23001 N 2145.93 0.212349 5.05354 0
M  V30 23002 C 2144.23 -0.951551 4.35731 0
M  V30 23003 C 2144.93 0.580703 5.78794 0
M  V30 23004 N 2143.91 -0.0543856 5.43573 0
M  V30 23005 H 2147.71 0.418832 2.909 0
M  V30 23006 H 2145.22 0.330585 1.59 0
M  V30 23007 H 2147.22 -1.91407 3.70363 0
M  V30 23008 H 2145.88 -2.03159 2.53292 0
M  V30 23009 H 2146.89 0.583957 5.14597 0
M  V30 23010 H 2143.57 -1.64121 3.83889 0
M  V30 23011 H 2144.96 1.32165 6.58773 0
M  V30 23012 N 2147.68 -1.55636 0.248053 0
M  V30 23013 C 2148.9 -2.03825 -0.383439 0
M  V30 23014 C 2149.33 -1.12611 -1.50666 0
M  V30 23015 O 2148.69 -0.119296 -1.80907 0
M  V30 23016 C 2148.74 -3.5001 -0.86748 0
M  V30 23017 O 2147.84 -3.61925 -1.97696 0
M  V30 23018 H 2147.18 -0.65874 -0.0834089 0
M  V30 23019 H 2149.71 -2.01144 0.374447 0
M  V30 23020 H 2149.72 -3.90853 -1.17039 0
M  V30 23021 H 2148.4 -4.15875 -0.0455341 0
M  V30 23022 H 2146.97 -3.3298 -1.67866 0
M  V30 23023 N 2149.16 0.0250451 -1.5758 0
M  V30 23024 C 2150.07 1.04128 -2.10225 0
M  V30 23025 C 2151.08 1.39367 -1.04178 0
M  V30 23026 O 2152.26 1.48605 -1.35936 0
M  V30 23027 C 2149.32 2.32208 -2.5745 0
M  V30 23028 C 2148.39 2.03512 -3.77996 0
M  V30 23029 C 2147.62 3.25486 -4.22959 0
M  V30 23030 O 2147.84 4.36301 -3.6742 0
M  V30 23031 O 2146.78 3.1095 -5.15358 0
M  V30 23032 H 2150.6 0.623859 -2.97223 0
M  V30 23033 H 2148.19 0.242286 -1.47422 0
M  V30 23034 H 2150.07 3.07498 -2.88137 0
M  V30 23035 H 2148.74 2.73237 -1.73561 0
M  V30 23036 H 2147.65 1.25777 -3.52322 0
M  V30 23037 H 2148.98 1.67337 -4.62882 0
M  V30 23038 N 2150.64 1.54769 0.297388 0
M  V30 23039 C 2151.91 1.64904 1.05195 0
M  V30 23040 C 2152.29 0.499658 2.05102 0
M  V30 23041 O 2151.64 -0.503202 2.2289 0
M  V30 23042 C 2151.85 3.03071 1.73058 0
M  V30 23043 C 2153.2 3.60007 2.25123 0
M  V30 23044 O 2154.22 3.05546 1.83085 0
M  V30 23045 O 2153.08 4.55371 3.02158 0
M  V30 23046 H 2150.18 0.668805 0.486444 0
M  V30 23047 H 2152.72 1.67113 0.295187 0
M  V30 23048 H 2151.49 3.78165 1.00534 0
M  V30 23049 H 2151.12 3.04655 2.55482 0
M  V30 23050 N 2152.11 -0.560755 1.47286 0
M  V30 23051 C 2153.39 -1.32148 1.4421 0
M  V30 23052 C 2153.77 -2.10654 0.137154 0
M  V30 23053 O 2153.12 -2.10818 -0.88136 0
M  V30 23054 C 2153.33 -2.22899 2.68546 0
M  V30 23055 C 2154.68 -2.84031 3.15613 0
M  V30 23056 O 2155.7 -2.33202 2.69249 0
M  V30 23057 O 2154.56 -3.76408 3.96206 0
M  V30 23058 H 2151.65 -0.594853 0.574525 0
M  V30 23059 H 2154.2 -0.579952 1.59482 0
M  V30 23060 H 2152.97 -1.64465 3.55059 0
M  V30 23061 H 2152.59 -3.04353 2.55842 0
M  V30 23062 N 2153.59 -1.35359 -0.807199 0
M  V30 23063 C 2154.83 -1.29962 -1.57763 0
M  V30 23064 C 2155.2 0.124572 -1.91595 0
M  V30 23065 O 2156.4 0.302903 -2.67088 0
M  V30 23066 C 2154.67 -2.18018 -2.83202 0
M  V30 23067 S 2156.23 -2.3013 -3.73611 0
M  V30 23068 H 2153.04 -0.461874 -0.540549 0
M  V30 23069 H 2155.65 -1.70743 -0.952207 0
M  V30 23070 H 2154.35 -3.20473 -2.56369 0
M  V30 23071 H 2153.88 -1.78191 -3.5073 0
M  V30 23072 H 2155.9 -1.48567 -4.73437 0
M  V30 23073 N 2155.07 1.02928 -1.19346 0
M  V30 23074 C 2156 2.13099 -0.954528 0
M  V30 23075 C 2156.98 1.69731 0.111965 0
M  V30 23076 O 2158.17 1.94152 -0.0429718 0
M  V30 23077 C 2155.3 3.43798 -0.491955 0
M  V30 23078 C 2154.25 4.00845 -1.50024 0
M  V30 23079 C 2153.58 5.2716 -0.894759 0
M  V30 23080 C 2154.88 4.35699 -2.88035 0
M  V30 23081 H 2156.57 2.33345 -1.87592 0
M  V30 23082 H 2154.12 1.1214 -0.903366 0
M  V30 23083 H 2156.07 4.20243 -0.312095 0
M  V30 23084 H 2154.79 3.23272 0.46503 0
M  V30 23085 H 2153.45 3.26495 -1.66724 0
M  V30 23086 H 2153.1 5.02952 0.0697668 0
M  V30 23087 H 2152.8 5.66291 -1.56805 0
M  V30 23088 H 2154.32 6.06272 -0.725685 0
M  V30 23089 H 2155.74 5.03083 -2.7492 0
M  V30 23090 H 2154.13 4.8591 -3.52152 0
M  V30 23091 H 2155.2 3.45019 -3.4072 0
M  V30 23092 N 2156.55 0.997319 1.2203 0
M  V30 23093 C 2157.51 0.556352 2.22345 0
M  V30 23094 C 2158.51 -0.363165 1.56645 0
M  V30 23095 O 2159.7 -0.154511 1.73513 0
M  V30 23096 C 2156.83 -0.190172 3.40369 0
M  V30 23097 H 2158.03 1.44355 2.62872 0
M  V30 23098 H 2155.58 0.784999 1.35157 0
M  V30 23099 H 2156.31 -1.09315 3.05321 0
M  V30 23100 H 2156.1 0.470115 3.89272 0
M  V30 23101 H 2157.59 -0.486708 4.14754 0
M  V30 23102 N 2158.03 -1.37449 0.771075 0
M  V30 23103 C 2159.27 -1.99708 0.335092 0
M  V30 23104 C 2159.6 -1.6121 -1.08819 0
M  V30 23105 O 2158.86 -0.849533 -1.76299 0
M  V30 23106 C 2159.16 -3.54862 0.425162 0
M  V30 23107 C 2158.82 -4.13126 1.8066 0
M  V30 23108 C 2157.48 -4.28752 2.18462 0
M  V30 23109 C 2159.84 -4.45085 2.71198 0
M  V30 23110 C 2157.16 -4.7364 3.4624 0
M  V30 23111 C 2159.52 -4.91398 3.98385 0
M  V30 23112 C 2158.18 -5.0523 4.36233 0
M  V30 23113 H 2157.45 -0.730784 0.122619 0
M  V30 23114 H 2160.1 -1.64227 0.984968 0
M  V30 23115 H 2158.4 -3.90585 -0.308255 0
M  V30 23116 H 2160.1 -4.0094 0.0691372 0
M  V30 23117 H 2156.69 -4.0139 1.50279 0
M  V30 23118 H 2160.87 -4.32599 2.43253 0
M  V30 23119 H 2156.13 -4.82535 3.75459 0
M  V30 23120 H 2160.3 -5.15094 4.68669 0
M  V30 23121 H 2157.93 -5.39772 5.35304 0
M  V30 23122 N 2159.5 -0.52156 -1.4872 0
M  V30 23123 C 2160.45 0.2458 -2.29487 0
M  V30 23124 C 2161.42 0.941571 -1.36834 0
M  V30 23125 O 2162.61 0.944239 -1.65797 0
M  V30 23126 C 2159.75 1.2919 -3.20006 0
M  V30 23127 C 2158.86 0.605827 -4.27731 0
M  V30 23128 C 2157.99 1.63413 -5.0544 0
M  V30 23129 C 2157.03 0.931058 -6.04977 0
M  V30 23130 N 2156.17 1.90451 -6.75776 0
M  V30 23131 H 2161.01 -0.449151 -2.94596 0
M  V30 23132 H 2158.55 -0.233338 -1.45238 0
M  V30 23133 H 2160.51 1.91062 -3.70879 0
M  V30 23134 H 2159.14 1.95534 -2.56839 0
M  V30 23135 H 2158.19 -0.126644 -3.80189 0
M  V30 23136 H 2159.5 0.0533786 -4.98771 0
M  V30 23137 H 2158.65 2.32736 -5.60285 0
M  V30 23138 H 2157.39 2.22047 -4.3422 0
M  V30 23139 H 2156.4 0.223716 -5.49345 0
M  V30 23140 H 2157.62 0.350949 -6.78193 0
M  V30 23141 H 2155.57 2.48008 -6.07312 0
M  V30 23142 H 2155.49 1.40328 -7.42862 0
M  V30 23143 H 2156.75 2.58999 -7.35214 0
M  V30 23144 N 2160.98 1.55502 -0.256304 0
M  V30 23145 C 2162.23 1.99463 0.366354 0
M  V30 23146 C 2162.56 1.14436 1.56902 0
M  V30 23147 O 2161.84 0.209944 1.93364 0
M  V30 23148 C 2162.12 3.51836 0.767016 0
M  V30 23149 C 2161.97 4.47626 -0.441687 0
M  V30 23150 C 2163.29 4.09574 1.61051 0
M  V30 23151 H 2160.41 0.72514 0.131688 0
M  V30 23152 H 2163.05 1.86568 -0.359494 0
M  V30 23153 H 2161.2 3.62956 1.38546 0
M  V30 23154 H 2162.87 4.48475 -1.08018 0
M  V30 23155 H 2161.12 4.2006 -1.08313 0
M  V30 23156 H 2161.79 5.51874 -0.117869 0
M  V30 23157 H 2164.26 4.01614 1.08838 0
M  V30 23158 H 2163.14 5.16436 1.85969 0
M  V30 23159 H 2163.4 3.58619 2.58544 0
M  V30 23160 N 2162.46 -0.0166879 1.57591 0
M  V30 23161 C 2163.41 -1.02157 2.03833 0
M  V30 23162 C 2164.39 -1.31307 0.929912 0
M  V30 23163 O 2165.59 -1.30684 1.19376 0
M  V30 23164 C 2162.72 -2.31886 2.53148 0
M  V30 23165 C 2161.8 -2.05772 3.70835 0
M  V30 23166 N 2162.19 -1.49759 4.83121 0
M  V30 23167 C 2160.49 -2.35997 3.78446 0
M  V30 23168 C 2161.19 -1.39734 5.64667 0
M  V30 23169 N 2160.17 -1.87721 5.10159 0
M  V30 23170 H 2163.97 -0.582705 2.88066 0
M  V30 23171 H 2161.48 -0.22274 1.60865 0
M  V30 23172 H 2163.48 -3.04698 2.84543 0
M  V30 23173 H 2162.14 -2.76439 1.70327 0
M  V30 23174 H 2163.15 -1.17862 5.0431 0
M  V30 23175 H 2159.83 -2.83541 3.06449 0
M  V30 23176 H 2161.22 -0.968112 6.64889 0
M  V30 23177 N 2163.94 -1.54924 -0.289176 0
M  V30 23178 C 2164.87 -1.8308 -1.37892 0
M  V30 23179 C 2165.88 -0.714368 -1.4629 0
M  V30 23180 O 2167.07 -0.992012 -1.48396 0
M  V30 23181 C 2164.17 -1.96434 -2.76165 0
M  V30 23182 C 2163.35 -3.26949 -2.90557 0
M  V30 23183 C 2162.4 -3.3057 -4.09402 0
M  V30 23184 O 2161.43 -4.04038 -4.00926 0
M  V30 23185 N 2162.63 -2.56808 -5.20605 0
M  V30 23186 H 2165.4 -2.77135 -1.1409 0
M  V30 23187 H 2162.96 -1.54643 -0.479271 0
M  V30 23188 H 2164.95 -1.96244 -3.53935 0
M  V30 23189 H 2163.52 -1.0932 -2.92862 0
M  V30 23190 H 2162.74 -3.39813 -1.99802 0
M  V30 23191 H 2164.03 -4.13054 -2.97092 0
M  V30 23192 H 2163.43 -1.96772 -5.30375 0
M  V30 23193 H 2161.98 -2.6236 -5.96666 0
M  V30 23194 N 2165.42 0.552936 -1.47582 0
M  V30 23195 C 2166.65 1.33329 -1.5782 0
M  V30 23196 C 2167.05 1.87809 -0.228975 0
M  V30 23197 O 2166.4 1.65914 0.788562 0
M  V30 23198 C 2166.46 2.53716 -2.54693 0
M  V30 23199 C 2166.12 2.2049 -4.00291 0
M  V30 23200 C 2167.12 1.77528 -4.88651 0
M  V30 23201 C 2164.81 2.31718 -4.45659 0
M  V30 23202 C 2166.8 1.46229 -6.204 0
M  V30 23203 C 2164.49 2.00031 -5.77435 0
M  V30 23204 C 2165.48 1.57355 -6.64627 0
M  V30 23205 O 2165.17 1.26073 -7.93953 0
M  V30 23206 H 2164.9 0.412583 -0.535492 0
M  V30 23207 H 2167.46 0.676216 -1.9395 0
M  V30 23208 H 2165.69 3.22328 -2.13639 0
M  V30 23209 H 2167.38 3.1579 -2.55012 0
M  V30 23210 H 2168.14 1.68343 -4.54847 0
M  V30 23211 H 2164.02 2.63894 -3.77996 0
M  V30 23212 H 2167.57 1.12845 -6.88412 0
M  V30 23213 H 2163.46 2.0885 -6.1078 0
M  V30 23214 H 2164.23 1.39667 -8.06496 0
M  V30 23215 N 2166.89 1.35785 0.800009 0
M  V30 23216 C 2168.14 1.29425 1.55741 0
M  V30 23217 C 2168.47 -0.129487 1.94068 0
M  V30 23218 O 2167.72 -1.09631 1.6211 0
M  V30 23219 C 2168.02 2.15261 2.85302 0
M  V30 23220 C 2167.69 3.63962 2.66162 0
M  V30 23221 C 2166.35 4.04493 2.60651 0
M  V30 23222 C 2168.7 4.58288 2.48238 0
M  V30 23223 C 2166.03 5.37507 2.35166 0
M  V30 23224 C 2168.38 5.91507 2.24281 0
M  V30 23225 C 2167.05 6.31175 2.17195 0
M  V30 23226 H 2166.32 0.473601 0.569898 0
M  V30 23227 H 2168.96 1.67742 0.923842 0
M  V30 23228 H 2167.27 1.69846 3.53071 0
M  V30 23229 H 2168.97 2.07672 3.43036 0
M  V30 23230 H 2165.56 3.31802 2.71303 0
M  V30 23231 H 2169.74 4.27854 2.51504 0
M  V30 23232 H 2165 5.67235 2.28154 0
M  V30 23233 H 2169.17 6.64171 2.09403 0
M  V30 23234 H 2166.8 7.34175 1.9721 0
M  V30 23235 N 2168.37 -1.02294 1.19891 0
M  V30 23236 C 2169.32 -2.12815 0.938741 0
M  V30 23237 C 2170.31 -1.69058 -0.107611 0
M  V30 23238 O 2171.52 -1.79951 0.042175 0
M  V30 23239 H 2167.9 -0.695408 0.286203 0
M  V30 23240 H 2169.87 -2.31946 1.87732 0
M  V30 23241 C 2168.62 -3.4408 0.500448 0
M  V30 23242 H 2167.94 -3.78172 1.29716 0
M  V30 23243 H 2169.38 -4.2249 0.357569 0
M  V30 23244 C 2167.84 -3.27596 -0.786307 0
M  V30 23245 O 2168.37 -3.56756 -1.84629 0
M  V30 23246 N 2166.57 -2.80865 -0.745861 0
M  V30 23247 H 2166.12 -2.57334 0.116994 0
M  V30 23248 H 2166.08 -2.70217 -1.60718 0
M  V30 23249 N 2169.85 -1.00378 -1.21499 0
M  V30 23250 C 2171.1 -0.686796 -1.90817 0
M  V30 23251 C 2171.43 0.780348 -1.77832 0
M  V30 23252 O 2170.7 1.56554 -1.15418 0
M  V30 23253 C 2170.99 -1.10705 -3.42661 0
M  V30 23254 C 2170.84 -2.63355 -3.64642 0
M  V30 23255 C 2172.16 -0.668506 -4.34993 0
M  V30 23256 H 2169.28 -0.250976 -0.69295 0
M  V30 23257 H 2171.92 -1.24924 -1.43157 0
M  V30 23258 H 2170.07 -0.628496 -3.83383 0
M  V30 23259 H 2171.74 -3.18964 -3.33256 0
M  V30 23260 H 2169.99 -3.04925 -3.0855 0
M  V30 23261 H 2170.66 -2.87812 -4.71029 0
M  V30 23262 H 2173.13 -1.07972 -4.01847 0
M  V30 23263 H 2172.01 -0.990733 -5.39885 0
M  V30 23264 H 2172.27 0.430413 -4.4 0
M  V30 23265 N 2171.33 1.37038 -0.778354 0
M  V30 23266 C 2172.24 2.33983 -0.170042 0
M  V30 23267 C 2173.25 1.60504 0.671902 0
M  V30 23268 O 2174.43 1.92556 0.590278 0
M  V30 23269 C 2171.5 3.39689 0.693729 0
M  V30 23270 C 2170.56 4.28981 -0.165434 0
M  V30 23271 C 2169.79 5.29638 0.657205 0
M  V30 23272 O 2170.01 5.38041 1.8939 0
M  V30 23273 O 2168.95 6.01867 0.0629255 0
M  V30 23274 H 2172.77 2.87749 -0.97131 0
M  V30 23275 H 2170.36 1.39314 -0.53962 0
M  V30 23276 H 2172.24 4.04348 1.18664 0
M  V30 23277 H 2170.91 2.8824 1.47307 0
M  V30 23278 H 2169.82 3.674 -0.704851 0
M  V30 23279 H 2171.15 4.83752 -0.908023 0
M  V30 23280 N 2172.81 0.529439 1.48441 0
M  V30 23281 C 2173.74 -0.222417 2.32438 0
M  V30 23282 C 2174.72 -0.935598 1.42058 0
M  V30 23283 O 2175.9 -0.921483 1.70945 0
M  V30 23284 C 2173.03 -1.27012 3.23242 0
M  V30 23285 C 2171.99 -0.675114 4.22642 0
M  V30 23286 C 2171.31 -1.82543 5.02576 0
M  V30 23287 C 2172.61 0.352815 5.21107 0
M  V30 23288 H 2174.31 0.478777 2.95547 0
M  V30 23289 H 2171.85 0.231695 1.42124 0
M  V30 23290 H 2173.81 -1.80405 3.80831 0
M  V30 23291 H 2172.53 -2.00089 2.58132 0
M  V30 23292 H 2171.19 -0.162711 3.66239 0
M  V30 23293 H 2170.84 -2.54456 4.33891 0
M  V30 23294 H 2170.54 -1.43323 5.69853 0
M  V30 23295 H 2172.06 -2.36315 5.63017 0
M  V30 23296 H 2173.48 -0.0940075 5.73223 0
M  V30 23297 H 2171.87 0.662368 5.96433 0
M  V30 23298 H 2172.94 1.25877 4.68277 0
M  V30 23299 N 2174.29 -1.55364 0.264547 0
M  V30 23300 C 2175.53 -1.98537 -0.355827 0
M  V30 23301 C 2175.85 -1.15624 -1.57767 0
M  V30 23302 O 2177.05 -1.48892 -2.27032 0
M  V30 23303 C 2175.51 -3.53332 -0.684446 0
M  V30 23304 C 2175.12 -4.45007 0.516993 0
M  V30 23305 C 2176.86 -4.05119 -1.26803 0
M  V30 23306 C 2174.77 -5.91174 0.163548 0
M  V30 23307 H 2173.7 -0.7415 -0.136725 0
M  V30 23308 H 2176.35 -1.79782 0.367539 0
M  V30 23309 H 2174.73 -3.67848 -1.46643 0
M  V30 23310 H 2175.91 -4.42256 1.29406 0
M  V30 23311 H 2174.22 -4.03797 1.0167 0
M  V30 23312 H 2176.82 -5.11859 -1.5461 0
M  V30 23313 H 2177.16 -3.53519 -2.19841 0
M  V30 23314 H 2177.69 -3.93999 -0.548571 0
M  V30 23315 H 2174.43 -6.46848 1.06153 0
M  V30 23316 H 2173.95 -5.97019 -0.576966 0
M  V30 23317 H 2175.63 -6.46524 -0.248012 0
M  V30 23318 N 2175.76 0.00833021 -1.57598 0
M  V30 23319 C 2176.7 1.03042 -2.04732 0
M  V30 23320 C 2177.71 1.31209 -0.96374 0
M  V30 23321 O 2178.9 1.28332 -1.24069 0
M  V30 23322 C 2176 2.36718 -2.42523 0
M  V30 23323 C 2175.17 2.2761 -3.73513 0
M  V30 23324 C 2174.23 3.43906 -3.98265 0
M  V30 23325 O 2173.26 3.22467 -4.69045 0
M  V30 23326 N 2174.46 4.66478 -3.45512 0
M  V30 23327 H 2177.22 0.628522 -2.93035 0
M  V30 23328 H 2174.78 0.19588 -1.60711 0
M  V30 23329 H 2176.78 3.13277 -2.56203 0
M  V30 23330 H 2175.35 2.68679 -1.59782 0
M  V30 23331 H 2174.57 1.36016 -3.69991 0
M  V30 23332 H 2175.85 2.18689 -4.59405 0
M  V30 23333 H 2175.25 4.86795 -2.88179 0
M  V30 23334 H 2173.81 5.40331 -3.64535 0
M  V30 23335 N 2177.24 1.55075 0.280956 0
M  V30 23336 C 2178.65 1.66097 0.852571 0
M  V30 23337 C 2179 0.582747 1.87346 0
M  V30 23338 O 2178.13 -0.277166 2.14618 0
M  V30 23339 C 2178.72 3.01102 1.55317 0
M  V30 23340 C 2177.28 3.14177 2.07292 0
M  V30 23341 C 2176.43 2.61864 0.912278 0
M  V30 23342 H 2179.38 1.58596 0.0574834 0
M  V30 23343 H 2179.4 2.93646 2.41976 0
M  V30 23344 H 2178.91 3.79555 0.809903 0
M  V30 23345 H 2177.01 2.40482 2.84604 0
M  V30 23346 H 2177.13 4.20627 2.29369 0
M  V30 23347 H 2175.49 2.1882 1.30345 0
M  V30 23348 H 2176.27 3.42814 0.18265 0
M  V30 23349 N 2178.72 -0.545102 1.47873 0
M  V30 23350 C 2179.97 -1.29914 1.54812 0
M  V30 23351 C 2180.29 -1.93786 0.217214 0
M  V30 23352 O 2179.56 -1.80559 -0.759941 0
M  V30 23353 H 2178.14 -0.482471 0.57029 0
M  V30 23354 H 2180.8 -0.635565 1.84246 0
M  V30 23355 H 2179.9 -2.08635 2.32116 0
M  V30 23356 N 2180.2 -1.36208 -0.792797 0
M  V30 23357 C 2181.16 -1.30111 -1.88689 0
M  V30 23358 C 2182.16 -0.209535 -1.59429 0
M  V30 23359 O 2183.35 -0.464108 -1.67904 0
M  V30 23360 C 2180.48 -1.01615 -3.25403 0
M  V30 23361 H 2181.68 -2.2741 -1.95511 0
M  V30 23362 H 2179.23 -1.20931 -0.990219 0
M  V30 23363 H 2179.96 -0.0476043 -3.24265 0
M  V30 23364 H 2179.75 -1.80604 -3.48029 0
M  V30 23365 H 2181.24 -0.999458 -4.05463 0
M  V30 23366 N 2181.68 1.01656 -1.20431 0
M  V30 23367 C 2182.92 1.75515 -1.016 0
M  V30 23368 C 2183.25 1.88896 0.450791 0
M  V30 23369 O 2182.53 1.4148 1.33468 0
M  V30 23370 C 2182.81 3.17433 -1.70024 0
M  V30 23371 C 2182.67 3.11847 -3.24147 0
M  V30 23372 C 2183.98 4.16105 -1.43334 0
M  V30 23373 H 2181.1 0.637102 -0.370501 0
M  V30 23374 H 2183.75 1.18591 -1.48446 0
M  V30 23375 H 2181.9 3.66035 -1.30195 0
M  V30 23376 H 2183.57 2.71049 -3.7327 0
M  V30 23377 H 2181.81 2.49242 -3.55051 0
M  V30 23378 H 2182.48 4.12169 -3.6718 0
M  V30 23379 H 2184.96 3.76159 -1.77887 0
M  V30 23380 H 2183.83 5.13571 -1.93741 0
M  V30 23381 H 2184.09 4.40624 -0.360952 0
M  V30 23382 N 2183.15 1.01021 1.20965 0
M  V30 23383 C 2184.1 0.575015 2.23522 0
M  V30 23384 C 2185.07 -0.401609 1.61172 0
M  V30 23385 O 2186.26 -0.302487 1.88387 0
M  V30 23386 C 2183.4 -0.0869827 3.4499 0
M  V30 23387 C 2182.51 0.933442 4.21795 0
M  V30 23388 C 2181.64 0.243164 5.30643 0
M  V30 23389 C 2180.68 1.25078 5.99184 0
M  V30 23390 N 2179.82 0.587617 6.99637 0
M  V30 23391 H 2184.66 1.45423 2.60108 0
M  V30 23392 H 2182.2 0.728091 1.27817 0
M  V30 23393 H 2184.15 -0.487872 4.14338 0
M  V30 23394 H 2182.78 -0.929881 3.09117 0
M  V30 23395 H 2181.84 1.45254 3.51576 0
M  V30 23396 H 2183.15 1.70003 4.68936 0
M  V30 23397 H 2182.3 -0.213561 6.06324 0
M  V30 23398 H 2181.04 -0.555781 4.84523 0
M  V30 23399 H 2180.05 1.71796 5.2227 0
M  V30 23400 H 2181.27 2.0509 6.47391 0
M  V30 23401 H 2179.22 -0.191575 6.5572 0
M  V30 23402 H 2179.13 1.29237 7.44872 0
M  V30 23403 H 2180.4 0.154271 7.79347 0
M  V30 23404 N 2184.63 -1.36623 0.78561 0
M  V30 23405 C 2185.88 -1.99637 0.356782 0
M  V30 23406 C 2186.21 -1.62212 -1.06775 0
M  V30 23407 O 2185.49 -0.875041 -1.73705 0
M  V30 23408 C 2185.77 -3.56381 0.516214 0
M  V30 23409 C 2185.62 -4.03672 1.98417 0
M  V30 23410 C 2186.94 -4.40043 -0.0710792 0
M  V30 23411 H 2184.06 -0.725244 0.13111 0
M  V30 23412 H 2186.7 -1.62094 0.99124 0
M  V30 23413 H 2184.85 -3.88493 -0.023898 0
M  V30 23414 H 2186.52 -3.82064 2.58505 0
M  V30 23415 H 2184.77 -3.55352 2.48812 0
M  V30 23416 H 2185.44 -5.12654 2.0467 0
M  V30 23417 H 2187.91 -4.14269 0.389931 0
M  V30 23418 H 2186.79 -5.48855 0.070524 0
M  V30 23419 H 2187.05 -4.26534 -1.16281 0
M  V30 23420 N 2186.11 -0.537304 -1.48158 0
M  V30 23421 C 2187.34 -0.0101335 -2.06598 0
M  V30 23422 C 2187.75 1.28007 -1.39323 0
M  V30 23423 O 2187.09 1.77398 -0.477051 0
M  V30 23424 C 2187.15 0.276882 -3.58432 0
M  V30 23425 C 2186.82 -0.920926 -4.47625 0
M  V30 23426 C 2187.81 -1.82128 -4.86955 0
M  V30 23427 C 2185.5 -1.12999 -4.89425 0
M  V30 23428 C 2187.49 -2.91454 -5.66863 0
M  V30 23429 C 2185.18 -2.22637 -5.69101 0
M  V30 23430 C 2186.18 -3.11697 -6.07729 0
M  V30 23431 O 2185.87 -4.19438 -6.85804 0
M  V30 23432 H 2185.6 -0.0337217 -0.675158 0
M  V30 23433 H 2188.15 -0.744491 -1.91433 0
M  V30 23434 H 2186.38 1.0653 -3.71737 0
M  V30 23435 H 2188.07 0.747018 -3.98967 0
M  V30 23436 H 2188.84 -1.67173 -4.55278 0
M  V30 23437 H 2184.72 -0.446033 -4.58837 0
M  V30 23438 H 2188.26 -3.60995 -5.96932 0
M  V30 23439 H 2184.16 -2.37573 -6.00191 0
M  V30 23440 H 2184.92 -4.17238 -7.0417 0
M  V30 23441 N 2187.59 1.55221 -0.272782 0
M  V30 23442 C 2188.55 2.21137 0.602593 0
M  V30 23443 C 2189.55 1.1885 1.08311 0
M  V30 23444 O 2190.74 1.4377 0.983663 0
M  V30 23445 C 2187.87 2.87548 1.8311 0
M  V30 23446 H 2189.07 2.99888 0.0271068 0
M  V30 23447 H 2186.62 1.56283 -0.0233836 0
M  V30 23448 H 2187.35 2.12802 2.44716 0
M  V30 23449 H 2187.14 3.62502 1.49449 0
M  V30 23450 H 2188.63 3.37914 2.45365 0
M  V30 23451 N 2189.07 2.77022e-05 1.576 0
M  V30 23452 C 2190.3 -0.69479 1.94567 0
M  V30 23453 C 2190.7 -1.67836 0.873374 0
M  V30 23454 O 2190.05 -1.83034 -0.156298 0
M  V30 23455 C 2190.11 -1.48224 3.27521 0
M  V30 23456 C 2189.77 -0.660251 4.52205 0
M  V30 23457 C 2190.77 0.0520805 5.19874 0
M  V30 23458 C 2188.46 -0.606213 4.98628 0
M  V30 23459 C 2190.45 0.807435 6.32265 0
M  V30 23460 C 2188.14 0.152866 6.10909 0
M  V30 23461 C 2189.13 0.858424 6.77584 0
M  V30 23462 O 2188.82 1.60512 7.87713 0
M  V30 23463 H 2188.55 -0.198468 0.646209 0
M  V30 23464 H 2191.11 0.0472739 2.05346 0
M  V30 23465 H 2189.34 -2.26878 3.1315 0
M  V30 23466 H 2191.03 -2.0624 3.496 0
M  V30 23467 H 2191.79 0.0194852 4.84996 0
M  V30 23468 H 2187.67 -1.14492 4.46556 0
M  V30 23469 H 2191.22 1.35868 6.84241 0
M  V30 23470 H 2187.11 0.187282 6.45228 0
M  V30 23471 H 2187.88 1.52183 8.04228 0
M  V30 23472 N 2190.54 -1.55222 -0.272728 0
M  V30 23473 C 2191.77 -1.79606 -1.02104 0
M  V30 23474 C 2192.18 -0.569725 -1.80418 0
M  V30 23475 O 2191.53 0.470712 -1.77567 0
M  V30 23476 C 2191.59 -2.96926 -2.0267 0
M  V30 23477 C 2191.25 -4.33955 -1.43291 0
M  V30 23478 C 2192.25 -5.1293 -0.84844 0
M  V30 23479 C 2189.93 -4.80613 -1.46003 0
M  V30 23480 C 2191.93 -6.36698 -0.298997 0
M  V30 23481 C 2189.61 -6.04336 -0.906727 0
M  V30 23482 C 2190.61 -6.82216 -0.32721 0
M  V30 23483 O 2190.3 -8.03605 0.217621 0
M  V30 23484 H 2190.03 -0.602109 -0.307311 0
M  V30 23485 H 2192.59 -2.03065 -0.308827 0
M  V30 23486 H 2190.82 -2.69159 -2.77651 0
M  V30 23487 H 2192.51 -3.08631 -2.63632 0
M  V30 23488 H 2193.27 -4.78015 -0.820181 0
M  V30 23489 H 2189.15 -4.20003 -1.90049 0
M  V30 23490 H 2192.69 -6.9743 0.153975 0
M  V30 23491 H 2188.59 -6.38733 -0.932227 0
M  V30 23492 H 2189.36 -8.1843 0.107007 0
M  V30 23493 N 2192.02 0.537252 -1.4816 0
M  V30 23494 C 2192.97 1.66349 -1.62575 0
M  V30 23495 C 2193.96 1.62086 -0.492394 0
M  V30 23496 O 2195.17 1.67031 -0.670876 0
M  V30 23497 H 2191.55 0.55078 -0.512001 0
M  V30 23498 H 2193.52 1.51332 -2.57179 0
M  V30 23499 C 2192.27 3.04646 -1.67589 0
M  V30 23500 H 2191.59 3.08617 -2.54156 0
M  V30 23501 H 2193.03 3.83085 -1.8172 0
M  V30 23502 C 2191.49 3.34358 -0.413097 0
M  V30 23503 O 2192.02 3.98856 0.477189 0
M  V30 23504 N 2190.22 2.89179 -0.287012 0
M  V30 23505 H 2189.77 2.3687 -1.01245 0
M  V30 23506 H 2189.73 3.09428 0.556909 0
M  V30 23507 N 2193.5 1.36626 0.785562 0
M  V30 23508 C 2194.43 1.33953 1.91256 0
M  V30 23509 C 2195.41 0.210355 1.68794 0
M  V30 23510 O 2196.6 0.408594 1.89853 0
M  V30 23511 C 2193.73 1.13191 3.28337 0
M  V30 23512 C 2192.68 2.22974 3.65331 0
M  V30 23513 C 2192.01 1.87351 5.00803 0
M  V30 23514 C 2193.31 3.65082 3.73514 0
M  V30 23515 H 2195 2.28257 1.93751 0
M  V30 23516 H 2192.55 1.09876 0.930768 0
M  V30 23517 H 2194.5 1.09955 4.06802 0
M  V30 23518 H 2193.22 0.15339 3.2624 0
M  V30 23519 H 2191.88 2.25342 2.89165 0
M  V30 23520 H 2191.53 0.880632 4.95231 0
M  V30 23521 H 2191.23 2.60855 5.26525 0
M  V30 23522 H 2192.75 1.85677 5.81684 0
M  V30 23523 H 2194.17 3.64919 4.42162 0
M  V30 23524 H 2192.57 4.37523 4.10723 0
M  V30 23525 H 2193.64 3.99708 2.7452 0
M  V30 23526 N 2194.98 -1.01016 1.20969 0
M  V30 23527 C 2195.89 -2.13142 0.980194 0
M  V30 23528 C 2196.9 -1.73875 -0.0660359 0
M  V30 23529 O 2198.08 -2.01025 0.122857 0
M  V30 23530 C 2195.15 -3.42434 0.54222 0
M  V30 23531 C 2194.21 -3.95905 1.66006 0
M  V30 23532 C 2193.44 -5.19026 1.24289 0
M  V30 23533 O 2193.66 -5.70285 0.114296 0
M  V30 23534 O 2192.6 -5.65812 2.05281 0
M  V30 23535 H 2196.42 -2.35376 1.91917 0
M  V30 23536 H 2194.01 -1.11524 0.994118 0
M  V30 23537 H 2195.89 -4.20276 0.307514 0
M  V30 23538 H 2194.56 -3.216 -0.368093 0
M  V30 23539 H 2193.47 -3.19312 1.94912 0
M  V30 23540 H 2194.8 -4.21139 2.54761 0
M  V30 23541 N 2196.46 -1.01661 -1.20428 0
M  V30 23542 C 2197.37 -0.596524 -2.26889 0
M  V30 23543 C 2198.38 0.365961 -1.70108 0
M  V30 23544 O 2199.56 0.226907 -2.00118 0
M  V30 23545 C 2196.62 0.058605 -3.4665 0
M  V30 23546 C 2195.68 -0.949824 -4.18661 0
M  V30 23547 C 2194.92 -0.325864 -5.32704 0
M  V30 23548 O 2195.14 0.87441 -5.63658 0
M  V30 23549 O 2194.07 -1.0426 -5.92801 0
M  V30 23550 H 2197.9 -1.48285 -2.65038 0
M  V30 23551 H 2195.49 -0.786105 -1.27046 0
M  V30 23552 H 2197.37 0.42449 -4.19257 0
M  V30 23553 H 2196.04 0.919125 -3.10377 0
M  V30 23554 H 2194.95 -1.36708 -3.48227 0
M  V30 23555 H 2196.28 -1.78031 -4.58875 0
M  V30 23556 N 2197.93 1.36205 -0.792844 0
M  V30 23557 C 2199.16 2.03931 -0.377737 0
M  V30 23558 C 2199.58 1.59384 0.998919 0
M  V30 23559 O 2198.94 0.763932 1.64419 0
M  V30 23560 C 2198.99 3.57734 -0.453698 0
M  V30 23561 O 2198.09 4.08875 0.538079 0
M  V30 23562 H 2197.44 0.644468 -0.159867 0
M  V30 23563 H 2199.97 1.74089 -1.07491 0
M  V30 23564 H 2199.98 4.06755 -0.318535 0
M  V30 23565 H 2198.65 3.8951 -1.45791 0
M  V30 23566 H 2197.23 3.71116 0.364294 0
M  V30 23567 N 2199.41 0.545154 1.47871 0
M  V30 23568 C 2200.65 0.0188213 2.04391 0
M  V30 23569 C 2201.02 -1.30141 1.41164 0
M  V30 23570 O 2202.22 -1.9147 1.8866 0
M  V30 23571 C 2200.49 -0.0850239 3.57299 0
M  V30 23572 S 2202.05 -0.559225 4.35222 0
M  V30 23573 H 2198.87 0.0193426 0.710737 0
M  V30 23574 H 2201.47 0.729157 1.81393 0
M  V30 23575 H 2200.17 0.880421 4.00845 0
M  V30 23576 H 2199.7 -0.81928 3.84774 0
M  V30 23577 H 2201.72 -1.8211 4.61574 0
M  V30 23578 N 2200.89 -1.55074 0.28101 0
M  V30 23579 C 2202.12 -2.04133 -0.337257 0
M  V30 23580 C 2202.53 -1.15915 -1.49028 0
M  V30 23581 O 2201.89 -0.180491 -1.81605 0
M  V30 23582 C 2201.94 -3.52248 -0.812644 0
M  V30 23583 O 2201.66 -4.37109 0.294464 0
M  V30 23584 C 2203.16 -4.17218 -1.49812 0
M  V30 23585 H 2200.38 -0.666665 -0.0761521 0
M  V30 23586 H 2202.93 -2.00249 0.414822 0
M  V30 23587 H 2201.08 -3.56557 -1.5148 0
M  V30 23588 H 2201.5 -5.24451 -0.0720403 0
M  V30 23589 H 2202.97 -5.22441 -1.78211 0
M  V30 23590 H 2203.45 -3.65745 -2.43161 0
M  V30 23591 H 2204.05 -4.16929 -0.839669 0
M  V30 23592 N 2202.37 -0.00838561 -1.57598 0
M  V30 23593 C 2203.79 0.347795 -1.55764 0
M  V30 23594 C 2203.99 1.7425 -1.01189 0
M  V30 23595 O 2203.04 2.44006 -0.649414 0
M  V30 23596 C 2204.35 0.215355 -2.99928 0
M  V30 23597 C 2205.9 0.289671 -3.11657 0
M  V30 23598 C 2206.38 0.186259 -4.57621 0
M  V30 23599 N 2207.87 0.243897 -4.62557 0
M  V30 23600 C 2208.6 0.187349 -5.73094 0
M  V30 23601 N 2208.1 0.0809113 -6.92753 0
M  V30 23602 N 2209.89 0.239827 -5.61588 0
M  V30 23603 H 2202.04 -0.920654 -1.9141 0
M  V30 23604 H 2204.31 -0.353675 -0.879556 0
M  V30 23605 H 2204.01 -0.744572 -3.43728 0
M  V30 23606 H 2203.89 0.994033 -3.63866 0
M  V30 23607 H 2206.27 1.24005 -2.67781 0
M  V30 23608 H 2206.35 -0.519024 -2.50479 0
M  V30 23609 H 2206 -0.760608 -5.02172 0
M  V30 23610 H 2205.93 1.01355 -5.16754 0
M  V30 23611 H 2208.42 0.327151 -3.76481 0
M  V30 23612 H 2208.73 0.0438883 -7.72788 0
M  V30 23613 H 2207.08 0.0464198 -6.94984 0
M  V30 23614 H 2210.27 0.321234 -4.66996 0
M  V30 23615 H 2210.44 0.192293 -6.47715 0
M  V30 23616 N 2203.85 1.55365 0.264492 0
M  V30 23617 C 2205.09 1.76371 0.994955 0
M  V30 23618 C 2205.42 0.569533 1.85975 0
M  V30 23619 O 2204.68 -0.447727 1.9051 0
M  V30 23620 C 2204.98 3.02691 1.90035 0
M  V30 23621 C 2204.64 4.34849 1.19236 0
M  V30 23622 C 2203.3 4.70766 0.996627 0
M  V30 23623 C 2205.66 5.16623 0.689206 0
M  V30 23624 C 2202.98 5.86007 0.285158 0
M  V30 23625 C 2205.34 6.32599 -0.00871199 0
M  V30 23626 C 2204 6.6715 -0.21608 0
M  V30 23627 H 2203.27 0.645389 0.36408 0
M  V30 23628 H 2205.92 1.89636 0.26651 0
M  V30 23629 H 2204.22 2.84362 2.69528 0
M  V30 23630 H 2205.92 3.16141 2.4669 0
M  V30 23631 H 2202.51 4.06623 1.35483 0
M  V30 23632 H 2206.69 4.89344 0.828022 0
M  V30 23633 H 2201.95 6.11294 0.113853 0
M  V30 23634 H 2206.12 6.95214 -0.406308 0
M  V30 23635 H 2203.75 7.56297 -0.76935 0
M  V30 23636 N 2205.33 -0.529387 1.48443 0
M  V30 23637 C 2206.56 -1.30801 1.59921 0
M  V30 23638 C 2206.96 -1.87421 0.258825 0
M  V30 23639 O 2206.31 -1.67147 -0.762066 0
M  V30 23640 C 2206.37 -2.49632 2.58697 0
M  V30 23641 C 2206.03 -2.14094 4.03748 0
M  V30 23642 C 2207.03 -1.69732 4.91413 0
M  V30 23643 C 2204.71 -2.24599 4.49289 0
M  V30 23644 C 2206.71 -1.3634 6.22648 0
M  V30 23645 C 2204.4 -1.90819 5.80544 0
M  V30 23646 C 2205.39 -1.46761 6.67046 0
M  V30 23647 O 2205.08 -1.13426 7.95858 0
M  V30 23648 H 2204.81 -0.404011 0.541988 0
M  V30 23649 H 2207.37 -0.645274 1.95001 0
M  V30 23650 H 2205.6 -3.18889 2.1874 0
M  V30 23651 H 2207.29 -3.11693 2.60004 0
M  V30 23652 H 2208.05 -1.61086 4.57467 0
M  V30 23653 H 2203.93 -2.57847 3.82146 0
M  V30 23654 H 2207.48 -1.01879 6.90121 0
M  V30 23655 H 2203.37 -1.99107 6.14025 0
M  V30 23656 H 2204.14 -1.26818 8.08616 0
M  V30 23657 N 2206.8 -1.37041 -0.778305 0
M  V30 23658 C 2207.75 -1.28792 -1.8814 0
M  V30 23659 C 2208.74 -0.177091 -1.59922 0
M  V30 23660 O 2209.93 -0.410903 -1.72164 0
M  V30 23661 C 2207.06 -1.09061 -3.25516 0
M  V30 23662 C 2206.14 -2.2466 -3.59706 0
M  V30 23663 N 2206.54 -3.50025 -3.65125 0
M  V30 23664 C 2204.83 -2.1667 -3.89833 0
M  V30 23665 C 2205.53 -4.26214 -3.95875 0
M  V30 23666 N 2204.51 -3.55278 -4.11434 0
M  V30 23667 H 2208.31 -2.2374 -1.90571 0
M  V30 23668 H 2205.83 -1.29919 -0.974412 0
M  V30 23669 H 2207.82 -1.01237 -4.04421 0
M  V30 23670 H 2206.48 -0.150237 -3.24352 0
M  V30 23671 H 2207.49 -3.84017 -3.47493 0
M  V30 23672 H 2204.17 -1.30652 -3.9653 0
M  V30 23673 H 2205.56 -5.34681 -4.06898 0
M  V30 23674 N 2208.28 1.00373 -1.21503 0
M  V30 23675 C 2209.69 1.55619 -1.03149 0
M  V30 23676 C 2210.04 1.91904 0.408341 0
M  V30 23677 O 2209.17 1.73618 1.29174 0
M  V30 23678 C 2209.76 2.82771 -1.86617 0
M  V30 23679 C 2208.32 3.34498 -1.72591 0
M  V30 23680 C 2207.47 2.0768 -1.83751 0
M  V30 23681 H 2210.42 0.826057 -1.35506 0
M  V30 23682 H 2210.44 3.54703 -1.37716 0
M  V30 23683 H 2209.95 2.56331 -2.91403 0
M  V30 23684 H 2208.05 3.65871 -0.704941 0
M  V30 23685 H 2208.17 4.05833 -2.5463 0
M  V30 23686 H 2206.53 2.20736 -1.27073 0
M  V30 23687 H 2207.31 1.8365 -2.90048 0
M  V30 23688 N 2209.76 1.02298 1.19887 0
M  V30 23689 C 2210.67 0.608548 2.2657 0
M  V30 23690 C 2211.69 -0.356934 1.703 0
M  V30 23691 O 2212.86 -0.216291 2.00235 0
M  V30 23692 C 2209.93 -0.0402204 3.46677 0
M  V30 23693 C 2208.99 0.972013 4.18151 0
M  V30 23694 C 2208.22 0.35411 5.32524 0
M  V30 23695 O 2208.44 -0.844505 5.64114 0
M  V30 23696 O 2207.38 1.07402 5.9224 0
M  V30 23697 H 2211.2 1.49688 2.64248 0
M  V30 23698 H 2208.79 0.792831 1.26628 0
M  V30 23699 H 2210.67 -0.40225 4.19476 0
M  V30 23700 H 2209.35 -0.902652 3.1086 0
M  V30 23701 H 2208.25 1.38552 3.47497 0
M  V30 23702 H 2209.59 1.80462 4.57924 0
M  V30 23703 N 2211.24 -1.35782 0.800057 0
M  V30 23704 C 2212.18 -2.29898 0.203888 0
M  V30 23705 C 2213.15 -1.52496 -0.658348 0
M  V30 23706 O 2214.34 -1.80961 -0.6048 0
M  V30 23707 C 2211.48 -3.38984 -0.64682 0
M  V30 23708 C 2210.59 -4.3136 0.23513 0
M  V30 23709 C 2209.73 -5.27534 -0.622961 0
M  V30 23710 C 2208.77 -6.11548 0.25979 0
M  V30 23711 N 2207.9 -6.9988 -0.557896 0
M  V30 23712 H 2212.74 -2.80294 1.01191 0
M  V30 23713 H 2210.28 -1.37956 0.510554 0
M  V30 23714 H 2212.24 -4.00889 -1.15514 0
M  V30 23715 H 2210.87 -2.89881 -1.42016 0
M  V30 23716 H 2209.92 -3.70516 0.861504 0
M  V30 23717 H 2211.23 -4.90339 0.914854 0
M  V30 23718 H 2210.39 -5.94781 -1.19667 0
M  V30 23719 H 2209.13 -4.69036 -1.33628 0
M  V30 23720 H 2208.13 -5.43255 0.845822 0
M  V30 23721 H 2209.36 -6.72124 0.970866 0
M  V30 23722 H 2207.3 -6.43877 -1.2553 0
M  V30 23723 H 2207.22 -7.55973 0.06392 0
M  V30 23724 H 2208.49 -7.71483 -1.11509 0
M  V30 23725 N 2212.72 -0.552988 -1.4758 0
M  V30 23726 C 2213.63 0.200312 -2.33743 0
M  V30 23727 C 2214.64 0.916125 -1.4793 0
M  V30 23728 O 2215.82 0.885961 -1.80867 0
M  V30 23729 C 2212.88 1.21968 -3.24538 0
M  V30 23730 C 2211.94 0.511745 -4.26239 0
M  V30 23731 C 2211.18 1.48254 -5.12695 0
M  V30 23732 O 2211.4 2.71705 -5.0153 0
M  V30 23733 O 2210.33 1.00934 -5.93377 0
M  V30 23734 H 2214.16 -0.506356 -2.99449 0
M  V30 23735 H 2211.74 -0.313647 -1.46071 0
M  V30 23736 H 2213.63 1.8082 -3.80634 0
M  V30 23737 H 2212.3 1.90834 -2.61465 0
M  V30 23738 H 2211.21 -0.117865 -3.73914 0
M  V30 23739 H 2212.54 -0.135394 -4.92014 0
M  V30 23740 N 2214.19 1.54923 -0.28923 0
M  V30 23741 C 2215.47 1.91952 0.375998 0
M  V30 23742 C 2215.85 1.21514 1.7262 0
M  V30 23743 O 2215.2 0.346807 2.25853 0
M  V30 23744 C 2215.41 3.45366 0.502318 0
M  V30 23745 C 2216.76 4.17399 0.778667 0
M  V30 23746 O 2217.78 3.51337 0.586585 0
M  V30 23747 O 2216.64 5.3433 1.14689 0
M  V30 23748 H 2213.73 0.800376 0.208153 0
M  V30 23749 H 2216.28 1.66332 -0.336423 0
M  V30 23750 H 2215.05 3.88735 -0.447324 0
M  V30 23751 H 2214.67 3.76985 1.26366 0
M  V30 23752 N 2215.67 0.0167433 1.57591 0
M  V30 23753 C 2216.92 -0.663251 1.90907 0
M  V30 23754 C 2217.24 -1.73375 0.892539 0
M  V30 23755 O 2216.51 -1.95783 -0.0677279 0
M  V30 23756 H 2215.09 -0.247971 0.704641 0
M  V30 23757 H 2217.75 0.0616251 1.94803 0
M  V30 23758 H 2216.85 -1.12387 2.91162 0
M  V30 23759 N 2217.15 -1.55503 -0.256249 0
M  V30 23760 C 2218.1 -1.89528 -1.3171 0
M  V30 23761 C 2219.07 -0.748505 -1.48279 0
M  V30 23762 O 2220.25 -1.00131 -1.62414 0
M  V30 23763 C 2217.39 -2.1873 -2.66929 0
M  V30 23764 C 2216.51 -3.46165 -2.58445 0
M  V30 23765 C 2215.64 -3.64982 -3.85955 0
M  V30 23766 C 2214.68 -4.86051 -3.7205 0
M  V30 23767 N 2213.82 -5.01438 -4.91431 0
M  V30 23768 H 2218.66 -2.80003 -1.01993 0
M  V30 23769 H 2216.19 -1.38614 -0.492389 0
M  V30 23770 H 2218.15 -2.33663 -3.45626 0
M  V30 23771 H 2216.78 -1.31471 -2.94814 0
M  V30 23772 H 2215.83 -3.39613 -1.71368 0
M  V30 23773 H 2217.15 -4.35003 -2.44077 0
M  V30 23774 H 2216.3 -3.79824 -4.73095 0
M  V30 23775 H 2215.04 -2.7436 -4.0321 0
M  V30 23776 H 2214.04 -4.71195 -2.83294 0
M  V30 23777 H 2215.27 -5.78125 -3.56299 0
M  V30 23778 H 2213.21 -4.1375 -5.09065 0
M  V30 23779 H 2213.13 -5.8435 -4.79658 0
M  V30 23780 H 2214.4 -5.20682 -5.80095 0
M  V30 23781 N 2218.63 0.521507 -1.48721 0
M  V30 23782 C 2219.56 1.63428 -1.66774 0
M  V30 23783 C 2220.54 1.62068 -0.516528 0
M  V30 23784 O 2221.72 1.79131 -0.750045 0
M  V30 23785 C 2218.85 3.0199 -1.71521 0
M  V30 23786 C 2217.81 3.18211 -2.86227 0
M  V30 23787 C 2217.13 4.57919 -2.76069 0
M  V30 23788 C 2218.43 3.00177 -4.27424 0
M  V30 23789 H 2220.13 1.48574 -2.59935 0
M  V30 23790 H 2217.67 0.713336 -1.2509 0
M  V30 23791 H 2219.63 3.79717 -1.82738 0
M  V30 23792 H 2218.35 3.17885 -0.749449 0
M  V30 23793 H 2217.01 2.42903 -2.74579 0
M  V30 23794 H 2216.66 4.70662 -1.77445 0
M  V30 23795 H 2216.36 4.69716 -3.53045 0
M  V30 23796 H 2217.88 5.37734 -2.89266 0
M  V30 23797 H 2219.3 3.67689 -4.39861 0
M  V30 23798 H 2217.69 3.23461 -5.05463 0
M  V30 23799 H 2218.76 1.96511 -4.43296 0
M  V30 23800 N 2220.11 1.37452 0.771027 0
M  V30 23801 C 2221.05 1.33361 1.90572 0
M  V30 23802 C 2222.05 0.22227 1.67935 0
M  V30 23803 O 2223.25 0.390335 1.75717 0
M  V30 23804 H 2219.63 0.415623 0.626707 0
M  V30 23805 H 2221.6 2.29148 1.91138 0
M  V30 23806 C 2220.35 1.15819 3.27843 0
M  V30 23807 H 2219.67 2.00589 3.45838 0
M  V30 23808 H 2221.11 1.17007 4.07536 0
M  V30 23809 C 2219.57 -0.136106 3.36625 0
M  V30 23810 O 2220.1 -1.11942 3.85787 0
M  V30 23811 N 2218.31 -0.187048 2.89997 0
M  V30 23812 H 2217.85 0.613797 2.50181 0
M  V30 23813 H 2217.81 -1.05266 2.96254 0
M  V30 23814 N 2221.58 -0.997276 1.22033 0
M  V30 23815 C 2222.53 -2.08655 0.986504 0
M  V30 23816 C 2223.5 -1.65855 -0.090238 0
M  V30 23817 O 2224.69 -1.9071 0.0584629 0
M  V30 23818 C 2221.83 -3.40433 0.565629 0
M  V30 23819 C 2220.94 -3.966 1.71266 0
M  V30 23820 C 2220.07 -5.1652 1.2402 0
M  V30 23821 C 2219.11 -5.64814 2.35906 0
M  V30 23822 N 2218.25 -6.75976 1.89738 0
M  V30 23823 H 2223.09 -2.27991 1.91896 0
M  V30 23824 H 2220.63 -1.1178 0.956219 0
M  V30 23825 H 2222.59 -4.161 0.302812 0
M  V30 23826 H 2221.22 -3.21111 -0.329823 0
M  V30 23827 H 2220.27 -3.17847 2.08992 0
M  V30 23828 H 2221.58 -4.28428 2.55443 0
M  V30 23829 H 2220.73 -5.9946 0.934501 0
M  V30 23830 H 2219.47 -4.86305 0.368573 0
M  V30 23831 H 2218.48 -4.80465 2.67269 0
M  V30 23832 H 2219.7 -5.97055 3.23577 0
M  V30 23833 H 2217.65 -6.47553 1.04931 0
M  V30 23834 H 2217.57 -7.07099 2.67483 0
M  V30 23835 H 2218.83 -7.62433 1.62224 0
M  V30 23836 N 2223.06 -1.02932 -1.19343 0
M  V30 23837 C 2223.99 -0.631145 -2.24808 0
M  V30 23838 C 2224.97 0.360075 -1.66245 0
M  V30 23839 O 2226.16 0.242692 -1.92678 0
M  V30 23840 C 2223.29 0.0183996 -3.47295 0
M  V30 23841 C 2222.24 -0.895147 -4.18534 0
M  V30 23842 C 2221.57 -0.110686 -5.34585 0
M  V30 23843 C 2222.87 -2.20909 -4.73283 0
M  V30 23844 H 2224.56 -1.5128 -2.5837 0
M  V30 23845 H 2222.11 -0.72884 -1.24193 0
M  V30 23846 H 2224.06 0.308601 -4.20269 0
M  V30 23847 H 2222.79 0.934852 -3.12935 0
M  V30 23848 H 2221.44 -1.16955 -3.47444 0
M  V30 23849 H 2221.09 0.807815 -4.96471 0
M  V30 23850 H 2220.79 -0.71919 -5.83182 0
M  V30 23851 H 2222.32 0.172764 -6.10356 0
M  V30 23852 H 2223.73 -1.98038 -5.38009 0
M  V30 23853 H 2222.13 -2.76955 -5.32368 0
M  V30 23854 H 2223.2 -2.86343 -3.91326 0
M  V30 23855 N 2224.54 1.35356 -0.807246 0
M  V30 23856 C 2225.78 2.00575 -0.393569 0
M  V30 23857 C 2226.14 1.62648 1.02027 0
M  V30 23858 O 2227.35 2.20592 1.53599 0
M  V30 23859 C 2225.62 3.52792 -0.572079 0
M  V30 23860 S 2227.18 4.38093 -0.248922 0
M  V30 23861 H 2223.99 0.695118 -0.149438 0
M  V30 23862 H 2226.6 1.64933 -1.04964 0
M  V30 23863 H 2225.3 3.77882 -1.60104 0
M  V30 23864 H 2224.83 3.93275 0.0992899 0
M  V30 23865 H 2226.85 4.87154 0.943167 0
M  V30 23866 N 2226.02 0.560807 1.47284 0
M  V30 23867 C 2227.43 0.220837 1.58065 0
M  V30 23868 C 2227.63 -1.27668 1.55894 0
M  V30 23869 O 2226.69 -2.05708 1.46426 0
M  V30 23870 C 2228 0.850676 2.88416 0
M  V30 23871 C 2229.55 0.822237 3.02007 0
M  V30 23872 C 2230.03 1.43121 4.35064 0
M  V30 23873 N 2231.52 1.39456 4.41708 0
M  V30 23874 C 2232.25 1.83534 5.43234 0
M  V30 23875 N 2231.75 2.35485 6.51551 0
M  V30 23876 N 2233.54 1.74583 5.34301 0
M  V30 23877 H 2225.69 1.53371 1.46939 0
M  V30 23878 H 2227.96 0.639795 0.699547 0
M  V30 23879 H 2227.66 1.90326 2.95752 0
M  V30 23880 H 2227.54 0.345839 3.75611 0
M  V30 23881 H 2229.92 -0.221663 2.94266 0
M  V30 23882 H 2230 1.36487 2.16345 0
M  V30 23883 H 2229.65 2.4742 4.43561 0
M  V30 23884 H 2229.58 0.86399 5.19464 0
M  V30 23885 H 2232.07 1.01459 3.64026 0
M  V30 23886 H 2232.38 2.67034 7.25198 0
M  V30 23887 H 2230.73 2.39498 6.5243 0
M  V30 23888 H 2233.92 1.33771 4.48579 0
M  V30 23889 H 2234.09 2.09253 6.13284 0
M  V30 23890 N 2227.5 -1.54768 0.297442 0
M  V30 23891 C 2228.77 -1.92149 -0.365813 0
M  V30 23892 C 2229.15 -1.22427 -1.71973 0
M  V30 23893 O 2228.5 -0.358779 -2.25666 0
M  V30 23894 C 2228.71 -3.45628 -0.483995 0
M  V30 23895 C 2230.06 -4.17806 -0.756521 0
M  V30 23896 O 2231.08 -3.51643 -0.567945 0
M  V30 23897 O 2229.94 -5.34931 -1.11853 0
M  V30 23898 H 2227.04 -0.801468 -0.203905 0
M  V30 23899 H 2229.58 -1.66151 0.345239 0
M  V30 23900 H 2228.35 -3.88492 0.467933 0
M  V30 23901 H 2227.98 -3.77649 -1.24365 0
M  V30 23902 N 2228.97 -0.0251005 -1.5758 0
M  V30 23903 C 2229.88 0.973867 -2.13431 0
M  V30 23904 C 2230.9 1.35982 -1.08559 0
M  V30 23905 O 2232.08 1.44205 -1.40595 0
M  V30 23906 C 2229.14 2.23899 -2.64707 0
M  V30 23907 C 2228.2 1.91384 -3.84279 0
M  V30 23908 C 2227.44 3.11865 -4.331 0
M  V30 23909 O 2227.66 4.24391 -3.81115 0
M  V30 23910 O 2226.59 2.94397 -5.24989 0
M  V30 23911 H 2230.42 0.528984 -2.99058 0
M  V30 23912 H 2228 0.195262 -1.48118 0
M  V30 23913 H 2229.89 2.98176 -2.97774 0
M  V30 23914 H 2228.56 2.67576 -1.82166 0
M  V30 23915 H 2227.47 1.14505 -3.56145 0
M  V30 23916 H 2228.8 1.52526 -4.67971 0
M  V30 23917 N 2230.45 1.55637 0.247999 0
M  V30 23918 C 2231.38 1.9324 1.31075 0
M  V30 23919 C 2232.36 0.797201 1.50262 0
M  V30 23920 O 2233.55 1.0574 1.62889 0
M  V30 23921 C 2230.68 2.22614 2.66571 0
M  V30 23922 C 2229.63 3.38375 2.62081 0
M  V30 23923 C 2228.96 3.53288 4.01362 0
M  V30 23924 C 2230.26 4.74094 2.19163 0
M  V30 23925 H 2231.95 2.82259 0.998506 0
M  V30 23926 H 2229.5 1.35804 0.478886 0
M  V30 23927 H 2231.45 2.47509 3.41053 0
M  V30 23928 H 2230.18 1.30419 2.9943 0
M  V30 23929 H 2228.83 3.13487 1.90057 0
M  V30 23930 H 2228.48 2.58515 4.31484 0
M  V30 23931 H 2228.18 4.31134 3.99246 0
M  V30 23932 H 2229.71 3.80503 4.77546 0
M  V30 23933 H 2231.12 4.98368 2.83376 0
M  V30 23934 H 2229.52 5.55034 2.2816 0
M  V30 23935 H 2230.59 4.7123 1.14327 0
M  V30 23936 N 2231.93 -0.513613 1.48996 0
M  V30 23937 C 2233.17 -1.27882 1.59454 0
M  V30 23938 C 2233.54 -1.90099 0.269513 0
M  V30 23939 O 2234.74 -2.67642 0.249186 0
M  V30 23940 C 2233.01 -2.32683 2.71281 0
M  V30 23941 S 2234.57 -3.18711 3.0161 0
M  V30 23942 H 2231.38 -0.434779 0.562573 0
M  V30 23943 H 2233.99 -0.583268 1.86596 0
M  V30 23944 H 2232.69 -1.85484 3.66093 0
M  V30 23945 H 2232.22 -3.06924 2.46091 0
M  V30 23946 H 2234.24 -4.33095 2.42163 0
M  V30 23947 N 2233.41 -1.37859 -0.763727 0
M  V30 23948 C 2234.83 -1.18834 -1.0654 0
M  V30 23949 C 2235.03 -0.0300077 -2.01478 0
M  V30 23950 O 2234.08 0.627404 -2.44581 0
M  V30 23951 C 2235.39 -2.51045 -1.6552 0
M  V30 23952 C 2236.94 -2.57638 -1.7774 0
M  V30 23953 C 2237.42 -3.9 -2.40134 0
M  V30 23954 N 2238.91 -3.91485 -2.47576 0
M  V30 23955 C 2239.64 -4.90656 -2.96723 0
M  V30 23956 N 2239.14 -6.00223 -3.45983 0
M  V30 23957 N 2240.93 -4.78053 -2.95671 0
M  V30 23958 H 2233.08 -2.1198 -0.133519 0
M  V30 23959 H 2235.35 -0.940135 -0.121863 0
M  V30 23960 H 2235.05 -3.36209 -1.0323 0
M  V30 23961 H 2234.93 -2.68712 -2.64714 0
M  V30 23962 H 2237.31 -1.72876 -2.39161 0
M  V30 23963 H 2237.39 -2.43847 -0.772793 0
M  V30 23964 H 2237.04 -4.7518 -1.7935 0
M  V30 23965 H 2236.97 -4.01098 -3.41216 0
M  V30 23966 H 2239.46 -3.12341 -2.12724 0
M  V30 23967 H 2239.77 -6.71836 -3.81911 0
M  V30 23968 H 2238.12 -6.03857 -3.44067 0
M  V30 23969 H 2241.31 -3.91573 -2.56492 0
M  V30 23970 H 2241.48 -5.55494 -3.33662 0
M  V30 23971 N 2234.89 0.990791 -1.22561 0
M  V30 23972 C 2236.13 1.74581 -1.06305 0
M  V30 23973 C 2236.49 1.87899 0.394704 0
M  V30 23974 O 2237.69 2.60104 0.678168 0
M  V30 23975 C 2235.96 3.11227 -1.75705 0
M  V30 23976 S 2237.52 4.02442 -1.74889 0
M  V30 23977 H 2234.34 0.600522 -0.38065 0
M  V30 23978 H 2236.94 1.18446 -1.55534 0
M  V30 23979 H 2235.65 2.99178 -2.80928 0
M  V30 23980 H 2235.18 3.72434 -1.26715 0
M  V30 23981 H 2237.19 4.89707 -0.800083 0
M  V30 23982 N 2236.37 1.03564 1.18795 0
M  V30 23983 C 2237.33 0.626808 2.20463 0
M  V30 23984 C 2238.33 -0.313146 1.57721 0
M  V30 23985 O 2239.52 -0.099231 1.73917 0
M  V30 23986 C 2236.65 -0.0817899 3.40802 0
M  V30 23987 H 2237.84 1.52645 2.58147 0
M  V30 23988 H 2235.4 0.827601 1.32591 0
M  V30 23989 H 2236.13 -0.995464 3.08644 0
M  V30 23990 H 2235.92 0.59372 3.87579 0
M  V30 23991 H 2237.41 -0.35451 4.16093 0
M  V30 23992 N 2237.84 -1.34926 0.814413 0
M  V30 23993 C 2238.75 -2.3345 0.232019 0
M  V30 23994 C 2239.77 -1.62229 -0.629111 0
M  V30 23995 O 2240.95 -1.94053 -0.539018 0
M  V30 23996 C 2238.01 -3.41408 -0.603422 0
M  V30 23997 C 2237.07 -4.28392 0.279113 0
M  V30 23998 C 2236.3 -5.31194 -0.51655 0
M  V30 23999 O 2236.53 -5.42873 -1.75058 0
M  V30 24000 O 2235.46 -6.01822 0.096671 0
M  V30 24001 H 2239.29 -2.85072 1.04726 0
M  V30 24002 H 2236.87 -1.37835 0.576367 0
M  V30 24003 H 2238.75 -4.07352 -1.07901 0
M  V30 24004 H 2237.43 -2.92044 -1.39613 0
M  V30 24005 H 2236.34 -3.65402 0.802013 0
M  V30 24006 H 2237.67 -4.81174 1.03596 0
M  V30 24007 N 2239.32 -0.56861 -1.46985 0
M  V30 24008 C 2240.23 0.175509 -2.33943 0
M  V30 24009 C 2241.25 0.900383 -1.48893 0
M  V30 24010 O 2242.42 0.866728 -1.81796 0
M  V30 24011 C 2239.49 1.18518 -3.25813 0
M  V30 24012 C 2238.55 0.466507 -4.26758 0
M  V30 24013 C 2237.78 1.42808 -5.14239 0
M  V30 24014 O 2238.01 2.6637 -5.04384 0
M  V30 24015 O 2236.94 0.946349 -5.94414 0
M  V30 24016 H 2240.77 -0.538089 -2.98895 0
M  V30 24017 H 2238.35 -0.329122 -1.4573 0
M  V30 24018 H 2240.23 1.76773 -3.8253 0
M  V30 24019 H 2238.91 1.8805 -2.63475 0
M  V30 24020 H 2237.81 -0.157517 -3.73768 0
M  V30 24021 H 2239.15 -0.187571 -4.91842 0
M  V30 24022 N 2240.8 1.54608 -0.305646 0
M  V30 24023 C 2241.75 2.25147 0.584079 0
M  V30 24024 C 2242.74 1.25913 1.13324 0
M  V30 24025 O 2243.95 1.43749 1.08334 0
M  V30 24026 H 2240.32 0.722957 0.206971 0
M  V30 24027 H 2242.29 2.98381 -0.0333435 0
M  V30 24028 C 2241.04 3.00904 1.74219 0
M  V30 24029 H 2240.37 3.7707 1.32885 0
M  V30 24030 H 2241.81 3.53535 2.34071 0
M  V30 24031 C 2240.26 2.08144 2.6491 0
M  V30 24032 O 2240.79 1.65252 3.66135 0
M  V30 24033 N 2239 1.74004 2.32747 0
M  V30 24034 H 2238.55 2.09081 1.50476 0
M  V30 24035 H 2238.51 1.12216 2.93692 0
M  V30 24036 N 2242.28 0.033457 1.57564 0
M  V30 24037 C 2243.52 -0.648345 1.93845 0
M  V30 24038 C 2243.88 -1.69043 0.910416 0
M  V30 24039 O 2245.08 -2.42503 1.15956 0
M  V30 24040 C 2243.35 -1.24487 3.35019 0
M  V30 24041 S 2244.91 -1.94714 3.93233 0
M  V30 24042 H 2241.73 -0.213352 0.678234 0
M  V30 24043 H 2244.33 0.0981596 1.95253 0
M  V30 24044 H 2243.04 -0.474057 4.07653 0
M  V30 24045 H 2242.57 -2.02858 3.37064 0
M  V30 24046 H 2244.58 -3.226 3.7702 0
M  V30 24047 N 2243.76 -1.55766 -0.239741 0
M  V30 24048 C 2245 -1.77932 -0.96677 0
M  V30 24049 C 2245.33 -0.599047 -1.85045 0
M  V30 24050 O 2244.59 0.417362 -1.91198 0
M  V30 24051 C 2244.88 -3.05676 -1.85195 0
M  V30 24052 C 2244.55 -4.36691 -1.12303 0
M  V30 24053 C 2243.21 -4.72292 -0.921606 0
M  V30 24054 C 2245.56 -5.17654 -0.606928 0
M  V30 24055 C 2242.89 -5.86386 -0.191893 0
M  V30 24056 C 2245.24 -6.32505 0.109352 0
M  V30 24057 C 2243.91 -6.66722 0.32219 0
M  V30 24058 H 2243.18 -0.651099 -0.353766 0
M  V30 24059 H 2245.83 -1.90036 -0.236307 0
M  V30 24060 H 2244.13 -2.88614 -2.6497 0
M  V30 24061 H 2245.83 -3.20026 -2.41629 0
M  V30 24062 H 2242.42 -4.08727 -1.28997 0
M  V30 24063 H 2246.6 -4.90599 -0.750067 0
M  V30 24064 H 2241.86 -6.11398 -0.0165874 0
M  V30 24065 H 2246.03 -6.94479 0.516859 0
M  V30 24066 H 2243.66 -7.54977 0.889573 0
M  V30 24067 N 2245.23 0.505704 -1.49266 0
M  V30 24068 C 2246.48 1.25672 -1.57764 0
M  V30 24069 C 2246.8 1.93764 -0.267405 0
M  V30 24070 O 2248 2.70517 -0.230875 0
M  V30 24071 C 2246.46 2.2816 -2.78336 0
M  V30 24072 C 2246.07 1.6603 -4.16099 0
M  V30 24073 C 2247.81 3.0412 -2.96161 0
M  V30 24074 C 2245.72 2.66601 -5.279 0
M  V30 24075 H 2244.65 0.472735 -0.587399 0
M  V30 24076 H 2247.3 0.531149 -1.75645 0
M  V30 24077 H 2245.68 3.0386 -2.53939 0
M  V30 24078 H 2246.85 0.963543 -4.50613 0
M  V30 24079 H 2245.17 1.02477 -4.03593 0
M  V30 24080 H 2247.77 3.7932 -3.76856 0
M  V30 24081 H 2248.11 3.61451 -2.0654 0
M  V30 24082 H 2248.64 2.35536 -3.20574 0
M  V30 24083 H 2245.38 2.14057 -6.19564 0
M  V30 24084 H 2244.9 3.34531 -4.97845 0
M  V30 24085 H 2246.58 3.29119 -5.57036 0
M  V30 24086 N 2246.71 1.38262 0.756405 0
M  V30 24087 C 2247.64 1.3115 1.87969 0
M  V30 24088 C 2248.66 0.224268 1.61248 0
M  V30 24089 O 2249.85 0.481611 1.7188 0
M  V30 24090 C 2246.95 1.00863 3.23543 0
M  V30 24091 C 2246.12 2.20439 3.7779 0
M  V30 24092 C 2245.18 1.8694 4.91874 0
M  V30 24093 O 2244.2 2.59403 5.06654 0
M  V30 24094 N 2245.41 0.822669 5.74641 0
M  V30 24095 H 2248.17 2.27944 1.94581 0
M  V30 24096 H 2245.73 1.32086 0.936211 0
M  V30 24097 H 2247.72 0.765091 3.97402 0
M  V30 24098 H 2246.29 0.128742 3.12335 0
M  V30 24099 H 2245.51 2.60875 2.9553 0
M  V30 24100 H 2246.8 3.00248 4.10766 0
M  V30 24101 H 2246.2 0.221675 5.65266 0
M  V30 24102 H 2244.76 0.639013 6.4866 0
M  V30 24103 N 2248.19 -0.984277 1.23084 0
M  V30 24104 C 2249.14 -2.07597 1.00858 0
M  V30 24105 C 2250.11 -1.65941 -0.0726418 0
M  V30 24106 O 2251.29 -1.90638 0.078687 0
M  V30 24107 C 2248.43 -3.39814 0.601704 0
M  V30 24108 C 2247.55 -3.94762 1.75463 0
M  V30 24109 C 2246.68 -5.15175 1.29491 0
M  V30 24110 C 2245.72 -5.6228 2.41883 0
M  V30 24111 N 2244.86 -6.73926 1.96897 0
M  V30 24112 H 2249.7 -2.25943 1.94303 0
M  V30 24113 H 2247.23 -1.1076 0.968021 0
M  V30 24114 H 2249.19 -4.15755 0.346927 0
M  V30 24115 H 2247.82 -3.21442 -0.295746 0
M  V30 24116 H 2246.87 -3.15612 2.12351 0
M  V30 24117 H 2248.19 -4.25694 2.59973 0
M  V30 24118 H 2247.34 -5.98435 0.998029 0
M  V30 24119 H 2246.08 -4.85887 0.420131 0
M  V30 24120 H 2245.08 -4.77604 2.7235 0
M  V30 24121 H 2246.31 -5.93589 3.29891 0
M  V30 24122 H 2244.25 -6.46404 1.11793 0
M  V30 24123 H 2244.17 -7.04222 2.74968 0
M  V30 24124 H 2245.44 -7.60669 1.70302 0
M  V30 24125 N 2249.67 -1.04192 -1.18244 0
M  V30 24126 C 2250.89 -0.76603 -1.92735 0
M  V30 24127 C 2251.32 0.670879 -1.75729 0
M  V30 24128 O 2250.68 1.46484 -1.06827 0
M  V30 24129 C 2250.72 -1.13881 -3.42146 0
M  V30 24130 O 2249.83 -0.265026 -4.11548 0
M  V30 24131 H 2249.17 -0.281807 -0.601233 0
M  V30 24132 H 2251.7 -1.3921 -1.49939 0
M  V30 24133 H 2251.71 -1.10127 -3.92856 0
M  V30 24134 H 2250.38 -2.18558 -3.53844 0
M  V30 24135 H 2248.96 -0.362291 -3.71136 0
M  V30 24136 N 2251.15 1.34492 -0.821557 0
M  V30 24137 C 2252.42 1.92768 -0.331624 0
M  V30 24138 C 2252.8 1.74983 1.18085 0
M  V30 24139 O 2252.15 1.12775 1.98731 0
M  V30 24140 C 2252.36 3.40637 -0.759458 0
M  V30 24141 C 2253.71 4.17788 -0.757507 0
M  V30 24142 O 2254.73 3.49215 -0.701951 0
M  V30 24143 O 2253.59 5.40169 -0.829456 0
M  V30 24144 H 2250.69 0.822059 -0.0902646 0
M  V30 24145 H 2253.23 1.43475 -0.906256 0
M  V30 24146 H 2252 3.47376 -1.80126 0
M  V30 24147 H 2251.63 3.97276 -0.160447 0
M  V30 24148 N 2252.62 0.576397 1.46681 0
M  V30 24149 C 2253.9 -0.00699999 1.95599 0
M  V30 24150 C 2254.28 -1.46587 1.51906 0
M  V30 24151 O 2253.63 -2.1525 0.766793 0
M  V30 24152 C 2253.84 0.158466 3.4864 0
M  V30 24153 C 2255.19 0.0230186 4.24594 0
M  V30 24154 O 2256.21 0.0869799 3.56094 0
M  V30 24155 O 2255.07 -0.117919 5.46373 0
M  V30 24156 H 2252.16 -0.0533695 0.825276 0
M  V30 24157 H 2254.71 0.644271 1.56994 0
M  V30 24158 H 2253.48 1.17289 3.73308 0
M  V30 24159 H 2253.11 -0.529531 3.94058 0
M  V30 24160 N 2254.1 -1.54444 0.313841 0
M  V30 24161 C 2255.05 -2.2399 -0.556511 0
M  V30 24162 C 2256.02 -1.22713 -1.11941 0
M  V30 24163 O 2257.2 -1.51369 -1.16155 0
M  V30 24164 C 2254.34 -2.99395 -1.7163 0
M  V30 24165 C 2253.46 -4.1547 -1.18357 0
M  V30 24166 C 2252.59 -4.78428 -2.30825 0
M  V30 24167 C 2251.63 -5.86625 -1.74751 0
M  V30 24168 N 2250.77 -6.43484 -2.80844 0
M  V30 24169 H 2255.61 -2.97969 0.0431417 0
M  V30 24170 H 2253.15 -1.47063 0.0330618 0
M  V30 24171 H 2255.1 -3.41353 -2.39862 0
M  V30 24172 H 2253.73 -2.27769 -2.28738 0
M  V30 24173 H 2252.79 -3.78363 -0.393096 0
M  V30 24174 H 2254.1 -4.93382 -0.733176 0
M  V30 24175 H 2253.25 -5.23305 -3.0698 0
M  V30 24176 H 2251.99 -3.99876 -2.79197 0
M  V30 24177 H 2251 -5.41159 -0.9709 0
M  V30 24178 H 2252.22 -6.67068 -1.27269 0
M  V30 24179 H 2250.17 -5.67809 -3.28525 0
M  V30 24180 H 2250.08 -7.1678 -2.40339 0
M  V30 24181 H 2251.35 -6.93017 -3.56857 0
M  V30 24182 N 2255.58 -0.0418125 -1.57545 0
M  V30 24183 C 2256.83 0.634987 -1.92603 0
M  V30 24184 C 2257.16 1.71044 -0.919657 0
M  V30 24185 O 2256.43 1.9442 0.055755 0
M  V30 24186 C 2256.72 1.23973 -3.38087 0
M  V30 24187 C 2256.57 0.172978 -4.49467 0
M  V30 24188 C 2257.89 2.1541 -3.83779 0
M  V30 24189 H 2255.01 0.229362 -0.700401 0
M  V30 24190 H 2257.65 -0.101666 -1.89728 0
M  V30 24191 H 2255.8 1.86756 -3.40667 0
M  V30 24192 H 2257.47 -0.458392 -4.59017 0
M  V30 24193 H 2255.72 -0.500072 -4.30908 0
M  V30 24194 H 2256.39 0.635957 -5.48324 0
M  V30 24195 H 2258.86 1.62599 -3.83016 0
M  V30 24196 H 2257.74 2.5467 -4.86245 0
M  V30 24197 H 2258 3.05042 -3.20003 0
M  V30 24198 N 2257.06 1.55891 0.231477 0
M  V30 24199 C 2258.29 1.82515 0.974473 0
M  V30 24200 C 2258.7 0.619622 1.78343 0
M  V30 24201 O 2258.06 -0.411817 1.77793 0
M  V30 24202 C 2258.11 3.07542 1.90001 0
M  V30 24203 O 2257.83 4.23442 1.12377 0
M  V30 24204 C 2259.33 3.4708 2.75773 0
M  V30 24205 H 2256.55 0.606971 0.286054 0
M  V30 24206 H 2259.1 2.0297 0.249703 0
M  V30 24207 H 2257.25 2.89091 2.57886 0
M  V30 24208 H 2257.66 4.94403 1.75117 0
M  V30 24209 H 2259.14 4.37625 3.36435 0
M  V30 24210 H 2259.62 2.68373 3.47667 0
M  V30 24211 H 2260.22 3.67935 2.13317 0
M  V30 24212 N 2258.54 -0.497781 1.49532 0
M  V30 24213 C 2259.47 -1.60754 1.69353 0
M  V30 24214 C 2260.45 -1.61226 0.542246 0
M  V30 24215 O 2261.63 -1.77915 0.778448 0
M  V30 24216 C 2258.76 -2.99223 1.76303 0
M  V30 24217 C 2257.72 -3.13617 2.91253 0
M  V30 24218 C 2257.04 -4.53469 2.8332 0
M  V30 24219 C 2258.34 -2.93339 4.32145 0
M  V30 24220 H 2260.04 -1.4442 2.62265 0
M  V30 24221 H 2257.58 -0.693345 1.26209 0
M  V30 24222 H 2259.54 -3.76762 1.88756 0
M  V30 24223 H 2258.26 -3.16652 0.799927 0
M  V30 24224 H 2256.92 -2.38504 2.78409 0
M  V30 24225 H 2256.57 -4.67779 1.8491 0
M  V30 24226 H 2256.27 -4.6404 3.60473 0
M  V30 24227 H 2257.79 -5.33064 2.97784 0
M  V30 24228 H 2259.2 -3.60645 4.45655 0
M  V30 24229 H 2257.6 -3.15378 5.10545 0
M  V30 24230 H 2258.67 -1.89433 4.46367 0
M  V30 24231 N 2260.01 -1.38661 -0.749062 0
M  V30 24232 C 2260.92 -1.38497 -1.89356 0
M  V30 24233 C 2261.94 -0.281506 -1.71708 0
M  V30 24234 O 2263.12 -0.520678 -1.94553 0
M  V30 24235 C 2260.18 -1.21322 -3.2478 0
M  V30 24236 C 2259.24 -2.41514 -3.54922 0
M  V30 24237 C 2258.48 -2.25148 -4.83884 0
M  V30 24238 O 2258.7 -1.24756 -5.5659 0
M  V30 24239 O 2257.63 -3.13835 -5.13606 0
M  V30 24240 H 2261.46 -2.34942 -1.92448 0
M  V30 24241 H 2259.04 -1.19628 -0.89496 0
M  V30 24242 H 2260.93 -1.13821 -4.05737 0
M  V30 24243 H 2259.6 -0.279649 -3.2249 0
M  V30 24244 H 2258.51 -2.5459 -2.74107 0
M  V30 24245 H 2259.84 -3.33516 -3.61977 0
M  V30 24246 N 2261.49 0.977736 -1.23605 0
M  V30 24247 C 2262.4 2.10468 -1.03636 0
M  V30 24248 C 2263.42 1.73989 0.0199129 0
M  V30 24249 O 2264.6 2.00629 -0.176112 0
M  V30 24250 C 2261.66 3.40876 -0.63282 0
M  V30 24251 C 2260.72 3.91364 -1.76444 0
M  V30 24252 C 2259.95 5.15548 -1.38006 0
M  V30 24253 O 2260.18 5.69782 -0.265457 0
M  V30 24254 O 2259.11 5.6017 -2.2021 0
M  V30 24255 H 2262.94 2.30204 -1.9809 0
M  V30 24256 H 2260.52 1.08849 -1.02334 0
M  V30 24257 H 2262.4 4.19313 -0.418834 0
M  V30 24258 H 2261.08 3.22463 0.282697 0
M  V30 24259 H 2259.99 3.14032 -2.03309 0
M  V30 24260 H 2261.32 4.14236 -2.65837 0
M  V30 24261 N 2262.97 1.04818 1.1769 0
M  V30 24262 C 2264.39 0.768819 1.39862 0
M  V30 24263 C 2264.59 -0.638418 1.91119 0
M  V30 24264 O 2263.64 -1.40143 2.10039 0
M  V30 24265 C 2264.96 1.82126 2.39271 0
M  V30 24266 C 2266.5 1.84304 2.52984 0
M  V30 24267 C 2266.98 2.88561 3.55664 0
M  V30 24268 N 2268.47 2.875 3.63178 0
M  V30 24269 C 2269.21 3.64819 4.42374 0
M  V30 24270 N 2268.7 4.51912 5.25117 0
M  V30 24271 N 2270.49 3.53275 4.37211 0
M  V30 24272 H 2262.65 1.95618 0.827485 0
M  V30 24273 H 2264.91 0.846839 0.426108 0
M  V30 24274 H 2264.61 2.83105 2.08673 0
M  V30 24275 H 2264.49 1.65972 3.38723 0
M  V30 24276 H 2266.88 0.839919 2.82895 0
M  V30 24277 H 2266.96 2.04535 1.5362 0
M  V30 24278 H 2266.6 3.89057 3.26492 0
M  V30 24279 H 2266.53 2.65583 4.54723 0
M  V30 24280 H 2269.02 2.24348 3.04099 0
M  V30 24281 H 2269.33 5.07601 5.82719 0
M  V30 24282 H 2267.68 4.55975 5.24511 0
M  V30 24283 H 2270.87 2.84632 3.71621 0
M  V30 24284 H 2271.04 4.1378 4.98688 0
M  V30 24285 N 2264.45 -1.34055 0.828678 0
M  V30 24286 C 2265.38 -2.3194 0.269483 0
M  V30 24287 C 2266.36 -1.58507 -0.617219 0
M  V30 24288 O 2267.55 -1.86457 -0.542898 0
M  V30 24289 C 2264.68 -3.42678 -0.564733 0
M  V30 24290 C 2263.63 -4.27407 0.225316 0
M  V30 24291 C 2262.96 -5.29666 -0.732007 0
M  V30 24292 C 2264.26 -5.02151 1.43672 0
M  V30 24293 H 2265.95 -2.78958 1.08733 0
M  V30 24294 H 2263.5 -1.34116 0.524307 0
M  V30 24295 H 2265.45 -4.10175 -0.966161 0
M  V30 24296 H 2264.17 -2.94323 -1.41569 0
M  V30 24297 H 2262.83 -3.6152 0.608181 0
M  V30 24298 H 2262.48 -4.77571 -1.57908 0
M  V30 24299 H 2262.18 -5.87233 -0.207566 0
M  V30 24300 H 2263.7 -6.00031 -1.13117 0
M  V30 24301 H 2265.12 -5.62471 1.109 0
M  V30 24302 H 2263.51 -5.6932 1.89721 0
M  V30 24303 H 2264.58 -4.31513 2.21189 0
M  V30 24304 N 2265.93 -0.584167 -1.46374 0
M  V30 24305 C 2267.2 -0.00337318 -1.956 0
M  V30 24306 C 2267.58 1.45779 -1.52682 0
M  V30 24307 O 2266.93 2.1484 -0.778198 0
M  V30 24308 C 2267.14 -0.176953 -3.48551 0
M  V30 24309 C 2268.49 -0.0455355 -4.24576 0
M  V30 24310 O 2269.51 -0.105863 -3.56043 0
M  V30 24311 O 2268.37 0.0889415 -5.46428 0
M  V30 24312 H 2265.47 0.0489921 -0.825548 0
M  V30 24313 H 2268.01 -0.652588 -1.5665 0
M  V30 24314 H 2266.79 -1.19267 -3.72681 0
M  V30 24315 H 2266.41 0.508626 -3.94333 0
M  V30 24316 N 2267.41 1.54275 -0.322027 0
M  V30 24317 C 2268.35 2.24282 0.544624 0
M  V30 24318 C 2269.32 1.23305 1.11288 0
M  V30 24319 O 2270.51 1.51983 1.15351 0
M  V30 24320 C 2267.65 3.00301 1.7004 0
M  V30 24321 C 2266.76 4.16092 1.16152 0
M  V30 24322 C 2265.9 4.79645 2.28285 0
M  V30 24323 C 2264.93 5.87543 1.71638 0
M  V30 24324 N 2264.07 6.44964 2.77427 0
M  V30 24325 H 2268.91 2.97942 -0.0589431 0
M  V30 24326 H 2266.45 1.47043 -0.0408604 0
M  V30 24327 H 2268.41 3.4262 2.38048 0
M  V30 24328 H 2267.04 2.28979 2.27527 0
M  V30 24329 H 2266.09 3.78567 0.373025 0
M  V30 24330 H 2267.4 4.93764 0.707 0
M  V30 24331 H 2266.55 5.24925 3.04201 0
M  V30 24332 H 2265.29 4.01351 2.77072 0
M  V30 24333 H 2264.3 5.41667 0.942187 0
M  V30 24334 H 2265.52 6.67733 1.23729 0
M  V30 24335 H 2263.47 5.69544 3.25509 0
M  V30 24336 H 2263.39 7.18044 2.36534 0
M  V30 24337 H 2264.65 6.949 3.53177 0
M  V30 24338 N 2268.88 0.0501669 1.5752 0
M  V30 24339 C 2269.85 -0.909749 2.10372 0
M  V30 24340 C 2270.85 -1.24054 1.0231 0
M  V30 24341 O 2272.04 -1.17739 1.28387 0
M  V30 24342 C 2269.17 -2.21994 2.58712 0
M  V30 24343 H 2270.36 -0.451613 2.9648 0
M  V30 24344 H 2267.91 -0.19822 1.55038 0
M  V30 24345 H 2268.65 -2.72391 1.75994 0
M  V30 24346 H 2268.43 -1.99289 3.37678 0
M  V30 24347 H 2269.92 -2.90755 2.99752 0
M  V30 24348 N 2270.36 -1.56011 -0.223207 0
M  V30 24349 C 2271.6 -1.80722 -0.95493 0
M  V30 24350 C 2271.97 -0.623415 -1.81597 0
M  V30 24351 O 2273.17 -0.74979 -2.58131 0
M  V30 24352 C 2271.44 -3.10317 -1.77308 0
M  V30 24353 S 2273 -3.56336 -2.56066 0
M  V30 24354 H 2269.81 -0.634514 -0.320801 0
M  V30 24355 H 2272.42 -1.94251 -0.220652 0
M  V30 24356 H 2271.12 -3.94518 -1.13064 0
M  V30 24357 H 2270.65 -2.99591 -2.54968 0
M  V30 24358 H 2272.67 -3.19543 -3.79614 0
M  V30 24359 N 2271.84 0.489844 -1.49794 0
M  V30 24360 C 2272.75 1.6163 -1.70038 0
M  V30 24361 C 2273.77 1.63938 -0.583131 0
M  V30 24362 O 2274.94 1.82153 -0.859201 0
M  V30 24363 C 2272.01 2.97946 -1.77282 0
M  V30 24364 C 2271.07 3.06176 -3.00923 0
M  V30 24365 C 2270.3 4.3599 -3.07812 0
M  V30 24366 O 2270.52 5.2543 -2.21991 0
M  V30 24367 O 2269.46 4.49424 -4.00377 0
M  V30 24368 H 2273.28 1.47477 -2.65489 0
M  V30 24369 H 2270.87 0.667339 -1.33667 0
M  V30 24370 H 2272.75 3.78944 -1.84336 0
M  V30 24371 H 2271.43 3.12337 -0.850131 0
M  V30 24372 H 2270.33 2.24325 -2.99381 0
M  V30 24373 H 2271.67 2.96716 -3.92709 0
M  V30 24374 N 2273.32 1.39056 0.741698 0
M  V30 24375 C 2274.73 1.3207 1.31963 0
M  V30 24376 C 2275.08 -0.0180453 1.96192 0
M  V30 24377 O 2274.2 -0.920162 1.95862 0
M  V30 24378 C 2274.8 2.39185 2.3995 0
M  V30 24379 C 2273.36 2.35741 2.93434 0
M  V30 24380 C 2272.51 2.21425 1.66932 0
M  V30 24381 H 2275.46 1.49241 0.539695 0
M  V30 24382 H 2275.48 2.05587 3.20178 0
M  V30 24383 H 2274.99 3.36609 1.93174 0
M  V30 24384 H 2273.09 1.41935 3.44507 0
M  V30 24385 H 2273.2 3.30341 3.47004 0
M  V30 24386 H 2271.57 1.68481 1.91014 0
M  V30 24387 H 2272.35 3.20808 1.22218 0
M  V30 24388 N 2274.8 -0.971167 1.24121 0
M  V30 24389 C 2276.04 -1.7103 1.07671 0
M  V30 24390 C 2276.36 -1.91146 -0.385764 0
M  V30 24391 O 2275.63 -1.48673 -1.27567 0
M  V30 24392 H 2274.21 -0.633748 0.39544 0
M  V30 24393 H 2276.88 -1.16852 1.55986 0
M  V30 24394 H 2275.97 -2.69619 1.572 0
M  V30 24395 N 2276.27 -1.05441 -1.17133 0
M  V30 24396 C 2277.52 -0.76711 -1.87732 0
M  V30 24397 C 2277.85 0.704221 -1.80982 0
M  V30 24398 O 2277.13 1.51517 -1.21954 0
M  V30 24399 C 2277.41 -1.25139 -3.37657 0
M  V30 24400 C 2277.26 -2.78584 -3.53145 0
M  V30 24401 C 2278.58 -0.8524 -4.31766 0
M  V30 24402 H 2275.7 -0.280141 -0.681682 0
M  V30 24403 H 2278.34 -1.30883 -1.3773 0
M  V30 24404 H 2276.49 -0.790536 -3.80372 0
M  V30 24405 H 2278.17 -3.32812 -3.19428 0
M  V30 24406 H 2276.41 -3.17737 -2.9534 0
M  V30 24407 H 2277.08 -3.07531 -4.58398 0
M  V30 24408 H 2279.56 -1.24918 -3.96906 0
M  V30 24409 H 2278.43 -1.21883 -5.35197 0
M  V30 24410 H 2278.69 0.243407 -4.41429 0
M  V30 24411 N 2277.75 1.33613 -0.835776 0
M  V30 24412 C 2279.03 1.92406 -0.352051 0
M  V30 24413 C 2279.41 1.76226 1.16222 0
M  V30 24414 O 2278.76 1.14877 1.97524 0
M  V30 24415 C 2278.97 3.39812 -0.795545 0
M  V30 24416 C 2280.32 4.16961 -0.801776 0
M  V30 24417 O 2281.34 3.48451 -0.738951 0
M  V30 24418 O 2280.2 5.39259 -0.886702 0
M  V30 24419 H 2277.29 0.821056 -0.0989786 0
M  V30 24420 H 2279.84 1.42506 -0.921422 0
M  V30 24421 H 2278.61 3.45446 -1.83801 0
M  V30 24422 H 2278.23 3.97084 -0.202575 0
M  V30 24423 N 2279.23 0.591922 1.46062 0
M  V30 24424 C 2280.46 0.0868039 2.06418 0
M  V30 24425 C 2280.87 -1.22748 1.43978 0
M  V30 24426 O 2280.21 -1.75505 0.542562 0
M  V30 24427 C 2280.27 -0.143662 3.59213 0
M  V30 24428 C 2279.94 1.08642 4.43898 0
M  V30 24429 C 2280.93 2.00075 4.7986 0
M  V30 24430 C 2278.62 1.31086 4.84894 0
M  V30 24431 C 2280.61 3.12292 5.55655 0
M  V30 24432 C 2278.3 2.43606 5.60446 0
M  V30 24433 C 2279.3 3.34038 5.95741 0
M  V30 24434 O 2278.99 4.44602 6.69765 0
M  V30 24435 H 2278.72 0.0587566 0.673442 0
M  V30 24436 H 2281.27 0.815027 1.88538 0
M  V30 24437 H 2279.5 -0.926602 3.75434 0
M  V30 24438 H 2281.19 -0.59843 4.01464 0
M  V30 24439 H 2281.96 1.83955 4.4876 0
M  V30 24440 H 2277.84 0.61602 4.56866 0
M  V30 24441 H 2281.38 3.82901 5.83123 0
M  V30 24442 H 2277.28 2.59685 5.9096 0
M  V30 24443 H 2278.05 4.43085 6.88199 0
M  V30 24444 N 2280.71 -1.54102 0.330204 0
M  V30 24445 C 2281.95 -2.00984 -0.27077 0
M  V30 24446 C 2282.29 -1.21791 -1.51263 0
M  V30 24447 O 2281.56 -0.301961 -1.92142 0
M  V30 24448 C 2281.85 -3.55095 -0.598277 0
M  V30 24449 C 2281.7 -4.45009 0.654752 0
M  V30 24450 C 2283.02 -4.16791 -1.41327 0
M  V30 24451 H 2280.14 -0.730597 -0.0969403 0
M  V30 24452 H 2282.78 -1.8464 0.448098 0
M  V30 24453 H 2280.93 -3.69153 -1.21071 0
M  V30 24454 H 2282.6 -4.42811 1.29292 0
M  V30 24455 H 2280.84 -4.14414 1.28232 0
M  V30 24456 H 2281.51 -5.50683 0.381041 0
M  V30 24457 H 2283.99 -4.06349 -0.895525 0
M  V30 24458 H 2282.87 -5.24721 -1.61118 0
M  V30 24459 H 2283.13 -3.70546 -2.4114 0
M  V30 24460 N 2282.19 -0.0585199 -1.57491 0
M  V30 24461 C 2283.42 0.622099 -1.97011 0
M  V30 24462 C 2283.82 1.64479 -0.935063 0
M  V30 24463 O 2283.17 1.83488 0.0882581 0
M  V30 24464 C 2283.23 1.35966 -3.32797 0
M  V30 24465 C 2282.89 0.491963 -4.54344 0
M  V30 24466 C 2283.89 -0.244992 -5.19322 0
M  V30 24467 C 2281.58 0.420733 -5.00535 0
M  V30 24468 C 2283.57 -1.04154 -6.28833 0
M  V30 24469 C 2281.26 -0.379496 -6.09921 0
M  V30 24470 C 2282.25 -1.10931 -6.73931 0
M  V30 24471 O 2281.94 -1.89637 -7.81213 0
M  V30 24472 H 2281.67 0.174348 -0.65313 0
M  V30 24473 H 2284.23 -0.123454 -2.05029 0
M  V30 24474 H 2282.46 2.151 -3.21355 0
M  V30 24475 H 2284.15 1.93122 -3.57013 0
M  V30 24476 H 2284.91 -0.199475 -4.8459 0
M  V30 24477 H 2280.79 0.978395 -4.50498 0
M  V30 24478 H 2284.34 -1.61169 -6.78727 0
M  V30 24479 H 2280.23 -0.426625 -6.44089 0
M  V30 24480 H 2281 -1.81927 -7.98026 0
M  V30 24481 N 2283.66 1.56128 0.21493 0
M  V30 24482 C 2284.61 1.92954 1.26639 0
M  V30 24483 C 2285.58 0.787555 1.46242 0
M  V30 24484 O 2286.77 1.04402 1.59702 0
M  V30 24485 C 2283.91 2.2573 2.61036 0
M  V30 24486 C 2283.02 3.52895 2.49177 0
M  V30 24487 C 2282.15 3.75087 3.76143 0
M  V30 24488 C 2281.19 4.95744 3.59033 0
M  V30 24489 N 2280.33 5.14291 4.77963 0
M  V30 24490 H 2285.17 2.82608 0.945334 0
M  V30 24491 H 2282.71 1.39871 0.455465 0
M  V30 24492 H 2284.67 2.42745 3.39309 0
M  V30 24493 H 2283.3 1.39241 2.91225 0
M  V30 24494 H 2282.35 3.44037 1.62304 0
M  V30 24495 H 2283.66 4.41322 2.32458 0
M  V30 24496 H 2282.81 3.92234 4.62858 0
M  V30 24497 H 2281.55 2.84954 3.95794 0
M  V30 24498 H 2280.56 4.7854 2.70701 0
M  V30 24499 H 2281.78 5.87368 3.40846 0
M  V30 24500 H 2279.73 4.27102 4.97916 0
M  V30 24501 H 2279.65 5.96862 4.63996 0
M  V30 24502 H 2280.91 5.35879 5.66086 0
M  V30 24503 N 2285.14 -0.481893 1.50052 0
M  V30 24504 C 2286.37 -1.25829 1.64239 0
M  V30 24505 C 2286.79 -1.86045 0.321369 0
M  V30 24506 O 2286.14 -1.6873 -0.695448 0
M  V30 24507 C 2286.19 -2.37482 2.72552 0
M  V30 24508 O 2285.91 -1.79738 3.99532 0
M  V30 24509 C 2287.42 -3.28541 2.97616 0
M  V30 24510 H 2284.64 -0.380947 0.552377 0
M  V30 24511 H 2287.18 -0.576433 1.96208 0
M  V30 24512 H 2285.33 -3.01463 2.43308 0
M  V30 24513 H 2285.75 -2.53182 4.59347 0
M  V30 24514 H 2287.22 -4.0312 3.77092 0
M  V30 24515 H 2287.7 -3.8668 2.08266 0
M  V30 24516 H 2288.31 -2.70308 3.2835 0
M  V30 24517 N 2286.62 -1.39448 -0.734313 0
M  V30 24518 C 2288.04 -1.21067 -1.03995 0
M  V30 24519 C 2288.24 -0.0727373 -2.01369 0
M  V30 24520 O 2287.29 0.575383 -2.45857 0
M  V30 24521 C 2288.61 -2.54499 -1.60158 0
M  V30 24522 C 2290.15 -2.6135 -1.72235 0
M  V30 24523 C 2290.63 -3.95006 -2.31807 0
M  V30 24524 N 2292.12 -3.96648 -2.39216 0
M  V30 24525 C 2292.85 -4.96839 -2.86249 0
M  V30 24526 N 2292.35 -6.07427 -3.33173 0
M  V30 24527 N 2294.14 -4.84218 -2.85464 0
M  V30 24528 H 2286.29 -2.12215 -0.0885251 0
M  V30 24529 H 2288.56 -0.942508 -0.101893 0
M  V30 24530 H 2288.26 -3.38323 -0.960752 0
M  V30 24531 H 2288.14 -2.74267 -2.58955 0
M  V30 24532 H 2290.52 -1.7791 -2.3544 0
M  V30 24533 H 2290.61 -2.45432 -0.720896 0
M  V30 24534 H 2290.25 -4.78877 -1.6923 0
M  V30 24535 H 2290.18 -4.08245 -3.32631 0
M  V30 24536 H 2292.67 -3.16783 -2.06051 0
M  V30 24537 H 2292.98 -6.79786 -3.67574 0
M  V30 24538 H 2291.33 -6.11019 -3.3118 0
M  V30 24539 H 2294.52 -3.96925 -2.48129 0
M  V30 24540 H 2294.69 -5.62446 -3.21804 0
M  V30 24541 N 2288.1 0.964571 -1.24635 0
M  V30 24542 C 2289.03 2.07739 -1.06614 0
M  V30 24543 C 2290.01 1.70086 0.0218367 0
M  V30 24544 O 2291.19 1.93652 -0.145827 0
M  V30 24545 C 2288.32 3.40707 -0.673503 0
M  V30 24546 C 2287.28 3.92329 -1.71061 0
M  V30 24547 C 2286.6 5.21676 -1.17294 0
M  V30 24548 C 2287.9 4.19818 -3.10725 0
M  V30 24549 H 2289.6 2.23073 -1.99697 0
M  V30 24550 H 2287.14 1.07193 -0.961539 0
M  V30 24551 H 2289.1 4.17998 -0.534418 0
M  V30 24552 H 2287.82 3.25283 0.293016 0
M  V30 24553 H 2286.48 3.17198 -1.83796 0
M  V30 24554 H 2286.13 5.02614 -0.196935 0
M  V30 24555 H 2285.83 5.57183 -1.86602 0
M  V30 24556 H 2287.35 6.01573 -1.04604 0
M  V30 24557 H 2288.77 4.87802 -3.01201 0
M  V30 24558 H 2287.16 4.6656 -3.77414 0
M  V30 24559 H 2288.23 3.26473 -3.5853 0
M  V30 24560 N 2289.58 1.0606 1.16572 0
M  V30 24561 C 2290.82 0.777055 1.87322 0
M  V30 24562 C 2291.16 -0.694613 1.81353 0
M  V30 24563 O 2290.43 -1.50869 1.22756 0
M  V30 24564 C 2290.71 1.26928 3.36989 0
M  V30 24565 C 2290.57 2.80453 3.51662 0
M  V30 24566 C 2291.89 0.875286 4.31308 0
M  V30 24567 H 2289 0.283752 0.680187 0
M  V30 24568 H 2291.65 1.31612 1.37034 0
M  V30 24569 H 2289.8 0.810697 3.79947 0
M  V30 24570 H 2291.47 3.34501 3.17658 0
M  V30 24571 H 2289.71 3.19299 2.9365 0
M  V30 24572 H 2290.38 3.09958 4.56761 0
M  V30 24573 H 2292.86 1.27021 3.96238 0
M  V30 24574 H 2291.73 1.24719 5.34543 0
M  V30 24575 H 2292 -0.219994 4.41552 0
M  V30 24576 N 2291.06 -1.33168 0.84285 0
M  V30 24577 C 2292 -2.29133 0.276925 0
M  V30 24578 C 2292.97 -1.54513 -0.609499 0
M  V30 24579 O 2294.16 -1.82793 -0.546923 0
M  V30 24580 C 2291.3 -3.4087 -0.538647 0
M  V30 24581 C 2290.41 -4.30393 0.372245 0
M  V30 24582 C 2289.55 -5.29249 -0.454815 0
M  V30 24583 C 2288.58 -6.10412 0.454218 0
M  V30 24584 N 2287.72 -7.01301 -0.334952 0
M  V30 24585 H 2292.56 -2.76932 1.10057 0
M  V30 24586 H 2290.1 -1.36262 0.554185 0
M  V30 24587 H 2292.06 -4.04362 -1.02702 0
M  V30 24588 H 2290.69 -2.94253 -1.32722 0
M  V30 24589 H 2289.74 -3.67588 0.978944 0
M  V30 24590 H 2291.05 -4.8718 1.07039 0
M  V30 24591 H 2290.2 -5.98287 -1.00684 0
M  V30 24592 H 2288.94 -4.7305 -1.18638 0
M  V30 24593 H 2287.95 -5.40289 1.01823 0
M  V30 24594 H 2289.17 -6.68695 1.18421 0
M  V30 24595 H 2287.12 -6.47545 -1.04982 0
M  V30 24596 H 2287.04 -7.55387 0.304395 0
M  V30 24597 H 2288.3 -7.7464 -0.869088 0
M  V30 24598 N 2292.53 -0.599659 -1.45746 0
M  V30 24599 C 2293.78 -0.0918999 -2.02592 0
M  V30 24600 C 2294.11 1.27126 -1.46808 0
M  V30 24601 O 2293.39 1.8368 -0.63969 0
M  V30 24602 C 2293.67 -0.044403 -3.60073 0
M  V30 24603 C 2293.52 -1.43766 -4.26206 0
M  V30 24604 C 2294.84 0.647532 -4.3531 0
M  V30 24605 H 2291.96 -0.03487 -0.736175 0
M  V30 24606 H 2294.6 -0.770112 -1.73693 0
M  V30 24607 H 2292.75 0.533156 -3.84824 0
M  V30 24608 H 2294.43 -2.06169 -4.12665 0
M  V30 24609 H 2292.67 -2.00062 -3.84912 0
M  V30 24610 H 2293.34 -1.35674 -5.35067 0
M  V30 24611 H 2295.82 0.156703 -4.15805 0
M  V30 24612 H 2294.69 0.649846 -5.4504 0
M  V30 24613 H 2294.95 1.71212 -4.07601 0
M  V30 24614 N 2294.01 1.53925 -0.338371 0
M  V30 24615 C 2294.94 2.22377 0.555078 0
M  V30 24616 C 2295.96 1.22864 1.0681 0
M  V30 24617 O 2297.15 1.49249 0.979137 0
M  V30 24618 C 2294.25 2.88635 1.77604 0
M  V30 24619 C 2293.42 4.14417 1.3992 0
M  V30 24620 C 2292.48 4.64132 2.47928 0
M  V30 24621 O 2291.5 5.28466 2.11452 0
M  V30 24622 N 2292.71 4.39618 3.79099 0
M  V30 24623 H 2295.47 2.99684 -0.0311305 0
M  V30 24624 H 2293.03 1.61085 -0.162254 0
M  V30 24625 H 2295.02 3.18811 2.49282 0
M  V30 24626 H 2293.59 2.14945 2.26975 0
M  V30 24627 H 2292.81 3.90842 0.513412 0
M  V30 24628 H 2294.1 4.96245 1.12332 0
M  V30 24629 H 2293.5 3.88155 4.11524 0
M  V30 24630 H 2292.06 4.74414 4.46962 0
M  V30 24631 N 2295.49 0.0668712 1.57458 0
M  V30 24632 C 2296.42 -0.899726 2.1547 0
M  V30 24633 C 2297.4 -1.31379 1.08044 0
M  V30 24634 O 2298.59 -1.38572 1.36057 0
M  V30 24635 C 2295.72 -2.16907 2.71236 0
M  V30 24636 C 2294.67 -1.89456 3.83784 0
M  V30 24637 C 2294 -3.22978 4.26133 0
M  V30 24638 C 2295.3 -1.20372 5.0824 0
M  V30 24639 H 2296.99 -0.416477 2.96489 0
M  V30 24640 H 2294.54 -0.198883 1.4262 0
M  V30 24641 H 2296.49 -2.84939 3.10463 0
M  V30 24642 H 2295.21 -2.67465 1.8743 0
M  V30 24643 H 2293.87 -1.2383 3.45053 0
M  V30 24644 H 2293.52 -3.71368 3.39256 0
M  V30 24645 H 2293.22 -3.05404 5.01998 0
M  V30 24646 H 2294.74 -3.92217 4.67973 0
M  V30 24647 H 2296.16 -1.78466 5.44814 0
M  V30 24648 H 2294.55 -1.13073 5.89351 0
M  V30 24649 H 2295.62 -0.182068 4.84558 0
M  V30 24650 N 2296.97 -1.56239 -0.206647 0
M  V30 24651 C 2298.19 -1.84392 -0.949442 0
M  V30 24652 C 2298.62 -0.649047 -1.76547 0
M  V30 24653 O 2297.98 0.4022 -1.76782 0
M  V30 24654 C 2298.02 -3.10672 -1.83073 0
M  V30 24655 O 2297.13 -2.90412 -2.92805 0
M  V30 24656 H 2296.47 -0.607503 -0.268022 0
M  V30 24657 H 2299 -2.03462 -0.215453 0
M  V30 24658 H 2299.01 -3.41165 -2.23764 0
M  V30 24659 H 2297.68 -3.97263 -1.23105 0
M  V30 24660 H 2296.26 -2.71189 -2.55951 0
M  V30 24661 N 2298.45 0.473929 -1.50305 0
M  V30 24662 C 2299.39 1.59304 -1.69485 0
M  V30 24663 C 2300.39 1.59852 -0.560697 0
M  V30 24664 O 2301.59 1.64035 -0.741116 0
M  V30 24665 H 2297.97 0.528569 -0.534901 0
M  V30 24666 H 2299.94 1.40288 -2.63366 0
M  V30 24667 C 2298.69 2.97264 -1.80359 0
M  V30 24668 H 2298.01 2.9756 -2.67017 0
M  V30 24669 H 2299.45 3.75032 -1.97805 0
M  V30 24670 C 2297.91 3.32305 -0.554538 0
M  V30 24671 O 2298.44 4.00521 0.307591 0
M  V30 24672 N 2296.65 2.87702 -0.409404 0
M  V30 24673 H 2296.19 2.32362 -1.112 0
M  V30 24674 H 2296.15 3.11512 0.425168 0
M  V30 24675 N 2299.92 1.39835 0.726907 0
M  V30 24676 C 2301.2 1.28004 1.479 0
M  V30 24677 C 2301.58 -0.106752 2.1083 0
M  V30 24678 O 2300.93 -1.11866 1.99244 0
M  V30 24679 C 2301.14 2.41042 2.52388 0
M  V30 24680 C 2302.49 2.80743 3.18541 0
M  V30 24681 O 2303.51 2.40552 2.62704 0
M  V30 24682 O 2302.37 3.50142 4.19598 0
M  V30 24683 H 2299.46 0.502074 0.657154 0
M  V30 24684 H 2302.01 1.51728 0.760044 0
M  V30 24685 H 2300.78 3.33718 2.04323 0
M  V30 24686 H 2300.4 2.19027 3.31833 0
M  V30 24687 N 2301.4 -0.957948 1.25144 0
M  V30 24688 C 2302.65 -1.70215 1.09695 0
M  V30 24689 C 2302.98 -1.9109 -0.362621 0
M  V30 24690 O 2302.23 -1.47703 -1.28383 0
M  V30 24691 C 2302.53 -3.09183 1.79277 0
M  V30 24692 C 2302.2 -3.08119 3.29201 0
M  V30 24693 C 2300.86 -3.07536 3.70101 0
M  V30 24694 C 2303.21 -3.01702 4.25 0
M  V30 24695 C 2300.54 -2.98281 5.05218 0
M  V30 24696 C 2302.89 -2.93989 5.60137 0
M  V30 24697 C 2301.55 -2.9174 6.0037 0
M  V30 24698 H 2300.82 -0.622861 0.401404 0
M  V30 24699 H 2303.47 -1.11942 1.55374 0
M  V30 24700 H 2301.78 -3.7098 1.2602 0
M  V30 24701 H 2303.47 -3.6558 1.6478 0
M  V30 24702 H 2300.06 -3.09343 2.96656 0
M  V30 24703 H 2304.25 -3.01274 3.94395 0
M  V30 24704 H 2299.5 -2.94906 5.35575 0
M  V30 24705 H 2303.68 -2.87984 6.34065 0
M  V30 24706 H 2301.3 -2.84324 7.05028 0
M  V30 24707 N 2302.88 -1.06677 -1.16008 0
M  V30 24708 C 2304.16 -0.699146 -1.82678 0
M  V30 24709 C 2304.54 0.819102 -1.94561 0
M  V30 24710 O 2303.88 1.73089 -1.49172 0
M  V30 24711 C 2304.09 -1.40561 -3.19443 0
M  V30 24712 C 2305.44 -1.5533 -3.95168 0
M  V30 24713 O 2306.47 -1.36582 -3.28974 0
M  V30 24714 O 2305.33 -1.86121 -5.1383 0
M  V30 24715 H 2302.42 -0.247965 -0.78895 0
M  V30 24716 H 2304.97 -1.16728 -1.23177 0
M  V30 24717 H 2303.74 -2.4407 -3.05852 0
M  V30 24718 H 2303.36 -0.927801 -3.86623 0
M  V30 24719 N 2304.36 1.32719 -0.8499 0
M  V30 24720 C 2305.27 2.32753 -0.293832 0
M  V30 24721 C 2306.28 1.6384 0.585878 0
M  V30 24722 O 2307.46 1.95414 0.487379 0
M  V30 24723 C 2304.52 3.42888 0.512692 0
M  V30 24724 C 2303.59 4.27501 -0.392595 0
M  V30 24725 C 2302.82 5.32377 0.375532 0
M  V30 24726 O 2303.04 5.47323 1.60603 0
M  V30 24727 O 2301.98 6.01354 -0.2562 0
M  V30 24728 H 2305.8 2.82195 -1.12247 0
M  V30 24729 H 2303.39 1.36258 -0.612709 0
M  V30 24730 H 2305.27 4.10069 0.970632 0
M  V30 24731 H 2303.94 2.95643 1.31821 0
M  V30 24732 H 2302.85 3.63147 -0.89861 0
M  V30 24733 H 2304.18 4.78258 -1.16317 0
M  V30 24734 N 2305.84 0.60738 1.45426 0
M  V30 24735 C 2307.07 0.108692 2.06314 0
M  V30 24736 C 2307.47 -1.21214 1.45271 0
M  V30 24737 O 2306.82 -1.7492 0.561146 0
M  V30 24738 C 2306.88 -0.105554 3.59345 0
M  V30 24739 C 2306.54 1.13344 4.42721 0
M  V30 24740 C 2307.54 2.05153 4.77711 0
M  V30 24741 C 2305.23 1.36221 4.83476 0
M  V30 24742 C 2307.22 3.18167 5.52312 0
M  V30 24743 C 2304.91 2.49536 5.5783 0
M  V30 24744 C 2305.9 3.40337 5.92165 0
M  V30 24745 O 2305.59 4.5168 6.65011 0
M  V30 24746 H 2305.32 0.065896 0.672781 0
M  V30 24747 H 2307.88 0.834978 1.87663 0
M  V30 24748 H 2306.11 -0.88673 3.76396 0
M  V30 24749 H 2307.8 -0.555815 4.02076 0
M  V30 24750 H 2308.56 1.88705 4.46784 0
M  V30 24751 H 2304.44 0.664442 4.56187 0
M  V30 24752 H 2307.99 3.89064 5.79029 0
M  V30 24753 H 2303.88 2.65938 5.88173 0
M  V30 24754 H 2304.65 4.5036 6.83461 0
M  V30 24755 N 2307.31 -1.53743 0.34653 0
M  V30 24756 C 2308.56 -2.00144 -0.250087 0
M  V30 24757 C 2308.88 -1.23825 -1.51416 0
M  V30 24758 O 2310.08 -1.60717 -2.1882 0
M  V30 24759 C 2308.54 -3.56463 -0.49619 0
M  V30 24760 C 2308.15 -4.41641 0.752155 0
M  V30 24761 C 2309.89 -4.11271 -1.0515 0
M  V30 24762 C 2307.8 -5.89476 0.476687 0
M  V30 24763 H 2306.73 -0.747705 -0.0972278 0
M  V30 24764 H 2309.38 -1.77581 0.462321 0
M  V30 24765 H 2307.76 -3.75104 -1.26938 0
M  V30 24766 H 2308.93 -4.34775 1.52667 0
M  V30 24767 H 2307.25 -3.9784 1.22932 0
M  V30 24768 H 2309.85 -5.19335 -1.2726 0
M  V30 24769 H 2310.19 -3.64675 -2.00793 0
M  V30 24770 H 2310.72 -3.96353 -0.338949 0
M  V30 24771 H 2307.46 -6.40311 1.40292 0
M  V30 24772 H 2306.98 -5.99238 -0.259688 0
M  V30 24773 H 2308.66 -6.4693 0.0950452 0
M  V30 24774 N 2308.79 -0.0752207 -1.5742 0
M  V30 24775 C 2309.73 0.926868 -2.08529 0
M  V30 24776 C 2310.7 1.28896 -0.991193 0
M  V30 24777 O 2311.89 1.39766 -1.26482 0
M  V30 24778 C 2309.01 2.23398 -2.5458 0
M  V30 24779 C 2308.06 2.02321 -3.75458 0
M  V30 24780 S 2308.89 1.27941 -5.19992 0
M  V30 24781 C 2310.05 2.59925 -5.69377 0
M  V30 24782 H 2310.28 0.491996 -2.93201 0
M  V30 24783 H 2307.82 0.137624 -1.53785 0
M  V30 24784 H 2309.77 2.98521 -2.81772 0
M  V30 24785 H 2308.43 2.64009 -1.7017 0
M  V30 24786 H 2307.63 2.99064 -4.0568 0
M  V30 24787 H 2307.23 1.35332 -3.48656 0
M  V30 24788 H 2309.52 3.55998 -5.7643 0
M  V30 24789 H 2310.46 2.34308 -6.68211 0
M  V30 24790 H 2310.87 2.67287 -4.9721 0
M  V30 24791 N 2310.27 1.56347 0.198358 0
M  V30 24792 C 2311.23 1.93433 1.22949 0
M  V30 24793 C 2312.23 0.815116 1.38609 0
M  V30 24794 O 2313.42 1.08258 1.36477 0
M  V30 24795 C 2310.56 2.20551 2.59942 0
M  V30 24796 H 2311.75 2.85678 0.912576 0
M  V30 24797 H 2309.3 1.49986 0.439744 0
M  V30 24798 H 2310.04 1.30932 2.96694 0
M  V30 24799 H 2309.82 3.02107 2.49948 0
M  V30 24800 H 2311.31 2.50259 3.34306 0
M  V30 24801 N 2311.75 -0.465951 1.50554 0
M  V30 24802 C 2313 -1.21445 1.6104 0
M  V30 24803 C 2313.31 -1.92986 0.318684 0
M  V30 24804 O 2314.52 -2.69809 0.302516 0
M  V30 24805 C 2312.97 -2.20701 2.84287 0
M  V30 24806 C 2312.58 -1.54939 4.20354 0
M  V30 24807 C 2314.32 -2.96161 3.0412 0
M  V30 24808 C 2312.23 -2.52511 5.34783 0
M  V30 24809 H 2311.16 -0.456995 0.599726 0
M  V30 24810 H 2313.81 -0.484393 1.76991 0
M  V30 24811 H 2312.19 -2.97021 2.61906 0
M  V30 24812 H 2313.37 -0.843732 4.5301 0
M  V30 24813 H 2311.68 -0.917404 4.06168 0
M  V30 24814 H 2314.28 -3.69195 3.8678 0
M  V30 24815 H 2314.62 -3.55848 2.16051 0
M  V30 24816 H 2315.16 -2.26953 3.26706 0
M  V30 24817 H 2311.9 -1.97555 6.25022 0
M  V30 24818 H 2311.42 -3.21214 5.06539 0
M  V30 24819 H 2313.09 -3.14235 5.65567 0
M  V30 24820 N 2313.23 -1.40218 -0.719481 0
M  V30 24821 C 2314.14 -1.42483 -1.86375 0
M  V30 24822 C 2315.15 -0.317864 -1.71072 0
M  V30 24823 O 2316.33 -0.561828 -1.93405 0
M  V30 24824 C 2313.39 -1.28183 -3.22133 0
M  V30 24825 C 2312.45 -2.48988 -3.49719 0
M  V30 24826 C 2311.69 -2.35362 -4.79 0
M  V30 24827 O 2311.91 -1.36534 -5.53818 0
M  V30 24828 O 2310.84 -3.24659 -5.06834 0
M  V30 24829 H 2314.67 -2.38971 -1.87421 0
M  V30 24830 H 2312.26 -1.21499 -0.869384 0
M  V30 24831 H 2314.14 -1.22402 -4.03232 0
M  V30 24832 H 2312.81 -0.347991 -3.21824 0
M  V30 24833 H 2311.72 -2.60347 -2.68645 0
M  V30 24834 H 2313.05 -3.4112 -3.54822 0
M  V30 24835 N 2314.7 0.951297 -1.25651 0
M  V30 24836 C 2315.64 2.05195 -1.02116 0
M  V30 24837 C 2316.65 1.62793 0.0150285 0
M  V30 24838 O 2317.84 1.7709 -0.223906 0
M  V30 24839 C 2314.94 3.34849 -0.522419 0
M  V30 24840 C 2314.11 4.06073 -1.62553 0
M  V30 24841 C 2313.17 5.13999 -1.12659 0
M  V30 24842 O 2312.2 5.39263 -1.82165 0
M  V30 24843 N 2313.4 5.80492 0.030368 0
M  V30 24844 H 2316.16 2.25954 -1.96888 0
M  V30 24845 H 2313.72 1.12008 -1.16901 0
M  V30 24846 H 2315.72 4.0433 -0.173032 0
M  V30 24847 H 2314.29 3.10838 0.331455 0
M  V30 24848 H 2313.51 3.30645 -2.14634 0
M  V30 24849 H 2314.79 4.50414 -2.36652 0
M  V30 24850 H 2314.19 5.6239 0.61107 0
M  V30 24851 H 2312.75 6.5101 0.320761 0
M  V30 24852 N 2316.18 1.07291 1.1544 0
M  V30 24853 C 2317.41 0.816793 1.90095 0
M  V30 24854 C 2317.83 -0.629935 1.77981 0
M  V30 24855 O 2317.18 -1.43204 1.13133 0
M  V30 24856 C 2317.23 1.21518 3.40464 0
M  V30 24857 O 2316.95 2.60514 3.52227 0
M  V30 24858 C 2318.46 0.988274 4.32144 0
M  V30 24859 H 2315.68 0.295376 0.60249 0
M  V30 24860 H 2318.22 1.4292 1.46267 0
M  V30 24861 H 2316.37 0.647106 3.81957 0
M  V30 24862 H 2316.79 2.76749 4.45545 0
M  V30 24863 H 2318.26 1.31654 5.3607 0
M  V30 24864 H 2318.74 -0.0754291 4.39135 0
M  V30 24865 H 2319.35 1.54122 3.96392 0
M  V30 24866 N 2317.66 -1.32267 0.856927 0
M  V30 24867 C 2318.91 -1.9644 0.457633 0
M  V30 24868 C 2319.22 -1.68555 -0.992397 0
M  V30 24869 O 2320.43 -2.26485 -1.49723 0
M  V30 24870 C 2318.88 -3.51623 0.76742 0
M  V30 24871 C 2318.49 -3.88364 2.23333 0
M  V30 24872 C 2320.24 -4.22255 0.435961 0
M  V30 24873 C 2318.14 -5.36601 2.48622 0
M  V30 24874 H 2317.07 -0.735182 0.1674 0
M  V30 24875 H 2319.72 -1.50628 1.04802 0
M  V30 24876 H 2318.11 -3.95857 0.106437 0
M  V30 24877 H 2319.28 -3.55132 2.93629 0
M  V30 24878 H 2317.6 -3.30762 2.52954 0
M  V30 24879 H 2320.19 -5.31297 0.602295 0
M  V30 24880 H 2320.54 -4.11618 -0.6226 0
M  V30 24881 H 2321.07 -3.83612 1.05293 0
M  V30 24882 H 2317.81 -5.52261 3.53111 0
M  V30 24883 H 2317.33 -5.71231 1.82906 0
M  V30 24884 H 2319.01 -6.0371 2.32687 0
M  V30 24885 N 2319.14 -0.615084 -1.45102 0
M  V30 24886 C 2320.09 0.0993573 -2.30586 0
M  V30 24887 C 2321.06 0.852644 -1.42545 0
M  V30 24888 O 2322.24 0.836887 -1.71467 0
M  V30 24889 C 2319.38 1.08577 -3.27574 0
M  V30 24890 C 2318.49 0.33258 -4.30718 0
M  V30 24891 C 2317.63 1.30938 -5.14809 0
M  V30 24892 C 2316.67 0.544431 -6.09674 0
M  V30 24893 N 2315.8 1.47089 -6.8652 0
M  V30 24894 H 2320.64 -0.635594 -2.91143 0
M  V30 24895 H 2318.18 -0.325231 -1.4346 0
M  V30 24896 H 2320.14 1.67089 -3.82279 0
M  V30 24897 H 2318.77 1.78805 -2.68754 0
M  V30 24898 H 2317.82 -0.368173 -3.78614 0
M  V30 24899 H 2319.13 -0.263929 -4.98101 0
M  V30 24900 H 2318.29 1.96633 -5.73952 0
M  V30 24901 H 2317.03 1.93982 -4.47462 0
M  V30 24902 H 2316.03 -0.1261 -5.49655 0
M  V30 24903 H 2317.26 -0.0810663 -6.79052 0
M  V30 24904 H 2315.2 2.08884 -6.21855 0
M  V30 24905 H 2315.12 0.928005 -7.50283 0
M  V30 24906 H 2316.39 2.11718 -7.50197 0
M  V30 24907 N 2320.62 1.53557 -0.354678 0
M  V30 24908 C 2321.84 2.05982 0.242117 0
M  V30 24909 C 2322.27 1.22723 1.42551 0
M  V30 24910 O 2321.63 0.243635 1.79656 0
M  V30 24911 C 2321.67 3.55155 0.624304 0
M  V30 24912 O 2320.78 3.74684 1.72295 0
M  V30 24913 H 2320.12 0.662921 0.0378315 0
M  V30 24914 H 2322.65 1.98087 -0.512121 0
M  V30 24915 H 2322.66 3.97987 0.898363 0
M  V30 24916 H 2321.33 4.15201 -0.241062 0
M  V30 24917 H 2319.91 3.43753 1.44529 0
M  V30 24918 N 2322.1 0.083568 1.57378 0
M  V30 24919 C 2323.34 -0.581684 1.93548 0
M  V30 24920 C 2323.66 -1.69433 0.96527 0
M  V30 24921 O 2322.93 -1.95894 0.0153713 0
M  V30 24922 H 2321.51 -0.217861 0.714525 0
M  V30 24923 H 2324.18 0.144192 1.94366 0
M  V30 24924 H 2323.27 -0.999371 2.95667 0
M  V30 24925 N 2323.57 -1.5645 -0.190064 0
M  V30 24926 C 2324.8 -1.85389 -0.929831 0
M  V30 24927 C 2325.22 -0.667735 -1.75849 0
M  V30 24928 O 2324.58 0.383428 -1.77199 0
M  V30 24929 C 2324.63 -3.12596 -1.79767 0
M  V30 24930 O 2323.73 -2.93502 -2.89708 0
M  V30 24931 H 2323.07 -0.610312 -0.261563 0
M  V30 24932 H 2325.6 -2.0368 -0.193861 0
M  V30 24933 H 2325.61 -3.43519 -2.20133 0
M  V30 24934 H 2324.29 -3.98546 -1.18885 0
M  V30 24935 H 2322.87 -2.73888 -2.5306 0
M  V30 24936 N 2325.05 0.45796 -1.50799 0
M  V30 24937 C 2326.33 1.21899 -1.5297 0
M  V30 24938 C 2326.71 2.09209 -0.281943 0
M  V30 24939 O 2326.06 2.16389 0.734038 0
M  V30 24940 C 2326.27 2.0387 -2.83263 0
M  V30 24941 C 2327.61 2.61615 -3.34429 0
M  V30 24942 O 2328.64 2.14101 -2.84674 0
M  V30 24943 O 2327.5 3.4822 -4.21195 0
M  V30 24944 H 2324.59 0.553862 -0.614139 0
M  V30 24945 H 2327.14 0.46871 -1.63099 0
M  V30 24946 H 2325.91 1.39615 -3.65545 0
M  V30 24947 H 2325.53 2.86006 -2.762 0
M  V30 24948 N 2326.53 1.40598 0.712035 0
M  V30 24949 C 2327.44 1.43469 1.85617 0
M  V30 24950 C 2328.46 0.326932 1.70901 0
M  V30 24951 O 2329.63 0.572077 1.93104 0
M  V30 24952 C 2326.7 1.2989 3.21449 0
M  V30 24953 C 2325.76 2.50839 3.48394 0
M  V30 24954 C 2324.99 2.37899 4.77745 0
M  V30 24955 O 2325.21 1.39469 5.53086 0
M  V30 24956 O 2324.15 3.27342 5.05105 0
M  V30 24957 H 2327.97 2.39961 1.86151 0
M  V30 24958 H 2325.56 1.21959 0.862929 0
M  V30 24959 H 2327.44 1.24538 4.02577 0
M  V30 24960 H 2326.12 0.365053 3.21635 0
M  V30 24961 H 2325.02 2.61768 2.67261 0
M  V30 24962 H 2326.36 3.42996 3.53007 0
M  V30 24963 N 2328.01 -0.94462 1.26153 0
M  V30 24964 C 2329.25 -1.69292 1.1166 0
M  V30 24965 C 2329.59 -1.91202 -0.339893 0
M  V30 24966 O 2328.86 -1.49021 -1.24992 0
M  V30 24967 C 2329.14 -3.06981 1.88242 0
M  V30 24968 C 2329 -2.92418 3.41777 0
M  V30 24969 C 2330.32 -4.0704 1.6735 0
M  V30 24970 H 2327.44 -0.614417 0.407015 0
M  V30 24971 H 2330.08 -1.09735 1.55108 0
M  V30 24972 H 2328.23 -3.57821 1.51315 0
M  V30 24973 H 2329.9 -2.48825 3.88438 0
M  V30 24974 H 2328.14 -2.28118 3.68978 0
M  V30 24975 H 2328.81 -3.9006 3.90586 0
M  V30 24976 H 2331.29 -3.65148 1.99515 0
M  V30 24977 H 2330.17 -5.01402 2.23354 0
M  V30 24978 H 2330.43 -4.3777 0.617235 0
M  V30 24979 N 2329.49 -1.07901 -1.1487 0
M  V30 24980 C 2330.42 -0.66227 -2.19423 0
M  V30 24981 C 2331.43 0.288051 -1.60231 0
M  V30 24982 O 2332.62 0.0765027 -1.78336 0
M  V30 24983 C 2329.72 0.04701 -3.38867 0
M  V30 24984 C 2328.89 -0.920906 -4.27596 0
M  V30 24985 C 2327.95 -0.247897 -5.25616 0
M  V30 24986 O 2326.98 -0.890698 -5.62188 0
M  V30 24987 N 2328.18 1.00425 -5.71747 0
M  V30 24988 H 2330.94 -1.56171 -2.55794 0
M  V30 24989 H 2328.51 -0.964427 -1.3004 0
M  V30 24990 H 2330.5 0.508059 -4.01498 0
M  V30 24991 H 2329.07 0.84847 -3.00865 0
M  V30 24992 H 2328.29 -1.56093 -3.61979 0
M  V30 24993 H 2329.58 -1.57697 -4.83745 0
M  V30 24994 H 2328.97 1.54633 -5.44155 0
M  V30 24995 H 2327.53 1.40888 -6.36391 0
M  V30 24996 N 2330.96 1.31811 -0.863929 0
M  V30 24997 C 2332.21 1.97217 -0.47257 0
M  V30 24998 C 2332.54 1.68161 0.971364 0
M  V30 24999 O 2331.82 0.974827 1.68307 0
M  V30 25000 C 2332.1 3.52765 -0.723116 0
M  V30 25001 C 2331.95 3.91417 -2.21614 0
M  V30 25002 C 2333.27 4.39708 -0.185599 0
M  V30 25003 H 2330.39 0.716366 -0.173171 0
M  V30 25004 H 2333.03 1.56039 -1.08406 0
M  V30 25005 H 2331.18 3.87971 -0.202645 0
M  V30 25006 H 2332.86 3.66343 -2.80341 0
M  V30 25007 H 2331.1 3.40241 -2.69106 0
M  V30 25008 H 2331.77 4.99849 -2.34212 0
M  V30 25009 H 2334.25 4.11291 -0.630798 0
M  V30 25010 H 2333.12 5.4751 -0.390402 0
M  V30 25011 H 2333.38 4.32588 0.912153 0
M  V30 25012 N 2332.44 0.62277 1.44773 0
M  V30 25013 C 2333.69 0.12369 2.01721 0
M  V30 25014 C 2334.01 -1.25587 1.49174 0
M  V30 25015 O 2333.28 -1.83271 0.692006 0
M  V30 25016 H 2331.86 0.0427356 0.745777 0
M  V30 25017 H 2334.52 0.80759 1.77381 0
M  V30 25018 H 2333.62 0.0850082 3.11984 0
M  V30 25019 N 2333.92 -1.53367 0.362817 0
M  V30 25020 C 2334.85 -2.23232 -0.519629 0
M  V30 25021 C 2335.86 -1.24547 -1.04842 0
M  V30 25022 O 2337.05 -1.50787 -0.955269 0
M  V30 25023 C 2334.15 -2.91424 -1.7299 0
M  V30 25024 C 2333.33 -4.1659 -1.33309 0
M  V30 25025 C 2332.39 -4.68017 -2.40512 0
M  V30 25026 O 2331.41 -5.31764 -2.03018 0
M  V30 25027 N 2332.61 -4.45594 -3.72057 0
M  V30 25028 H 2335.38 -2.99596 0.0788036 0
M  V30 25029 H 2332.94 -1.60806 0.187861 0
M  V30 25030 H 2334.93 -3.22737 -2.44178 0
M  V30 25031 H 2333.5 -2.18529 -2.23526 0
M  V30 25032 H 2332.72 -3.9161 -0.451168 0
M  V30 25033 H 2334.01 -4.97969 -1.04423 0
M  V30 25034 H 2333.41 -3.94653 -4.05297 0
M  V30 25035 H 2331.96 -4.81464 -4.39358 0
M  V30 25036 N 2335.4 -0.091913 -1.57332 0
M  V30 25037 C 2336.33 0.898131 -2.1087 0
M  V30 25038 C 2337.34 1.24815 -1.04523 0
M  V30 25039 O 2338.53 1.20182 -1.31979 0
M  V30 25040 C 2335.63 2.20816 -2.57087 0
M  V30 25041 C 2334.81 2.03396 -3.87232 0
M  V30 25042 C 2333.86 3.17882 -4.1933 0
M  V30 25043 O 2332.89 2.91985 -4.88603 0
M  V30 25044 N 2334.09 4.43561 -3.74479 0
M  V30 25045 H 2336.86 0.440891 -2.96439 0
M  V30 25046 H 2334.42 0.093278 -1.61631 0
M  V30 25047 H 2336.41 2.96349 -2.75607 0
M  V30 25048 H 2334.98 2.57973 -1.76546 0
M  V30 25049 H 2334.2 1.12211 -3.77892 0
M  V30 25050 H 2335.49 1.8903 -4.72382 0
M  V30 25051 H 2334.89 4.67483 -3.18554 0
M  V30 25052 H 2333.44 5.16054 -3.9816 0
M  V30 25053 N 2336.88 1.56548 0.181765 0
M  V30 25054 C 2338.29 1.50432 0.533133 0
M  V30 25055 C 2338.49 0.79433 1.85183 0
M  V30 25056 O 2337.55 0.350361 2.50057 0
M  V30 25057 C 2338.86 2.95141 0.575545 0
M  V30 25058 C 2340.41 3.05887 0.663466 0
M  V30 25059 C 2340.88 4.52033 0.736866 0
M  V30 25060 N 2342.38 4.56239 0.800037 0
M  V30 25061 C 2343.11 5.6665 0.877227 0
M  V30 25062 N 2342.61 6.86719 0.915895 0
M  V30 25063 N 2344.4 5.54595 0.915444 0
M  V30 25064 H 2336.55 2.01117 -0.68306 0
M  V30 25065 H 2338.81 0.915793 -0.245004 0
M  V30 25066 H 2338.52 3.50199 -0.324543 0
M  V30 25067 H 2338.39 3.4922 1.42566 0
M  V30 25068 H 2340.78 2.50869 1.55398 0
M  V30 25069 H 2340.86 2.54911 -0.213115 0
M  V30 25070 H 2340.51 5.0768 -0.149351 0
M  V30 25071 H 2340.44 5.00756 1.62944 0
M  V30 25072 H 2342.93 3.69787 0.778861 0
M  V30 25073 H 2343.24 7.66616 0.975678 0
M  V30 25074 H 2341.58 6.89351 0.884348 0
M  V30 25075 H 2344.78 4.59712 0.882164 0
M  V30 25076 H 2344.95 6.40666 0.97214 0
M  V30 25077 N 2338.35 -0.449957 1.5104 0
M  V30 25078 C 2339.58 -1.22317 1.66871 0
M  V30 25079 C 2340 -1.85321 0.360759 0
M  V30 25080 O 2339.35 -1.70167 -0.659501 0
M  V30 25081 C 2339.41 -2.31648 2.77528 0
M  V30 25082 O 2339.13 -1.71223 4.03255 0
M  V30 25083 C 2340.63 -3.22155 3.04518 0
M  V30 25084 H 2337.85 -0.369145 0.560333 0
M  V30 25085 H 2340.39 -0.534684 1.97386 0
M  V30 25086 H 2338.55 -2.96234 2.49648 0
M  V30 25087 H 2338.96 -2.43381 4.64614 0
M  V30 25088 H 2340.43 -3.95031 3.85557 0
M  V30 25089 H 2340.91 -3.82176 2.16422 0
M  V30 25090 H 2341.52 -2.63282 3.3401 0
M  V30 25091 N 2339.83 -1.40974 -0.704569 0
M  V30 25092 C 2341.08 -1.39847 -1.46455 0
M  V30 25093 C 2341.41 -0.00451012 -1.94499 0
M  V30 25094 O 2340.66 0.982027 -1.69277 0
M  V30 25095 C 2340.96 -2.34404 -2.69796 0
M  V30 25096 C 2340.63 -3.81433 -2.40458 0
M  V30 25097 C 2339.29 -4.21488 -2.32167 0
M  V30 25098 C 2341.64 -4.743 -2.16077 0
M  V30 25099 C 2338.97 -5.5243 -1.97579 0
M  V30 25100 C 2341.32 -6.05552 -1.83 0
M  V30 25101 C 2339.99 -6.44638 -1.73199 0
M  V30 25102 H 2339.26 -0.511735 -0.535918 0
M  V30 25103 H 2341.9 -1.73708 -0.806093 0
M  V30 25104 H 2340.21 -1.93765 -3.40532 0
M  V30 25105 H 2341.9 -2.30809 -3.27915 0
M  V30 25106 H 2338.49 -3.49703 -2.47801 0
M  V30 25107 H 2342.68 -4.44164 -2.21433 0
M  V30 25108 H 2337.93 -5.81605 -1.88537 0
M  V30 25109 H 2342.11 -6.77019 -1.63152 0
M  V30 25110 H 2339.74 -7.46016 -1.46166 0
M  V30 25111 N 2341.31 0.937917 -1.26653 0
M  V30 25112 C 2342.56 1.67895 -1.11778 0
M  V30 25113 C 2342.87 1.92659 0.337906 0
M  V30 25114 O 2344.08 2.64619 0.607387 0
M  V30 25115 C 2342.53 3.02343 -1.95235 0
M  V30 25116 C 2342.14 2.85314 -3.45398 0
M  V30 25117 C 2343.89 3.80115 -1.88979 0
M  V30 25118 C 2341.79 4.15255 -4.2109 0
M  V30 25119 H 2340.72 0.62971 -0.414707 0
M  V30 25120 H 2343.37 1.0428 -1.5099 0
M  V30 25121 H 2341.76 3.66956 -1.48859 0
M  V30 25122 H 2342.93 2.2953 -3.99565 0
M  V30 25123 H 2341.25 2.20982 -3.52925 0
M  V30 25124 H 2343.84 4.76388 -2.42814 0
M  V30 25125 H 2344.19 4.07295 -0.861202 0
M  V30 25126 H 2344.72 3.22281 -2.33195 0
M  V30 25127 H 2341.46 3.93258 -5.24431 0
M  V30 25128 H 2340.98 4.70741 -3.71703 0
M  V30 25129 H 2342.66 4.83689 -4.29714 0
M  V30 25130 N 2342.79 1.08509 1.14296 0
M  V30 25131 C 2344.01 0.837035 1.89759 0
M  V30 25132 C 2344.44 -0.605196 1.78098 0
M  V30 25133 O 2343.8 -1.42418 1.1219 0
M  V30 25134 C 2343.84 1.26501 3.37683 0
M  V30 25135 O 2342.95 0.417587 4.1028 0
M  V30 25136 H 2342.29 0.303927 0.590359 0
M  V30 25137 H 2344.82 1.44679 1.44669 0
M  V30 25138 H 2344.83 1.24632 3.88498 0
M  V30 25139 H 2343.5 2.3154 3.45488 0
M  V30 25140 H 2342.08 0.499786 3.69536 0
M  V30 25141 N 2344.27 -1.31351 0.870907 0
M  V30 25142 C 2345.68 -1.78878 0.534745 0
M  V30 25143 C 2346.03 -1.71756 -0.948392 0
M  V30 25144 O 2345.15 -1.28587 -1.74053 0
M  V30 25145 C 2345.75 -3.24799 0.963896 0
M  V30 25146 C 2344.31 -3.70218 0.679376 0
M  V30 25147 C 2343.45 -2.52115 1.15469 0
M  V30 25148 H 2346.41 -1.18419 1.05653 0
M  V30 25149 H 2346.43 -3.79416 0.286958 0
M  V30 25150 H 2345.94 -3.29951 2.04338 0
M  V30 25151 H 2344.04 -3.70567 -0.388704 0
M  V30 25152 H 2344.15 -4.62315 1.25706 0
M  V30 25153 H 2342.52 -2.48138 0.574427 0
M  V30 25154 H 2343.3 -2.60012 2.24162 0
M  V30 25155 N 2345.74 -0.630439 -1.44441 0
M  V30 25156 C 2346.99 -0.132108 -2.01267 0
M  V30 25157 C 2347.31 1.25328 -1.50174 0
M  V30 25158 O 2348.51 1.84559 -1.99124 0
M  V30 25159 C 2346.97 -0.185425 -3.59422 0
M  V30 25160 C 2346.58 -1.57208 -4.19511 0
M  V30 25161 C 2348.32 0.256479 -4.23724 0
M  V30 25162 C 2346.23 -1.58055 -5.69888 0
M  V30 25163 H 2345.16 -0.0456224 -0.752618 0
M  V30 25164 H 2347.81 -0.789135 -1.65665 0
M  V30 25165 H 2346.19 0.53869 -3.92319 0
M  V30 25166 H 2347.36 -2.31973 -3.98152 0
M  V30 25167 H 2345.68 -1.95801 -3.67493 0
M  V30 25168 H 2348.28 0.269673 -5.3402 0
M  V30 25169 H 2348.62 1.28365 -3.96015 0
M  V30 25170 H 2349.15 -0.415119 -3.95628 0
M  V30 25171 H 2345.89 -2.58607 -6.02331 0
M  V30 25172 H 2345.41 -0.875829 -5.93371 0
M  V30 25173 H 2347.09 -1.31419 -6.33512 0
M  V30 25174 N 2347.22 1.53172 -0.370945 0
M  V30 25175 C 2348.17 2.25901 0.472995 0
M  V30 25176 C 2349.14 1.26783 1.07309 0
M  V30 25177 O 2350.32 1.55576 1.10457 0
M  V30 25178 C 2347.46 3.05558 1.604 0
M  V30 25179 C 2346.58 4.19577 1.02855 0
M  V30 25180 C 2345.71 4.86665 2.1291 0
M  V30 25181 C 2344.75 5.92706 1.52859 0
M  V30 25182 N 2343.89 6.53464 2.56768 0
M  V30 25183 H 2348.73 2.97603 -0.153701 0
M  V30 25184 H 2346.27 1.46839 -0.0876204 0
M  V30 25185 H 2348.22 3.5002 2.27028 0
M  V30 25186 H 2346.85 2.36101 2.20127 0
M  V30 25187 H 2345.91 3.79562 0.252398 0
M  V30 25188 H 2347.22 4.95763 0.549555 0
M  V30 25189 H 2346.37 5.34338 2.87347 0
M  V30 25190 H 2345.11 4.09962 2.64163 0
M  V30 25191 H 2344.12 5.4439 0.769383 0
M  V30 25192 H 2345.34 6.71332 1.02423 0
M  V30 25193 H 2343.29 5.79611 3.07224 0
M  V30 25194 H 2343.2 7.25206 2.1357 0
M  V30 25195 H 2344.47 7.05784 3.30891 0
M  V30 25196 N 2348.7 0.100255 1.57281 0
M  V30 25197 C 2349.94 -0.565545 1.9642 0
M  V30 25198 C 2350.3 -1.65029 0.981294 0
M  V30 25199 O 2351.51 -2.37366 1.26137 0
M  V30 25200 C 2349.78 -1.10165 3.39998 0
M  V30 25201 S 2351.34 -1.7786 4.01137 0
M  V30 25202 H 2348.15 -0.184394 0.686673 0
M  V30 25203 H 2350.76 0.180885 1.94661 0
M  V30 25204 H 2349.46 -0.300731 4.09297 0
M  V30 25205 H 2348.99 -1.88379 3.45365 0
M  V30 25206 H 2351.01 -3.06319 3.90363 0
M  V30 25207 N 2350.18 -1.56643 -0.17346 0
M  V30 25208 C 2351.6 -1.50713 -0.525148 0
M  V30 25209 C 2351.8 -0.804139 -1.84759 0
M  V30 25210 O 2350.85 -0.363618 -2.49868 0
M  V30 25211 C 2352.16 -2.95442 -0.559885 0
M  V30 25212 C 2353.71 -3.06235 -0.647234 0
M  V30 25213 C 2354.19 -4.52418 -0.712884 0
M  V30 25214 N 2355.68 -4.56656 -0.775831 0
M  V30 25215 C 2356.41 -5.67107 -0.847164 0
M  V30 25216 N 2355.91 -6.87195 -0.879464 0
M  V30 25217 N 2357.7 -5.55073 -0.88602 0
M  V30 25218 H 2349.85 -2.00752 0.693717 0
M  V30 25219 H 2352.12 -0.914481 0.249857 0
M  V30 25220 H 2351.82 -3.50022 0.34311 0
M  V30 25221 H 2351.7 -3.49971 -1.40712 0
M  V30 25222 H 2354.08 -2.5169 -1.54066 0
M  V30 25223 H 2354.16 -2.54794 0.226631 0
M  V30 25224 H 2353.81 -5.07594 0.176273 0
M  V30 25225 H 2353.74 -5.01613 -1.60286 0
M  V30 25226 H 2356.23 -3.70194 -0.759239 0
M  V30 25227 H 2356.54 -7.67123 -0.935009 0
M  V30 25228 H 2354.89 -6.8981 -0.847777 0
M  V30 25229 H 2358.08 -4.60174 -0.857772 0
M  V30 25230 H 2358.25 -6.41173 -0.93815 0
M  V30 25231 N 2351.66 0.44194 -1.51277 0
M  V30 25232 C 2352.57 1.56138 -1.75094 0
M  V30 25233 C 2353.58 1.62 -0.634991 0
M  V30 25234 O 2354.76 1.79327 -0.916717 0
M  V30 25235 C 2351.82 2.92155 -1.86672 0
M  V30 25236 C 2350.89 2.96447 -3.10512 0
M  V30 25237 C 2350.12 4.25977 -3.21527 0
M  V30 25238 O 2350.34 5.18101 -2.38595 0
M  V30 25239 O 2349.28 4.36459 -4.14472 0
M  V30 25240 H 2353.1 1.38956 -2.70046 0
M  V30 25241 H 2350.69 0.624476 -1.35723 0
M  V30 25242 H 2352.57 3.72887 -1.96298 0
M  V30 25243 H 2351.24 3.09474 -0.949068 0
M  V30 25244 H 2350.15 2.14687 -3.06366 0
M  V30 25245 H 2351.48 2.84072 -4.0195 0
M  V30 25246 N 2353.14 1.41345 0.697083 0
M  V30 25247 C 2354.1 1.42801 1.79278 0
M  V30 25248 C 2355.1 0.318865 1.57607 0
M  V30 25249 O 2356.29 0.578671 1.64308 0
M  V30 25250 C 2353.42 1.2379 3.1763 0
M  V30 25251 H 2354.61 2.40338 1.79381 0
M  V30 25252 H 2352.17 1.27465 0.90456 0
M  V30 25253 H 2352.9 0.270871 3.23167 0
M  V30 25254 H 2352.69 2.0415 3.34761 0
M  V30 25255 H 2354.18 1.2764 3.97615 0
M  V30 25256 N 2354.61 -0.931187 1.27148 0
M  V30 25257 C 2355.54 -2.0484 1.12085 0
M  V30 25258 C 2356.52 -1.70084 0.0232663 0
M  V30 25259 O 2357.71 -1.93197 0.197119 0
M  V30 25260 C 2354.84 -3.38801 0.763599 0
M  V30 25261 C 2353.79 -3.87656 1.81403 0
M  V30 25262 C 2353.12 -5.18383 1.31084 0
M  V30 25263 C 2354.42 -4.11432 3.21747 0
M  V30 25264 H 2356.11 -2.177 2.05541 0
M  V30 25265 H 2353.66 -1.04606 0.989621 0
M  V30 25266 H 2355.61 -4.16434 0.645055 0
M  V30 25267 H 2354.34 -3.25945 -0.20667 0
M  V30 25268 H 2353 -3.12213 1.92141 0
M  V30 25269 H 2352.64 -5.01916 0.330125 0
M  V30 25270 H 2352.34 -5.5204 2.01309 0
M  V30 25271 H 2353.87 -5.98588 1.20517 0
M  V30 25272 H 2355.28 -4.79645 3.14028 0
M  V30 25273 H 2353.68 -4.5639 3.89652 0
M  V30 25274 H 2354.75 -3.16852 3.67059 0
M  V30 25275 N 2356.09 -1.09114 -1.13719 0
M  V30 25276 C 2357.04 -0.727629 -2.1903 0
M  V30 25277 C 2358.01 0.289627 -1.63555 0
M  V30 25278 O 2359.19 0.171992 -1.90023 0
M  V30 25279 C 2356.33 -0.150881 -3.4477 0
M  V30 25280 C 2355.45 -1.22179 -4.14363 0
M  V30 25281 C 2354.58 -0.608135 -5.27707 0
M  V30 25282 C 2353.62 -1.66058 -5.89145 0
M  V30 25283 N 2352.76 -1.06819 -6.93927 0
M  V30 25284 H 2357.6 -1.62996 -2.49472 0
M  V30 25285 H 2355.13 -0.814412 -1.22498 0
M  V30 25286 H 2357.09 0.201284 -4.16714 0
M  V30 25287 H 2355.72 0.714728 -3.14788 0
M  V30 25288 H 2354.77 -1.69128 -3.40734 0
M  V30 25289 H 2356.09 -2.01903 -4.5611 0
M  V30 25290 H 2355.24 -0.20463 -6.06355 0
M  V30 25291 H 2353.98 0.220683 -4.872 0
M  V30 25292 H 2352.98 -2.07366 -5.09195 0
M  V30 25293 H 2354.21 -2.492 -6.31725 0
M  V30 25294 H 2352.16 -0.260591 -6.55482 0
M  V30 25295 H 2352.07 -1.80243 -7.34199 0
M  V30 25296 H 2353.34 -0.69078 -7.76433 0
M  V30 25297 N 2357.57 1.30887 -0.877861 0
M  V30 25298 C 2358.5 2.3078 -0.355381 0
M  V30 25299 C 2359.48 1.60688 0.557965 0
M  V30 25300 O 2360.67 1.88344 0.473322 0
M  V30 25301 C 2357.8 3.44538 0.437161 0
M  V30 25302 C 2356.75 4.26276 -0.38379 0
M  V30 25303 C 2356.08 5.32018 0.534921 0
M  V30 25304 C 2357.38 4.96473 -1.6221 0
M  V30 25305 H 2359.07 2.7473 -1.19012 0
M  V30 25306 H 2356.62 1.32077 -0.573722 0
M  V30 25307 H 2358.57 4.13478 0.813261 0
M  V30 25308 H 2357.29 2.99374 1.30548 0
M  V30 25309 H 2355.95 3.59014 -0.741938 0
M  V30 25310 H 2355.6 4.83103 1.40074 0
M  V30 25311 H 2355.3 5.87599 -0.0105244 0
M  V30 25312 H 2356.82 6.03816 0.907693 0
M  V30 25313 H 2358.24 5.57968 -1.31699 0
M  V30 25314 H 2356.63 5.61887 -2.10721 0
M  V30 25315 H 2357.7 4.23006 -2.37052 0
M  V30 25316 N 2359.05 0.638091 1.44105 0
M  V30 25317 C 2359.96 -0.0636922 2.34514 0
M  V30 25318 C 2360.97 -0.828319 1.53019 0
M  V30 25319 O 2362.15 -0.779003 1.85724 0
M  V30 25320 C 2359.21 -1.02839 3.31097 0
M  V30 25321 C 2358.28 -0.262364 4.28498 0
M  V30 25322 C 2357.51 -1.18111 5.20467 0
M  V30 25323 O 2357.73 -2.42002 5.16518 0
M  V30 25324 O 2356.67 -0.661668 5.98252 0
M  V30 25325 H 2360.49 0.680082 2.95987 0
M  V30 25326 H 2358.08 0.398277 1.43993 0
M  V30 25327 H 2359.96 -1.5832 3.90529 0
M  V30 25328 H 2358.63 -1.75265 2.72147 0
M  V30 25329 H 2357.54 0.335667 3.72591 0
M  V30 25330 H 2358.87 0.422022 4.90387 0
M  V30 25331 N 2360.53 -1.52973 0.379063 0
M  V30 25332 C 2361.44 -2.29872 -0.468599 0
M  V30 25333 C 2362.45 -1.36375 -1.08065 0
M  V30 25334 O 2363.63 -1.6944 -1.08868 0
M  V30 25335 C 2360.69 -3.08303 -1.58589 0
M  V30 25336 C 2359.75 -4.17491 -0.999997 0
M  V30 25337 C 2358.99 -4.92172 -2.06404 0
M  V30 25338 O 2359.21 -4.66841 -3.27743 0
M  V30 25339 O 2358.14 -5.77773 -1.68707 0
M  V30 25340 H 2361.97 -3.03291 0.157561 0
M  V30 25341 H 2359.55 -1.48713 0.143061 0
M  V30 25342 H 2361.44 -3.57235 -2.23519 0
M  V30 25343 H 2360.11 -2.37707 -2.1972 0
M  V30 25344 H 2359.02 -3.72778 -0.314233 0
M  V30 25345 H 2360.35 -4.90291 -0.433049 0
M  V30 25346 N 2362 -0.108595 -1.57225 0
M  V30 25347 C 2362.95 0.845443 -2.14758 0
M  V30 25348 C 2363.92 1.27066 -1.06974 0
M  V30 25349 O 2365.11 1.35003 -1.34829 0
M  V30 25350 C 2362.25 2.0941 -2.74302 0
M  V30 25351 C 2361.36 1.71819 -3.96361 0
M  V30 25352 C 2360.49 2.91572 -4.44026 0
M  V30 25353 C 2359.53 2.50171 -5.58642 0
M  V30 25354 N 2358.67 3.62804 -6.01097 0
M  V30 25355 H 2363.51 0.347983 -2.95961 0
M  V30 25356 H 2361.05 0.16008 -1.46226 0
M  V30 25357 H 2363 2.82555 -3.0695 0
M  V30 25358 H 2361.63 2.56632 -1.95805 0
M  V30 25359 H 2360.69 0.885882 -3.69941 0
M  V30 25360 H 2362 1.37386 -4.79507 0
M  V30 25361 H 2361.15 3.72955 -4.78528 0
M  V30 25362 H 2359.89 3.29225 -3.59809 0
M  V30 25363 H 2358.9 1.67218 -5.23754 0
M  V30 25364 H 2360.12 2.13648 -6.44617 0
M  V30 25365 H 2358.07 4.00149 -5.19824 0
M  V30 25366 H 2357.98 3.32261 -6.79072 0
M  V30 25367 H 2359.25 4.44657 -6.40235 0
M  V30 25368 N 2363.48 1.56732 0.16515 0
M  V30 25369 C 2364.43 1.96885 1.20436 0
M  V30 25370 C 2365.4 0.833683 1.43663 0
M  V30 25371 O 2366.58 1.0943 1.563 0
M  V30 25372 C 2363.72 2.33921 2.53723 0
M  V30 25373 C 2362.84 3.60644 2.37823 0
M  V30 25374 C 2361.97 3.86864 3.64019 0
M  V30 25375 C 2361.01 5.06915 3.43079 0
M  V30 25376 N 2360.15 5.29237 4.6136 0
M  V30 25377 H 2364.99 2.85473 0.854946 0
M  V30 25378 H 2362.52 1.41249 0.410735 0
M  V30 25379 H 2364.48 2.53417 3.31415 0
M  V30 25380 H 2363.11 1.48436 2.86647 0
M  V30 25381 H 2362.16 3.49027 1.51276 0
M  V30 25382 H 2363.48 4.48494 2.183 0
M  V30 25383 H 2362.63 4.06761 4.50145 0
M  V30 25384 H 2361.37 2.97401 3.86528 0
M  V30 25385 H 2360.37 4.8691 2.5534 0
M  V30 25386 H 2361.6 5.97914 3.21986 0
M  V30 25387 H 2359.55 4.42726 4.84076 0
M  V30 25388 H 2359.46 6.11321 4.44772 0
M  V30 25389 H 2360.73 5.53618 5.48751 0
M  V30 25390 N 2364.96 -0.433911 1.51509 0
M  V30 25391 C 2365.91 -1.52543 1.69454 0
M  V30 25392 C 2366.89 -1.51262 0.5485 0
M  V30 25393 O 2368.09 -1.57657 0.804557 0
M  V30 25394 C 2365.22 -2.90704 1.82609 0
M  V30 25395 C 2364.3 -2.96728 3.03008 0
M  V30 25396 N 2364.69 -2.72489 4.26126 0
M  V30 25397 C 2362.99 -3.27889 3.02332 0
M  V30 25398 C 2363.69 -2.84443 5.07412 0
M  V30 25399 N 2362.67 -3.16261 4.42131 0
M  V30 25400 H 2366.47 -1.3256 2.62307 0
M  V30 25401 H 2363.98 -0.64127 1.49203 0
M  V30 25402 H 2365.98 -3.69234 1.93576 0
M  V30 25403 H 2364.64 -3.11705 0.909394 0
M  V30 25404 H 2365.65 -2.47352 4.55014 0
M  V30 25405 H 2362.33 -3.54642 2.20307 0
M  V30 25406 H 2363.72 -2.69628 6.15427 0
M  V30 25407 N 2366.44 -1.41713 -0.689577 0
M  V30 25408 C 2367.67 -1.4455 -1.4761 0
M  V30 25409 C 2368.08 -0.0509366 -1.89131 0
M  V30 25410 O 2367.42 0.941432 -1.57743 0
M  V30 25411 C 2367.48 -2.29645 -2.76592 0
M  V30 25412 C 2367.15 -3.77727 -2.57238 0
M  V30 25413 C 2368.14 -4.69743 -2.22795 0
M  V30 25414 C 2365.83 -4.21834 -2.72692 0
M  V30 25415 C 2367.82 -6.03855 -2.04053 0
M  V30 25416 C 2365.51 -5.5601 -2.53567 0
M  V30 25417 C 2366.51 -6.46836 -2.19298 0
M  V30 25418 O 2366.19 -7.78535 -2.00345 0
M  V30 25419 H 2365.93 -0.49422 -0.461218 0
M  V30 25420 H 2368.48 -1.86713 -0.856012 0
M  V30 25421 H 2366.71 -1.82307 -3.4103 0
M  V30 25422 H 2368.4 -2.24112 -3.3842 0
M  V30 25423 H 2369.17 -4.36955 -2.10465 0
M  V30 25424 H 2365.04 -3.5144 -2.98347 0
M  V30 25425 H 2368.59 -6.74712 -1.77229 0
M  V30 25426 H 2364.49 -5.88376 -2.65489 0
M  V30 25427 H 2365.25 -7.89741 -2.15061 0
M  V30 25428 N 2367.92 0.924431 -1.2764 0
M  V30 25429 C 2368.85 2.04242 -1.1317 0
M  V30 25430 C 2369.83 1.70069 -0.0322859 0
M  V30 25431 O 2371.01 1.9309 -0.207362 0
M  V30 25432 C 2368.14 3.38392 -0.781556 0
M  V30 25433 C 2367.1 3.86688 -1.83456 0
M  V30 25434 C 2366.42 5.17681 -1.33831 0
M  V30 25435 C 2367.72 4.0972 -3.23924 0
M  V30 25436 H 2369.42 2.16607 -2.06693 0
M  V30 25437 H 2366.96 1.0408 -0.995155 0
M  V30 25438 H 2368.92 4.16086 -0.66713 0
M  V30 25439 H 2367.64 3.2605 0.189381 0
M  V30 25440 H 2366.3 3.1119 -1.93794 0
M  V30 25441 H 2365.95 5.01733 -0.356738 0
M  V30 25442 H 2365.65 5.50965 -2.04234 0
M  V30 25443 H 2367.17 5.97941 -1.23689 0
M  V30 25444 H 2368.58 4.77973 -3.16567 0
M  V30 25445 H 2366.98 4.54317 -3.92067 0
M  V30 25446 H 2368.05 3.14901 -3.68735 0
M  V30 25447 N 2369.39 1.09715 1.13139 0
M  V30 25448 C 2370.33 0.683175 2.17734 0
M  V30 25449 C 2371.31 -0.311813 1.59582 0
M  V30 25450 O 2372.49 -0.212481 1.87299 0
M  V30 25451 C 2369.62 0.00690277 3.38699 0
M  V30 25452 C 2368.66 0.964175 4.15459 0
M  V30 25453 S 2369.5 2.47776 4.74729 0
M  V30 25454 C 2370.65 1.81398 5.99037 0
M  V30 25455 H 2370.88 1.56922 2.52513 0
M  V30 25456 H 2368.42 0.913426 1.24483 0
M  V30 25457 H 2370.38 -0.376972 4.08765 0
M  V30 25458 H 2369.04 -0.855837 3.02216 0
M  V30 25459 H 2368.23 0.438118 5.02092 0
M  V30 25460 H 2367.83 1.2896 3.51063 0
M  V30 25461 H 2370.12 1.13979 6.67844 0
M  V30 25462 H 2371.07 2.65958 6.56256 0
M  V30 25463 H 2371.47 1.28165 5.49758 0
M  V30 25464 N 2370.87 -1.30419 0.88479 0
M  V30 25465 C 2372.12 -1.96818 0.513253 0
M  V30 25466 C 2372.47 -1.68578 -0.927317 0
M  V30 25467 O 2371.77 -0.97997 -1.64642 0
M  V30 25468 C 2371.96 -3.49982 0.72438 0
M  V30 25469 C 2371.79 -3.93109 2.18392 0
M  V30 25470 C 2370.56 -4.1872 2.82846 0
M  V30 25471 C 2372.76 -4.05948 3.1577 0
M  V30 25472 N 2370.74 -4.48306 4.19398 0
M  V30 25473 C 2372.11 -4.39415 4.37395 0
M  V30 25474 C 2374.17 -3.88373 3.11562 0
M  V30 25475 C 2372.87 -4.57141 5.55351 0
M  V30 25476 C 2374.89 -4.073 4.28789 0
M  V30 25477 C 2374.26 -4.41113 5.4918 0
M  V30 25478 H 2370.36 -0.745178 0.237136 0
M  V30 25479 H 2372.94 -1.57656 1.14249 0
M  V30 25480 H 2371.11 -3.882 0.124633 0
M  V30 25481 H 2372.84 -4.03435 0.319761 0
M  V30 25482 H 2369.6 -4.11915 2.33715 0
M  V30 25483 H 2370.02 -4.67234 4.89919 0
M  V30 25484 H 2374.66 -3.61308 2.19583 0
M  V30 25485 H 2372.38 -4.83049 6.47835 0
M  V30 25486 H 2375.97 -3.95171 4.27002 0
M  V30 25487 H 2374.85 -4.55458 6.38379 0
M  V30 25488 N 2372.35 -0.645724 -1.43764 0
M  V30 25489 C 2373.6 -0.155767 -2.01499 0
M  V30 25490 C 2373.92 1.23197 -1.51154 0
M  V30 25491 O 2373.19 1.82146 -0.721076 0
M  V30 25492 H 2371.77 -0.0545948 -0.745002 0
M  V30 25493 H 2374.43 -0.835708 -1.76074 0
M  V30 25494 H 2373.53 -0.134631 -3.11809 0
M  V30 25495 N 2373.83 1.5277 -0.38717 0
M  V30 25496 C 2374.76 2.29307 0.440511 0
M  V30 25497 C 2375.74 1.32607 1.06533 0
M  V30 25498 O 2376.92 1.61499 1.0785 0
M  V30 25499 C 2374.05 3.09831 1.56914 0
M  V30 25500 C 2373.01 4.14397 1.07047 0
M  V30 25501 C 2372.33 4.83133 2.291 0
M  V30 25502 C 2373.63 5.22113 0.139923 0
M  V30 25503 H 2375.33 2.98744 -0.198079 0
M  V30 25504 H 2372.87 1.43675 -0.0967052 0
M  V30 25505 H 2374.83 3.62131 2.15497 0
M  V30 25506 H 2373.55 2.38123 2.23528 0
M  V30 25507 H 2372.21 3.63075 0.507183 0
M  V30 25508 H 2371.86 4.07975 2.94219 0
M  V30 25509 H 2371.56 5.53807 1.96396 0
M  V30 25510 H 2373.08 5.38236 2.8833 0
M  V30 25511 H 2374.5 5.69785 0.633878 0
M  V30 25512 H 2372.89 6.00021 -0.097254 0
M  V30 25513 H 2373.96 4.78056 -0.811795 0
M  V30 25514 N 2375.31 0.116931 1.57166 0
M  V30 25515 C 2376.53 -0.552675 1.99901 0
M  V30 25516 C 2376.96 -1.59562 0.996067 0
M  V30 25517 O 2376.31 -1.81271 -0.0325241 0
M  V30 25518 C 2376.36 -1.15736 3.41522 0
M  V30 25519 O 2375.47 -2.27292 3.4411 0
M  V30 25520 H 2374.81 -0.138246 0.649449 0
M  V30 25521 H 2377.34 0.204795 2.03572 0
M  V30 25522 H 2377.35 -1.49339 3.79686 0
M  V30 25523 H 2376.02 -0.393421 4.14035 0
M  V30 25524 H 2374.6 -1.95144 3.17763 0
M  V30 25525 N 2376.78 -1.56818 -0.156836 0
M  V30 25526 C 2378.01 -1.87319 -0.890298 0
M  V30 25527 C 2378.43 -0.704885 -1.74393 0
M  V30 25528 O 2377.79 0.345755 -1.77973 0
M  V30 25529 C 2377.84 -3.16339 -1.73096 0
M  V30 25530 O 2376.94 -2.99581 -2.83417 0
M  V30 25531 H 2376.29 -0.615723 -0.248559 0
M  V30 25532 H 2378.82 -2.04045 -0.150614 0
M  V30 25533 H 2378.83 -3.48111 -2.12797 0
M  V30 25534 H 2377.5 -4.00978 -1.10405 0
M  V30 25535 H 2376.08 -2.79194 -2.47194 0
M  V30 25536 N 2378.26 0.425871 -1.51737 0
M  V30 25537 C 2379.54 1.18627 -1.55522 0
M  V30 25538 C 2379.92 2.08564 -0.326256 0
M  V30 25539 O 2379.27 2.17897 0.687974 0
M  V30 25540 C 2379.48 1.97815 -2.87524 0
M  V30 25541 C 2380.83 2.54462 -3.39903 0
M  V30 25542 O 2381.85 2.08014 -2.89152 0
M  V30 25543 O 2380.71 3.39208 -4.28486 0
M  V30 25544 H 2377.8 0.54071 -0.625749 0
M  V30 25545 H 2380.35 0.434009 -1.64056 0
M  V30 25546 H 2379.12 1.3183 -3.68425 0
M  V30 25547 H 2378.74 2.80083 -2.82205 0
M  V30 25548 N 2379.74 1.42077 0.682052 0
M  V30 25549 C 2380.99 1.42159 1.44212 0
M  V30 25550 C 2381.32 0.0354527 1.94468 0
M  V30 25551 O 2380.57 -0.954972 1.70818 0
M  V30 25552 C 2380.87 2.38666 2.66032 0
M  V30 25553 C 2380.54 3.8521 2.34359 0
M  V30 25554 C 2379.2 4.25128 2.25432 0
M  V30 25555 C 2381.55 4.77677 2.08504 0
M  V30 25556 C 2378.88 5.55504 1.88765 0
M  V30 25557 C 2381.23 6.08387 1.73343 0
M  V30 25558 C 2379.89 6.47312 1.62921 0
M  V30 25559 H 2379.16 0.520196 0.527709 0
M  V30 25560 H 2381.81 1.74968 0.778356 0
M  V30 25561 H 2380.12 1.99158 3.37407 0
M  V30 25562 H 2381.81 2.35997 3.24201 0
M  V30 25563 H 2378.4 3.53601 2.42207 0
M  V30 25564 H 2382.59 4.4763 2.14338 0
M  V30 25565 H 2377.84 5.8453 1.7926 0
M  V30 25566 H 2382.02 6.79529 1.52361 0
M  V30 25567 H 2379.64 7.48247 1.34279 0
M  V30 25568 N 2381.22 -0.917649 1.28129 0
M  V30 25569 C 2382.47 -1.66916 1.16235 0
M  V30 25570 C 2382.82 -1.90248 -0.286977 0
M  V30 25571 O 2382.11 -1.48897 -1.20583 0
M  V30 25572 C 2382.31 -3.03323 1.89023 0
M  V30 25573 C 2382.14 -2.93304 3.40885 0
M  V30 25574 C 2380.91 -2.95039 4.10219 0
M  V30 25575 C 2383.1 -2.71667 4.36694 0
M  V30 25576 N 2381.09 -2.75567 5.48576 0
M  V30 25577 C 2382.46 -2.61 5.62387 0
M  V30 25578 C 2384.51 -2.56633 4.26666 0
M  V30 25579 C 2383.22 -2.36831 6.79193 0
M  V30 25580 C 2385.24 -2.33844 5.43204 0
M  V30 25581 C 2384.6 -2.23927 6.67859 0
M  V30 25582 H 2380.7 -0.617157 0.480251 0
M  V30 25583 H 2383.29 -1.08406 1.61729 0
M  V30 25584 H 2381.46 -3.59927 1.4597 0
M  V30 25585 H 2383.19 -3.67472 1.69548 0
M  V30 25586 H 2379.94 -3.05649 3.61768 0
M  V30 25587 H 2380.37 -2.68934 6.21292 0
M  V30 25588 H 2385.01 -2.63053 3.31003 0
M  V30 25589 H 2382.73 -2.2915 7.7493 0
M  V30 25590 H 2386.31 -2.23082 5.37332 0
M  V30 25591 H 2385.19 -2.06533 7.56514 0
M  V30 25592 N 2382.7 -1.10314 -1.12555 0
M  V30 25593 C 2383.95 -0.843123 -1.83673 0
M  V30 25594 C 2384.27 0.633099 -1.84437 0
M  V30 25595 O 2383.54 1.45962 -1.3066 0
M  V30 25596 H 2382.12 -0.308916 -0.680132 0
M  V30 25597 H 2384.78 -1.39315 -1.36299 0
M  V30 25598 H 2383.87 -1.20485 -2.87906 0
M  V30 25599 N 2384.18 1.29948 -0.891694 0
M  V30 25600 C 2385.09 2.317 -0.367732 0
M  V30 25601 C 2386.1 1.65621 0.533457 0
M  V30 25602 O 2387.28 1.96866 0.424963 0
M  V30 25603 C 2384.34 3.44346 0.403345 0
M  V30 25604 C 2383.4 4.26036 -0.528403 0
M  V30 25605 C 2382.64 5.33302 0.20597 0
M  V30 25606 O 2382.86 5.52156 1.43109 0
M  V30 25607 O 2381.79 6.00235 -0.447386 0
M  V30 25608 H 2385.62 2.78481 -1.21168 0
M  V30 25609 H 2383.2 1.3424 -0.655748 0
M  V30 25610 H 2385.09 4.1295 0.83968 0
M  V30 25611 H 2383.76 2.99687 1.22349 0
M  V30 25612 H 2382.67 3.60104 -1.01369 0
M  V30 25613 H 2384 4.74316 -1.31474 0
M  V30 25614 N 2385.65 0.653339 1.4342 0
M  V30 25615 C 2386.6 -0.0381866 2.30768 0
M  V30 25616 C 2387.57 -0.814551 1.44756 0
M  V30 25617 O 2388.76 -0.791131 1.73625 0
M  V30 25618 C 2385.9 -0.998541 3.30338 0
M  V30 25619 C 2385.01 -0.218266 4.31448 0
M  V30 25620 C 2384.14 -1.17243 5.181 0
M  V30 25621 C 2383.18 -0.382595 6.10903 0
M  V30 25622 N 2382.32 -1.28836 6.90178 0
M  V30 25623 H 2387.16 0.712562 2.89355 0
M  V30 25624 H 2384.7 0.363153 1.42547 0
M  V30 25625 H 2386.65 -1.56894 3.86575 0
M  V30 25626 H 2385.28 -1.71616 2.734 0
M  V30 25627 H 2384.34 0.468427 3.77505 0
M  V30 25628 H 2385.65 0.395899 4.97226 0
M  V30 25629 H 2384.8 -1.81346 5.78963 0
M  V30 25630 H 2383.54 -1.8205 4.52448 0
M  V30 25631 H 2382.55 0.271787 5.49128 0
M  V30 25632 H 2383.77 0.261076 6.78598 0
M  V30 25633 H 2381.72 -1.92323 6.27175 0
M  V30 25634 H 2381.63 -0.728755 7.52479 0
M  V30 25635 H 2382.9 -1.91753 7.55547 0
M  V30 25636 N 2387.13 -1.52563 0.395266 0
M  V30 25637 C 2388.54 -1.86539 -0.0774391 0
M  V30 25638 C 2388.89 -1.31468 -1.45638 0
M  V30 25639 O 2388.02 -0.648403 -2.06457 0
M  V30 25640 C 2388.61 -3.3848 -0.147297 0
M  V30 25641 C 2387.17 -3.72146 -0.564308 0
M  V30 25642 C 2386.32 -2.75983 0.269968 0
M  V30 25643 H 2389.27 -1.46387 0.612902 0
M  V30 25644 H 2389.29 -3.68052 -0.965278 0
M  V30 25645 H 2388.8 -3.78532 0.856454 0
M  V30 25646 H 2386.9 -3.37665 -1.57521 0
M  V30 25647 H 2387.02 -4.78041 -0.318318 0
M  V30 25648 H 2385.38 -2.53311 -0.265651 0
M  V30 25649 H 2386.16 -3.18873 1.27181 0
M  V30 25650 N 2388.61 -0.125265 -1.57101 0
M  V30 25651 C 2389.56 0.839889 -2.16907 0
M  V30 25652 C 2390.55 1.27092 -1.12 0
M  V30 25653 O 2391.76 1.24193 -1.30293 0
M  V30 25654 H 2388.13 0.288982 -0.694257 0
M  V30 25655 H 2390.1 0.311063 -2.96774 0
M  V30 25656 C 2388.85 2.07766 -2.78799 0
M  V30 25657 H 2388.18 1.75494 -3.59224 0
M  V30 25658 H 2389.62 2.73289 -3.24175 0
M  V30 25659 C 2388.07 2.87152 -1.76198 0
M  V30 25660 O 2388.6 3.82752 -1.21916 0
M  V30 25661 N 2386.81 2.51264 -1.45995 0
M  V30 25662 H 2386.36 1.73589 -1.90328 0
M  V30 25663 H 2386.32 3.04676 -0.775897 0
M  V30 25664 N 2390.09 1.56899 0.148518 0
M  V30 25665 C 2391.02 2.01184 1.18521 0
M  V30 25666 C 2392 0.891148 1.44888 0
M  V30 25667 O 2393.18 1.15885 1.55834 0
M  V30 25668 C 2390.31 2.39116 2.51874 0
M  V30 25669 C 2389.27 3.54357 2.40031 0
M  V30 25670 C 2388.59 3.78098 3.78082 0
M  V30 25671 C 2389.89 4.87072 1.88568 0
M  V30 25672 H 2391.59 2.88038 0.816979 0
M  V30 25673 H 2389.13 1.38574 0.39155 0
M  V30 25674 H 2391.09 2.68698 3.24622 0
M  V30 25675 H 2389.81 1.49198 2.9053 0
M  V30 25676 H 2388.47 3.24939 1.69736 0
M  V30 25677 H 2388.12 2.85433 4.1417 0
M  V30 25678 H 2387.82 4.55651 3.7102 0
M  V30 25679 H 2389.34 4.10103 4.5238 0
M  V30 25680 H 2390.76 5.15381 2.51108 0
M  V30 25681 H 2389.15 5.68421 1.924 0
M  V30 25682 H 2390.22 4.77546 0.841276 0
M  V30 25683 N 2391.57 -0.417818 1.51961 0
M  V30 25684 C 2392.79 -1.19207 1.69719 0
M  V30 25685 C 2393.22 -1.8375 0.40218 0
M  V30 25686 O 2392.57 -1.69645 -0.639563 0
M  V30 25687 C 2392.62 -2.23736 2.82798 0
M  V30 25688 O 2391.73 -3.29679 2.47761 0
M  V30 25689 H 2391.07 -0.348377 0.565269 0
M  V30 25690 H 2393.6 -0.49095 1.98622 0
M  V30 25691 H 2393.61 -2.68206 3.07456 0
M  V30 25692 H 2392.28 -1.76139 3.76759 0
M  V30 25693 H 2390.86 -2.90548 2.33744 0
M  V30 25694 N 2393.04 -1.42436 -0.674508 0
M  V30 25695 C 2394.27 -1.46108 -1.46069 0
M  V30 25696 C 2394.68 -0.0709937 -1.89067 0
M  V30 25697 O 2394.02 0.924649 -1.58732 0
M  V30 25698 C 2394.09 -2.32566 -2.74141 0
M  V30 25699 C 2393.75 -3.80434 -2.53217 0
M  V30 25700 C 2394.75 -4.72079 -2.17801 0
M  V30 25701 C 2392.43 -4.24703 -2.68203 0
M  V30 25702 C 2394.43 -6.05985 -1.97637 0
M  V30 25703 C 2392.11 -5.58668 -2.47655 0
M  V30 25704 C 2393.11 -6.49126 -2.12426 0
M  V30 25705 O 2392.8 -7.80616 -1.92076 0
M  V30 25706 H 2392.53 -0.499084 -0.455951 0
M  V30 25707 H 2395.09 -1.8761 -0.83616 0
M  V30 25708 H 2393.32 -1.85914 -3.39077 0
M  V30 25709 H 2395 -2.27689 -3.36024 0
M  V30 25710 H 2395.77 -4.39162 -2.05819 0
M  V30 25711 H 2391.65 -3.54585 -2.94603 0
M  V30 25712 H 2395.19 -6.76553 -1.70063 0
M  V30 25713 H 2391.09 -5.91158 -2.59233 0
M  V30 25714 H 2391.86 -7.91978 -2.06672 0
M  V30 25715 N 2394.52 0.910841 -1.28614 0
M  V30 25716 C 2395.77 1.65486 -1.15314 0
M  V30 25717 C 2396.08 1.93333 0.296965 0
M  V30 25718 O 2397.29 2.65848 0.551121 0
M  V30 25719 C 2395.75 2.98134 -2.01604 0
M  V30 25720 C 2395.35 2.77924 -3.51372 0
M  V30 25721 C 2397.1 3.76021 -1.96999 0
M  V30 25722 C 2395 4.0623 -4.29804 0
M  V30 25723 H 2393.93 0.620771 -0.427971 0
M  V30 25724 H 2396.59 1.01054 -1.53167 0
M  V30 25725 H 2394.97 3.63716 -1.56609 0
M  V30 25726 H 2396.14 2.21003 -4.04344 0
M  V30 25727 H 2394.46 2.13446 -3.57533 0
M  V30 25728 H 2397.05 4.7113 -2.52864 0
M  V30 25729 H 2397.4 4.05376 -0.947401 0
M  V30 25730 H 2397.93 3.17262 -2.39979 0
M  V30 25731 H 2394.67 3.82046 -5.32655 0
M  V30 25732 H 2394.19 4.62751 -3.81604 0
M  V30 25733 H 2395.87 4.74465 -4.39877 0
M  V30 25734 N 2396 1.10909 1.11969 0
M  V30 25735 C 2397.25 0.849335 1.82946 0
M  V30 25736 C 2397.56 -0.62708 1.85276 0
M  V30 25737 O 2398.77 -1.0029 2.52298 0
M  V30 25738 C 2397.22 1.46965 3.28526 0
M  V30 25739 C 2396.83 2.9797 3.34541 0
M  V30 25740 C 2398.58 1.28949 4.04441 0
M  V30 25741 C 2396.48 3.53013 4.74485 0
M  V30 25742 H 2395.41 0.314077 0.685472 0
M  V30 25743 H 2398.06 1.33367 1.26038 0
M  V30 25744 H 2396.45 0.912984 3.85332 0
M  V30 25745 H 2397.62 3.59994 2.87647 0
M  V30 25746 H 2395.94 3.15197 2.72102 0
M  V30 25747 H 2398.53 1.67511 5.07784 0
M  V30 25748 H 2398.88 0.231529 4.15656 0
M  V30 25749 H 2399.41 1.8145 3.54007 0
M  V30 25750 H 2396.15 4.58497 4.68466 0
M  V30 25751 H 2395.67 2.95759 5.21811 0
M  V30 25752 H 2397.35 3.51125 5.43434 0
M  V30 25753 N 2397.48 -1.29474 0.898573 0
M  V30 25754 C 2398.73 -1.95219 0.522881 0
M  V30 25755 C 2399.05 -1.71194 -0.93368 0
M  V30 25756 O 2398.32 -1.04308 -1.65821 0
M  V30 25757 H 2396.9 -0.722333 0.190379 0
M  V30 25758 H 2399.56 -1.57748 1.14462 0
M  V30 25759 H 2398.66 -3.04044 0.704529 0
M  V30 25760 N 2398.96 -0.660936 -1.43071 0
M  V30 25761 C 2399.9 0.0259478 -2.30785 0
M  V30 25762 C 2400.87 0.806862 -1.45186 0
M  V30 25763 O 2402.06 0.781912 -1.74042 0
M  V30 25764 C 2399.2 0.981009 -3.30863 0
M  V30 25765 C 2398.31 0.195382 -4.31558 0
M  V30 25766 C 2397.45 1.14494 -5.18714 0
M  V30 25767 C 2396.49 0.350192 -6.11097 0
M  V30 25768 N 2395.62 1.25174 -6.90852 0
M  V30 25769 H 2400.46 -0.727897 -2.88973 0
M  V30 25770 H 2398 -0.370707 -1.42352 0
M  V30 25771 H 2399.96 1.54842 -3.87401 0
M  V30 25772 H 2398.59 1.70164 -2.74307 0
M  V30 25773 H 2397.64 -0.48844 -3.77251 0
M  V30 25774 H 2398.95 -0.422263 -4.97009 0
M  V30 25775 H 2398.11 1.78273 -5.79917 0
M  V30 25776 H 2396.84 1.79648 -4.53407 0
M  V30 25777 H 2395.85 -0.300905 -5.48976 0
M  V30 25778 H 2397.07 -0.29706 -6.7845 0
M  V30 25779 H 2395.02 1.88994 -6.28186 0
M  V30 25780 H 2394.94 0.688839 -7.52855 0
M  V30 25781 H 2396.21 1.87744 -7.56553 0
M  V30 25782 N 2400.43 1.52351 -0.403352 0
M  V30 25783 C 2401.71 1.94212 0.232577 0
M  V30 25784 C 2402.09 1.33983 1.63131 0
M  V30 25785 O 2401.44 0.513383 2.22658 0
M  V30 25786 C 2401.65 3.48141 0.24475 0
M  V30 25787 C 2403 4.22025 0.466906 0
M  V30 25788 O 2404.02 3.5472 0.324356 0
M  V30 25789 O 2402.88 5.41365 0.747375 0
M  V30 25790 H 2399.97 0.813611 0.148209 0
M  V30 25791 H 2402.52 1.63378 -0.458877 0
M  V30 25792 H 2401.29 3.84346 -0.734445 0
M  V30 25793 H 2400.92 3.85319 0.980544 0
M  V30 25794 N 2401.91 0.133594 1.57033 0
M  V30 25795 C 2403.14 -0.52816 2.00045 0
M  V30 25796 C 2403.56 -1.5929 1.01352 0
M  V30 25797 O 2402.91 -1.82498 0.00851577 0
M  V30 25798 C 2402.96 -1.14104 3.4302 0
M  V30 25799 O 2402.68 -0.118843 4.37939 0
M  V30 25800 C 2404.19 -1.8847 4.01241 0
M  V30 25801 H 2401.41 -0.138649 0.656519 0
M  V30 25802 H 2403.95 0.224232 2.03267 0
M  V30 25803 H 2402.1 -1.84412 3.40692 0
M  V30 25804 H 2402.52 -0.566038 5.21437 0
M  V30 25805 H 2403.99 -2.2666 5.03318 0
M  V30 25806 H 2404.47 -2.76552 3.41198 0
M  V30 25807 H 2405.08 -1.22891 4.07158 0
M  V30 25808 N 2403.39 -1.56975 -0.140195 0
M  V30 25809 C 2404.64 -1.84877 -0.848052 0
M  V30 25810 C 2404.99 -0.718513 -1.7848 0
M  V30 25811 O 2404.28 0.28306 -1.89498 0
M  V30 25812 C 2404.48 -3.16835 -1.6538 0
M  V30 25813 C 2404.31 -4.42589 -0.796572 0
M  V30 25814 C 2403.08 -5.03206 -0.45956 0
M  V30 25815 C 2405.28 -5.14151 -0.1238 0
M  V30 25816 N 2403.26 -6.12526 0.410553 0
M  V30 25817 C 2404.63 -6.1703 0.606172 0
M  V30 25818 C 2406.68 -4.9788 -0.0451779 0
M  V30 25819 C 2405.39 -7.05398 1.40735 0
M  V30 25820 C 2407.41 -5.86717 0.742761 0
M  V30 25821 C 2406.77 -6.89082 1.46099 0
M  V30 25822 H 2402.87 -0.727061 -0.287934 0
M  V30 25823 H 2405.46 -1.94372 -0.113006 0
M  V30 25824 H 2403.63 -3.08475 -2.36004 0
M  V30 25825 H 2405.36 -3.32619 -2.30535 0
M  V30 25826 H 2402.12 -4.66847 -0.796924 0
M  V30 25827 H 2402.54 -6.71808 0.836834 0
M  V30 25828 H 2407.18 -4.18718 -0.58611 0
M  V30 25829 H 2404.9 -7.83982 1.95952 0
M  V30 25830 H 2408.49 -5.76195 0.805675 0
M  V30 25831 H 2407.37 -7.56635 2.0609 0
M  V30 25832 N 2404.87 0.409753 -1.5218 0
M  V30 25833 C 2406.11 1.15848 -1.66455 0
M  V30 25834 C 2406.45 1.90182 -0.393005 0
M  V30 25835 O 2405.72 1.84735 0.608547 0
M  V30 25836 C 2406.01 2.15344 -2.88616 0
M  V30 25837 C 2405.86 1.44911 -4.25818 0
M  V30 25838 C 2407.18 3.1602 -3.06299 0
M  V30 25839 H 2404.3 0.419794 -0.605757 0
M  V30 25840 H 2406.94 0.444282 -1.84733 0
M  V30 25841 H 2405.09 2.7625 -2.73163 0
M  V30 25842 H 2406.76 0.871285 -4.52997 0
M  V30 25843 H 2405 0.751084 -4.27248 0
M  V30 25844 H 2405.67 2.17507 -5.07341 0
M  V30 25845 H 2408.15 2.6519 -3.20646 0
M  V30 25846 H 2407.03 3.82903 -3.93289 0
M  V30 25847 H 2407.29 3.83711 -2.19586 0
M  V30 25848 N 2406.35 1.42792 0.666944 0
M  V30 25849 C 2407.26 1.49302 1.80959 0
M  V30 25850 C 2408.27 0.381138 1.69774 0
M  V30 25851 O 2409.45 0.633222 1.91186 0
M  V30 25852 C 2406.51 1.40051 3.17154 0
M  V30 25853 C 2405.57 2.61796 3.40237 0
M  V30 25854 C 2404.81 2.52977 4.69934 0
M  V30 25855 O 2405.03 1.56995 5.48369 0
M  V30 25856 O 2403.96 3.43246 4.94435 0
M  V30 25857 H 2407.79 2.45762 1.78423 0
M  V30 25858 H 2405.38 1.24642 0.823691 0
M  V30 25859 H 2407.26 1.37283 3.98411 0
M  V30 25860 H 2405.93 0.467194 3.20311 0
M  V30 25861 H 2404.84 2.70138 2.58798 0
M  V30 25862 H 2406.17 3.54053 3.41917 0
M  V30 25863 N 2407.82 -0.904008 1.29095 0
M  V30 25864 C 2408.77 -1.99441 1.10486 0
M  V30 25865 C 2409.76 -1.6088 0.0255683 0
M  V30 25866 O 2410.95 -1.75271 0.246801 0
M  V30 25867 C 2408.08 -3.34346 0.778941 0
M  V30 25868 C 2407.17 -3.7928 1.89756 0
M  V30 25869 N 2407.56 -3.96491 3.14052 0
M  V30 25870 C 2405.85 -4.0852 1.78962 0
M  V30 25871 C 2406.56 -4.34285 3.87003 0
M  V30 25872 N 2405.53 -4.43089 3.14917 0
M  V30 25873 H 2409.33 -2.10811 2.04782 0
M  V30 25874 H 2406.85 -1.09253 1.20156 0
M  V30 25875 H 2408.84 -4.12163 0.626682 0
M  V30 25876 H 2407.5 -3.24324 -0.156148 0
M  V30 25877 H 2408.52 -3.82141 3.49555 0
M  V30 25878 H 2405.19 -4.0708 0.926957 0
M  V30 25879 H 2406.58 -4.55482 4.93949 0
M  V30 25880 N 2409.3 -1.11501 -1.11379 0
M  V30 25881 C 2410.55 -0.875456 -1.83596 0
M  V30 25882 C 2410.9 0.592523 -1.83049 0
M  V30 25883 O 2410.2 1.43191 -1.27307 0
M  V30 25884 C 2410.39 -1.37183 -3.30023 0
M  V30 25885 C 2410.22 -2.88654 -3.44832 0
M  V30 25886 C 2408.99 -3.56782 -3.57819 0
M  V30 25887 C 2411.19 -3.86705 -3.39063 0
M  V30 25888 N 2409.17 -4.96464 -3.61105 0
M  V30 25889 C 2410.54 -5.1246 -3.48977 0
M  V30 25890 C 2412.6 -3.79255 -3.22599 0
M  V30 25891 C 2411.3 -6.31642 -3.44124 0
M  V30 25892 C 2413.32 -4.97949 -3.19063 0
M  V30 25893 C 2412.69 -6.22557 -3.29549 0
M  V30 25894 H 2408.79 -0.373502 -0.687038 0
M  V30 25895 H 2411.37 -1.41948 -1.33262 0
M  V30 25896 H 2409.54 -0.854985 -3.78873 0
M  V30 25897 H 2411.27 -1.07536 -3.90151 0
M  V30 25898 H 2408.03 -3.07251 -3.60408 0
M  V30 25899 H 2408.45 -5.69291 -3.66384 0
M  V30 25900 H 2413.09 -2.83821 -3.13377 0
M  V30 25901 H 2410.81 -7.27353 -3.52113 0
M  V30 25902 H 2414.4 -4.93905 -3.07489 0
M  V30 25903 H 2413.28 -7.1286 -3.26802 0
M  V30 25904 N 2410.78 1.28995 -0.905426 0
M  V30 25905 C 2412.19 1.77397 -0.581984 0
M  V30 25906 C 2412.54 1.7421 0.902521 0
M  V30 25907 O 2411.67 1.33157 1.70582 0
M  V30 25908 C 2412.26 3.22129 -1.04967 0
M  V30 25909 C 2410.82 3.68287 -0.777294 0
M  V30 25910 C 2409.97 2.48965 -1.22113 0
M  V30 25911 H 2412.92 1.15576 -1.08756 0
M  V30 25912 H 2412.94 3.78522 -0.387453 0
M  V30 25913 H 2412.45 3.24417 -2.13014 0
M  V30 25914 H 2410.55 3.71467 0.290318 0
M  V30 25915 H 2410.67 4.58819 -1.3792 0
M  V30 25916 H 2409.03 2.46528 -0.640014 0
M  V30 25917 H 2409.81 2.53978 -2.30977 0
M  V30 25918 N 2412.26 0.668514 1.42719 0
M  V30 25919 C 2413.17 -0.013934 2.34596 0
M  V30 25920 C 2414.19 -0.795675 1.54742 0
M  V30 25921 O 2415.36 -0.739433 1.87335 0
M  V30 25922 C 2412.43 -0.957924 3.33204 0
M  V30 25923 C 2411.49 -0.171415 4.28958 0
M  V30 25924 C 2410.72 -1.07044 5.22855 0
M  V30 25925 O 2410.94 -2.30991 5.21535 0
M  V30 25926 O 2409.88 -0.534621 5.99521 0
M  V30 25927 H 2413.7 0.742713 2.94478 0
M  V30 25928 H 2411.29 0.428731 1.43116 0
M  V30 25929 H 2413.17 -1.50001 3.93799 0
M  V30 25930 H 2411.85 -1.69453 2.75803 0
M  V30 25931 H 2410.75 0.414624 3.71795 0
M  V30 25932 H 2412.09 0.525946 4.89382 0
M  V30 25933 N 2413.74 -1.52135 0.411426 0
M  V30 25934 C 2414.65 -2.30815 -0.419734 0
M  V30 25935 C 2415.66 -1.38636 -1.05148 0
M  V30 25936 O 2416.84 -1.71711 -1.05249 0
M  V30 25937 C 2413.9 -3.11597 -1.52014 0
M  V30 25938 C 2412.97 -4.19518 -0.911216 0
M  V30 25939 C 2412.2 -4.96439 -1.95918 0
M  V30 25940 O 2412.42 -4.73688 -3.17767 0
M  V30 25941 O 2411.36 -5.81222 -1.56413 0
M  V30 25942 H 2415.18 -3.02889 0.221858 0
M  V30 25943 H 2412.77 -1.48377 0.174573 0
M  V30 25944 H 2414.65 -3.61896 -2.15891 0
M  V30 25945 H 2413.32 -2.42314 -2.14629 0
M  V30 25946 H 2412.23 -3.73361 -0.235091 0
M  V30 25947 H 2413.56 -4.911 -0.328954 0
M  V30 25948 N 2415.22 -0.14192 -1.5696 0
M  V30 25949 C 2416.49 0.555248 -1.87554 0
M  V30 25950 C 2416.87 1.83305 -1.04703 0
M  V30 25951 O 2416.22 2.28116 -0.132386 0
M  V30 25952 C 2416.43 0.825605 -3.39094 0
M  V30 25953 C 2417.78 1.16862 -4.08202 0
M  V30 25954 O 2418.8 0.915125 -3.44244 0
M  V30 25955 O 2417.66 1.64541 -5.21141 0
M  V30 25956 H 2414.76 0.282665 -0.777193 0
M  V30 25957 H 2417.3 -0.17815 -1.68762 0
M  V30 25958 H 2416.07 -0.0789321 -3.9122 0
M  V30 25959 H 2415.7 1.61336 -3.63396 0
M  V30 25960 N 2416.69 1.57047 0.131868 0
M  V30 25961 C 2417.6 2.02678 1.18147 0
M  V30 25962 C 2418.62 0.94485 1.46112 0
M  V30 25963 O 2419.8 1.25544 1.57483 0
M  V30 25964 C 2416.86 2.41107 2.49135 0
M  V30 25965 C 2415.92 3.63322 2.28682 0
M  V30 25966 C 2415.15 3.99909 3.53424 0
M  V30 25967 O 2415.38 3.36981 4.60217 0
M  V30 25968 O 2414.31 4.9308 3.45189 0
M  V30 25969 H 2418.14 2.92307 0.824017 0
M  V30 25970 H 2415.72 1.45439 0.341719 0
M  V30 25971 H 2417.6 2.66617 3.26333 0
M  V30 25972 H 2416.28 1.54629 2.84379 0
M  V30 25973 H 2415.19 3.4298 1.49384 0
M  V30 25974 H 2416.52 4.50466 1.98347 0
M  V30 25975 N 2418.17 -0.401677 1.52395 0
M  V30 25976 C 2419.41 -1.15702 1.68501 0
M  V30 25977 C 2419.78 -1.87576 0.409781 0
M  V30 25978 O 2420.98 -2.65057 0.44703 0
M  V30 25979 C 2419.25 -2.11919 2.87793 0
M  V30 25980 S 2420.81 -2.95461 3.2442 0
M  V30 25981 H 2417.62 -0.391851 0.593274 0
M  V30 25982 H 2420.23 -0.443248 1.90409 0
M  V30 25983 H 2418.93 -1.57817 3.78843 0
M  V30 25984 H 2418.46 -2.87824 2.6818 0
M  V30 25985 H 2420.48 -4.13939 2.73621 0
M  V30 25986 N 2419.65 -1.43144 -0.659362 0
M  V30 25987 C 2420.58 -1.43787 -1.78488 0
M  V30 25988 C 2421.59 -0.334815 -1.5932 0
M  V30 25989 O 2422.78 -0.598872 -1.68154 0
M  V30 25990 C 2419.88 -1.22911 -3.15826 0
M  V30 25991 C 2419.06 -2.45941 -3.61707 0
M  V30 25992 C 2418.12 -2.2038 -4.77828 0
M  V30 25993 O 2417.14 -2.9369 -4.87581 0
M  V30 25994 N 2418.34 -1.21657 -5.67609 0
M  V30 25995 H 2421.11 -2.40807 -1.78416 0
M  V30 25996 H 2418.67 -1.38222 -0.842996 0
M  V30 25997 H 2420.66 -1.03704 -3.91188 0
M  V30 25998 H 2419.23 -0.343597 -3.10706 0
M  V30 25999 H 2418.45 -2.80614 -2.76856 0
M  V30 26000 H 2419.74 -3.27832 -3.89106 0
M  V30 26001 H 2419.14 -0.610548 -5.62396 0
M  V30 26002 H 2417.69 -1.08434 -6.42717 0
M  V30 26003 N 2421.13 0.897149 -1.29572 0
M  V30 26004 C 2422.4 1.62837 -1.08368 0
M  V30 26005 C 2422.78 2.07809 0.371294 0
M  V30 26006 O 2422.13 1.83578 1.36057 0
M  V30 26007 C 2422.34 2.80722 -2.07354 0
M  V30 26008 C 2423.69 3.51347 -2.38412 0
M  V30 26009 O 2424.71 2.90895 -2.05569 0
M  V30 26010 O 2423.57 4.60336 -2.94538 0
M  V30 26011 H 2420.67 0.715127 -0.415358 0
M  V30 26012 H 2423.21 0.944993 -1.40954 0
M  V30 26013 H 2421.99 2.44706 -3.05343 0
M  V30 26014 H 2421.61 3.56764 -1.75514 0
M  V30 26015 N 2422.61 1.1209 1.10786 0
M  V30 26016 C 2423.52 0.798377 2.20597 0
M  V30 26017 C 2424.53 -0.21132 1.72712 0
M  V30 26018 O 2425.71 -0.0458123 2.01348 0
M  V30 26019 C 2422.77 0.253734 3.4577 0
M  V30 26020 C 2421.83 1.3229 4.08409 0
M  V30 26021 C 2421.07 0.804153 5.27607 0
M  V30 26022 O 2421.29 -0.363378 5.69241 0
M  V30 26023 O 2420.22 1.57208 5.81007 0
M  V30 26024 H 2424.05 1.71545 2.50611 0
M  V30 26025 H 2421.63 0.897296 1.19453 0
M  V30 26026 H 2423.52 -0.045295 4.21376 0
M  V30 26027 H 2422.19 -0.635949 3.17392 0
M  V30 26028 H 2421.1 1.67505 3.34504 0
M  V30 26029 H 2422.43 2.18622 4.40982 0
M  V30 26030 N 2424.08 -1.28513 0.912254 0
M  V30 26031 C 2424.99 -2.31086 0.404547 0
M  V30 26032 C 2426.01 -1.66448 -0.50704 0
M  V30 26033 O 2427.19 -1.97517 -0.393589 0
M  V30 26034 C 2424.25 -3.44944 -0.348512 0
M  V30 26035 C 2423.31 -4.25141 0.596114 0
M  V30 26036 C 2422.54 -5.33563 -0.1211 0
M  V30 26037 O 2422.77 -5.54363 -1.34307 0
M  V30 26038 O 2421.7 -5.99447 0.542822 0
M  V30 26039 H 2425.53 -2.76519 1.25583 0
M  V30 26040 H 2423.11 -1.33179 0.677022 0
M  V30 26041 H 2424.99 -4.14233 -0.773877 0
M  V30 26042 H 2423.67 -3.01596 -1.17566 0
M  V30 26043 H 2422.58 -3.58446 1.07085 0
M  V30 26044 H 2423.91 -4.72164 1.39003 0
M  V30 26045 N 2425.56 -0.676073 -1.42362 0
M  V30 26046 C 2426.51 0.0131099 -2.32596 0
M  V30 26047 C 2427.5 0.789212 -1.49893 0
M  V30 26048 O 2428.71 0.697032 -1.65956 0
M  V30 26049 H 2425.09 0.0230349 -0.751647 0
M  V30 26050 H 2427.06 -0.765293 -2.8842 0
M  V30 26051 C 2425.81 0.949643 -3.3448 0
M  V30 26052 H 2425.13 0.361868 -3.98159 0
M  V30 26053 H 2426.57 1.40053 -4.00201 0
M  V30 26054 C 2425.03 2.05663 -2.66842 0
M  V30 26055 O 2425.56 3.14322 -2.5013 0
M  V30 26056 N 2423.76 1.82871 -2.25846 0
M  V30 26057 H 2423.31 0.945043 -2.39639 0
M  V30 26058 H 2423.27 2.57127 -1.80923 0
M  V30 26059 N 2427.04 1.51915 -0.419488 0
M  V30 26060 C 2427.97 2.25007 0.43642 0
M  V30 26061 C 2428.99 1.28353 1.00147 0
M  V30 26062 O 2430.17 1.54229 0.898647 0
M  V30 26063 C 2427.27 2.97643 1.62055 0
M  V30 26064 C 2426.45 4.21251 1.17756 0
M  V30 26065 C 2425.51 4.76621 2.22977 0
M  V30 26066 O 2424.53 5.38932 1.83142 0
M  V30 26067 N 2425.73 4.59095 3.55263 0
M  V30 26068 H 2428.5 2.99097 -0.189943 0
M  V30 26069 H 2426.06 1.59998 -0.247414 0
M  V30 26070 H 2428.05 3.31577 2.32032 0
M  V30 26071 H 2426.62 2.26674 2.15262 0
M  V30 26072 H 2425.84 3.93014 0.305513 0
M  V30 26073 H 2427.13 5.01502 0.858693 0
M  V30 26074 H 2426.53 4.09423 3.9037 0
M  V30 26075 H 2425.09 4.97439 4.21186 0
M  V30 26076 N 2428.52 0.150242 1.56882 0
M  V30 26077 C 2429.47 -0.788206 2.16924 0
M  V30 26078 C 2430.44 -1.24185 1.10305 0
M  V30 26079 O 2431.62 -1.3138 1.38361 0
M  V30 26080 C 2428.76 -2.02064 2.79758 0
M  V30 26081 C 2427.87 -1.6125 4.00777 0
M  V30 26082 C 2427.01 -2.79697 4.516 0
M  V30 26083 C 2426.05 -2.35272 5.65078 0
M  V30 26084 N 2425.18 -3.46739 6.10505 0
M  V30 26085 H 2430.02 -0.269392 2.9678 0
M  V30 26086 H 2427.56 -0.121254 1.46599 0
M  V30 26087 H 2429.52 -2.74318 3.14334 0
M  V30 26088 H 2428.15 -2.51351 2.02541 0
M  V30 26089 H 2427.2 -0.787488 3.7216 0
M  V30 26090 H 2428.51 -1.24624 4.82981 0
M  V30 26091 H 2427.67 -3.60136 4.88248 0
M  V30 26092 H 2426.41 -3.19569 3.68411 0
M  V30 26093 H 2425.41 -1.53273 5.28003 0
M  V30 26094 H 2426.64 -1.96482 6.50055 0
M  V30 26095 H 2424.58 -3.86226 5.3025 0
M  V30 26096 H 2424.5 -3.14139 6.87643 0
M  V30 26097 H 2425.77 -4.27526 6.51799 0
M  V30 26098 N 2430 -1.57115 -0.123538 0
M  V30 26099 C 2430.93 -1.9665 -1.17735 0
M  V30 26100 C 2431.94 -0.865225 -1.37905 0
M  V30 26101 O 2433.13 -1.14354 -1.3706 0
M  V30 26102 C 2430.23 -2.24566 -2.53817 0
M  V30 26103 C 2429.4 -3.55872 -2.54311 0
M  V30 26104 C 2428.46 -3.72054 -3.72105 0
M  V30 26105 O 2427.49 -4.44212 -3.55899 0
M  V30 26106 N 2428.69 -3.1048 -4.90492 0
M  V30 26107 H 2431.46 -2.87655 -0.841097 0
M  V30 26108 H 2429.02 -1.58848 -0.312862 0
M  V30 26109 H 2431.01 -2.32611 -3.31171 0
M  V30 26110 H 2429.58 -1.3971 -2.79642 0
M  V30 26111 H 2428.8 -3.59055 -1.62705 0
M  V30 26112 H 2430.09 -4.42185 -2.51693 0
M  V30 26113 H 2429.48 -2.51815 -5.06563 0
M  V30 26114 H 2428.04 -3.24053 -5.65538 0
M  V30 26115 N 2431.47 0.393589 -1.52606 0
M  V30 26116 C 2432.71 1.14807 -1.69112 0
M  V30 26117 C 2433.08 1.87356 -0.419723 0
M  V30 26118 O 2434.28 2.64816 -0.46108 0
M  V30 26119 C 2432.55 2.1039 -2.88913 0
M  V30 26120 S 2434.11 2.93736 -3.25983 0
M  V30 26121 H 2430.93 0.388699 -0.595343 0
M  V30 26122 H 2433.53 0.433144 -1.90641 0
M  V30 26123 H 2432.23 1.55806 -3.79675 0
M  V30 26124 H 2431.76 2.86398 -2.69703 0
M  V30 26125 H 2433.78 4.12482 -2.75813 0
M  V30 26126 N 2432.95 1.43492 0.651762 0
M  V30 26127 C 2433.88 1.44732 1.77723 0
M  V30 26128 C 2434.9 0.343259 1.5914 0
M  V30 26129 O 2436.09 0.607781 1.67834 0
M  V30 26130 C 2433.19 1.24584 3.1517 0
M  V30 26131 C 2432.36 2.47855 3.60398 0
M  V30 26132 C 2431.42 2.22911 4.76652 0
M  V30 26133 O 2430.44 2.96271 4.86016 0
M  V30 26134 N 2431.65 1.24666 5.66956 0
M  V30 26135 H 2434.41 2.41749 1.77136 0
M  V30 26136 H 2431.97 1.38667 0.835654 0
M  V30 26137 H 2433.96 1.05777 3.90632 0
M  V30 26138 H 2432.53 0.36007 3.10519 0
M  V30 26139 H 2431.75 2.82078 2.75364 0
M  V30 26140 H 2433.04 3.29891 3.87362 0
M  V30 26141 H 2432.44 0.640364 5.62064 0
M  V30 26142 H 2431 1.11841 6.42133 0
M  V30 26143 N 2434.43 -0.890264 1.30046 0
M  V30 26144 C 2435.71 -1.6226 1.0923 0
M  V30 26145 C 2436.09 -2.08003 -0.360268 0
M  V30 26146 O 2435.44 -1.84297 -1.35081 0
M  V30 26147 C 2435.65 -2.79619 2.0884 0
M  V30 26148 C 2436.99 -3.50078 2.40272 0
M  V30 26149 O 2438.02 -2.898 2.07109 0
M  V30 26150 O 2436.88 -4.58768 2.96975 0
M  V30 26151 H 2433.97 -0.712914 0.419145 0
M  V30 26152 H 2436.52 -0.937504 1.41453 0
M  V30 26153 H 2435.29 -2.43083 3.06637 0
M  V30 26154 H 2434.91 -3.55828 1.77403 0
M  V30 26155 N 2435.91 -1.12676 -1.1019 0
M  V30 26156 C 2436.84 -0.8194 -2.18651 0
M  V30 26157 C 2437.82 0.217886 -1.68699 0
M  V30 26158 O 2439 0.078524 -1.94041 0
M  V30 26159 C 2436.13 -0.276001 -3.46202 0
M  V30 26160 C 2435.09 -1.24664 -4.09442 0
M  V30 26161 C 2434.41 -0.563352 -5.31724 0
M  V30 26162 C 2435.71 -2.60225 -4.52858 0
M  V30 26163 H 2437.41 -1.72632 -2.44619 0
M  V30 26164 H 2434.95 -0.831472 -1.17569 0
M  V30 26165 H 2436.91 -0.048689 -4.21372 0
M  V30 26166 H 2435.63 0.666275 -3.19732 0
M  V30 26167 H 2434.29 -1.4598 -3.36282 0
M  V30 26168 H 2433.94 0.384147 -5.01531 0
M  V30 26169 H 2433.64 -1.21085 -5.74989 0
M  V30 26170 H 2435.16 -0.345137 -6.09624 0
M  V30 26171 H 2436.58 -2.42922 -5.1929 0
M  V30 26172 H 2434.97 -3.21077 -5.06981 0
M  V30 26173 H 2436.04 -3.18478 -3.6565 0
M  V30 26174 N 2437.39 1.28028 -0.919057 0
M  V30 26175 C 2438.63 1.94362 -0.553872 0
M  V30 26176 C 2438.96 1.72658 0.906326 0
M  V30 26177 O 2438.23 1.06933 1.64141 0
M  V30 26178 H 2436.81 0.719213 -0.201847 0
M  V30 26179 H 2439.47 1.55907 -1.16957 0
M  V30 26180 H 2438.56 3.02885 -0.752811 0
M  V30 26181 N 2438.86 0.683613 1.42002 0
M  V30 26182 C 2439.83 0.0198645 2.29191 0
M  V30 26183 C 2440.83 -0.720105 1.43775 0
M  V30 26184 O 2442.02 -0.556786 1.65062 0
M  V30 26185 C 2439.15 -0.98243 3.26437 0
M  V30 26186 H 2440.34 0.787396 2.89379 0
M  V30 26187 H 2437.9 0.446445 1.49788 0
M  V30 26188 H 2438.63 -1.77814 2.71206 0
M  V30 26189 H 2438.42 -0.455113 3.8945 0
M  V30 26190 H 2439.91 -1.44501 3.91803 0
M  V30 26191 N 2440.34 -1.5169 0.427538 0
M  V30 26192 C 2441.59 -2.02 -0.142193 0
M  V30 26193 C 2441.92 -1.31224 -1.43564 0
M  V30 26194 O 2441.17 -0.412777 -1.91297 0
M  V30 26195 C 2441.47 -3.54945 -0.418187 0
M  V30 26196 C 2441.14 -4.43956 0.788265 0
M  V30 26197 C 2439.8 -4.68005 1.11915 0
M  V30 26198 C 2442.15 -4.96241 1.59356 0
M  V30 26199 C 2439.48 -5.41585 2.25617 0
M  V30 26200 C 2441.83 -5.71067 2.7215 0
M  V30 26201 C 2440.5 -5.93382 3.05703 0
M  V30 26202 H 2439.77 -0.739171 -0.0520321 0
M  V30 26203 H 2442.41 -1.82735 0.572729 0
M  V30 26204 H 2440.72 -3.72488 -1.21489 0
M  V30 26205 H 2442.42 -3.91398 -0.87227 0
M  V30 26206 H 2439.01 -4.25429 0.520419 0
M  V30 26207 H 2443.19 -4.77554 1.35114 0
M  V30 26208 H 2438.45 -5.57079 2.51939 0
M  V30 26209 H 2442.62 -6.10572 3.34925 0
M  V30 26210 H 2440.25 -6.50177 3.93922 0
M  V30 26211 N 2441.82 -0.15856 -1.568 0
M  V30 26212 C 2443.05 0.496268 -2.0086 0
M  V30 26213 C 2443.46 1.57657 -1.03873 0
M  V30 26214 O 2442.82 1.82461 -0.0375485 0
M  V30 26215 C 2442.87 1.08632 -3.44792 0
M  V30 26216 O 2442.59 0.0491552 -4.38072 0
M  V30 26217 C 2444.09 1.82063 -4.04188 0
M  V30 26218 H 2441.31 0.128187 -0.658642 0
M  V30 26219 H 2443.86 -0.256542 -2.02884 0
M  V30 26220 H 2442.01 1.78969 -3.43582 0
M  V30 26221 H 2442.43 0.48301 -5.22271 0
M  V30 26222 H 2443.9 2.18624 -5.0686 0
M  V30 26223 H 2444.38 2.71089 -3.45554 0
M  V30 26224 H 2444.98 1.16397 -4.09062 0
M  V30 26225 N 2443.3 1.57178 0.115204 0
M  V30 26226 C 2444.21 2.0392 1.1599 0
M  V30 26227 C 2445.23 0.960293 1.45101 0
M  V30 26228 O 2446.4 1.27207 1.56142 0
M  V30 26229 C 2443.47 2.43736 2.46563 0
M  V30 26230 C 2442.53 3.65727 2.24815 0
M  V30 26231 C 2441.76 4.03635 3.49163 0
M  V30 26232 O 2441.98 3.41843 4.56617 0
M  V30 26233 O 2440.92 4.96714 3.3994 0
M  V30 26234 H 2444.74 2.93165 0.792968 0
M  V30 26235 H 2442.33 1.45794 0.326274 0
M  V30 26236 H 2444.21 2.70063 3.23487 0
M  V30 26237 H 2442.89 1.57636 2.82723 0
M  V30 26238 H 2441.79 3.44545 1.45738 0
M  V30 26239 H 2443.13 4.52544 1.93558 0
M  V30 26240 N 2444.78 -0.38549 1.52813 0
M  V30 26241 C 2446 -1.1558 1.72209 0
M  V30 26242 C 2446.43 -1.82856 0.441066 0
M  V30 26243 O 2445.79 -1.70963 -0.603435 0
M  V30 26244 C 2445.83 -2.17687 2.8748 0
M  V30 26245 O 2444.94 -3.24349 2.54699 0
M  V30 26246 H 2444.28 -0.336309 0.572532 0
M  V30 26247 H 2446.81 -0.448709 1.99619 0
M  V30 26248 H 2446.82 -2.61624 3.13076 0
M  V30 26249 H 2445.49 -1.68108 3.80411 0
M  V30 26250 H 2444.07 -2.85524 2.39855 0
M  V30 26251 N 2446.26 -1.43835 -0.644143 0
M  V30 26252 C 2447.19 -1.44154 -1.76903 0
M  V30 26253 C 2448.17 -0.301886 -1.59773 0
M  V30 26254 O 2449.35 -0.496873 -1.81834 0
M  V30 26255 C 2446.48 -1.26179 -3.14319 0
M  V30 26256 C 2445.52 -2.43539 -3.5013 0
M  V30 26257 S 2446.36 -4.06085 -3.49078 0
M  V30 26258 C 2447.51 -3.9051 -4.89135 0
M  V30 26259 H 2447.75 -2.39339 -1.76364 0
M  V30 26260 H 2445.28 -1.30976 -0.817601 0
M  V30 26261 H 2447.24 -1.16496 -3.93623 0
M  V30 26262 H 2445.9 -0.325279 -3.12411 0
M  V30 26263 H 2445.09 -2.26791 -4.50091 0
M  V30 26264 H 2444.69 -2.49895 -2.7826 0
M  V30 26265 H 2446.98 -3.53395 -5.78029 0
M  V30 26266 H 2447.93 -4.90255 -5.10936 0
M  V30 26267 H 2448.34 -3.22803 -4.63097 0
M  V30 26268 N 2447.73 0.883355 -1.30517 0
M  V30 26269 C 2448.98 1.63772 -1.1961 0
M  V30 26270 C 2449.31 1.92606 0.24828 0
M  V30 26271 O 2448.59 1.54815 1.1774 0
M  V30 26272 C 2448.87 2.9765 -2.02674 0
M  V30 26273 C 2448.72 2.75778 -3.5534 0
M  V30 26274 C 2450.04 3.98592 -1.8658 0
M  V30 26275 H 2447.16 0.594298 -0.435866 0
M  V30 26276 H 2449.8 1.02209 -1.60166 0
M  V30 26277 H 2447.95 3.50194 -1.68215 0
M  V30 26278 H 2449.63 2.30009 -3.99867 0
M  V30 26279 H 2447.87 2.10253 -3.79442 0
M  V30 26280 H 2448.54 3.7098 -4.08751 0
M  V30 26281 H 2451.02 3.55213 -2.1671 0
M  V30 26282 H 2449.89 4.90174 -2.47023 0
M  V30 26283 H 2450.15 4.34327 -0.825398 0
M  V30 26284 N 2449.21 1.13259 1.09591 0
M  V30 26285 C 2450.46 0.894612 1.82001 0
M  V30 26286 C 2450.79 -0.577874 1.85403 0
M  V30 26287 O 2450.07 -1.42756 1.32102 0
M  V30 26288 C 2450.35 1.48102 3.28234 0
M  V30 26289 C 2450.2 3.02249 3.33115 0
M  V30 26290 C 2451.52 1.14781 4.24869 0
M  V30 26291 H 2448.64 0.326435 0.660764 0
M  V30 26292 H 2451.28 1.4006 1.28386 0
M  V30 26293 H 2449.43 1.05069 3.74022 0
M  V30 26294 H 2451.1 3.54026 2.95742 0
M  V30 26295 H 2449.35 3.37328 2.7275 0
M  V30 26296 H 2450.02 3.38378 4.36124 0
M  V30 26297 H 2452.49 1.51964 3.87358 0
M  V30 26298 H 2451.37 1.58462 5.25529 0
M  V30 26299 H 2451.63 0.0612626 4.42058 0
M  V30 26300 N 2450.69 -1.27539 0.925834 0
M  V30 26301 C 2451.94 -1.9445 0.565289 0
M  V30 26302 C 2452.26 -1.72781 -0.89313 0
M  V30 26303 O 2451.52 -1.04898 -1.65212 0
M  V30 26304 C 2451.82 -3.475 0.835357 0
M  V30 26305 C 2451.48 -3.89287 2.27522 0
M  V30 26306 C 2450.15 -4.00406 2.66886 0
M  V30 26307 C 2452.5 -4.1049 3.21166 0
M  V30 26308 C 2449.83 -4.30115 3.99021 0
M  V30 26309 C 2452.18 -4.41682 4.52879 0
M  V30 26310 C 2450.84 -4.51014 4.9208 0
M  V30 26311 H 2450.11 -0.711542 0.206854 0
M  V30 26312 H 2452.76 -1.51645 1.16944 0
M  V30 26313 H 2451.06 -3.91518 0.148511 0
M  V30 26314 H 2452.76 -3.9741 0.535391 0
M  V30 26315 H 2449.35 -3.81168 1.95982 0
M  V30 26316 H 2453.54 -4.01341 2.91957 0
M  V30 26317 H 2448.79 -4.35549 4.29077 0
M  V30 26318 H 2452.97 -4.57036 5.25444 0
M  V30 26319 H 2450.59 -4.73789 5.94498 0
M  V30 26320 N 2452.17 -0.691135 -1.41637 0
M  V30 26321 C 2453.42 -0.219793 -2.00901 0
M  V30 26322 C 2453.74 1.18326 -1.54996 0
M  V30 26323 O 2453.01 1.7976 -0.778659 0
M  V30 26324 H 2451.59 -0.0782689 -0.742888 0
M  V30 26325 H 2454.25 -0.891301 -1.73326 0
M  V30 26326 H 2453.34 -0.233763 -3.11223 0
M  V30 26327 N 2453.65 1.51461 -0.435577 0
M  V30 26328 C 2454.89 2.03982 0.130672 0
M  V30 26329 C 2455.25 1.31271 1.40114 0
M  V30 26330 O 2456.45 1.74155 2.04752 0
M  V30 26331 C 2454.72 3.55721 0.34604 0
M  V30 26332 S 2456.28 4.29968 0.875947 0
M  V30 26333 H 2453.1 0.710249 0.0326756 0
M  V30 26334 H 2455.7 1.86239 -0.594577 0
M  V30 26335 H 2454.4 4.06209 -0.584982 0
M  V30 26336 H 2453.94 3.77754 1.09842 0
M  V30 26337 H 2455.95 4.47023 2.15371 0
M  V30 26338 N 2455.12 0.166873 1.56714 0
M  V30 26339 C 2456.54 -0.350614 1.83378 0
M  V30 26340 C 2456.89 -1.6337 1.08649 0
M  V30 26341 O 2456.01 -2.13743 0.338096 0
M  V30 26342 C 2456.61 -0.642905 3.32644 0
M  V30 26343 C 2455.17 -1.10485 3.5982 0
M  V30 26344 C 2454.31 -0.138363 2.76955 0
M  V30 26345 H 2457.26 0.39122 1.53802 0
M  V30 26346 H 2457.28 -1.49545 3.49881 0
M  V30 26347 H 2456.8 0.291123 3.87007 0
M  V30 26348 H 2454.9 -2.05413 3.10864 0
M  V30 26349 H 2455.01 -1.01708 4.6818 0
M  V30 26350 H 2453.37 -0.634868 2.46661 0
M  V30 26351 H 2454.16 0.789608 3.34096 0
M  V30 26352 N 2456.6 -1.57237 -0.106866 0
M  V30 26353 C 2457.55 -2.02217 -1.1494 0
M  V30 26354 C 2458.54 -0.921165 -1.42165 0
M  V30 26355 O 2459.75 -1.10636 -1.41985 0
M  V30 26356 H 2456.13 -0.644276 -0.38783 0
M  V30 26357 H 2458.1 -2.88986 -0.743632 0
M  V30 26358 C 2456.85 -2.45255 -2.46466 0
M  V30 26359 H 2456.17 -3.29549 -2.26358 0
M  V30 26360 H 2457.61 -2.80514 -3.17944 0
M  V30 26361 C 2456.07 -1.32105 -3.09919 0
M  V30 26362 O 2456.6 -0.643691 -3.96509 0
M  V30 26363 N 2454.8 -1.07502 -2.69985 0
M  V30 26364 H 2454.35 -1.62764 -1.99664 0
M  V30 26365 H 2454.31 -0.319931 -3.12768 0
M  V30 26366 O 2458.12 0.251022 -1.59537 0
M  V30 26367 H 2458.81 0.894577 -1.71805 0
M  V30 END ATOM
M  V30 BEGIN BOND
M  V30 END BOND
M  V30 END CTAB
M  END
$$$$
