drugbank_target|P06820 Neuraminidase (DB02268; DB02829; DB04565; DB08570; DB08571)
 OpenBabel12092119543D

  0  0  0     0  0            999 V3000
M  V30 BEGIN CTAB
M  V30 COUNTS 7188 7268 0 0 0
M  V30 BEGIN ATOM
M  V30 1 H -0.908 1.98254 -0.117106 0
M  V30 2 N 0 1.576 0 0
M  V30 3 C 0.933 2.03868 1.02534 0
M  V30 4 C 1.911 0.928543 1.3348 0
M  V30 5 O 3.095 1.19667 1.45644 0
M  V30 6 C 0.222 2.43627 2.35294 0
M  V30 7 C -0.732 3.65373 2.2001 0
M  V30 8 S 0.101 5.13292 1.52614 0
M  V30 9 C 1.257 5.56322 2.86805 0
M  V30 10 H 1.49 2.90518 0.631377 0
M  V30 11 H -0.977 1.52953 0.210867 0
M  V30 12 H 0.981 2.67203 3.11629 0
M  V30 13 H -0.358 1.57376 2.7183 0
M  V30 14 H -1.165 3.90944 3.18086 0
M  V30 15 H -1.563 3.418 1.51819 0
M  V30 16 H 0.729 5.58782 3.83104 0
M  V30 17 H 1.672 6.56266 2.65933 0
M  V30 18 H 2.08 4.83886 2.90714 0
M  V30 19 N 1.4781 -0.272755 1.55222 0
M  V30 20 C 2.4261 -1.35705 1.88909 0
M  V30 21 C 3.4201 -1.5112 0.765456 0
M  V30 22 O 4.6261 -1.52901 0.949802 0
M  V30 23 H 1.0011 -0.453868 0.59959 0
M  V30 24 H 2.9721 -1.04544 2.79487 0
M  V30 25 C 1.7211 -2.71049 2.17779 0
M  V30 26 H 1.0441 -2.59979 3.03728 0
M  V30 27 H 2.4841 -3.45858 2.45272 0
M  V30 28 C 0.9431 -3.22165 0.985473 0
M  V30 29 O 1.4731 -4.01096 0.220233 0
M  V30 30 N -0.3209 -2.7985 0.783108 0
M  V30 31 H -0.7739 -2.15775 1.40708 0
M  V30 32 H -0.8159 -3.14397 -0.0130392 0
M  V30 33 N 2.9562 -1.48159 -0.537278 0
M  V30 34 C 4.3672 -1.49429 -1.11928 0
M  V30 35 C 4.7182 -0.26 -1.9447 0
M  V30 36 O 3.8432 0.633489 -2.0692 0
M  V30 37 C 4.4382 -2.70758 -2.03656 0
M  V30 38 C 2.9972 -2.74923 -2.57088 0
M  V30 39 C 2.1442 -2.42835 -1.3389 0
M  V30 40 H 5.0952 -1.55381 -0.322886 0
M  V30 41 H 5.1162 -2.48861 -2.87834 0
M  V30 42 H 4.6282 -3.60575 -1.43553 0
M  V30 43 H 2.7292 -1.89296 -3.20933 0
M  V30 44 H 2.8422 -3.76157 -2.9672 0
M  V30 45 H 1.2062 -1.93836 -1.65226 0
M  V30 46 H 1.9892 -3.34884 -0.755504 0
M  V30 47 N 4.4343 0.785586 -1.36625 0
M  V30 48 C 5.3823 1.91978 -1.31329 0
M  V30 49 C 6.3763 1.68162 -0.204416 0
M  V30 50 O 7.5823 1.76122 -0.371645 0
M  V30 51 H 3.9573 0.631087 -0.408942 0
M  V30 52 H 5.9283 1.93562 -2.27104 0
M  V30 53 C 4.6773 3.29055 -1.12329 0
M  V30 54 H 4.0003 3.4795 -1.96903 0
M  V30 55 H 5.4403 4.08756 -1.12671 0
M  V30 56 C 3.8993 3.36461 0.171861 0
M  V30 57 O 4.4293 3.84576 1.16035 0
M  V30 58 N 2.6353 2.89782 0.217846 0
M  V30 59 H 2.1823 2.50819 -0.587183 0
M  V30 60 H 2.1403 2.95119 1.08408 0
M  V30 61 N 5.9124 1.20967 1.01018 0
M  V30 62 C 6.8444 0.922059 2.09835 0
M  V30 63 C 7.8574 -0.0927106 1.62536 0
M  V30 64 O 9.0464 0.139127 1.77957 0
M  V30 65 C 6.1464 0.362004 3.36961 0
M  V30 66 C 5.3194 1.42986 4.13369 0
M  V30 67 C 4.3784 0.879976 5.1879 0
M  V30 68 O 3.4044 1.56219 5.47343 0
M  V30 69 N 4.6064 -0.307396 5.79686 0
M  V30 70 H 7.3714 1.8588 2.35093 0
M  V30 71 H 4.9324 1.11422 1.1746 0
M  V30 72 H 6.9244 -0.0201474 4.04695 0
M  V30 73 H 5.4944 -0.479437 3.08902 0
M  V30 74 H 4.7144 1.98608 3.40512 0
M  V30 75 H 6.0024 2.14885 4.61196 0
M  V30 76 H 5.4004 -0.878796 5.58832 0
M  V30 77 H 3.9574 -0.631115 6.48737 0
M  V30 78 N 7.3905 -1.2043 1.01659 0
M  V30 79 C 8.3375 -2.23215 0.586822 0
M  V30 80 C 9.3075 -1.61382 -0.393085 0
M  V30 81 O 10.4925 -1.88544 -0.292525 0
M  V30 82 C 7.6325 -3.45032 -0.0687464 0
M  V30 83 C 6.7455 -4.21296 0.955724 0
M  V30 84 C 5.8805 -5.30507 0.271208 0
M  V30 85 C 4.9195 -5.98515 1.28244 0
M  V30 86 N 4.0565 -6.99316 0.62459 0
M  V30 87 H 8.8965 -2.59336 1.46796 0
M  V30 88 H 6.4335 -1.27431 0.734836 0
M  V30 89 H 8.3915 -4.1459 -0.465965 0
M  V30 90 H 7.0215 -3.09604 -0.913529 0
M  V30 91 H 6.0735 -3.50803 1.4711 0
M  V30 92 H 7.3855 -4.6803 1.72479 0
M  V30 93 H 6.5395 -6.06428 -0.18151 0
M  V30 94 H 5.2785 -4.8481 -0.530163 0
M  V30 95 H 4.2835 -5.21355 1.74554 0
M  V30 96 H 5.5085 -6.46298 2.08509 0
M  V30 97 H 3.4545 -6.55812 -0.156914 0
M  V30 98 H 3.3715 -7.44178 1.33172 0
M  V30 99 H 4.6395 -7.79255 0.195462 0
M  V30 100 N 8.8686 -0.792821 -1.36206 0
M  V30 101 C 10.1176 -0.363353 -1.984 0
M  V30 102 C 10.4306 1.07172 -1.63626 0
M  V30 103 O 11.6366 1.60362 -2.19081 0
M  V30 104 C 10.0926 -0.59872 -3.54885 0
M  V30 105 C 9.7006 -2.04543 -3.9858 0
M  V30 106 C 11.4446 -0.233926 -4.23855 0
M  V30 107 C 9.3516 -2.22727 -5.47856 0
M  V30 108 H 8.2816 -0.13212 -0.742334 0
M  V30 109 H 10.9326 -0.974935 -1.55458 0
M  V30 110 H 9.3146 0.0826222 -3.95914 0
M  V30 111 H 10.4886 -2.76345 -3.68741 0
M  V30 112 H 8.8036 -2.36879 -3.42458 0
M  V30 113 H 11.4006 -0.348027 -5.33566 0
M  V30 114 H 11.7436 0.818351 -4.08177 0
M  V30 115 H 12.2766 -0.868639 -3.882 0
M  V30 116 H 9.0156 -3.2635 -5.68486 0
M  V30 117 H 8.5356 -1.55434 -5.7931 0
M  V30 118 H 10.2146 -2.03607 -6.14128 0
M  V30 119 N 10.3467 1.47872 -0.545128 0
M  V30 120 C 11.5957 2.01695 -0.0145033 0
M  V30 121 C 11.9087 1.42609 1.33873 0
M  V30 122 O 13.1147 1.88021 1.95858 0
M  V30 123 C 11.5707 3.59892 0.0245068 0
M  V30 124 C 11.1787 4.27966 -1.32475 0
M  V30 125 C 12.9227 4.21507 0.50316 0
M  V30 126 C 10.8297 5.78136 -1.2455 0
M  V30 127 H 9.7597 0.753998 -0.00165172 0
M  V30 128 H 12.4107 1.69985 -0.691175 0
M  V30 129 H 10.7927 3.88509 0.766575 0
M  V30 130 H 11.9667 4.11003 -2.08357 0
M  V30 131 H 10.2817 3.78286 -1.74036 0
M  V30 132 H 12.8787 5.31538 0.580656 0
M  V30 133 H 13.2217 3.87855 1.51243 0
M  V30 134 H 13.7547 3.97376 -0.183681 0
M  V30 135 H 10.4937 6.16388 -2.23039 0
M  V30 136 H 10.0137 5.97469 -0.528282 0
M  V30 137 H 11.6927 6.40099 -0.942488 0
M  V30 138 N 11.8248 0.280983 1.55075 0
M  V30 139 C 13.0528 -0.337293 2.04132 0
M  V30 140 C 13.4678 -1.4903 1.15912 0
M  V30 141 O 12.8248 -1.81606 0.180459 0
M  V30 142 C 12.8758 -0.812706 3.52246 0
M  V30 143 O 12.5968 0.294387 4.3711 0
M  V30 144 C 14.0978 -1.4982 4.17216 0
M  V30 145 H 11.3178 -0.0761638 0.666663 0
M  V30 146 H 13.8618 0.414787 2.00249 0
M  V30 147 H 12.0168 -1.51486 3.56554 0
M  V30 148 H 12.4308 -0.0721325 5.2445 0
M  V30 149 H 13.9048 -1.7822 5.22438 0
M  V30 150 H 14.3818 -2.43168 3.65741 0
M  V30 151 H 14.9878 -0.839742 4.16927 0
M  V30 152 N 13.3029 -1.57598 0.00835791 0
M  V30 153 C 14.5519 -1.90107 -0.673968 0
M  V30 154 C 14.8649 -0.884275 -1.7447 0
M  V30 155 O 16.0709 -1.09987 -2.48224 0
M  V30 156 C 14.5269 -3.37497 -1.24995 0
M  V30 157 C 14.1349 -4.47491 -0.2136 0
M  V30 158 C 15.8789 -3.79104 -1.90999 0
M  V30 159 C 13.7859 -5.85963 -0.80005 0
M  V30 160 H 12.7159 -0.709393 -0.255495 0
M  V30 161 H 15.3669 -1.83365 0.0702693 0
M  V30 162 H 13.7489 -3.39102 -2.04513 0
M  V30 163 H 14.9229 -4.57414 0.557596 0
M  V30 164 H 13.2379 -4.14956 0.346474 0
M  V30 165 H 15.8349 -4.79901 -2.35795 0
M  V30 166 H 16.1779 -3.1306 -2.74407 0
M  V30 167 H 16.7109 -3.79833 -1.18203 0
M  V30 168 H 13.4499 -6.555 -0.00456708 0
M  V30 169 H 12.9699 -5.79687 -1.54021 0
M  V30 170 H 14.6489 -6.33884 -1.29615 0
M  V30 171 N 14.781 0.264519 -1.55364 0
M  V30 172 C 16.029 0.993021 -1.76021 0
M  V30 173 C 16.35 1.86511 -0.569099 0
M  V30 174 O 15.62 1.91438 0.415735 0
M  V30 175 H 14.2 0.369639 -0.649135 0
M  V30 176 H 16.862 0.286707 -1.9278 0
M  V30 177 H 15.958 1.62502 -2.66457 0
M  V30 178 N 16.2591 1.48442 0.529413 0
M  V30 179 C 17.4841 1.60406 1.31471 0
M  V30 180 C 17.9091 0.264738 1.86228 0
M  V30 181 O 17.2671 -0.763668 1.64432 0
M  V30 182 C 17.3151 2.65419 2.44101 0
M  V30 183 O 16.4191 2.22618 3.47153 0
M  V30 184 H 15.7601 0.537863 0.389357 0
M  V30 185 H 18.2901 1.94432 0.636965 0
M  V30 186 H 18.3001 2.86709 2.90279 0
M  V30 187 H 16.9751 3.62652 2.03608 0
M  V30 188 H 15.5521 2.11543 3.0709 0
M  V30 189 N 17.7372 -0.778329 1.37039 0
M  V30 190 C 18.9832 -1.53892 1.32079 0
M  V30 191 C 19.3162 -1.9396 -0.0965386 0
M  V30 192 O 18.5912 -1.63568 -1.05242 0
M  V30 193 C 18.8742 -2.80847 2.25382 0
M  V30 194 C 18.7272 -2.47076 3.75864 0
M  V30 195 C 20.0462 -3.82741 2.1725 0
M  V30 196 H 17.1652 -0.558303 0.48111 0
M  V30 197 H 19.8072 -0.893397 1.67685 0
M  V30 198 H 17.9572 -3.35931 1.95148 0
M  V30 199 H 19.6292 -1.97957 4.16666 0
M  V30 200 H 17.8722 -1.79863 3.94755 0
M  V30 201 H 18.5432 -3.37798 4.36574 0
M  V30 202 H 21.0192 -3.37133 2.43887 0
M  V30 203 H 19.8952 -4.69303 2.84686 0
M  V30 204 H 20.1562 -4.2652 1.16331 0
M  V30 205 N 19.2153 -1.21501 -1.00376 0
M  V30 206 C 20.4403 -1.05977 -1.78279 0
M  V30 207 C 20.8653 0.385994 -1.84097 0
M  V30 208 O 20.2233 1.27849 -1.28547 0
M  V30 209 C 20.2713 -1.66302 -3.19963 0
M  V30 210 O 19.3753 -0.909333 -4.0225 0
M  V30 211 H 18.7163 -0.372906 -0.549397 0
M  V30 212 H 21.2463 -1.6107 -1.26165 0
M  V30 213 H 21.2563 -1.70574 -3.70632 0
M  V30 214 H 19.9313 -2.71515 -3.15043 0
M  V30 215 H 18.5083 -0.941795 -3.60811 0
M  V30 216 N 20.6934 1.19889 -1.02296 0
M  V30 217 C 21.6234 2.25141 -0.619174 0
M  V30 218 C 22.6044 1.66051 0.368915 0
M  V30 219 O 23.7894 1.92546 0.252941 0
M  V30 220 C 20.9194 3.4728 0.0368783 0
M  V30 221 C 19.8734 4.19005 -0.872865 0
M  V30 222 C 19.1994 5.34637 -0.0822402 0
M  V30 223 C 20.4994 4.74452 -2.18387 0
M  V30 224 H 22.1934 2.59171 -1.49903 0
M  V30 225 H 19.7394 1.24579 -0.722222 0
M  V30 226 H 21.6924 4.20098 0.330958 0
M  V30 227 H 20.4164 3.12433 0.95149 0
M  V30 228 H 19.0754 3.48061 -1.15105 0
M  V30 229 H 18.7234 4.96034 0.83422 0
M  V30 230 H 18.4234 5.83557 -0.688149 0
M  V30 231 H 19.9474 6.10255 0.205238 0
M  V30 232 H 21.3614 5.39055 -1.95172 0
M  V30 233 H 19.7584 5.33834 -2.74119 0
M  V30 234 H 20.8284 3.92844 -2.84257 0
M  V30 235 N 22.1715 0.800033 1.35784 0
M  V30 236 C 23.3995 0.389606 2.03199 0
M  V30 237 C 23.8145 -0.997375 1.60306 0
M  V30 238 O 23.1715 -1.64154 0.797481 0
M  V30 239 C 23.2225 0.455855 3.58614 0
M  V30 240 O 22.9435 1.78815 3.99946 0
M  V30 241 C 24.4445 0.0374032 4.43284 0
M  V30 242 H 21.6645 0.159132 0.651857 0
M  V30 243 H 24.2085 1.08183 1.73541 0
M  V30 244 H 22.3635 -0.188057 3.86943 0
M  V30 245 H 22.7775 1.74636 4.94573 0
M  V30 246 H 24.2515 0.134882 5.51835 0
M  V30 247 H 24.7285 -1.01651 4.27275 0
M  V30 248 H 25.3345 0.654215 4.20238 0
M  V30 249 N 23.6496 -1.47581 0.552962 0
M  V30 250 C 24.8986 -2.01684 0.0251995 0
M  V30 251 C 25.2116 -1.43317 -1.33115 0
M  V30 252 O 26.4176 -1.89057 -1.94858 0
M  V30 253 C 24.8736 -3.599 -0.00542052 0
M  V30 254 C 24.4816 -4.27257 1.34742 0
M  V30 255 C 26.2256 -4.21768 -0.4808 0
M  V30 256 C 24.1326 -5.77467 1.27614 0
M  V30 257 H 23.0626 -0.753979 0.00565033 0
M  V30 258 H 25.7136 -1.69616 0.70018 0
M  V30 259 H 24.0956 -3.88911 -0.745961 0
M  V30 260 H 25.2696 -4.09893 2.10534 0
M  V30 261 H 23.5846 -3.77358 1.76039 0
M  V30 262 H 26.1816 -5.31838 -0.55246 0
M  V30 263 H 26.5246 -3.88651 -1.49184 0
M  V30 264 H 27.0576 -3.97273 0.204752 0
M  V30 265 H 23.7966 -6.15196 2.26304 0
M  V30 266 H 23.3166 -5.9718 0.55996 0
M  V30 267 H 24.9956 -6.3959 0.976421 0
M  V30 268 N 25.1277 -0.289203 -1.54924 0
M  V30 269 C 26.0907 0.579144 -2.21762 0
M  V30 270 C 27.0907 1.07047 -1.1999 0
M  V30 271 O 28.2807 0.968384 -1.44803 0
M  V30 272 C 25.4127 1.80055 -2.8947 0
M  V30 273 H 26.6057 -0.00464908 -2.999 0
M  V30 274 H 24.1587 -0.0399306 -1.56249 0
M  V30 275 H 24.8937 2.42449 -2.15381 0
M  V30 276 H 24.6787 1.45602 -3.64064 0
M  V30 277 H 26.1687 2.41773 -3.40493 0
M  V30 278 N 26.6058 1.57591 -0.0167156 0
M  V30 279 C 27.8338 1.95575 0.675128 0
M  V30 280 C 28.2488 0.892542 1.6637 0
M  V30 281 O 27.6058 -0.126912 1.82058 0
M  V30 282 C 27.6568 3.33608 1.39239 0
M  V30 283 O 27.3778 4.3585 0.443444 0
M  V30 284 C 28.8788 3.86151 2.17721 0
M  V30 285 H 26.0988 0.644423 0.186978 0
M  V30 286 H 28.6428 2.0437 -0.0728 0
M  V30 287 H 26.7978 3.2607 2.09182 0
M  V30 288 H 27.2118 5.158 0.951358 0
M  V30 289 H 28.6858 4.85114 2.63379 0
M  V30 290 H 29.1628 3.19738 3.01105 0
M  V30 291 H 29.7688 3.96918 1.52761 0
M  V30 292 N 28.0839 -0.256276 1.55502 0
M  V30 293 C 29.3299 -0.987079 1.77157 0
M  V30 294 C 29.6629 -1.85327 0.580315 0
M  V30 295 O 28.9379 -1.89874 -0.421686 0
M  V30 296 C 29.2209 -1.85553 3.08613 0
M  V30 297 C 29.0739 -1.01816 4.38125 0
M  V30 298 C 30.3929 -2.8397 3.36228 0
M  V30 299 H 27.5119 -0.357428 0.644526 0
M  V30 300 H 30.1539 -0.258239 1.88237 0
M  V30 301 H 28.3039 -2.47695 2.99298 0
M  V30 302 H 29.9759 -0.416159 4.59419 0
M  V30 303 H 28.2189 -0.322178 4.32602 0
M  V30 304 H 28.8899 -1.65939 5.26468 0
M  V30 305 H 31.3659 -2.31964 3.45445 0
M  V30 306 H 30.2419 -3.41864 4.29442 0
M  V30 307 H 30.5029 -3.59955 2.56681 0
M  V30 308 N 29.562 -1.4872 -0.521534 0
M  V30 309 C 30.802 -1.58771 -1.28729 0
M  V30 310 C 31.166 -0.259394 -1.9024 0
M  V30 311 O 32.367 -0.234942 -2.67771 0
M  V30 312 C 30.638 -2.70039 -2.34124 0
M  V30 313 S 32.197 -2.9991 -3.20312 0
M  V30 314 H 29.015 -0.560251 -0.437767 0
M  V30 315 H 31.617 -1.86283 -0.593188 0
M  V30 316 H 30.321 -3.65101 -1.87429 0
M  V30 317 H 29.852 -2.44455 -3.08229 0
M  V30 318 H 31.867 -2.39855 -4.34378 0
M  V30 319 N 31.0401 0.771051 -1.3745 0
M  V30 320 C 32.2871 1.52963 -1.32697 0
M  V30 321 C 32.6151 1.94299 0.0883274 0
M  V30 322 O 31.8701 1.64397 1.0617 0
M  V30 323 C 32.1691 2.80676 -2.2126 0
M  V30 324 C 31.8351 2.58389 -3.69521 0
M  V30 325 C 30.4971 2.52019 -4.09927 0
M  V30 326 C 32.8491 2.38469 -4.63446 0
M  V30 327 C 30.1771 2.23721 -5.42371 0
M  V30 328 C 32.5291 2.11694 -5.96128 0
M  V30 329 C 31.1931 2.03769 -6.35637 0
M  V30 330 H 30.4631 0.559732 -0.485573 0
M  V30 331 H 33.1101 0.888083 -1.69662 0
M  V30 332 H 31.4151 3.49392 -1.77291 0
M  V30 333 H 33.1121 3.38557 -2.14895 0
M  V30 334 H 29.7021 2.6421 -3.37478 0
M  V30 335 H 33.8861 2.4238 -4.33089 0
M  V30 336 H 29.1421 2.16081 -5.71943 0
M  V30 337 H 33.3161 1.9528 -6.6846 0
M  V30 338 H 30.9431 1.81606 -7.38189 0
M  V30 339 N 32.5182 1.22032 0.997298 0
M  V30 340 C 33.4482 1.01065 2.10495 0
M  V30 341 C 34.4292 -0.0669542 1.69968 0
M  V30 342 O 35.6142 0.0943987 1.9397 0
M  V30 343 C 32.7442 0.582874 3.42374 0
M  V30 344 C 31.6982 1.60592 3.96729 0
M  V30 345 C 31.0242 1.03412 5.24605 0
M  V30 346 C 32.3242 2.99478 4.27914 0
M  V30 347 H 34.0182 1.93708 2.28292 0
M  V30 348 H 31.5642 0.932761 1.09707 0
M  V30 349 H 33.5172 0.423332 4.19268 0
M  V30 350 H 32.2412 -0.379213 3.24391 0
M  V30 351 H 30.9002 1.75316 3.21963 0
M  V30 352 H 30.5482 0.063518 5.0296 0
M  V30 353 H 30.2482 1.71754 5.61938 0
M  V30 354 H 31.7722 0.886066 6.04137 0
M  V30 355 H 33.1862 2.88153 4.95622 0
M  V30 356 H 31.5832 3.64903 4.76409 0
M  V30 357 H 32.6532 3.49742 3.3587 0
M  V30 358 N 33.9963 -1.19345 1.0293 0
M  V30 359 C 34.9293 -2.21347 0.555029 0
M  V30 360 C 35.9073 -1.57492 -0.404351 0
M  V30 361 O 37.0913 -1.85741 -0.321352 0
M  V30 362 C 34.2183 -3.38163 -0.19064 0
M  V30 363 C 33.2643 -4.20375 0.720236 0
M  V30 364 S 34.0973 -4.88371 2.19668 0
M  V30 365 C 35.2533 -6.08597 1.46153 0
M  V30 366 H 35.4863 -2.61235 1.41929 0
M  V30 367 H 33.0193 -1.29598 0.839272 0
M  V30 368 H 34.9773 -4.05871 -0.614724 0
M  V30 369 H 33.6383 -2.9671 -1.03063 0
M  V30 370 H 32.8313 -5.03793 0.14455 0
M  V30 371 H 32.4333 -3.57987 1.08266 0
M  V30 372 H 34.7253 -6.73354 0.748357 0
M  V30 373 H 35.6683 -6.7065 2.27233 0
M  V30 374 H 36.0763 -5.56297 0.958842 0
M  V30 375 N 35.4744 -0.807222 -1.35358 0
M  V30 376 C 36.4064 -0.175717 -2.28525 0
M  V30 377 C 37.4194 0.625354 -1.5031 0
M  V30 378 O 38.6084 0.457611 -1.72535 0
M  V30 379 C 35.7084 0.773471 -3.29956 0
M  V30 380 C 34.8814 0.0186296 -4.37396 0
M  V30 381 C 33.9404 0.886395 -5.18681 0
M  V30 382 O 32.9664 0.337106 -5.68201 0
M  V30 383 N 34.1684 2.20839 -5.36852 0
M  V30 384 H 36.9334 -0.976091 -2.83359 0
M  V30 385 H 34.4944 -0.662737 -1.47714 0
M  V30 386 H 36.4864 1.35824 -3.81227 0
M  V30 387 H 35.0564 1.47465 -2.75632 0
M  V30 388 H 34.2764 -0.747349 -3.87051 0
M  V30 389 H 35.5644 -0.501577 -5.06322 0
M  V30 390 H 34.9624 2.67858 -4.98265 0
M  V30 391 H 33.5194 2.74237 -5.91301 0
M  V30 392 N 36.9525 1.47285 -0.560781 0
M  V30 393 C 38.2015 2.01668 -0.035895 0
M  V30 394 C 38.5145 1.44021 1.32353 0
M  V30 395 O 39.7205 1.90088 1.93853 0
M  V30 396 C 38.1765 3.59897 -0.0136659 0
M  V30 397 C 37.7845 4.26536 -1.37006 0
M  V30 398 C 39.5285 4.22017 0.458425 0
M  V30 399 C 37.4355 5.76782 -1.30675 0
M  V30 400 H 36.3655 0.753938 -0.00964879 0
M  V30 401 H 39.0165 1.69243 -0.709166 0
M  V30 402 H 37.3985 3.89301 0.725325 0
M  V30 403 H 38.5725 4.0877 -2.12705 0
M  V30 404 H 36.8875 3.76419 -1.78038 0
M  V30 405 H 39.4845 5.32124 0.524247 0
M  V30 406 H 39.8275 3.89437 1.4712 0
M  V30 407 H 40.3605 3.97159 -0.225818 0
M  V30 408 H 37.0995 6.13988 -2.29564 0
M  V30 409 H 36.6195 5.96875 -0.591622 0
M  V30 410 H 38.2985 6.39063 -1.01033 0
M  V30 411 N 38.4306 0.297415 1.54768 0
M  V30 412 C 39.3936 -0.567375 2.22066 0
M  V30 413 C 40.3936 -1.06409 1.20556 0
M  V30 414 O 41.5836 -0.960691 1.45315 0
M  V30 415 C 38.7156 -1.78517 2.90421 0
M  V30 416 H 39.9086 0.0205534 2.99893 0
M  V30 417 H 37.4616 0.0482163 1.56226 0
M  V30 418 H 38.1966 -2.41303 2.16664 0
M  V30 419 H 37.9816 -1.43669 3.64831 0
M  V30 420 H 39.4716 -2.39964 3.41771 0
M  V30 421 N 39.9087 -1.5758 0.0250728 0
M  V30 422 C 41.1577 -1.90811 -0.653767 0
M  V30 423 C 41.4707 -0.90273 -1.73523 0
M  V30 424 O 42.6767 -1.12614 -2.47043 0
M  V30 425 C 41.1327 -3.38804 -1.21409 0
M  V30 426 C 40.7407 -4.47692 -0.166126 0
M  V30 427 C 42.4847 -3.81108 -1.86967 0
M  V30 428 C 40.3917 -5.86779 -0.737856 0
M  V30 429 H 39.3217 -0.712063 -0.247956 0
M  V30 430 H 41.9727 -1.83281 0.0897137 0
M  V30 431 H 40.3547 -3.41252 -2.00905 0
M  V30 432 H 41.5287 -4.56797 0.606079 0
M  V30 433 H 39.8437 -4.14565 0.390466 0
M  V30 434 H 42.4407 -4.82375 -2.30692 0
M  V30 435 H 42.7837 -3.15953 -2.71071 0
M  V30 436 H 43.3167 -3.81065 -1.14167 0
M  V30 437 H 40.0557 -6.55468 0.0649577 0
M  V30 438 H 39.5757 -5.81288 -1.47864 0
M  V30 439 H 41.2547 -6.35223 -1.22884 0
M  V30 440 N 41.3868 0.248026 -1.55636 0
M  V30 441 C 42.3168 1.31079 -1.93237 0
M  V30 442 C 43.2978 1.50264 -0.797174 0
M  V30 443 O 44.4828 1.62891 -1.05737 0
M  V30 444 C 41.6128 2.66575 -2.22609 0
M  V30 445 C 40.5668 2.62087 -3.3837 0
M  V30 446 C 39.8928 4.01369 -3.53281 0
M  V30 447 C 41.1928 2.19171 -4.7409 0
M  V30 448 H 42.8868 0.998556 -2.82257 0
M  V30 449 H 40.4328 0.47891 -1.35803 0
M  V30 450 H 42.3858 3.41057 -2.47503 0
M  V30 451 H 41.1098 2.99432 -1.30414 0
M  V30 452 H 39.7688 1.90063 -3.13483 0
M  V30 453 H 39.4168 4.31489 -2.58508 0
M  V30 454 H 39.1168 3.99254 -4.31127 0
M  V30 455 H 40.6408 4.77552 -3.80495 0
M  V30 456 H 42.0548 2.83384 -4.98363 0
M  V30 457 H 40.4518 2.2817 -5.5503 0
M  V30 458 H 41.5218 1.14336 -4.71227 0
M  V30 459 N 42.8649 1.48995 0.513639 0
M  V30 460 C 44.1109 1.58076 1.27042 0
M  V30 461 C 44.4439 0.261026 1.92438 0
M  V30 462 O 43.7189 -0.734393 1.80103 0
M  V30 463 C 44.0019 2.73091 2.34719 0
M  V30 464 C 43.8549 4.14821 1.73907 0
M  V30 465 C 45.1739 2.83796 3.36375 0
M  V30 466 H 42.2929 0.575391 0.460536 0
M  V30 467 H 44.9349 1.81232 0.570516 0
M  V30 468 H 43.0849 2.53479 2.94416 0
M  V30 469 H 44.7569 4.45917 1.18135 0
M  V30 470 H 42.9999 4.21058 1.0437 0
M  V30 471 H 43.6709 4.91147 2.51949 0
M  V30 472 H 46.1469 3.01611 2.86653 0
M  V30 473 H 45.0229 3.65971 4.09093 0
M  V30 474 H 45.2839 1.92624 3.9793 0
M  V30 475 N 44.343 -0.763751 1.37857 0
M  V30 476 C 45.571 -1.55293 1.36718 0
M  V30 477 C 45.986 -1.88745 -0.0455434 0
M  V30 478 O 45.343 -1.52039 -1.00947 0
M  V30 479 C 45.394 -2.85831 2.2132 0
M  V30 480 O 45.115 -2.5381 3.57089 0
M  V30 481 C 46.616 -3.80023 2.28249 0
M  V30 482 H 43.836 -0.480841 0.468009 0
M  V30 483 H 46.38 -0.946009 1.81303 0
M  V30 484 H 44.535 -3.42926 1.80223 0
M  V30 485 H 44.949 -3.37459 4.01524 0
M  V30 486 H 46.423 -4.68599 2.91752 0
M  V30 487 H 46.9 -4.1973 1.2932 0
M  V30 488 H 47.506 -3.28855 2.69693 0
M  V30 489 N 45.8211 -1.22559 -0.990812 0
M  V30 490 C 47.0491 -1.07779 -1.76611 0
M  V30 491 C 47.4641 0.371513 -1.85109 0
M  V30 492 O 46.8211 1.25737 -1.32274 0
M  V30 493 C 46.8721 -1.68512 -3.19822 0
M  V30 494 O 46.5931 -3.07774 -3.1178 0
M  V30 495 C 48.0941 -1.59035 -4.13791 0
M  V30 496 H 45.3141 -0.377729 -0.554583 0
M  V30 497 H 47.8581 -1.62195 -1.24551 0
M  V30 498 H 46.0131 -1.18154 -3.68942 0
M  V30 499 H 46.4271 -3.37062 -4.01858 0
M  V30 500 H 47.9011 -2.0625 -5.1202 0
M  V30 501 H 48.3781 -0.547273 -4.35777 0
M  V30 502 H 48.9841 -2.08709 -3.70568 0
M  V30 503 N 47.2992 1.18797 -1.03562 0
M  V30 504 C 48.5452 1.8893 -0.737113 0
M  V30 505 C 48.8782 1.79837 0.732956 0
M  V30 506 O 48.1532 1.19525 1.5344 0
M  V30 507 C 48.4362 3.39607 -1.19745 0
M  V30 508 C 48.2892 3.57537 -2.72924 0
M  V30 509 C 49.6082 4.33069 -0.783526 0
M  V30 510 H 46.7272 0.686057 -0.269249 0
M  V30 511 H 49.3692 1.39797 -1.28673 0
M  V30 512 H 47.5192 3.81583 -0.729855 0
M  V30 513 H 49.1912 3.24688 -3.27682 0
M  V30 514 H 47.4342 3.00363 -3.12993 0
M  V30 515 H 48.1052 4.63238 -3.00191 0
M  V30 516 H 50.5812 3.98846 -1.18581 0
M  V30 517 H 49.4572 5.3707 -1.13343 0
M  V30 518 H 49.7182 4.40986 0.313681 0
M  V30 519 N 48.7773 0.814389 1.34928 0
M  V30 520 C 50.0053 0.411136 2.02774 0
M  V30 521 C 50.4203 -0.980316 1.61354 0
M  V30 522 O 49.7773 -1.63299 0.814847 0
M  V30 523 C 49.8283 0.493865 3.58111 0
M  V30 524 O 49.5493 1.83047 3.98027 0
M  V30 525 C 51.0503 0.0844174 4.4322 0
M  V30 526 H 48.2703 0.166037 0.650133 0
M  V30 527 H 50.8143 1.10018 1.72384 0
M  V30 528 H 48.9693 -0.147006 3.87121 0
M  V30 529 H 49.3833 1.79872 4.92693 0
M  V30 530 H 50.8573 0.193404 5.51661 0
M  V30 531 H 51.3343 -0.97113 4.28329 0
M  V30 532 H 51.9403 0.69875 4.19521 0
M  V30 533 N 50.2554 -1.46986 0.568584 0
M  V30 534 C 51.1854 -2.32946 -0.160753 0
M  V30 535 C 52.1664 -1.44487 -0.897631 0
M  V30 536 O 53.3514 -1.73327 -0.875867 0
M  V30 537 C 50.4814 -3.26494 -1.18403 0
M  V30 538 C 49.4354 -4.24282 -0.562895 0
M  V30 539 C 48.7614 -5.07236 -1.69163 0
M  V30 540 C 50.0614 -5.19989 0.490761 0
M  V30 541 H 51.7554 -2.94175 0.556916 0
M  V30 542 H 49.3014 -1.4146 0.26927 0
M  V30 543 H 51.2544 -3.85477 -1.70251 0
M  V30 544 H 49.9784 -2.63343 -1.93179 0
M  V30 545 H 48.6374 -3.66541 -0.0656164 0
M  V30 546 H 48.2854 -4.4048 -2.42871 0
M  V30 547 H 47.9854 -5.7345 -1.28174 0
M  V30 548 H 49.5094 -5.6908 -2.21314 0
M  V30 549 H 50.9234 -5.73271 0.0579047 0
M  V30 550 H 49.3204 -5.94469 0.820165 0
M  V30 551 H 50.3904 -4.64777 1.3824 0
M  V30 552 N 51.7335 -0.305618 -1.54608 0
M  V30 553 C 52.6835 0.583595 -2.20405 0
M  V30 554 C 53.6675 1.09539 -1.17856 0
M  V30 555 O 54.8595 1.0354 -1.43557 0
M  V30 556 C 51.9885 1.75277 -2.95183 0
M  V30 557 C 51.0745 1.25672 -4.05052 0
M  V30 558 N 51.4655 0.478998 -5.03527 0
M  V30 559 C 49.7635 1.53704 -4.18678 0
M  V30 560 C 50.4645 0.214269 -5.81305 0
M  V30 561 N 49.4405 0.795374 -5.3775 0
M  V30 562 H 53.2425 -0.0180946 -2.93894 0
M  V30 563 H 50.7565 -0.110601 -1.62023 0
M  V30 564 H 52.7535 2.4014 -3.40791 0
M  V30 565 H 51.4135 2.35812 -2.23211 0
M  V30 566 H 52.4245 0.123473 -5.17753 0
M  V30 567 H 49.1015 2.14954 -3.57912 0
M  V30 568 H 50.4915 -0.410656 -6.70644 0
M  V30 569 N 53.2116 1.57565 -0.0334293 0
M  V30 570 C 54.4586 1.91978 0.644272 0
M  V30 571 C 54.7866 0.910231 1.71887 0
M  V30 572 O 54.0416 -0.0801961 1.95536 0
M  V30 573 C 54.3406 3.33112 1.29504 0
M  V30 574 C 54.0066 4.49537 0.350388 0
M  V30 575 C 52.6686 4.81115 0.0903974 0
M  V30 576 C 55.0206 5.20347 -0.298032 0
M  V30 577 C 52.3486 5.8086 -0.825746 0
M  V30 578 C 54.7006 6.2107 -1.20226 0
M  V30 579 C 53.3646 6.51088 -1.4711 0
M  V30 580 H 52.6346 0.702496 0.235756 0
M  V30 581 H 55.2816 1.91259 -0.0961176 0
M  V30 582 H 53.5866 3.30113 2.11028 0
M  V30 583 H 55.2836 3.57011 1.82603 0
M  V30 584 H 51.8736 4.24883 0.563205 0
M  V30 585 H 56.0576 4.96178 -0.110234 0
M  V30 586 H 51.3136 6.02461 -1.04169 0
M  V30 587 H 55.4876 6.75057 -1.71086 0
M  V30 588 H 53.1146 7.28193 -2.18264 0
M  V30 589 N 54.6897 -0.239769 1.55765 0
M  V30 590 C 55.6367 -1.29696 1.90913 0
M  V30 591 C 56.6067 -1.47478 0.764164 0
M  V30 592 O 57.7917 -1.61345 1.01845 0
M  V30 593 C 54.9317 -2.64598 2.21544 0
M  V30 594 C 54.0447 -2.54765 3.48882 0
M  V30 595 C 53.1797 -3.82069 3.69049 0
M  V30 596 C 52.2187 -3.66883 4.89963 0
M  V30 597 N 51.3557 -4.86094 5.06614 0
M  V30 598 H 56.1957 -0.990224 2.81067 0
M  V30 599 H 53.7327 -0.477684 1.39128 0
M  V30 600 H 55.6907 -3.43132 2.3731 0
M  V30 601 H 54.3207 -2.93405 1.34585 0
M  V30 602 H 53.3727 -1.67763 3.41409 0
M  V30 603 H 54.6847 -2.39457 4.37563 0
M  V30 604 H 53.8387 -4.69046 3.84812 0
M  V30 605 H 52.5777 -4.00282 2.78614 0
M  V30 606 H 51.5827 -2.78289 4.74168 0
M  V30 607 H 52.8077 -3.50157 5.81865 0
M  V30 608 H 50.7537 -5.04655 4.19117 0
M  V30 609 H 50.6707 -4.73443 5.89396 0
M  V30 610 H 51.9387 -5.74549 5.26795 0
M  V30 611 N 56.1678 -1.49265 -0.50573 0
M  V30 612 C 57.0998 -1.617 -1.62437 0
M  V30 613 C 58.1128 -0.499924 -1.54934 0
M  V30 614 O 59.3018 -0.771785 -1.60953 0
M  V30 615 C 56.4018 -1.5533 -3.01207 0
M  V30 616 C 55.5748 -2.8249 -3.33943 0
M  V30 617 C 54.6338 -2.69238 -4.52103 0
M  V30 618 O 53.6598 -3.43167 -4.5412 0
M  V30 619 N 54.8618 -1.80468 -5.51735 0
M  V30 620 H 57.6268 -2.58177 -1.52199 0
M  V30 621 H 55.1878 -1.46294 -0.693511 0
M  V30 622 H 57.1798 -1.44125 -3.78167 0
M  V30 623 H 55.7498 -0.667297 -3.05395 0
M  V30 624 H 54.9698 -3.08081 -2.45926 0
M  V30 625 H 56.2578 -3.66802 -3.5261 0
M  V30 626 H 55.6558 -1.19653 -5.52901 0
M  V30 627 H 54.2128 -1.75188 -6.27816 0
M  V30 628 N 57.6459 0.756429 -1.3826 0
M  V30 629 C 58.5959 1.86069 -1.31766 0
M  V30 630 C 59.5799 1.59621 -0.202483 0
M  V30 631 O 60.7719 1.7149 -0.438211 0
M  V30 632 C 57.9009 3.23742 -1.1422 0
M  V30 633 C 56.9869 3.56091 -2.30348 0
M  V30 634 N 57.3779 3.59517 -3.55783 0
M  V30 635 C 55.6759 3.86341 -2.22838 0
M  V30 636 C 56.3769 3.89052 -4.32451 0
M  V30 637 N 55.3529 4.05736 -3.61772 0
M  V30 638 H 59.1549 1.86992 -2.26741 0
M  V30 639 H 56.6689 0.953643 -1.31451 0
M  V30 640 H 58.6659 4.02761 -1.07652 0
M  V30 641 H 57.3259 3.24073 -0.201763 0
M  V30 642 H 58.3369 3.41347 -3.89491 0
M  V30 643 H 55.0139 3.94404 -1.36937 0
M  V30 644 H 56.4039 3.98349 -5.4108 0
M  V30 645 N 59.124 1.23083 0.984299 0
M  V30 646 C 60.034 1.02515 2.11016 0
M  V30 647 C 61.05 -0.0291702 1.73976 0
M  V30 648 O 62.226 0.165434 2.00719 0
M  V30 649 C 59.291 0.614673 3.41208 0
M  V30 650 C 58.352 1.74359 3.92297 0
M  V30 651 C 57.585 1.35261 5.16275 0
M  V30 652 O 57.808 0.235136 5.69915 0
M  V30 653 O 56.742 2.17227 5.61334 0
M  V30 654 H 60.568 1.96862 2.31255 0
M  V30 655 H 58.153 1.01753 1.09392 0
M  V30 656 H 60.035 0.396518 4.1953 0
M  V30 657 H 58.71 -0.299851 3.22308 0
M  V30 658 H 57.617 2.01635 3.1511 0
M  V30 659 H 58.95 2.63629 4.15645 0
M  V30 660 N 60.6021 -1.18246 1.0419 0
M  V30 661 C 61.8421 -1.89948 0.754916 0
M  V30 662 C 62.2061 -1.78608 -0.70451 0
M  V30 663 O 63.4071 -2.4503 -1.10516 0
M  V30 664 C 61.6781 -3.36305 1.20969 0
M  V30 665 S 63.2371 -4.26088 1.04854 0
M  V30 666 H 60.0551 -0.655897 0.274446 0
M  V30 667 H 62.6571 -1.42873 1.33445 0
M  V30 668 H 61.3611 -3.42089 2.26722 0
M  V30 669 H 60.8921 -3.8842 0.624004 0
M  V30 670 H 62.9071 -4.96189 -0.0332896 0
M  V30 671 N 62.0802 -0.821533 -1.34494 0
M  V30 672 C 63.3572 -0.33159 -1.92769 0
M  V30 673 C 63.7372 1.18088 -1.74981 0
M  V30 674 O 63.0852 1.98733 -1.12772 0
M  V30 675 C 63.2952 -0.759398 -3.40638 0
M  V30 676 C 64.6432 -0.757433 -4.1779 0
M  V30 677 O 65.6672 -0.70189 -3.49216 0
M  V30 678 O 64.5262 -0.829361 -5.4017 0
M  V30 679 H 61.6202 -0.0902502 -0.822061 0
M  V30 680 H 64.1662 -0.906231 -1.43477 0
M  V30 681 H 62.9382 -1.8012 -3.47379 0
M  V30 682 H 62.5612 -0.160378 -3.97276 0
M  V30 683 N 63.5583 1.46682 -0.576371 0
M  V30 684 C 64.7833 2.07304 -0.0630475 0
M  V30 685 C 65.2083 1.42329 1.2298 0
M  V30 686 O 64.5663 0.504865 1.74129 0
M  V30 687 C 64.6143 3.60472 0.095895 0
M  V30 688 O 63.7183 3.95927 1.15394 0
M  V30 689 H 63.0593 0.661288 -0.0599463 0
M  V30 690 H 65.5893 1.88417 -0.797511 0
M  V30 691 H 65.5993 4.06865 0.304071 0
M  V30 692 H 64.2743 4.07157 -0.84828 0
M  V30 693 H 62.8513 3.61252 0.924724 0
M  V30 694 N 65.0364 0.313813 1.54444 0
M  V30 695 C 66.4474 -0.176243 1.85866 0
M  V30 696 C 66.7984 -1.52405 1.23561 0
M  V30 697 O 65.9234 -2.09605 0.538016 0
M  V30 698 C 66.5184 -0.32657 3.37222 0
M  V30 699 C 65.0774 -0.760846 3.6863 0
M  V30 700 C 64.2244 0.123247 2.77026 0
M  V30 701 H 67.1754 0.534418 1.49431 0
M  V30 702 H 67.1964 -1.15908 3.62416 0
M  V30 703 H 66.7084 0.654531 3.82541 0
M  V30 704 H 64.8094 -1.75204 3.28838 0
M  V30 705 H 64.9224 -0.571353 4.75681 0
M  V30 706 H 63.2864 -0.399597 2.51546 0
M  V30 707 H 64.0694 1.10094 3.25168 0
M  V30 708 N 66.5145 -1.57545 0.0417849 0
M  V30 709 C 67.4775 -2.09885 -0.92093 0
M  V30 710 C 68.4775 -1.01648 -1.24596 0
M  V30 711 O 69.6675 -1.27759 -1.1842 0
M  V30 712 C 66.7995 -2.57527 -2.23367 0
M  V30 713 H 67.9925 -2.96236 -0.467382 0
M  V30 714 H 65.5455 -1.5493 -0.206467 0
M  V30 715 H 66.2805 -1.74542 -2.73323 0
M  V30 716 H 66.0655 -3.36613 -2.01083 0
M  V30 717 H 67.5555 -2.98201 -2.92346 0
M  V30 718 N 67.9926 0.231505 -1.5589 0
M  V30 719 C 69.2176 0.978689 -1.82856 0
M  V30 720 C 69.6426 1.77559 -0.620846 0
M  V30 721 O 69.0006 1.76119 0.430305 0
M  V30 722 C 69.0486 1.87997 -3.07716 0
M  V30 723 O 68.1526 2.97393 -2.85712 0
M  V30 724 H 67.4936 0.277663 -0.603158 0
M  V30 725 H 70.0236 0.24783 -2.03093 0
M  V30 726 H 70.0336 2.2917 -3.37558 0
M  V30 727 H 68.7086 1.29417 -3.95252 0
M  V30 728 H 67.2856 2.60238 -2.67078 0
M  V30 729 N 69.4707 1.49531 0.497807 0
M  V30 730 C 70.4187 1.66926 1.61983 0
M  V30 731 C 71.4127 0.535167 1.60724 0
M  V30 732 O 72.6187 0.714896 1.65195 0
M  V30 733 H 68.9937 0.526415 0.537021 0
M  V30 734 H 70.9647 2.61098 1.44465 0
M  V30 735 C 69.7137 1.75602 3.00099 0
M  V30 736 H 69.0367 2.62244 3.01775 0
M  V30 737 H 70.4767 1.91807 3.78135 0
M  V30 738 C 68.9357 0.501543 3.33146 0
M  V30 739 O 69.4657 -0.371342 3.9998 0
M  V30 740 N 67.6717 0.363531 2.88317 0
M  V30 741 H 67.2187 1.07485 2.34104 0
M  V30 742 H 67.1767 -0.474728 3.10795 0
M  V30 743 N 70.9488 -0.749086 1.3866 0
M  V30 744 C 71.8808 -1.87273 1.32142 0
M  V30 745 C 72.8938 -1.61127 0.232787 0
M  V30 746 O 74.0828 -1.71623 0.49069 0
M  V30 747 C 71.1828 -3.23005 1.02571 0
M  V30 748 C 70.3558 -3.7662 2.22433 0
M  V30 749 C 69.4148 -4.90879 1.89537 0
M  V30 750 O 68.4408 -5.05276 2.62078 0
M  V30 751 N 69.6428 -5.74198 0.853031 0
M  V30 752 H 72.4078 -1.93373 2.28969 0
M  V30 753 H 69.9688 -0.929216 1.32579 0
M  V30 754 H 71.9608 -3.96992 0.786085 0
M  V30 755 H 70.5308 -3.12262 0.145249 0
M  V30 756 H 69.7508 -2.94147 2.62434 0
M  V30 757 H 71.0388 -4.09173 3.02415 0
M  V30 758 H 70.4368 -5.6514 0.25155 0
M  V30 759 H 68.9938 -6.48313 0.67329 0
M  V30 760 N 72.4269 -1.23603 -0.977757 0
M  V30 761 C 73.6729 -1.07129 -1.72195 0
M  V30 762 C 74.0059 0.390501 -1.90233 0
M  V30 763 O 73.2809 1.28902 -1.45653 0
M  V30 764 C 73.5639 -1.80031 -3.11867 0
M  V30 765 C 73.4169 -3.33899 -3.01383 0
M  V30 766 C 74.7359 -1.56492 -4.11337 0
M  V30 767 H 71.8549 -0.390571 -0.624999 0
M  V30 768 H 74.4969 -1.52142 -1.13811 0
M  V30 769 H 72.6469 -1.41768 -3.6171 0
M  V30 770 H 74.3189 -3.81699 -2.59043 0
M  V30 771 H 72.5619 -3.62796 -2.37827 0
M  V30 772 H 73.2329 -3.801 -4.00285 0
M  V30 773 H 75.7089 -1.89757 -3.70313 0
M  V30 774 H 74.5849 -2.09973 -5.07151 0
M  V30 775 H 74.8459 -0.500874 -4.39254 0
M  V30 776 N 73.905 1.17692 -1.04816 0
M  V30 777 C 74.838 2.20436 -0.590173 0
M  V30 778 C 75.816 1.58115 0.379244 0
M  V30 779 O 77 1.86228 0.291762 0
M  V30 780 C 74.127 3.38424 0.136817 0
M  V30 781 C 73.173 4.19176 -0.787023 0
M  V30 782 S 74.006 4.84815 -2.27409 0
M  V30 783 C 75.162 6.06195 -1.55817 0
M  V30 784 H 75.395 2.58944 -1.46067 0
M  V30 785 H 72.928 1.28246 -0.859784 0
M  V30 786 H 74.886 4.06798 0.550076 0
M  V30 787 H 73.547 2.98312 0.983299 0
M  V30 788 H 72.74 5.03499 -0.224681 0
M  V30 789 H 72.342 3.56219 -1.13947 0
M  V30 790 H 74.634 6.72078 -0.855387 0
M  V30 791 H 75.577 6.6695 -2.37873 0
M  V30 792 H 75.985 5.54701 -1.04722 0
M  V30 793 N 75.3831 0.828654 1.34056 0
M  V30 794 C 76.7941 0.477534 1.8049 0
M  V30 795 C 77.1451 -1.00258 1.6865 0
M  V30 796 O 76.2701 -1.78057 1.22982 0
M  V30 797 C 76.8651 0.860018 3.27703 0
M  V30 798 C 75.4241 0.561185 3.72193 0
M  V30 799 C 74.5711 1.07385 2.55663 0
M  V30 800 H 77.5221 1.0183 1.21722 0
M  V30 801 H 77.5431 0.166038 3.80138 0
M  V30 802 H 77.0551 1.93731 3.36288 0
M  V30 803 H 75.1561 -0.506465 3.69142 0
M  V30 804 H 75.2691 1.10926 4.66082 0
M  V30 805 H 73.6331 0.495149 2.49841 0
M  V30 806 H 74.4161 2.15771 2.67016 0
M  V30 807 N 76.8612 -1.46375 0.584142 0
M  V30 808 C 78.1012 -2.0427 0.0729695 0
M  V30 809 C 78.4652 -1.44563 -1.26355 0
M  V30 810 O 79.6662 -1.93667 -1.86405 0
M  V30 811 C 77.9372 -3.57399 0.00967464 0
M  V30 812 S 79.4962 -4.36551 -0.443714 0
M  V30 813 H 76.3142 -0.709975 0.0381673 0
M  V30 814 H 78.9162 -1.79398 0.776962 0
M  V30 815 H 77.6202 -3.98372 0.986319 0
M  V30 816 H 77.1512 -3.8681 -0.717044 0
M  V30 817 H 79.1662 -4.66237 -1.69816 0
M  V30 818 N 78.3393 -0.321999 -1.54275 0
M  V30 819 C 79.2493 0.553631 -2.27974 0
M  V30 820 C 80.2653 1.13054 -1.32268 0
M  V30 821 O 81.4413 1.15084 -1.6528 0
M  V30 822 C 78.5063 1.69927 -3.02201 0
M  V30 823 C 77.5673 1.15433 -4.1349 0
M  V30 824 C 76.8003 2.24537 -4.84168 0
M  V30 825 O 77.0233 3.44852 -4.5435 0
M  V30 826 O 75.9573 1.90044 -5.7111 0
M  V30 827 H 79.7833 -0.0448345 -3.03667 0
M  V30 828 H 77.3683 -0.0877418 -1.49142 0
M  V30 829 H 79.2503 2.3663 -3.48689 0
M  V30 830 H 77.9253 2.28395 -2.29385 0
M  V30 831 H 76.8323 0.452436 -3.71354 0
M  V30 832 H 78.1653 0.614805 -4.88345 0
M  V30 833 N 79.8174 1.5752 -0.0501392 0
M  V30 834 C 81.2284 1.80271 0.485705 0
M  V30 835 C 81.5794 0.96228 1.70981 0
M  V30 836 O 80.7044 0.178578 2.15662 0
M  V30 837 C 81.2994 3.26957 0.887938 0
M  V30 838 C 79.8584 3.5063 1.36877 0
M  V30 839 C 79.0054 2.75165 0.343468 0
M  V30 840 H 81.9564 1.56281 -0.276028 0
M  V30 841 H 81.9774 3.37821 1.75093 0
M  V30 842 H 81.4894 3.881 -0.0031809 0
M  V30 843 H 79.5904 2.94766 2.27911 0
M  V30 844 H 79.7034 4.59343 1.36164 0
M  V30 845 H 78.0674 2.4127 0.816128 0
M  V30 846 H 78.8504 3.39034 -0.539548 0
M  V30 847 N 81.2955 -0.223234 1.56011 0
M  V30 848 C 82.5445 -0.945912 1.78144 0
M  V30 849 C 82.8575 -1.85567 0.618396 0
M  V30 850 O 84.0635 -2.61688 0.723318 0
M  V30 851 C 82.5195 -1.73216 3.15475 0
M  V30 852 C 82.1275 -0.868619 4.39499 0
M  V30 853 C 83.8715 -2.44615 3.46935 0
M  V30 854 C 81.7785 -1.65212 5.67855 0
M  V30 855 H 80.7085 -0.356929 0.664167 0
M  V30 856 H 83.3595 -0.199845 1.82409 0
M  V30 857 H 81.7415 -2.52107 3.05382 0
M  V30 858 H 82.9155 -0.120366 4.60643 0
M  V30 859 H 81.2305 -0.26683 4.15544 0
M  V30 860 H 83.8275 -3.03732 4.40058 0
M  V30 861 H 84.1705 -3.17417 2.69355 0
M  V30 862 H 84.7035 -1.72715 3.58349 0
M  V30 863 H 81.4425 -0.967407 6.48322 0
M  V30 864 H 80.9625 -2.37503 5.50774 0
M  V30 865 H 82.6415 -2.21322 6.07968 0
M  V30 866 N 82.7736 -1.49793 -0.48987 0
M  V30 867 C 84.0226 -1.59085 -1.23995 0
M  V30 868 C 84.3356 -0.287907 -1.9347 0
M  V30 869 O 85.5416 -0.259506 -2.70257 0
M  V30 870 C 83.9976 -2.80736 -2.252 0
M  V30 871 C 83.6056 -4.17833 -1.61614 0
M  V30 872 C 85.3496 -2.99364 -3.00967 0
M  V30 873 C 83.2566 -5.30693 -2.60996 0
M  V30 874 H 82.1866 -0.592372 -0.466488 0
M  V30 875 H 84.8376 -1.76197 -0.51252 0
M  V30 876 H 83.2196 -2.57142 -3.01154 0
M  V30 877 H 84.3936 -4.51608 -0.915774 0
M  V30 878 H 82.7086 -4.04656 -0.981977 0
M  V30 879 H 85.3056 -3.80851 -3.75308 0
M  V30 880 H 85.6486 -2.10356 -3.59244 0
M  V30 881 H 86.1816 -3.2305 -2.32128 0
M  V30 882 H 82.9206 -6.21796 -2.07485 0
M  V30 883 H 82.4406 -5.01359 -3.2924 0
M  V30 884 H 84.1196 -5.6049 -3.23202 0
M  V30 885 N 84.2517 0.741722 -1.39055 0
M  V30 886 C 85.5007 1.49656 -1.35225 0
M  V30 887 C 85.8137 1.95533 0.0512708 0
M  V30 888 O 87.0197 2.7067 0.212138 0
M  V30 889 C 85.4757 2.70389 -2.37525 0
M  V30 890 C 85.0837 2.31489 -3.83558 0
M  V30 891 C 86.8277 3.48236 -2.42759 0
M  V30 892 C 84.7347 3.48903 -4.77515 0
M  V30 893 H 83.6647 0.56197 -0.502699 0
M  V30 894 H 86.3157 0.809727 -1.64668 0
M  V30 895 H 84.6977 3.41113 -2.01142 0
M  V30 896 H 85.8717 1.68354 -4.28945 0
M  V30 897 H 84.1867 1.66749 -3.81554 0
M  V30 898 H 86.7837 4.35558 -3.1015 0
M  V30 899 H 87.1267 3.90229 -1.45008 0
M  V30 900 H 87.6597 2.84535 -2.78002 0
M  V30 901 H 84.3987 3.11966 -5.76504 0
M  V30 902 H 83.9187 4.11041 -4.36813 0
M  V30 903 H 85.5977 4.15328 -4.96096 0
M  V30 904 N 85.7298 1.2412 0.971189 0
M  V30 905 C 86.6398 1.04747 2.09917 0
M  V30 906 C 87.6558 -0.0107162 1.73997 0
M  V30 907 O 88.8318 0.186714 2.00533 0
M  V30 908 C 85.8968 0.650828 3.40537 0
M  V30 909 C 84.9578 1.7851 3.90426 0
M  V30 910 C 84.1908 1.40729 5.14812 0
M  V30 911 O 84.4138 0.29557 5.69634 0
M  V30 912 O 83.3478 2.23168 5.58999 0
M  V30 913 H 87.1738 1.99304 2.29154 0
M  V30 914 H 84.7588 1.02908 1.08307 0
M  V30 915 H 86.6408 0.440992 4.19086 0
M  V30 916 H 85.3158 -0.265649 3.22608 0
M  V30 917 H 84.2228 2.04966 3.12953 0
M  V30 918 H 85.5558 2.68023 4.12825 0
M  V30 919 N 87.2079 -1.17134 1.05439 0
M  V30 920 C 88.6239 -1.39454 0.776201 0
M  V30 921 C 88.8239 -1.91454 -0.628307 0
M  V30 922 O 87.8799 -2.10777 -1.39031 0
M  V30 923 C 89.1929 -2.38305 1.83388 0
M  V30 924 C 90.7409 -2.52006 1.85639 0
M  V30 925 C 91.2159 -3.54133 2.90437 0
M  V30 926 N 92.7069 -3.61653 2.89415 0
M  V30 927 C 93.4419 -4.4044 3.67152 0
M  V30 928 N 92.9379 -5.22721 4.54681 0
M  V30 929 N 94.7309 -4.35337 3.55581 0
M  V30 930 H 86.8819 -0.817134 1.96053 0
M  V30 931 H 89.1449 -0.421626 0.849079 0
M  V30 932 H 88.8509 -2.07173 2.84204 0
M  V30 933 H 88.7249 -3.37841 1.67761 0
M  V30 934 H 91.1119 -2.82447 0.85486 0
M  V30 935 H 91.1929 -1.52537 2.05344 0
M  V30 936 H 90.8369 -3.24431 3.90777 0
M  V30 937 H 90.7669 -4.53313 2.67983 0
M  V30 938 H 93.2579 -3.02909 2.25952 0
M  V30 939 H 93.5709 -5.80027 5.10674 0
M  V30 940 H 91.9159 -5.22093 4.58741 0
M  V30 941 H 95.1069 -3.70112 2.86592 0
M  V30 942 H 95.2799 -4.96494 4.1641 0
M  V30 943 N 88.686 -0.835752 -1.33615 0
M  V30 944 C 89.634 -0.255238 -2.31195 0
M  V30 945 C 90.628 0.61107 -1.57995 0
M  V30 946 O 91.834 0.500979 -1.72888 0
M  V30 947 H 88.209 -0.0638085 -0.749288 0
M  V30 948 H 90.18 -1.09283 -2.77669 0
M  V30 949 C 88.929 0.55754 -3.43201 0
M  V30 950 H 88.252 -0.0997553 -3.99676 0
M  V30 951 H 89.692 0.929622 -4.13683 0
M  V30 952 C 88.151 1.73515 -2.88781 0
M  V30 953 O 88.681 2.83376 -2.84712 0
M  V30 954 N 86.887 1.55603 -2.4543 0
M  V30 955 H 86.434 0.662354 -2.48939 0
M  V30 956 H 86.392 2.34545 -2.09371 0
M  V30 957 N 90.1641 1.46063 -0.591896 0
M  V30 958 C 91.4131 2.01547 -0.0786637 0
M  V30 959 C 91.7261 1.46796 1.29268 0
M  V30 960 O 92.9321 1.94157 1.89777 0
M  V30 961 C 91.3881 3.59787 -0.0900024 0
M  V30 962 C 90.9961 4.23534 -1.46023 0
M  V30 963 C 92.7401 4.22895 0.368806 0
M  V30 964 C 90.6471 5.73881 -1.4288 0
M  V30 965 H 89.5771 0.753564 -0.0256388 0
M  V30 966 H 92.2281 1.677 -0.744905 0
M  V30 967 H 90.6101 3.90752 0.642586 0
M  V30 968 H 91.7841 4.04167 -2.21328 0
M  V30 969 H 90.0991 3.72558 -1.85982 0
M  V30 970 H 92.6961 5.33116 0.411258 0
M  V30 971 H 93.0391 3.9247 1.38827 0
M  V30 972 H 93.5721 3.9659 -0.31001 0
M  V30 973 H 90.3111 6.0898 -2.42536 0
M  V30 974 H 89.8311 5.95486 -0.718095 0
M  V30 975 H 91.5101 6.36776 -1.14565 0
M  V30 976 N 91.6422 0.330177 1.54103 0
M  V30 977 C 92.8702 -0.272179 2.05102 0
M  V30 978 C 93.2852 -1.45267 1.20595 0
M  V30 979 O 92.6422 -1.8094 0.238144 0
M  V30 980 C 92.6932 -0.70023 3.54653 0
M  V30 981 O 92.4142 0.433301 4.35952 0
M  V30 982 C 93.9152 -1.3647 4.21771 0
M  V30 983 H 91.1352 -0.0549159 0.668749 0
M  V30 984 H 93.6792 0.478285 1.98828 0
M  V30 985 H 91.8342 -1.40066 3.61193 0
M  V30 986 H 92.2482 0.0947539 5.24414 0
M  V30 987 H 93.7222 -1.61509 5.27843 0
M  V30 988 H 94.1992 -2.31409 3.73292 0
M  V30 989 H 94.8052 -0.706675 4.19388 0
M  V30 990 N 93.1203 -1.57491 0.0584922 0
M  V30 991 C 94.0303 -2.15448 -0.928414 0
M  V30 992 C 95.0463 -1.11416 -1.3365 0
M  V30 993 O 96.2223 -1.4362 -1.41193 0
M  V30 994 C 93.2873 -2.69393 -2.18239 0
M  V30 995 C 92.3483 -3.88249 -1.83196 0
M  V30 996 C 91.5813 -4.39613 -3.02616 0
M  V30 997 O 91.8043 -3.90023 -4.16219 0
M  V30 998 O 90.7383 -5.31111 -2.83204 0
M  V30 999 H 94.5643 -3.00112 -0.465483 0
M  V30 1000 H 92.1493 -1.48499 -0.163826 0
M  V30 1001 H 94.0313 -3.04026 -2.91798 0
M  V30 1002 H 92.7063 -1.87796 -2.63656 0
M  V30 1003 H 91.6133 -3.58492 -1.06931 0
M  V30 1004 H 92.9463 -4.71098 -1.42573 0
M  V30 1005 N 94.5984 0.214957 -1.56127 0
M  V30 1006 C 95.8474 0.936451 -1.78643 0
M  V30 1007 C 96.1604 1.85237 -0.628229 0
M  V30 1008 O 97.3664 2.613 -0.737186 0
M  V30 1009 C 95.8224 1.7154 -3.16389 0
M  V30 1010 C 95.4304 0.845299 -4.39953 0
M  V30 1011 C 97.1744 2.42772 -3.48227 0
M  V30 1012 C 95.0814 1.62198 -5.68723 0
M  V30 1013 H 94.0114 0.353401 -0.666051 0
M  V30 1014 H 96.6624 0.190169 -1.82512 0
M  V30 1015 H 95.0444 2.50484 -3.06715 0
M  V30 1016 H 96.2184 0.0959353 -4.607 0
M  V30 1017 H 94.5334 0.244789 -4.1568 0
M  V30 1018 H 97.1304 3.01394 -4.41663 0
M  V30 1019 H 97.4734 3.15984 -2.71035 0
M  V30 1020 H 98.0064 1.70813 -3.5926 0
M  V30 1021 H 94.7454 0.933011 -6.48826 0
M  V30 1022 H 94.2654 2.34579 -5.52026 0
M  V30 1023 H 95.9444 2.18095 -6.09133 0
M  V30 1024 N 96.0765 1.50051 0.48192 0
M  V30 1025 C 97.3225 1.60736 1.2366 0
M  V30 1026 C 97.6555 0.301786 1.91841 0
M  V30 1027 O 96.9305 -0.696025 1.8162 0
M  V30 1028 C 97.2135 2.78009 2.28874 0
M  V30 1029 C 97.0665 4.18416 1.65069 0
M  V30 1030 C 98.3855 2.90867 3.30279 0
M  V30 1031 H 95.5045 0.585031 0.448228 0
M  V30 1032 H 98.1465 1.82402 0.531946 0
M  V30 1033 H 96.2965 2.59667 2.88973 0
M  V30 1034 H 97.9685 4.48322 1.0865 0
M  V30 1035 H 96.2115 4.23177 0.954148 0
M  V30 1036 H 96.8825 4.96381 2.41474 0
M  V30 1037 H 99.3585 3.07623 2.80191 0
M  V30 1038 H 98.2345 3.74566 4.01238 0
M  V30 1039 H 98.4955 2.01021 3.93755 0
M  V30 1040 N 97.5546 -0.734337 1.39446 0
M  V30 1041 C 98.7846 -1.52137 1.39778 0
M  V30 1042 C 99.1926 -1.89198 -0.00929312 0
M  V30 1043 O 98.5356 -1.54666 -0.991168 0
M  V30 1044 C 98.5976 -2.83762 2.20724 0
M  V30 1045 C 98.2616 -2.69131 3.69347 0
M  V30 1046 C 99.2586 -2.37635 4.62413 0
M  V30 1047 C 96.9436 -2.85982 4.1294 0
M  V30 1048 C 98.9376 -2.23172 5.97054 0
M  V30 1049 C 96.6246 -2.71137 5.47657 0
M  V30 1050 C 97.6226 -2.39777 6.39528 0
M  V30 1051 O 97.3106 -2.25026 7.71763 0
M  V30 1052 H 97.0426 -0.476717 0.479288 0
M  V30 1053 H 99.5966 -0.915012 1.83893 0
M  V30 1054 H 97.8266 -3.4666 1.71359 0
M  V30 1055 H 99.5156 -3.45383 2.13226 0
M  V30 1056 H 100.282 -2.24267 4.30034 0
M  V30 1057 H 96.1606 -3.09383 3.41765 0
M  V30 1058 H 99.7046 -1.98617 6.68728 0
M  V30 1059 H 95.6016 -2.84083 5.79626 0
M  V30 1060 H 96.3696 -2.40091 7.82495 0
M  V30 1061 N 99.0327 -1.24633 -0.964593 0
M  V30 1062 C 99.9627 -1.06611 -2.07741 0
M  V30 1063 C 100.944 0.0218666 -1.70086 0
M  V30 1064 O 102.129 -0.145793 -1.93652 0
M  V30 1065 C 99.2587 -0.673444 -3.40708 0
M  V30 1066 C 98.2127 -1.71054 -3.92332 0
M  V30 1067 C 97.5387 -1.17285 -5.21678 0
M  V30 1068 C 98.8387 -3.10718 -4.19824 0
M  V30 1069 H 100.533 -1.99693 -2.23076 0
M  V30 1070 H 98.0787 -0.96152 -1.07195 0
M  V30 1071 H 100.032 -0.534345 -4.17998 0
M  V30 1072 H 98.7557 0.293073 -3.25282 0
M  V30 1073 H 97.4147 -1.83791 -3.17201 0
M  V30 1074 H 97.0627 -0.196847 -5.02615 0
M  V30 1075 H 96.7627 -1.86592 -5.57187 0
M  V30 1076 H 98.2867 -1.04593 -6.01575 0
M  V30 1077 H 99.7007 -3.01192 -4.87808 0
M  V30 1078 H 98.0977 -3.77406 -4.66567 0
M  V30 1079 H 99.1677 -3.58524 -3.26479 0
M  V30 1080 N 100.511 1.16574 -1.06058 0
M  V30 1081 C 101.459 2.22941 -0.663343 0
M  V30 1082 C 102.453 1.66358 0.319593 0
M  V30 1083 O 103.659 1.7905 0.184713 0
M  V30 1084 H 100.034 0.725907 -0.196376 0
M  V30 1085 H 102.005 2.53736 -1.57037 0
M  V30 1086 C 100.754 3.47642 -0.0632808 0
M  V30 1087 H 100.077 3.91493 -0.810733 0
M  V30 1088 H 101.517 4.2363 0.177177 0
M  V30 1089 C 99.9758 3.1509 1.19248 0
M  V30 1090 O 100.506 3.30673 2.28075 0
M  V30 1091 N 98.7118 2.6924 1.09353 0
M  V30 1092 H 98.2588 2.5676 0.207912 0
M  V30 1093 H 98.2168 2.47833 1.93458 0
M  V30 1094 N 101.989 0.842826 1.3317 0
M  V30 1095 C 102.937 0.267495 2.31057 0
M  V30 1096 C 103.931 -0.602682 1.58316 0
M  V30 1097 O 105.137 -0.491803 1.73151 0
M  V30 1098 H 101.512 0.0677813 0.748939 0
M  V30 1099 H 103.483 1.10754 2.77085 0
M  V30 1100 C 102.232 -0.539331 3.43492 0
M  V30 1101 H 101.555 0.12095 3.99617 0
M  V30 1102 H 102.995 -0.90767 4.14171 0
M  V30 1103 C 101.454 -1.71981 2.89697 0
M  V30 1104 O 101.984 -2.81862 2.86211 0
M  V30 1105 N 100.19 -1.54299 2.46252 0
M  V30 1106 H 99.7369 -0.649143 2.49287 0
M  V30 1107 H 99.6949 -2.33431 2.10612 0
M  V30 1108 N 103.467 -1.45747 0.599634 0
M  V30 1109 C 104.695 -2.06668 0.0978551 0
M  V30 1110 C 105.11 -1.44562 -1.21439 0
M  V30 1111 O 104.467 -0.556923 -1.73795 0
M  V30 1112 C 104.518 -3.61456 -0.0567044 0
M  V30 1113 O 104.239 -4.21242 1.20361 0
M  V30 1114 C 105.74 -4.39345 -0.590869 0
M  V30 1115 H 102.96 -0.667825 0.0651943 0
M  V30 1116 H 105.504 -1.87115 0.82511 0
M  V30 1117 H 103.659 -3.80378 -0.734251 0
M  V30 1118 H 104.073 -5.14323 1.02821 0
M  V30 1119 H 105.547 -5.48182 -0.648131 0
M  V30 1120 H 106.024 -4.08568 -1.61147 0
M  V30 1121 H 106.63 -4.25268 0.0523679 0
M  V30 1122 N 104.945 -0.338344 -1.53925 0
M  V30 1123 C 106.173 0.261298 -2.05243 0
M  V30 1124 C 106.588 1.44625 -1.21363 0
M  V30 1125 O 105.945 1.80811 -0.247736 0
M  V30 1126 C 105.996 0.681412 -3.5502 0
M  V30 1127 O 105.717 -0.456414 -4.35716 0
M  V30 1128 C 107.218 1.34232 -4.22489 0
M  V30 1129 H 104.438 0.0513685 -0.669031 0
M  V30 1130 H 106.982 -0.488822 -1.98572 0
M  V30 1131 H 105.137 1.38148 -3.61931 0
M  V30 1132 H 105.551 -0.122564 -5.24357 0
M  V30 1133 H 107.025 1.58708 -5.28693 0
M  V30 1134 H 107.502 2.29426 -3.74514 0
M  V30 1135 H 108.108 0.684424 -4.19757 0
M  V30 1136 N 106.423 1.57458 -0.0668435 0
M  V30 1137 C 107.672 1.92477 0.602947 0
M  V30 1138 C 107.985 0.948419 1.71068 0
M  V30 1139 O 109.191 1.19124 2.43971 0
M  V30 1140 C 107.647 3.41903 1.12383 0
M  V30 1141 C 107.255 4.47975 0.04737 0
M  V30 1142 C 108.999 3.85931 1.76797 0
M  V30 1143 C 106.906 5.88529 0.582022 0
M  V30 1144 H 105.836 0.718387 0.22899 0
M  V30 1145 H 108.487 1.82978 -0.138276 0
M  V30 1146 H 106.869 3.46459 1.91787 0
M  V30 1147 H 108.043 4.55029 -0.726978 0
M  V30 1148 H 106.358 4.13384 -0.500243 0
M  V30 1149 H 108.955 4.88322 2.17821 0
M  V30 1150 H 109.298 3.23029 2.62599 0
M  V30 1151 H 109.831 3.83958 1.04024 0
M  V30 1152 H 106.57 6.55065 -0.238721 0
M  V30 1153 H 106.09 5.85004 1.324 0
M  V30 1154 H 107.769 6.38258 1.05999 0
M  V30 1155 N 107.901 -0.206675 1.56239 0
M  V30 1156 C 108.811 -1.27686 1.96808 0
M  V30 1157 C 109.827 -1.50455 0.874035 0
M  V30 1158 O 111.003 -1.63295 1.17884 0
M  V30 1159 C 108.068 -2.60358 2.28942 0
M  V30 1160 C 107.129 -2.45762 3.51994 0
M  V30 1161 C 106.362 -3.72108 3.82585 0
M  V30 1162 O 106.585 -4.75776 3.14631 0
M  V30 1163 O 105.519 -3.6833 4.76043 0
M  V30 1164 H 109.345 -0.962593 2.88041 0
M  V30 1165 H 106.93 -0.410746 1.43643 0
M  V30 1166 H 108.812 -3.38687 2.50737 0
M  V30 1167 H 107.487 -2.91435 1.4088 0
M  V30 1168 H 106.394 -1.65584 3.35459 0
M  V30 1169 H 107.727 -2.19621 4.40486 0
M  V30 1170 N 109.379 -1.50304 -0.473955 0
M  V30 1171 C 110.326 -1.68959 -1.57231 0
M  V30 1172 C 111.296 -0.530899 -1.57387 0
M  V30 1173 O 112.481 -0.761133 -1.74961 0
M  V30 1174 C 109.621 -1.7871 -2.95223 0
M  V30 1175 C 108.734 -3.06061 -3.04878 0
M  V30 1176 C 107.869 -3.06626 -4.33767 0
M  V30 1177 C 106.908 -4.28443 -4.37154 0
M  V30 1178 N 106.045 -4.26763 -5.5751 0
M  V30 1179 H 110.885 -2.6273 -1.40631 0
M  V30 1180 H 108.422 -1.30241 -0.683789 0
M  V30 1181 H 110.38 -1.82344 -3.75242 0
M  V30 1182 H 109.01 -0.883806 -3.10465 0
M  V30 1183 H 108.062 -3.11911 -2.17751 0
M  V30 1184 H 109.374 -3.96039 -3.0324 0
M  V30 1185 H 108.528 -3.08973 -5.22131 0
M  V30 1186 H 107.267 -2.14473 -4.3801 0
M  V30 1187 H 106.272 -4.2631 -3.47188 0
M  V30 1188 H 107.497 -5.2182 -4.34605 0
M  V30 1189 H 105.443 -3.37462 -5.62544 0
M  V30 1190 H 105.36 -5.10507 -5.57601 0
M  V30 1191 H 106.628 -4.33253 -6.48006 0
M  V30 1192 N 110.857 0.726932 -1.39834 0
M  V30 1193 C 111.767 1.87131 -1.41489 0
M  V30 1194 C 112.783 1.71239 -0.308757 0
M  V30 1195 O 113.959 1.93701 -0.551529 0
M  V30 1196 C 111.024 3.22811 -1.26468 0
M  V30 1197 C 110.085 3.51039 -2.47124 0
M  V30 1198 C 109.318 4.80245 -2.3281 0
M  V30 1199 O 109.541 5.54537 -1.33585 0
M  V30 1200 O 108.475 5.08554 -3.21957 0
M  V30 1201 H 112.301 1.8869 -2.3797 0
M  V30 1202 H 109.886 0.875837 -1.21035 0
M  V30 1203 H 111.768 4.03877 -1.20255 0
M  V30 1204 H 110.443 3.22005 -0.330862 0
M  V30 1205 H 109.35 2.70027 -2.58914 0
M  V30 1206 H 110.683 3.56632 -3.39227 0
M  V30 1207 N 112.336 1.25143 0.95797 0
M  V30 1208 C 113.585 1.0909 1.69654 0
M  V30 1209 C 113.898 -0.368548 1.92097 0
M  V30 1210 O 115.104 -0.649455 2.63618 0
M  V30 1211 C 113.56 1.90395 3.05414 0
M  V30 1212 C 113.168 3.4081 2.90779 0
M  V30 1213 C 114.912 1.82901 3.83076 0
M  V30 1214 C 112.819 4.14423 4.21909 0
M  V30 1215 H 111.749 0.404625 0.636235 0
M  V30 1216 H 114.4 1.4931 1.06672 0
M  V30 1217 H 112.782 1.42996 3.69281 0
M  V30 1218 H 113.956 3.95859 2.35865 0
M  V30 1219 H 112.271 3.49361 2.26575 0
M  V30 1220 H 114.868 2.35196 4.80195 0
M  V30 1221 H 115.211 0.796224 4.08615 0
M  V30 1222 H 115.744 2.28033 3.25954 0
M  V30 1223 H 112.483 5.18102 4.01561 0
M  V30 1224 H 112.003 3.64159 4.76601 0
M  V30 1225 H 113.682 4.21956 4.90471 0
M  V30 1226 N 113.814 -1.1601 1.06675 0
M  V30 1227 C 115.054 -1.88304 0.795037 0
M  V30 1228 C 115.418 -1.80062 -0.666466 0
M  V30 1229 O 116.619 -2.47319 -1.05293 0
M  V30 1230 C 114.89 -3.33664 1.28076 0
M  V30 1231 S 116.449 -4.23768 1.13868 0
M  V30 1232 H 113.267 -0.649928 0.288296 0
M  V30 1233 H 115.869 -1.4001 1.36445 0
M  V30 1234 H 114.573 -3.37203 2.33927 0
M  V30 1235 H 114.104 -3.87009 0.706253 0
M  V30 1236 H 116.119 -4.96148 0.0719668 0
M  V30 1237 N 115.292 -0.849877 -1.32721 0
M  V30 1238 C 116.703 -0.506188 -1.79707 0
M  V30 1239 C 117.054 0.975627 -1.70223 0
M  V30 1240 O 116.179 1.76078 -1.25799 0
M  V30 1241 C 116.774 -0.912044 -3.26293 0
M  V30 1242 C 115.333 -0.620326 -3.71253 0
M  V30 1243 C 114.48 -1.11439 -2.53922 0
M  V30 1244 H 117.431 -1.03754 -1.20087 0
M  V30 1245 H 117.452 -0.226493 -3.79825 0
M  V30 1246 H 116.964 -1.99057 -3.33164 0
M  V30 1247 H 115.065 0.447674 -3.69901 0
M  V30 1248 H 115.178 -1.18327 -4.64258 0
M  V30 1249 H 113.542 -0.534834 -2.49021 0
M  V30 1250 H 114.325 -2.19992 -2.6355 0
M  V30 1251 N 116.77 1.45427 -0.607355 0
M  V30 1252 C 117.717 2.3053 0.111625 0
M  V30 1253 C 118.687 1.4209 0.860216 0
M  V30 1254 O 119.872 1.71019 0.845998 0
M  V30 1255 C 117.012 3.26992 1.10319 0
M  V30 1256 C 116.125 4.30535 0.355493 0
M  V30 1257 C 115.26 5.14105 1.33676 0
M  V30 1258 C 114.299 6.09376 0.576862 0
M  V30 1259 N 113.436 6.85727 1.5074 0
M  V30 1260 H 118.276 2.91477 -0.620093 0
M  V30 1261 H 115.813 1.43631 -0.317594 0
M  V30 1262 H 117.771 3.81385 1.6912 0
M  V30 1263 H 116.401 2.67799 1.80232 0
M  V30 1264 H 115.453 3.78805 -0.348023 0
M  V30 1265 H 116.765 4.98235 -0.237423 0
M  V30 1266 H 115.919 5.72897 1.99684 0
M  V30 1267 H 114.658 4.46423 1.9636 0
M  V30 1268 H 113.663 5.49715 -0.0968519 0
M  V30 1269 H 114.888 6.79085 -0.0449341 0
M  V30 1270 H 112.834 6.20735 2.12189 0
M  V30 1271 H 112.751 7.49778 0.967913 0
M  V30 1272 H 114.019 7.4906 2.15706 0
M  V30 1273 N 118.248 0.346503 1.53744 0
M  V30 1274 C 119.494 -0.249473 2.0126 0
M  V30 1275 C 119.827 -1.49965 1.23386 0
M  V30 1276 O 119.102 -1.91811 0.32229 0
M  V30 1277 C 119.385 -0.560643 3.55709 0
M  V30 1278 C 119.238 0.701836 4.44291 0
M  V30 1279 C 120.557 -1.36905 4.18264 0
M  V30 1280 H 117.676 -0.0891987 0.731582 0
M  V30 1281 H 120.318 0.467624 1.84156 0
M  V30 1282 H 118.468 -1.17156 3.70414 0
M  V30 1283 H 120.14 1.33974 4.41417 0
M  V30 1284 H 118.383 1.32612 4.13033 0
M  V30 1285 H 119.054 0.43933 5.50249 0
M  V30 1286 H 121.53 -0.852448 4.07275 0
M  V30 1287 H 120.406 -1.55553 5.26398 0
M  V30 1288 H 120.667 -2.37203 3.73078 0
M  V30 1289 N 119.726 -1.57421 0.075193 0
M  V30 1290 C 120.972 -1.93905 -0.594025 0
M  V30 1291 C 121.305 -0.955701 -1.69056 0
M  V30 1292 O 120.58 0.0145373 -1.94495 0
M  V30 1293 C 120.863 -3.40638 -1.1678 0
M  V30 1294 C 120.716 -4.49733 -0.0776792 0
M  V30 1295 C 122.035 -3.88259 -2.07228 0
M  V30 1296 H 119.154 -0.705105 -0.214466 0
M  V30 1297 H 121.796 -1.8947 0.141854 0
M  V30 1298 H 119.946 -3.44549 -1.79494 0
M  V30 1299 H 121.618 -4.57942 0.555573 0
M  V30 1300 H 119.861 -4.29751 0.591286 0
M  V30 1301 H 120.532 -5.49549 -0.519603 0
M  V30 1302 H 123.008 -3.86376 -1.54445 0
M  V30 1303 H 121.884 -4.91533 -2.44308 0
M  V30 1304 H 122.145 -3.26396 -2.98191 0
M  V30 1305 N 121.204 0.198386 -1.56346 0
M  V30 1306 C 122.114 1.2664 -1.97483 0
M  V30 1307 C 123.13 1.49989 -0.882002 0
M  V30 1308 O 124.306 1.62668 -1.18748 0
M  V30 1309 C 121.371 2.59141 -2.30319 0
M  V30 1310 C 120.432 2.43892 -3.53292 0
M  V30 1311 C 119.665 3.70074 -3.84553 0
M  V30 1312 O 119.888 4.74101 -3.1715 0
M  V30 1313 O 118.822 3.658 -4.7799 0
M  V30 1314 H 122.648 0.947304 -2.88548 0
M  V30 1315 H 120.233 0.403123 -1.43859 0
M  V30 1316 H 122.115 3.37352 -2.5253 0
M  V30 1317 H 120.79 2.90684 -1.42423 0
M  V30 1318 H 119.697 1.63803 -3.36332 0
M  V30 1319 H 121.03 2.17282 -4.41644 0
M  V30 1320 N 122.682 1.50554 0.465978 0
M  V30 1321 C 123.912 1.65323 1.23903 0
M  V30 1322 C 124.32 0.338051 1.86155 0
M  V30 1323 O 123.663 -0.690518 1.70228 0
M  V30 1324 C 123.725 2.69048 2.3844 0
M  V30 1325 C 123.389 4.12462 1.96784 0
M  V30 1326 C 124.386 4.98168 1.48745 0
M  V30 1327 C 122.071 4.58407 2.05349 0
M  V30 1328 C 124.065 6.27868 1.0982 0
M  V30 1329 C 121.752 5.88112 1.66035 0
M  V30 1330 C 122.75 6.72668 1.18349 0
M  V30 1331 O 122.438 7.99951 0.795825 0
M  V30 1332 H 122.17 0.558629 0.38067 0
M  V30 1333 H 124.724 1.97561 0.562022 0
M  V30 1334 H 122.954 2.32062 3.09328 0
M  V30 1335 H 124.643 2.72985 3.0039 0
M  V30 1336 H 125.409 4.63885 1.41546 0
M  V30 1337 H 121.288 3.92735 2.41414 0
M  V30 1338 H 124.832 6.93819 0.725293 0
M  V30 1339 H 120.729 6.21914 1.72895 0
M  V30 1340 H 121.497 8.13265 0.924222 0
M  V30 1341 N 124.16 -0.719506 1.40217 0
M  V30 1342 C 125.576 -1.02707 1.22161 0
M  V30 1343 C 125.776 -2.0128 0.0940557 0
M  V30 1344 O 124.832 -2.46452 -0.549318 0
M  V30 1345 C 126.145 -1.57454 2.56181 0
M  V30 1346 C 127.693 -1.69458 2.63159 0
M  V30 1347 C 128.168 -2.27611 3.97438 0
M  V30 1348 N 129.659 -2.35002 3.99159 0
M  V30 1349 C 130.394 -2.80972 4.99842 0
M  V30 1350 N 129.89 -3.26723 6.10921 0
M  V30 1351 N 131.683 -2.80321 4.87213 0
M  V30 1352 H 123.834 -0.0660492 2.12297 0
M  V30 1353 H 126.097 -0.0919077 0.943534 0
M  V30 1354 H 125.803 -0.924873 3.39321 0
M  V30 1355 H 125.677 -2.56036 2.76993 0
M  V30 1356 H 128.064 -2.33543 1.80393 0
M  V30 1357 H 128.145 -0.694867 2.46181 0
M  V30 1358 H 127.789 -1.6415 4.80643 0
M  V30 1359 H 127.719 -3.2829 4.11744 0
M  V30 1360 H 130.21 -2.02685 3.18947 0
M  V30 1361 H 130.523 -3.60355 6.8364 0
M  V30 1362 H 128.868 -3.24692 6.14492 0
M  V30 1363 H 132.059 -2.43912 3.9953 0
M  V30 1364 H 132.232 -3.15831 5.65822 0
M  V30 1365 N 125.638 -1.25649 -0.95132 0
M  V30 1366 C 126.586 -1.06118 -2.06982 0
M  V30 1367 C 127.58 0.00889169 -1.69398 0
M  V30 1368 O 128.786 -0.146988 -1.79399 0
M  V30 1369 H 125.161 -0.326248 -0.677544 0
M  V30 1370 H 127.132 -2.00932 -2.2061 0
M  V30 1371 C 125.881 -0.700145 -3.40578 0
M  V30 1372 H 125.204 -1.51537 -3.69968 0
M  V30 1373 H 126.644 -0.603211 -4.19687 0
M  V30 1374 C 125.103 0.59403 -3.31622 0
M  V30 1375 O 125.633 1.63522 -3.66911 0
M  V30 1376 N 123.839 0.58089 -2.84735 0
M  V30 1377 H 123.386 -0.266783 -2.56215 0
M  V30 1378 H 123.344 1.44695 -2.79125 0
M  V30 1379 N 127.117 1.15442 -1.07289 0
M  V30 1380 C 128.363 1.8672 -0.806679 0
M  V30 1381 C 128.718 1.80723 0.660084 0
M  V30 1382 O 128.011 1.21902 1.47819 0
M  V30 1383 C 128.205 3.3489 -1.24834 0
M  V30 1384 C 128.034 3.55313 -2.7565 0
M  V30 1385 C 126.804 3.7082 -3.4325 0
M  V30 1386 C 129.002 3.53188 -3.73848 0
M  V30 1387 N 126.984 3.7929 -4.82713 0
M  V30 1388 C 128.355 3.67765 -4.99149 0
M  V30 1389 C 130.41 3.36459 -3.67015 0
M  V30 1390 C 129.113 3.6734 -6.18428 0
M  V30 1391 C 131.139 3.37333 -4.85758 0
M  V30 1392 C 130.501 3.52438 -6.09891 0
M  V30 1393 H 126.6 0.700433 -0.347733 0
M  V30 1394 H 129.184 1.38441 -1.36902 0
M  V30 1395 H 127.355 3.81786 -0.713713 0
M  V30 1396 H 129.087 3.93875 -0.929745 0
M  V30 1397 H 125.842 3.71568 -2.93656 0
M  V30 1398 H 126.266 3.8727 -5.55294 0
M  V30 1399 H 130.908 3.237 -2.71989 0
M  V30 1400 H 128.626 3.78878 -7.13777 0
M  V30 1401 H 132.212 3.25617 -4.82146 0
M  V30 1402 H 131.092 3.53047 -7.00234 0
M  V30 1403 N 128.595 0.856903 1.32268 0
M  V30 1404 C 129.82 0.474569 2.01897 0
M  V30 1405 C 130.245 -0.921766 1.63967 0
M  V30 1406 O 129.603 -1.60589 0.84148 0
M  V30 1407 C 129.651 0.623799 3.55164 0
M  V30 1408 O 128.755 -0.342459 4.10976 0
M  V30 1409 H 128.096 0.190422 0.63611 0
M  V30 1410 H 130.626 1.15672 1.68764 0
M  V30 1411 H 130.636 0.512169 4.04773 0
M  V30 1412 H 129.311 1.64202 3.82113 0
M  V30 1413 H 127.888 -0.18688 3.72431 0
M  V30 1414 N 130.073 -1.45103 0.615059 0
M  V30 1415 C 131.02 -2.30586 -0.0993978 0
M  V30 1416 C 131.99 -1.42544 -0.852669 0
M  V30 1417 O 133.175 -1.71465 -0.836917 0
M  V30 1418 C 130.315 -3.27572 -1.08583 0
M  V30 1419 C 129.428 -4.30717 -0.332656 0
M  V30 1420 C 128.563 -5.14807 -1.30947 0
M  V30 1421 C 127.602 -6.09673 -0.544538 0
M  V30 1422 N 126.739 -6.86517 -1.47101 0
M  V30 1423 H 131.579 -2.91144 0.635542 0
M  V30 1424 H 129.116 -1.4346 0.325206 0
M  V30 1425 H 131.074 -3.82276 -1.67095 0
M  V30 1426 H 129.704 -2.68751 -1.78809 0
M  V30 1427 H 128.756 -3.78615 0.368107 0
M  V30 1428 H 130.068 -4.98102 0.263842 0
M  V30 1429 H 129.222 -5.73948 -1.96643 0
M  V30 1430 H 127.961 -4.47458 -1.9399 0
M  V30 1431 H 126.966 -5.49656 0.126003 0
M  V30 1432 H 128.191 -6.79052 0.080947 0
M  V30 1433 H 126.137 -6.21851 -2.08895 0
M  V30 1434 H 126.054 -7.50281 -0.928137 0
M  V30 1435 H 127.322 -7.50194 -2.11731 0
M  V30 1436 N 131.551 -0.354651 -1.53558 0
M  V30 1437 C 132.962 0.126902 -1.86268 0
M  V30 1438 C 133.313 1.49075 -1.27558 0
M  V30 1439 O 132.438 2.08105 -0.5934 0
M  V30 1440 C 133.033 0.237046 -3.3797 0
M  V30 1441 C 131.592 0.662842 -3.70518 0
M  V30 1442 C 130.739 -0.196652 -2.76602 0
M  V30 1443 H 133.69 -0.573849 -1.47962 0
M  V30 1444 H 133.711 1.06259 -3.65362 0
M  V30 1445 H 133.223 -0.755725 -3.80671 0
M  V30 1446 H 131.324 1.66424 -3.33367 0
M  V30 1447 H 131.437 0.445034 -4.77029 0
M  V30 1448 H 129.801 0.332763 -2.52517 0
M  V30 1449 H 130.584 -1.18676 -3.22135 0
M  V30 1450 N 133.029 1.57378 -0.0835403 0
M  V30 1451 C 133.961 2.10389 0.909338 0
M  V30 1452 C 134.974 1.03858 1.25369 0
M  V30 1453 O 136.163 1.31338 1.20882 0
M  V30 1454 C 133.263 2.55908 2.2218 0
M  V30 1455 C 132.436 3.86145 2.05453 0
M  V30 1456 C 131.495 4.17633 3.20108 0
M  V30 1457 O 130.521 4.87043 2.94581 0
M  V30 1458 N 131.723 3.72113 4.45547 0
M  V30 1459 H 134.488 2.962 0.456657 0
M  V30 1460 H 132.049 1.61579 0.101877 0
M  V30 1461 H 134.041 2.74027 2.97811 0
M  V30 1462 H 132.611 1.75171 2.58909 0
M  V30 1463 H 131.831 3.7729 1.1422 0
M  V30 1464 H 133.119 4.7137 1.91541 0
M  V30 1465 H 132.517 3.16062 4.69171 0
M  V30 1466 H 131.074 3.95409 5.18165 0
M  V30 1467 N 134.507 -0.190092 1.56449 0
M  V30 1468 C 135.747 -0.916414 1.82705 0
M  V30 1469 C 136.111 -1.80235 0.661763 0
M  V30 1470 O 137.312 -2.56484 0.80433 0
M  V30 1471 C 135.583 -1.70691 3.14005 0
M  V30 1472 S 137.142 -2.48457 3.61683 0
M  V30 1473 H 133.96 -0.307281 0.64117 0
M  V30 1474 H 136.562 -0.179433 1.94675 0
M  V30 1475 H 135.266 -1.04677 3.96826 0
M  V30 1476 H 134.797 -2.48562 3.04927 0
M  V30 1477 H 136.812 -3.72756 3.27517 0
M  V30 1478 N 135.985 -1.50799 -0.457987 0
M  V30 1479 C 136.917 -1.66786 -1.57211 0
M  V30 1480 C 137.93 -0.548962 -1.53265 0
M  V30 1481 O 139.119 -0.8226 -1.58416 0
M  V30 1482 C 136.219 -1.64834 -2.96113 0
M  V30 1483 C 135.392 -2.92971 -3.24787 0
M  V30 1484 C 134.451 -2.83485 -4.43309 0
M  V30 1485 O 133.477 -3.5744 -4.42973 0
M  V30 1486 N 134.679 -1.97929 -5.45714 0
M  V30 1487 H 137.444 -2.62889 -1.43909 0
M  V30 1488 H 135.005 -1.48427 -0.646617 0
M  V30 1489 H 136.997 -1.56084 -3.7339 0
M  V30 1490 H 135.567 -0.764118 -3.03117 0
M  V30 1491 H 134.787 -3.15749 -2.36 0
M  V30 1492 H 136.075 -3.77834 -3.40762 0
M  V30 1493 H 135.473 -1.37182 -5.48815 0
M  V30 1494 H 134.03 -1.95073 -6.21924 0
M  V30 1495 N 137.463 0.71206 -1.40597 0
M  V30 1496 C 138.712 1.46754 -1.38369 0
M  V30 1497 C 139.025 1.95598 0.0097839 0
M  V30 1498 O 140.231 2.71059 0.154677 0
M  V30 1499 C 138.687 2.65289 -2.43207 0
M  V30 1500 C 138.295 2.23301 -3.88382 0
M  V30 1501 C 140.039 3.43008 -2.50091 0
M  V30 1502 C 137.946 3.38696 -4.84808 0
M  V30 1503 H 136.876 0.55118 -0.514506 0
M  V30 1504 H 139.527 0.774616 -1.66349 0
M  V30 1505 H 137.909 3.36769 -2.08332 0
M  V30 1506 H 139.083 1.59218 -4.32419 0
M  V30 1507 H 137.398 1.58618 -3.85006 0
M  V30 1508 H 139.995 4.28881 -3.1932 0
M  V30 1509 H 140.338 3.87065 -1.53253 0
M  V30 1510 H 140.871 2.78574 -2.83974 0
M  V30 1511 H 137.61 2.99668 -5.82992 0
M  V30 1512 H 137.13 4.01683 -4.45433 0
M  V30 1513 H 138.809 4.04712 -5.04794 0
M  V30 1514 N 138.941 1.26152 0.944643 0
M  V30 1515 C 140.169 1.14259 1.72489 0
M  V30 1516 C 140.584 -0.302555 1.8636 0
M  V30 1517 O 139.941 -1.20741 1.36849 0
M  V30 1518 C 139.992 1.80266 3.13347 0
M  V30 1519 O 139.713 3.19133 3.00143 0
M  V30 1520 C 141.214 1.74283 4.07603 0
M  V30 1521 H 138.434 0.398051 0.540181 0
M  V30 1522 H 140.978 1.66706 1.18446 0
M  V30 1523 H 139.133 1.31766 3.64303 0
M  V30 1524 H 139.547 3.51744 3.89071 0
M  V30 1525 H 141.021 2.25111 5.04013 0
M  V30 1526 H 141.498 0.708631 4.33446 0
M  V30 1527 H 142.104 2.22319 3.62567 0
M  V30 1528 N 140.419 -1.14872 1.07899 0
M  V30 1529 C 141.667 -1.85422 0.803941 0
M  V30 1530 C 141.988 -1.83051 -0.67211 0
M  V30 1531 O 141.258 -1.27532 -1.48703 0
M  V30 1532 H 139.838 -0.686537 0.294408 0
M  V30 1533 H 142.5 -1.39226 1.3639 0
M  V30 1534 H 141.596 -2.90399 1.14346 0
M  V30 1535 N 141.898 -0.863906 -1.31812 0
M  V30 1536 C 143.145 -0.471836 -1.96926 0
M  V30 1537 C 143.473 0.974578 -1.68322 0
M  V30 1538 O 142.728 1.7003 -0.968933 0
M  V30 1539 C 143.027 -0.668547 -3.51091 0
M  V30 1540 C 142.693 -2.08683 -3.99703 0
M  V30 1541 C 141.355 -2.47471 -4.12688 0
M  V30 1542 C 143.707 -3.01207 -4.25351 0
M  V30 1543 C 141.035 -3.78037 -4.4867 0
M  V30 1544 C 143.387 -4.31282 -4.62794 0
M  V30 1545 C 142.051 -4.69992 -4.73987 0
M  V30 1546 H 141.321 -0.172657 -0.720604 0
M  V30 1547 H 143.968 -1.09573 -1.57054 0
M  V30 1548 H 142.273 0.0385252 -3.91781 0
M  V30 1549 H 143.97 -0.345102 -3.99512 0
M  V30 1550 H 140.56 -1.77566 -3.90087 0
M  V30 1551 H 144.744 -2.72469 -4.14819 0
M  V30 1552 H 140 -4.078 -4.55532 0
M  V30 1553 H 144.174 -5.03031 -4.81594 0
M  V30 1554 H 141.801 -5.71207 -5.01624 0
M  V30 1555 N 143.376 1.44774 -0.622745 0
M  V30 1556 C 144.339 2.29069 0.0774015 0
M  V30 1557 C 145.339 1.4059 0.780461 0
M  V30 1558 O 146.529 1.62551 0.626322 0
M  V30 1559 C 143.661 3.21974 1.12006 0
M  V30 1560 H 144.854 2.92459 -0.663901 0
M  V30 1561 H 142.407 1.51548 -0.382486 0
M  V30 1562 H 143.142 2.63417 1.89162 0
M  V30 1563 H 142.927 3.87168 0.619951 0
M  V30 1564 H 144.417 3.85318 1.60995 0
M  V30 1565 N 144.854 0.36279 1.53368 0
M  V30 1566 C 146.265 -0.117022 1.86333 0
M  V30 1567 C 146.616 -1.48397 1.28347 0
M  V30 1568 O 145.741 -2.07787 0.604428 0
M  V30 1569 C 146.336 -0.21912 3.38091 0
M  V30 1570 C 144.895 -0.643184 3.70864 0
M  V30 1571 C 144.042 0.211318 2.76494 0
M  V30 1572 H 146.993 0.581687 1.47655 0
M  V30 1573 H 147.014 -1.04319 3.6592 0
M  V30 1574 H 146.526 0.775902 3.80265 0
M  V30 1575 H 144.627 -1.64654 3.34245 0
M  V30 1576 H 144.74 -0.41973 4.77258 0
M  V30 1577 H 143.104 -0.319367 2.5269 0
M  V30 1578 H 143.887 1.20383 3.21501 0
M  V30 1579 N 146.332 -1.57332 0.0918853 0
M  V30 1580 C 147.579 -1.94236 -0.572577 0
M  V30 1581 C 147.907 -0.973398 -1.6839 0
M  V30 1582 O 147.162 0.00756912 -1.95699 0
M  V30 1583 C 147.461 -3.37689 -1.17051 0
M  V30 1584 C 147.127 -4.50527 -0.183304 0
M  V30 1585 C 145.789 -4.81119 0.0882276 0
M  V30 1586 C 148.141 -5.18883 0.49095 0
M  V30 1587 C 145.469 -5.77395 1.04076 0
M  V30 1588 C 147.821 -6.1618 1.43193 0
M  V30 1589 C 146.485 -6.45179 1.71173 0
M  V30 1590 H 145.755 -0.710762 -0.209521 0
M  V30 1591 H 148.402 -1.9077 0.167036 0
M  V30 1592 H 146.707 -3.37718 -1.9863 0
M  V30 1593 H 148.404 -3.63543 -1.69227 0
M  V30 1594 H 144.994 -4.26681 -0.405124 0
M  V30 1595 H 149.178 -4.95427 0.294312 0
M  V30 1596 H 144.434 -5.98179 1.26457 0
M  V30 1597 H 148.608 -6.68243 1.96023 0
M  V30 1598 H 146.235 -7.1959 2.4514 0
M  V30 1599 N 147.81 0.181792 -1.56548 0
M  V30 1600 C 149.035 0.920019 -1.85877 0
M  V30 1601 C 149.46 1.75494 -0.677021 0
M  V30 1602 O 148.818 1.77399 0.374056 0
M  V30 1603 C 148.866 1.78112 -3.13542 0
M  V30 1604 O 147.97 2.88152 -2.95029 0
M  V30 1605 H 147.311 0.258334 -0.611686 0
M  V30 1606 H 149.841 0.183092 -2.03779 0
M  V30 1607 H 149.851 2.18314 -3.44678 0
M  V30 1608 H 148.526 1.16777 -3.99169 0
M  V30 1609 H 147.103 2.51609 -2.75222 0
M  V30 1610 N 149.288 1.51039 0.449983 0
M  V30 1611 C 150.235 1.71439 1.54523 0
M  V30 1612 C 151.205 0.555871 1.56522 0
M  V30 1613 O 152.39 0.788871 1.73728 0
M  V30 1614 C 149.53 1.83384 2.92343 0
M  V30 1615 C 148.643 3.10873 2.9997 0
M  V30 1616 C 147.778 3.13488 4.28834 0
M  V30 1617 C 146.817 4.35343 4.30282 0
M  V30 1618 N 145.954 4.35579 5.5065 0
M  V30 1619 H 150.794 2.64934 1.36433 0
M  V30 1620 H 148.331 1.31312 0.662982 0
M  V30 1621 H 150.289 1.88291 3.72293 0
M  V30 1622 H 148.919 0.933086 3.0902 0
M  V30 1623 H 147.971 3.15336 2.12761 0
M  V30 1624 H 149.283 4.00814 2.96901 0
M  V30 1625 H 148.437 3.17241 5.17149 0
M  V30 1626 H 147.176 2.21414 4.34543 0
M  V30 1627 H 146.181 4.3178 3.40362 0
M  V30 1628 H 147.406 5.28668 4.26248 0
M  V30 1629 H 145.352 3.46369 5.57104 0
M  V30 1630 H 145.269 5.19313 5.49409 0
M  V30 1631 H 146.537 4.43507 6.41032 0
M  V30 1632 N 150.766 -0.704594 1.40972 0
M  V30 1633 C 152.043 -1.45847 1.30338 0
M  V30 1634 C 152.423 -2.10973 -0.0732344 0
M  V30 1635 O 151.771 -2.00997 -1.08685 0
M  V30 1636 C 151.981 -2.48525 2.45023 0
M  V30 1637 C 153.329 -3.1404 2.8577 0
M  V30 1638 O 154.353 -2.58848 2.44696 0
M  V30 1639 O 153.212 -4.13981 3.56766 0
M  V30 1640 H 150.306 -0.649092 0.512454 0
M  V30 1641 H 152.852 -0.735836 1.52917 0
M  V30 1642 H 151.624 -1.98994 3.36923 0
M  V30 1643 H 151.247 -3.2831 2.24272 0
M  V30 1644 N 152.244 -1.26651 -0.937939 0
M  V30 1645 C 153.192 -1.08308 -2.05845 0
M  V30 1646 C 154.186 -0.0090757 -1.69398 0
M  V30 1647 O 155.392 -0.166007 -1.79233 0
M  V30 1648 H 151.767 -0.333416 -0.674046 0
M  V30 1649 H 153.738 -2.03261 -2.18467 0
M  V30 1650 C 152.487 -0.736229 -3.39816 0
M  V30 1651 H 151.81 -1.55453 -3.6834 0
M  V30 1652 H 153.25 -0.64769 -4.19024 0
M  V30 1653 C 151.709 0.558824 -3.32233 0
M  V30 1654 O 152.239 1.59621 -3.68624 0
M  V30 1655 N 150.445 0.550657 -2.85335 0
M  V30 1656 H 149.992 -0.293943 -2.55917 0
M  V30 1657 H 149.95 1.41726 -2.80644 0
M  V30 1658 N 153.722 1.14298 -1.08507 0
M  V30 1659 C 154.947 1.8976 -0.837001 0
M  V30 1660 C 155.372 1.78097 0.605228 0
M  V30 1661 O 154.73 1.12188 1.4242 0
M  V30 1662 C 154.778 3.37685 -1.26495 0
M  V30 1663 O 153.882 4.10281 -0.417514 0
M  V30 1664 H 153.223 0.590365 -0.303917 0
M  V30 1665 H 155.753 1.44672 -1.44676 0
M  V30 1666 H 155.763 3.88501 -1.24625 0
M  V30 1667 H 154.438 3.45492 -2.31534 0
M  V30 1668 H 153.015 3.69536 -0.499722 0
M  V30 1669 N 155.201 0.870884 1.31352 0
M  V30 1670 C 156.45 0.478408 1.95944 0
M  V30 1671 C 156.763 -0.974493 1.69597 0
M  V30 1672 O 157.969 -1.47316 2.28058 0
M  V30 1673 C 156.425 0.804609 3.50791 0
M  V30 1674 C 156.033 2.27433 3.85977 0
M  V30 1675 C 157.777 0.480648 4.2177 0
M  V30 1676 C 155.684 2.5429 5.33939 0
M  V30 1677 H 154.614 0.175175 0.733369 0
M  V30 1678 H 157.265 1.06391 1.4951 0
M  V30 1679 H 155.647 0.148347 3.95722 0
M  V30 1680 H 156.821 2.97373 3.52002 0
M  V30 1681 H 155.136 2.56442 3.28065 0
M  V30 1682 H 157.733 0.658519 5.30629 0
M  V30 1683 H 158.076 -0.578979 4.12254 0
M  V30 1684 H 158.609 1.09349 3.82476 0
M  V30 1685 H 155.348 3.58939 5.48491 0
M  V30 1686 H 154.868 1.88945 5.69263 0
M  V30 1687 H 156.547 2.39066 6.01212 0
M  V30 1688 N 156.679 -1.44442 0.630414 0
M  V30 1689 C 158.095 -1.56832 0.295973 0
M  V30 1690 C 158.295 -1.61806 -1.20088 0
M  V30 1691 O 157.351 -1.5607 -1.9849 0
M  V30 1692 C 158.664 -2.84031 0.987264 0
M  V30 1693 C 160.212 -2.97742 0.96534 0
M  V30 1694 C 160.687 -4.27743 1.63708 0
M  V30 1695 N 162.178 -4.34555 1.60364 0
M  V30 1696 C 162.913 -5.33862 2.09234 0
M  V30 1697 N 162.409 -6.39578 2.66292 0
M  V30 1698 N 164.202 -5.25366 1.99867 0
M  V30 1699 H 156.353 -1.39457 1.60205 0
M  V30 1700 H 158.616 -0.668237 0.672431 0
M  V30 1701 H 158.322 -2.86338 2.04215 0
M  V30 1702 H 158.196 -3.73534 0.524588 0
M  V30 1703 H 160.583 -2.94989 -0.0810639 0
M  V30 1704 H 160.664 -2.09589 1.4665 0
M  V30 1705 H 160.308 -4.31255 2.68293 0
M  V30 1706 H 160.238 -5.14752 1.11076 0
M  V30 1707 H 162.729 -3.58772 1.18705 0
M  V30 1708 H 163.042 -7.11637 3.01317 0
M  V30 1709 H 161.387 -6.40265 2.70343 0
M  V30 1710 H 164.578 -4.41688 1.55013 0
M  V30 1711 H 164.751 -6.02606 2.38265 0
M  V30 1712 N 158.157 -0.370918 -1.53173 0
M  V30 1713 C 159.087 0.464847 -2.28826 0
M  V30 1714 C 160.068 1.07936 -1.31468 0
M  V30 1715 O 161.253 1.0956 -1.60344 0
M  V30 1716 C 158.383 1.60196 -3.08147 0
M  V30 1717 C 157.337 1.11443 -4.13237 0
M  V30 1718 C 156.663 2.3422 -4.80672 0
M  V30 1719 C 157.963 0.195384 -5.21934 0
M  V30 1720 H 159.657 -0.166329 -2.98938 0
M  V30 1721 H 157.203 -0.0814359 -1.4377 0
M  V30 1722 H 159.156 2.19332 -3.59822 0
M  V30 1723 H 157.88 2.26045 -2.35735 0
M  V30 1724 H 156.539 0.545727 -3.62515 0
M  V30 1725 H 156.187 2.98537 -4.04827 0
M  V30 1726 H 155.887 2.02269 -5.51689 0
M  V30 1727 H 157.411 2.94032 -5.35143 0
M  V30 1728 H 158.825 0.694375 -5.69079 0
M  V30 1729 H 157.222 -0.0335027 -6.00091 0
M  V30 1730 H 158.292 -0.760961 -4.78892 0
M  V30 1731 N 159.635 1.57281 -0.100228 0
M  V30 1732 C 160.86 1.99302 0.573881 0
M  V30 1733 C 161.285 0.979059 1.60611 0
M  V30 1734 O 160.643 -0.0517803 1.81226 0
M  V30 1735 C 160.691 3.40274 1.19358 0
M  V30 1736 O 159.795 3.41676 2.30935 0
M  V30 1737 H 159.136 0.647944 0.145138 0
M  V30 1738 H 161.666 2.03779 -0.183156 0
M  V30 1739 H 161.676 3.78078 1.53365 0
M  V30 1740 H 160.351 4.13594 0.437385 0
M  V30 1741 H 158.928 3.15672 1.98509 0
M  V30 1742 N 161.113 -0.173488 1.56642 0
M  V30 1743 C 162.076 -1.19859 1.95362 0
M  V30 1744 C 163.076 -1.37296 0.83704 0
M  V30 1745 O 164.266 -1.34739 1.10413 0
M  V30 1746 C 161.398 -2.56405 2.24654 0
M  V30 1747 H 162.591 -0.867062 2.87092 0
M  V30 1748 H 160.144 -0.415853 1.50666 0
M  V30 1749 H 160.879 -2.94576 1.35631 0
M  V30 1750 H 160.664 -2.45115 3.06041 0
M  V30 1751 H 162.154 -3.30287 2.5554 0
M  V30 1752 N 162.591 -1.51276 -0.441967 0
M  V30 1753 C 163.839 -1.63392 -1.18943 0
M  V30 1754 C 164.16 -0.350159 -1.9183 0
M  V30 1755 O 163.43 0.633784 -1.85364 0
M  V30 1756 H 162.01 -0.602164 -0.442049 0
M  V30 1757 H 164.672 -1.88186 -0.507165 0
M  V30 1758 H 163.768 -2.45934 -1.92154 0
M  V30 1759 N 164.069 0.697108 -1.41344 0
M  V30 1760 C 165.317 1.45426 -1.40341 0
M  V30 1761 C 165.638 1.94996 -0.0128787 0
M  V30 1762 O 164.908 1.71599 0.945027 0
M  V30 1763 H 163.488 0.539594 -0.516573 0
M  V30 1764 H 166.15 0.825201 -1.76569 0
M  V30 1765 H 165.246 2.31817 -2.08967 0
M  V30 1766 N 165.547 1.27147 0.931209 0
M  V30 1767 C 166.824 1.0401 1.65654 0
M  V30 1768 C 167.204 -0.426297 2.06751 0
M  V30 1769 O 166.552 -1.40879 1.79904 0
M  V30 1770 C 166.762 1.99834 2.86125 0
M  V30 1771 C 168.11 2.29007 3.57549 0
M  V30 1772 O 169.134 1.97779 2.96246 0
M  V30 1773 O 167.993 2.82222 4.67989 0
M  V30 1774 H 165.087 0.396239 0.725895 0
M  V30 1775 H 167.633 1.38397 0.982056 0
M  V30 1776 H 166.405 2.98744 2.52721 0
M  V30 1777 H 166.028 1.65987 3.61295 0
M  V30 1778 N 167.025 -1.13721 1.09112 0
M  V30 1779 C 168.274 -1.84275 0.82009 0
M  V30 1780 C 168.587 -1.84253 -0.656509 0
M  V30 1781 O 169.793 -2.50668 -1.04296 0
M  V30 1782 C 168.249 -3.30825 1.41714 0
M  V30 1783 C 167.857 -3.39244 2.92605 0
M  V30 1784 C 169.601 -4.06443 1.22492 0
M  V30 1785 C 167.508 -4.80047 3.45411 0
M  V30 1786 H 166.438 -0.690387 0.30312 0
M  V30 1787 H 169.089 -1.28146 1.31343 0
M  V30 1788 H 167.471 -3.86737 0.851498 0
M  V30 1789 H 168.645 -2.93344 3.55367 0
M  V30 1790 H 166.96 -2.77088 3.10823 0
M  V30 1791 H 169.557 -5.10387 1.59402 0
M  V30 1792 H 169.9 -4.15972 0.165299 0
M  V30 1793 H 170.433 -3.56852 1.75788 0
M  V30 1794 H 167.172 -4.75709 4.50978 0
M  V30 1795 H 166.692 -5.26455 2.87411 0
M  V30 1796 H 168.371 -5.48957 3.42425 0
M  V30 1797 N 168.503 -0.877838 -1.30888 0
M  V30 1798 C 169.749 -0.502773 -1.97088 0
M  V30 1799 C 170.104 0.936274 -1.68082 0
M  V30 1800 O 169.397 1.65162 -0.971196 0
M  V30 1801 C 169.591 -0.705748 -3.50363 0
M  V30 1802 C 169.42 -2.16297 -3.94266 0
M  V30 1803 C 168.19 -2.80614 -4.20219 0
M  V30 1804 C 170.388 -3.13606 -4.07622 0
M  V30 1805 N 168.37 -4.17007 -4.50532 0
M  V30 1806 C 169.741 -4.35051 -4.41736 0
M  V30 1807 C 171.796 -3.09491 -3.90026 0
M  V30 1808 C 170.499 -5.52911 -4.60089 0
M  V30 1809 C 172.525 -4.26616 -4.09576 0
M  V30 1810 C 171.887 -5.46825 -4.44029 0
M  V30 1811 H 167.986 -0.233168 -0.746429 0
M  V30 1812 H 170.57 -1.13408 -1.58261 0
M  V30 1813 H 168.741 -0.103976 -3.88261 0
M  V30 1814 H 170.473 -0.298291 -4.03599 0
M  V30 1815 H 167.228 -2.3152 -4.13153 0
M  V30 1816 H 167.652 -4.87426 -4.69834 0
M  V30 1817 H 172.294 -2.17657 -3.62471 0
M  V30 1818 H 170.012 -6.45255 -4.86489 0
M  V30 1819 H 173.598 -4.24894 -3.97438 0
M  V30 1820 H 172.478 -6.35947 -4.58848 0
M  V30 1821 N 169.982 1.44106 -0.638065 0
M  V30 1822 C 171.228 2.02277 -0.145546 0
M  V30 1823 C 171.561 1.50125 1.23191 0
M  V30 1824 O 170.836 0.688133 1.8192 0
M  V30 1825 C 171.119 3.59829 -0.139791 0
M  V30 1826 C 170.972 4.22247 -1.55008 0
M  V30 1827 C 172.291 4.36873 0.531966 0
M  V30 1828 H 169.41 0.734992 -0.0543632 0
M  V30 1829 H 172.052 1.71592 -0.815863 0
M  V30 1830 H 170.202 3.86102 0.431007 0
M  V30 1831 H 171.874 4.07057 -2.1703 0
M  V30 1832 H 170.117 3.79476 -2.10191 0
M  V30 1833 H 170.788 5.31284 -1.49804 0
M  V30 1834 H 173.264 4.16074 0.0464781 0
M  V30 1835 H 172.14 5.4657 0.505206 0
M  V30 1836 H 172.401 4.11995 1.60352 0
M  V30 1837 N 171.46 0.379036 1.52974 0
M  V30 1838 C 172.688 -0.20679 2.05864 0
M  V30 1839 C 173.103 -1.41356 1.25155 0
M  V30 1840 O 172.46 -1.8009 0.295588 0
M  V30 1841 C 172.511 -0.587045 3.56702 0
M  V30 1842 O 172.232 0.571776 4.34353 0
M  V30 1843 C 173.733 -1.22983 4.25899 0
M  V30 1844 H 170.953 -0.0336123 0.670158 0
M  V30 1845 H 173.497 0.541298 1.97206 0
M  V30 1846 H 171.652 -1.28504 3.65466 0
M  V30 1847 H 172.066 0.261544 5.23847 0
M  V30 1848 H 173.54 -1.44635 5.32715 0
M  V30 1849 H 174.017 -2.19416 3.80465 0
M  V30 1850 H 174.623 -0.572892 4.21424 0
M  V30 1851 N 172.938 -1.57226 0.108567 0
M  V30 1852 C 174.354 -1.5766 -0.248058 0
M  V30 1853 C 174.554 -1.12063 -1.67464 0
M  V30 1854 O 173.61 -0.803236 -2.39383 0
M  V30 1855 C 174.923 -3.0069 -0.0242287 0
M  V30 1856 C 176.471 -3.12868 -0.0909372 0
M  V30 1857 C 176.946 -4.57879 0.105067 0
M  V30 1858 N 178.437 -4.63172 0.0506846 0
M  V30 1859 C 179.172 -5.73126 0.177396 0
M  V30 1860 N 178.668 -6.91866 0.359696 0
M  V30 1861 N 180.461 -5.61977 0.117709 0
M  V30 1862 H 172.612 -1.85169 1.04049 0
M  V30 1863 H 174.875 -0.85529 0.40888 0
M  V30 1864 H 174.581 -3.38299 0.961604 0
M  V30 1865 H 174.455 -3.6945 -0.76068 0
M  V30 1866 H 176.842 -2.75124 -1.06729 0
M  V30 1867 H 176.923 -2.46672 0.677225 0
M  V30 1868 H 176.567 -4.96321 1.07834 0
M  V30 1869 H 176.497 -5.22153 -0.682954 0
M  V30 1870 H 178.988 -3.778 -0.0871266 0
M  V30 1871 H 179.301 -7.71503 0.447529 0
M  V30 1872 H 177.646 -6.93874 0.395536 0
M  V30 1873 H 180.837 -4.68094 -0.0236741 0
M  V30 1874 H 181.01 -6.47627 0.219905 0
M  V30 1875 N 174.416 0.165178 -1.56732 0
M  V30 1876 C 175.326 1.22423 -2.00125 0
M  V30 1877 C 176.342 1.48084 -0.913619 0
M  V30 1878 O 177.518 1.60112 -1.22172 0
M  V30 1879 C 174.583 2.54197 -2.35764 0
M  V30 1880 C 173.644 2.36343 -3.58386 0
M  V30 1881 C 172.877 3.61834 -3.92316 0
M  V30 1882 O 173.1 4.67267 -3.27135 0
M  V30 1883 O 172.034 3.55579 -4.85641 0
M  V30 1884 H 175.86 0.885886 -2.90492 0
M  V30 1885 H 173.445 0.372518 -1.44681 0
M  V30 1886 H 175.327 3.3192 -2.59629 0
M  V30 1887 H 174.002 2.87598 -1.48557 0
M  V30 1888 H 172.909 1.56632 -3.39731 0
M  V30 1889 H 174.242 2.07865 -4.46154 0
M  V30 1890 N 175.894 1.51508 0.433938 0
M  V30 1891 C 177.305 1.56784 1.01369 0
M  V30 1892 C 177.656 0.393349 1.92217 0
M  V30 1893 O 176.781 -0.489441 2.10792 0
M  V30 1894 C 177.376 2.84144 1.8452 0
M  V30 1895 C 175.935 2.9198 2.37539 0
M  V30 1896 C 175.082 2.51482 1.16843 0
M  V30 1897 H 178.033 1.57236 0.215081 0
M  V30 1898 H 178.054 2.68098 2.70007 0
M  V30 1899 H 177.566 3.69607 1.18373 0
M  V30 1900 H 175.667 2.10955 3.0713 0
M  V30 1901 H 175.78 3.95704 2.70103 0
M  V30 1902 H 174.144 2.04758 1.51481 0
M  V30 1903 H 174.927 3.39293 0.523015 0
M  V30 1904 N 177.372 -0.689602 1.41712 0
M  V30 1905 C 178.602 -1.47613 1.44548 0
M  V30 1906 C 179.01 -1.89132 0.0509034 0
M  V30 1907 O 178.353 -1.57741 -0.94146 0
M  V30 1908 C 178.415 -2.76596 2.2964 0
M  V30 1909 C 178.079 -2.57245 3.77722 0
M  V30 1910 C 179.076 -2.22804 4.69739 0
M  V30 1911 C 176.761 -2.727 4.2183 0
M  V30 1912 C 178.755 -2.04064 6.03851 0
M  V30 1913 C 176.442 -2.53576 5.56006 0
M  V30 1914 C 177.44 -2.1931 6.46832 0
M  V30 1915 O 177.128 -2.00359 7.78532 0
M  V30 1916 H 176.86 -0.461227 0.494212 0
M  V30 1917 H 179.414 -0.856045 1.86711 0
M  V30 1918 H 177.644 -3.41033 1.82301 0
M  V30 1919 H 179.333 -3.38424 2.24107 0
M  V30 1920 H 180.099 -2.10473 4.36951 0
M  V30 1921 H 175.978 -2.98353 3.51435 0
M  V30 1922 H 179.522 -1.77241 6.74708 0
M  V30 1923 H 175.419 -2.65499 5.88371 0
M  V30 1924 H 176.187 -2.15075 7.89737 0
M  V30 1925 N 178.85 -1.27639 -0.924453 0
M  V30 1926 C 180.096 -1.14336 -1.67497 0
M  V30 1927 C 180.429 0.309465 -1.91718 0
M  V30 1928 O 179.704 1.22608 -1.50989 0
M  V30 1929 C 179.987 -1.93096 -3.0395 0
M  V30 1930 C 179.84 -3.46381 -2.8695 0
M  V30 1931 C 181.159 -1.73798 -4.0433 0
M  V30 1932 H 178.278 -0.416728 -0.607871 0
M  V30 1933 H 180.92 -1.56832 -1.07256 0
M  V30 1934 H 179.07 -1.56982 -3.55372 0
M  V30 1935 H 180.742 -3.92343 -2.42621 0
M  V30 1936 H 178.985 -3.72557 -2.22225 0
M  V30 1937 H 179.656 -3.96735 -3.83804 0
M  V30 1938 H 182.132 -2.05293 -3.61931 0
M  V30 1939 H 181.008 -2.31294 -4.97789 0
M  V30 1940 H 181.269 -0.686725 -4.36734 0
M  V30 1941 N 180.328 1.1314 -1.09713 0
M  V30 1942 C 181.553 1.88862 -0.857081 0
M  V30 1943 C 181.978 1.78729 0.586304 0
M  V30 1944 O 181.336 1.13692 1.41222 0
M  V30 1945 C 181.384 3.36325 -1.30069 0
M  V30 1946 O 180.488 4.09815 -0.461007 0
M  V30 1947 H 179.829 0.587108 -0.310162 0
M  V30 1948 H 182.359 1.43129 -1.46203 0
M  V30 1949 H 182.369 3.87157 -1.28738 0
M  V30 1950 H 181.044 3.43017 -2.35185 0
M  V30 1951 H 179.621 3.68986 -0.538888 0
M  V30 1952 N 181.806 0.884767 1.30421 0
M  V30 1953 C 183.046 0.509806 1.9794 0
M  V30 1954 C 183.41 -0.923736 1.68319 0
M  V30 1955 O 184.611 -1.40481 2.29169 0
M  V30 1956 C 182.882 0.776732 3.48858 0
M  V30 1957 S 184.441 0.503843 4.35898 0
M  V30 1958 H 181.259 0.189699 0.685227 0
M  V30 1959 H 183.861 1.14399 1.58535 0
M  V30 1960 H 182.565 1.81857 3.67908 0
M  V30 1961 H 182.096 0.1301 3.93185 0
M  V30 1962 H 184.111 -0.657625 4.91823 0
M  V30 1963 N 183.284 -1.43765 0.645699 0
M  V30 1964 C 184.561 -1.9541 0.0862963 0
M  V30 1965 C 184.941 -1.58725 -1.39175 0
M  V30 1966 O 184.289 -0.868581 -2.11348 0
M  V30 1967 C 184.499 -3.47488 0.324565 0
M  V30 1968 C 185.847 -4.24001 0.225497 0
M  V30 1969 O 186.871 -3.55274 0.256715 0
M  V30 1970 O 185.73 -5.46313 0.142801 0
M  V30 1971 H 182.824 -0.826882 -0.0139483 0
M  V30 1972 H 185.37 -1.53743 0.718415 0
M  V30 1973 H 184.142 -3.67289 1.3496 0
M  V30 1974 H 183.765 -3.96135 -0.340987 0
M  V30 1975 N 184.763 -0.387143 -1.52771 0
M  V30 1976 C 186.174 0.0873634 -1.86495 0
M  V30 1977 C 186.525 1.46336 -1.30691 0
M  V30 1978 O 185.65 2.068 -0.637409 0
M  V30 1979 C 186.245 0.165305 -3.38396 0
M  V30 1980 C 184.804 0.584101 -3.7184 0
M  V30 1981 C 183.951 -0.255279 -2.76122 0
M  V30 1982 H 186.902 -0.605104 -1.46711 0
M  V30 1983 H 186.923 0.984848 -3.67534 0
M  V30 1984 H 186.435 -0.836301 -3.78982 0
M  V30 1985 H 184.536 1.59315 -3.36823 0
M  V30 1986 H 184.649 0.343749 -4.77865 0
M  V30 1987 H 183.013 0.279126 -2.53166 0
M  V30 1988 H 183.796 -1.25482 -3.19545 0
M  V30 1989 N 186.241 1.57166 -0.116904 0
M  V30 1990 C 187.487 1.95412 0.542405 0
M  V30 1991 C 187.82 1.00019 1.66463 0
M  V30 1992 O 187.095 0.0370346 1.94465 0
M  V30 1993 C 187.378 3.43615 1.07708 0
M  V30 1994 C 187.231 4.49781 -0.0415868 0
M  V30 1995 C 188.55 3.93616 1.96861 0
M  V30 1996 H 185.669 0.710543 0.195696 0
M  V30 1997 H 188.311 1.89027 -0.192038 0
M  V30 1998 H 186.461 3.49187 1.70296 0
M  V30 1999 H 188.133 4.56308 -0.676793 0
M  V30 2000 H 186.376 4.28033 -0.705019 0
M  V30 2001 H 187.047 5.50733 0.373717 0
M  V30 2002 H 189.523 3.90335 1.44146 0
M  V30 2003 H 188.399 4.97838 2.3119 0
M  V30 2004 H 188.66 3.34188 2.89432 0
M  V30 2005 N 187.719 -0.156864 1.56817 0
M  V30 2006 C 188.666 -1.19394 1.97519 0
M  V30 2007 C 189.636 -1.4322 0.841265 0
M  V30 2008 O 190.821 -1.55719 1.10255 0
M  V30 2009 C 187.961 -2.52483 2.35258 0
M  V30 2010 C 187.074 -2.35914 3.61896 0
M  V30 2011 C 186.209 -3.61969 3.88782 0
M  V30 2012 C 185.248 -3.40395 5.08722 0
M  V30 2013 N 184.385 -4.58556 5.31668 0
M  V30 2014 H 189.225 -0.839845 2.85921 0
M  V30 2015 H 186.762 -0.403264 1.41464 0
M  V30 2016 H 188.72 -3.30071 2.55165 0
M  V30 2017 H 187.35 -2.85859 1.49949 0
M  V30 2018 H 186.402 -1.49429 3.49821 0
M  V30 2019 H 187.714 -2.15926 4.49641 0
M  V30 2020 H 186.868 -4.47989 4.09135 0
M  V30 2021 H 185.607 -3.84951 2.9944 0
M  V30 2022 H 184.612 -2.52763 4.88253 0
M  V30 2023 H 185.837 -3.18822 5.99608 0
M  V30 2024 H 183.783 -4.81729 4.45279 0
M  V30 2025 H 183.7 -4.41535 6.13664 0
M  V30 2026 H 184.968 -5.45817 5.5651 0
M  V30 2027 N 189.197 -1.51736 -0.425897 0
M  V30 2028 C 190.437 -1.66636 -1.18371 0
M  V30 2029 C 190.801 -0.379854 -1.88205 0
M  V30 2030 O 192.002 -0.404758 -2.65735 0
M  V30 2031 C 190.273 -2.84382 -2.16476 0
M  V30 2032 S 191.832 -3.19673 -3.0059 0
M  V30 2033 H 188.65 -0.586957 -0.40125 0
M  V30 2034 H 191.252 -1.89679 -0.473518 0
M  V30 2035 H 189.956 -3.76281 -1.63831 0
M  V30 2036 H 189.487 -2.63562 -2.92059 0
M  V30 2037 H 191.502 -2.66994 -4.18245 0
M  V30 2038 N 190.675 0.682077 -1.42076 0
M  V30 2039 C 191.905 1.46844 -1.45329 0
M  V30 2040 C 192.313 1.89102 -0.0609328 0
M  V30 2041 O 191.656 1.58238 0.933082 0
M  V30 2042 C 191.718 2.75375 -2.31104 0
M  V30 2043 C 191.382 2.55238 -3.79081 0
M  V30 2044 C 192.379 2.20309 -4.70914 0
M  V30 2045 C 190.064 2.70459 -4.2327 0
M  V30 2046 C 192.058 2.00859 -6.04925 0
M  V30 2047 C 189.745 2.50624 -5.57343 0
M  V30 2048 C 190.743 2.15876 -6.47986 0
M  V30 2049 O 190.431 1.96227 -7.79583 0
M  V30 2050 H 190.163 0.4586 -0.496651 0
M  V30 2051 H 192.717 0.846131 -1.87162 0
M  V30 2052 H 190.947 3.40061 -1.84107 0
M  V30 2053 H 192.636 3.37231 -2.25898 0
M  V30 2054 H 193.402 2.08153 -4.38061 0
M  V30 2055 H 189.281 2.96485 -3.53012 0
M  V30 2056 H 192.825 1.7366 -6.75639 0
M  V30 2057 H 188.722 2.62375 -5.89771 0
M  V30 2058 H 189.49 2.10883 -7.90867 0
M  V30 2059 N 192.153 1.28127 0.917671 0
M  V30 2060 C 193.085 1.07517 2.02417 0
M  V30 2061 C 194.098 0.0281099 1.62776 0
M  V30 2062 O 195.287 0.270748 1.76435 0
M  V30 2063 C 192.387 0.610957 3.33347 0
M  V30 2064 C 191.56 1.73255 4.01624 0
M  V30 2065 C 190.619 1.26238 5.10833 0
M  V30 2066 O 189.645 1.96389 5.34247 0
M  V30 2067 N 190.847 0.123448 5.80369 0
M  V30 2068 H 193.612 2.02806 2.20658 0
M  V30 2069 H 191.173 1.19827 1.08871 0
M  V30 2070 H 193.165 0.280101 4.0373 0
M  V30 2071 H 191.735 -0.24898 3.11607 0
M  V30 2072 H 190.955 2.23319 3.24842 0
M  V30 2073 H 192.243 2.48503 4.43986 0
M  V30 2074 H 191.641 -0.461847 5.63812 0
M  V30 2075 H 190.198 -0.148158 6.51632 0
M  V30 2076 N 193.631 -1.12557 1.10312 0
M  V30 2077 C 194.878 -1.84038 0.844759 0
M  V30 2078 C 195.206 -1.84026 -0.629668 0
M  V30 2079 O 194.461 -1.28026 -1.48013 0
M  V30 2080 C 194.76 -3.31462 1.33669 0
M  V30 2081 C 194.426 -3.51647 2.82232 0
M  V30 2082 C 193.088 -3.56864 3.22802 0
M  V30 2083 C 195.44 -3.58867 3.77974 0
M  V30 2084 C 192.768 -3.66844 4.57867 0
M  V30 2085 C 195.12 -3.70375 5.1284 0
M  V30 2086 C 193.784 -3.73848 5.52986 0
M  V30 2087 H 193.054 -0.673444 0.309119 0
M  V30 2088 H 195.701 -1.32824 1.37949 0
M  V30 2089 H 194.006 -3.85091 0.721949 0
M  V30 2090 H 195.703 -3.85236 1.11329 0
M  V30 2091 H 192.293 -3.48249 2.49842 0
M  V30 2092 H 196.477 -3.54107 3.47738 0
M  V30 2093 H 191.733 -3.67804 4.88396 0
M  V30 2094 H 195.907 -3.74904 5.86873 0
M  V30 2095 H 193.534 -3.81333 6.57639 0
M  V30 2096 N 195.109 -0.891671 -1.2995 0
M  V30 2097 C 196.072 -0.36828 -2.26222 0
M  V30 2098 C 197.072 0.493014 -1.53056 0
M  V30 2099 O 198.262 0.299213 -1.71611 0
M  V30 2100 C 195.394 0.47442 -3.37583 0
M  V30 2101 H 196.587 -1.21844 -2.74033 0
M  V30 2102 H 194.14 -0.669107 -1.41254 0
M  V30 2103 H 194.875 1.34489 -2.95099 0
M  V30 2104 H 194.66 -0.142615 -3.91841 0
M  V30 2105 H 196.15 0.83218 -4.09224 0
M  V30 2106 N 196.587 1.43421 -0.653314 0
M  V30 2107 C 197.517 2.33487 0.0246656 0
M  V30 2108 C 198.498 1.49475 0.811863 0
M  V30 2109 O 199.683 1.78139 0.773322 0
M  V30 2110 C 196.813 3.32841 0.99166 0
M  V30 2111 C 195.767 4.26842 0.314568 0
M  V30 2112 C 195.093 5.16236 1.39302 0
M  V30 2113 C 196.393 5.16243 -0.793095 0
M  V30 2114 H 198.087 2.90427 -0.727481 0
M  V30 2115 H 195.633 1.39649 -0.351287 0
M  V30 2116 H 197.586 3.94747 1.47487 0
M  V30 2117 H 196.31 2.74158 1.77497 0
M  V30 2118 H 194.969 3.663 -0.148199 0
M  V30 2119 H 194.617 4.53891 2.16776 0
M  V30 2120 H 194.317 5.79948 0.945223 0
M  V30 2121 H 195.841 5.81015 1.87759 0
M  V30 2122 H 197.255 5.71958 -0.392039 0
M  V30 2123 H 195.652 5.88676 -1.16536 0
M  V30 2124 H 196.722 4.55927 -1.65103 0
M  V30 2125 N 198.065 0.39524 1.52563 0
M  V30 2126 C 199.313 -0.184678 2.01254 0
M  V30 2127 C 199.634 -1.46822 1.28329 0
M  V30 2128 O 198.904 -1.91666 0.405094 0
M  V30 2129 H 197.484 -0.0712355 0.743596 0
M  V30 2130 H 200.146 0.528293 1.87603 0
M  V30 2131 H 199.242 -0.390681 3.09645 0
M  V30 2132 N 199.544 -1.57102 0.125237 0
M  V30 2133 C 200.476 -2.12726 -0.853237 0
M  V30 2134 C 201.489 -1.07145 -1.22571 0
M  V30 2135 O 202.678 -1.34497 -1.17358 0
M  V30 2136 C 199.778 -2.61709 -2.15317 0
M  V30 2137 C 198.951 -3.91456 -1.95143 0
M  V30 2138 C 198.01 -4.25973 -3.08923 0
M  V30 2139 O 197.036 -4.94682 -2.81564 0
M  V30 2140 N 198.238 -3.83795 -4.35524 0
M  V30 2141 H 201.003 -2.97307 -0.377964 0
M  V30 2142 H 198.564 -1.61792 -0.0590011 0
M  V30 2143 H 200.556 -2.81826 -2.90441 0
M  V30 2144 H 199.126 -1.81974 -2.54174 0
M  V30 2145 H 198.346 -3.80185 -1.04177 0
M  V30 2146 H 199.634 -4.76283 -1.78976 0
M  V30 2147 H 199.032 -3.2839 -4.60626 0
M  V30 2148 H 197.589 -4.09008 -5.07499 0
M  V30 2149 N 201.022 0.148545 -1.56898 0
M  V30 2150 C 202.27 0.859717 -1.82902 0
M  V30 2151 C 202.591 1.81775 -0.70588 0
M  V30 2152 O 201.861 1.93994 0.272586 0
M  V30 2153 H 200.441 0.320469 -0.674766 0
M  V30 2154 H 203.103 0.142918 -1.94375 0
M  V30 2155 H 202.199 1.4229 -2.77777 0
M  V30 2156 N 202.5 1.5196 0.417844 0
M  V30 2157 C 203.728 1.69426 1.18753 0
M  V30 2158 C 204.143 0.399955 1.84515 0
M  V30 2159 O 203.5 -0.623288 1.71527 0
M  V30 2160 C 203.551 2.82375 2.25714 0
M  V30 2161 O 203.272 4.06793 1.62638 0
M  V30 2162 C 204.773 3.11277 3.15628 0
M  V30 2163 H 201.993 0.568031 0.357186 0
M  V30 2164 H 204.537 1.98475 0.49273 0
M  V30 2165 H 202.692 2.5587 2.90877 0
M  V30 2166 H 203.106 4.69667 2.3348 0
M  V30 2167 H 204.58 3.93843 3.86771 0
M  V30 2168 H 205.057 2.24473 3.77503 0
M  V30 2169 H 205.663 3.39515 2.56144 0
M  V30 2170 N 203.978 -0.674533 1.42435 0
M  V30 2171 C 205.206 -1.46283 1.46317 0
M  V30 2172 C 205.621 -1.88653 0.0745836 0
M  V30 2173 O 204.978 -1.58151 -0.91074 0
M  V30 2174 C 205.029 -2.71178 2.3905 0
M  V30 2175 O 204.75 -2.30586 3.72507 0
M  V30 2176 C 206.251 -3.64738 2.51955 0
M  V30 2177 H 203.471 -0.450104 0.497642 0
M  V30 2178 H 206.015 -0.828792 1.86953 0
M  V30 2179 H 204.17 -3.3077 2.01667 0
M  V30 2180 H 204.584 -3.11241 4.22172 0
M  V30 2181 H 206.058 -4.49096 3.20962 0
M  V30 2182 H 206.535 -4.10656 1.55752 0
M  V30 2183 H 207.141 -3.11038 2.90061 0
M  V30 2184 N 205.456 -1.28612 -0.910864 0
M  V30 2185 C 206.386 -1.15326 -2.03032 0
M  V30 2186 C 207.367 -0.0502924 -1.70026 0
M  V30 2187 O 208.552 -0.227797 -1.92859 0
M  V30 2188 C 205.682 -0.817343 -3.37545 0
M  V30 2189 C 204.636 -1.8754 -3.84724 0
M  V30 2190 C 203.962 -1.39305 -5.16235 0
M  V30 2191 C 205.262 -3.28244 -4.06267 0
M  V30 2192 H 206.956 -2.08975 -2.14406 0
M  V30 2193 H 204.502 -1.00612 -1.03021 0
M  V30 2194 H 206.455 -0.711151 -4.15356 0
M  V30 2195 H 205.179 0.154846 -3.26233 0
M  V30 2196 H 203.838 -1.97079 -3.09121 0
M  V30 2197 H 203.486 -0.409846 -5.01328 0
M  V30 2198 H 203.186 -2.10057 -5.48771 0
M  V30 2199 H 204.71 -1.30014 -5.96598 0
M  V30 2200 H 206.124 -3.21611 -4.74594 0
M  V30 2201 H 204.521 -3.96855 -4.5014 0
M  V30 2202 H 205.591 -3.72048 -3.10979 0
M  V30 2203 N 206.934 1.1197 -1.10907 0
M  V30 2204 C 208.211 1.79959 -0.766432 0
M  V30 2205 C 208.591 1.97466 0.746363 0
M  V30 2206 O 207.939 1.55491 1.67436 0
M  V30 2207 C 208.149 3.14009 -1.52314 0
M  V30 2208 C 209.497 3.89134 -1.69883 0
M  V30 2209 O 210.521 3.2368 -1.48692 0
M  V30 2210 O 209.38 5.06572 -2.05054 0
M  V30 2211 H 206.474 0.779208 -0.277062 0
M  V30 2212 H 209.02 1.18762 -1.21217 0
M  V30 2213 H 207.792 2.96587 -2.55249 0
M  V30 2214 H 207.415 3.82915 -1.07059 0
M  V30 2215 N 208.412 0.89855 1.29475 0
M  V30 2216 C 209.36 0.365253 2.29714 0
M  V30 2217 C 210.354 -0.534993 1.6073 0
M  V30 2218 O 211.56 -0.417921 1.75081 0
M  V30 2219 H 207.935 0.0994853 0.74539 0
M  V30 2220 H 209.906 1.22406 2.72138 0
M  V30 2221 C 208.655 -0.393159 3.4547 0
M  V30 2222 H 207.978 0.290332 3.98744 0
M  V30 2223 H 209.418 -0.731189 4.17648 0
M  V30 2224 C 207.877 -1.59539 2.9673 0
M  V30 2225 O 208.407 -2.69469 2.97908 0
M  V30 2226 N 206.613 -1.43716 2.52575 0
M  V30 2227 H 206.16 -0.542828 2.51816 0
M  V30 2228 H 206.118 -2.24288 2.20323 0
M  V30 2229 N 209.89 -1.43072 0.660911 0
M  V30 2230 C 210.837 -2.30785 -0.0259884 0
M  V30 2231 C 211.807 -1.45184 -0.806888 0
M  V30 2232 O 212.992 -1.74041 -0.781943 0
M  V30 2233 C 210.132 -3.30861 -0.981067 0
M  V30 2234 C 209.245 -4.31558 -0.195458 0
M  V30 2235 C 208.38 -5.18712 -1.14503 0
M  V30 2236 C 207.419 -6.11097 -0.350299 0
M  V30 2237 N 206.556 -6.90849 -1.25186 0
M  V30 2238 H 211.396 -2.88975 0.727846 0
M  V30 2239 H 208.933 -1.42353 0.370682 0
M  V30 2240 H 210.891 -3.87399 -1.54849 0
M  V30 2241 H 209.521 -2.74304 -1.70169 0
M  V30 2242 H 208.573 -3.77252 0.488374 0
M  V30 2243 H 209.885 -4.9701 0.422176 0
M  V30 2244 H 209.039 -5.79914 -1.78284 0
M  V30 2245 H 207.778 -4.53404 -1.79656 0
M  V30 2246 H 206.783 -5.48976 0.300808 0
M  V30 2247 H 208.008 -6.7845 0.296941 0
M  V30 2248 H 205.954 -6.28182 -1.89005 0
M  V30 2249 H 205.871 -7.52854 -0.688971 0
M  V30 2250 H 207.139 -7.5655 -1.87757 0
M  V30 2251 N 211.368 -0.403325 -1.52352 0
M  V30 2252 C 212.318 0.442244 -2.2367 0
M  V30 2253 C 213.302 1.01823 -1.24583 0
M  V30 2254 O 214.494 0.942005 -1.49851 0
M  V30 2255 C 211.623 1.5615 -3.05732 0
M  V30 2256 C 210.709 0.996575 -4.12225 0
M  V30 2257 N 211.1 0.157804 -5.05554 0
M  V30 2258 C 209.398 1.26767 -4.27605 0
M  V30 2259 C 210.099 -0.155853 -5.81491 0
M  V30 2260 N 209.075 0.451775 -5.41719 0
M  V30 2261 H 212.877 -0.204964 -2.93184 0
M  V30 2262 H 210.391 -0.213418 -1.60992 0
M  V30 2263 H 212.388 2.17981 -3.55373 0
M  V30 2264 H 211.048 2.21139 -2.37755 0
M  V30 2265 H 212.059 -0.206049 -5.1749 0
M  V30 2266 H 208.736 1.91757 -3.70858 0
M  V30 2267 H 210.126 -0.836329 -6.66675 0
M  V30 2268 N 212.846 1.57033 -0.133567 0
M  V30 2269 C 214.071 2.00475 0.531477 0
M  V30 2270 C 214.496 1.01291 1.58499 0
M  V30 2271 O 213.854 -0.0133279 1.81295 0
M  V30 2272 C 213.902 3.42729 1.12113 0
M  V30 2273 O 213.006 3.46498 2.23636 0
M  V30 2274 H 212.347 0.650876 0.131362 0
M  V30 2275 H 214.877 2.03344 -0.22634 0
M  V30 2276 H 214.887 3.81246 1.4531 0
M  V30 2277 H 213.562 4.14428 0.349557 0
M  V30 2278 H 212.139 3.19811 1.91769 0
M  V30 2279 N 214.325 -0.140222 1.56975 0
M  V30 2280 C 215.273 -1.19207 1.99731 0
M  V30 2281 C 216.267 -1.44089 0.890777 0
M  V30 2282 O 217.473 -1.44301 1.07597 0
M  V30 2283 H 213.848 -0.40142 0.635898 0
M  V30 2284 H 215.819 -0.804813 2.87342 0
M  V30 2285 C 214.568 -2.51617 2.39967 0
M  V30 2286 H 213.891 -2.33303 3.24669 0
M  V30 2287 H 215.331 -3.23827 2.73701 0
M  V30 2288 C 213.79 -3.12654 1.25496 0
M  V30 2289 O 214.32 -3.97786 0.559371 0
M  V30 2290 N 212.526 -2.72206 1.01746 0
M  V30 2291 H 212.073 -2.03074 1.58489 0
M  V30 2292 H 212.031 -3.13377 0.253461 0
M  V30 2293 N 215.803 -1.52179 -0.40978 0
M  V30 2294 C 217.08 -1.56769 -1.16974 0
M  V30 2295 C 217.46 -0.348322 -2.08206 0
M  V30 2296 O 216.808 0.664862 -2.18613 0
M  V30 2297 C 217.018 -2.89603 -1.9476 0
M  V30 2298 C 218.366 -3.42579 -2.50849 0
M  V30 2299 O 219.39 -2.91338 -2.04941 0
M  V30 2300 O 218.249 -4.32054 -3.34652 0
M  V30 2301 H 215.343 -0.631439 -0.534054 0
M  V30 2302 H 217.889 -1.64507 -0.416613 0
M  V30 2303 H 216.661 -3.698 -1.27921 0
M  V30 2304 H 216.284 -2.85155 -2.77079 0
M  V30 2305 N 217.281 0.66697 -1.42791 0
M  V30 2306 C 218.509 1.45505 -1.47091 0
M  V30 2307 C 218.924 1.8861 -0.0845873 0
M  V30 2308 O 218.281 1.58632 0.90234 0
M  V30 2309 C 218.332 2.69906 -2.40485 0
M  V30 2310 O 218.053 2.28608 -3.73725 0
M  V30 2311 C 219.554 3.63396 -2.53886 0
M  V30 2312 H 216.774 0.447459 -0.500022 0
M  V30 2313 H 219.318 0.818866 -1.8739 0
M  V30 2314 H 217.473 3.29696 -2.03419 0
M  V30 2315 H 217.887 3.08997 -4.23817 0
M  V30 2316 H 219.361 4.47387 -3.2334 0
M  V30 2317 H 219.838 4.09824 -1.57927 0
M  V30 2318 H 220.444 3.09495 -2.91706 0
M  V30 2319 N 218.759 1.29093 0.90403 0
M  V30 2320 C 220.005 1.16986 1.65656 0
M  V30 2321 C 220.338 -0.278925 1.92186 0
M  V30 2322 O 219.613 -1.2019 1.5292 0
M  V30 2323 C 219.896 1.97908 3.0084 0
M  V30 2324 C 219.749 3.50903 2.81403 0
M  V30 2325 C 221.068 1.80208 4.01513 0
M  V30 2326 H 218.187 0.426346 0.601164 0
M  V30 2327 H 220.829 1.58518 1.04747 0
M  V30 2328 H 218.979 1.62616 3.52829 0
M  V30 2329 H 220.651 3.96153 2.36348 0
M  V30 2330 H 218.894 3.76045 2.1627 0
M  V30 2331 H 219.565 4.02791 3.77443 0
M  V30 2332 H 222.041 2.11025 3.58619 0
M  V30 2333 H 220.917 2.39184 4.94047 0
M  V30 2334 H 221.178 0.756119 4.35586 0
M  V30 2335 N 220.237 -1.11381 1.11499 0
M  V30 2336 C 221.187 -2.15555 0.74298 0
M  V30 2337 C 222.171 -1.58894 -0.253276 0
M  V30 2338 O 223.363 -1.76897 -0.0602918 0
M  V30 2339 C 220.492 -3.42782 0.188481 0
M  V30 2340 C 219.578 -4.064 1.21244 0
M  V30 2341 N 219.969 -4.44864 2.40685 0
M  V30 2342 C 218.267 -4.3333 1.05552 0
M  V30 2343 C 218.968 -4.94715 3.05994 0
M  V30 2344 N 217.944 -4.90909 2.33472 0
M  V30 2345 H 221.746 -2.43074 1.65203 0
M  V30 2346 H 219.26 -1.28401 0.994329 0
M  V30 2347 H 221.257 -4.16789 -0.0961693 0
M  V30 2348 H 219.917 -3.16727 -0.715149 0
M  V30 2349 H 220.928 -4.36876 2.78136 0
M  V30 2350 H 217.605 -4.1698 0.208372 0
M  V30 2351 H 218.995 -5.34103 4.07656 0
M  V30 2352 N 221.715 -0.905404 -1.28997 0
M  V30 2353 C 222.992 -0.453513 -1.9027 0
M  V30 2354 C 223.372 1.06721 -1.82137 0
M  V30 2355 O 222.72 1.91159 -1.25182 0
M  V30 2356 C 222.93 -0.974494 -3.35119 0
M  V30 2357 C 224.278 -1.0216 -4.12127 0
M  V30 2358 O 225.302 -0.922557 -3.44046 0
M  V30 2359 O 224.161 -1.17121 -5.33802 0
M  V30 2360 H 221.255 -0.142347 -0.814657 0
M  V30 2361 H 223.801 -0.995642 -1.37423 0
M  V30 2362 H 222.573 -2.01848 -3.35221 0
M  V30 2363 H 222.196 -0.412706 -3.95452 0
M  V30 2364 N 223.193 1.4272 -0.668489 0
M  V30 2365 C 224.609 1.55992 -0.33745 0
M  V30 2366 C 224.809 1.64933 1.15756 0
M  V30 2367 O 223.865 1.61278 1.94282 0
M  V30 2368 C 225.178 2.81314 -1.06222 0
M  V30 2369 C 226.726 2.95078 -1.04394 0
M  V30 2370 C 227.201 4.23252 -1.74991 0
M  V30 2371 N 228.692 4.3015 -1.71829 0
M  V30 2372 C 229.427 5.28127 -2.23315 0
M  V30 2373 N 228.923 6.32293 -2.83156 0
M  V30 2374 N 230.716 5.19882 -2.13726 0
M  V30 2375 H 222.867 1.3516 -1.63846 0
M  V30 2376 H 225.13 0.650174 -0.689912 0
M  V30 2377 H 224.836 2.80823 -2.11734 0
M  V30 2378 H 224.71 3.72012 -0.62344 0
M  V30 2379 H 227.097 2.951 0.0028244 0
M  V30 2380 H 227.178 2.05627 -1.52155 0
M  V30 2381 H 226.822 4.2399 -2.79633 0
M  V30 2382 H 226.752 5.11626 -1.24685 0
M  V30 2383 H 229.243 3.55499 -1.28175 0
M  V30 2384 H 229.556 7.03398 -3.20079 0
M  V30 2385 H 227.901 6.32873 -2.87223 0
M  V30 2386 H 231.092 4.37423 -1.66669 0
M  V30 2387 H 231.265 5.96077 -2.54158 0
M  V30 2388 N 224.671 0.411399 1.52136 0
M  V30 2389 C 225.92 -0.165009 2.01024 0
M  V30 2390 C 226.233 -1.4603 1.30133 0
M  V30 2391 O 227.439 -2.1181 1.69849 0
M  V30 2392 C 225.895 -0.344618 3.58246 0
M  V30 2393 C 225.503 0.938716 4.38055 0
M  V30 2394 C 227.247 -0.876195 4.15359 0
M  V30 2395 C 225.154 0.726172 5.86925 0
M  V30 2396 H 224.084 -0.0654407 0.751155 0
M  V30 2397 H 226.735 0.537192 1.75461 0
M  V30 2398 H 225.117 -1.10921 3.80148 0
M  V30 2399 H 226.291 1.70963 4.27912 0
M  V30 2400 H 224.606 1.39688 3.92271 0
M  V30 2401 H 227.203 -1.05128 5.24263 0
M  V30 2402 H 227.546 -1.85152 3.7286 0
M  V30 2403 H 228.079 -0.170607 3.97434 0
M  V30 2404 H 224.818 1.67312 6.33788 0
M  V30 2405 H 224.338 -0.00540283 5.998 0
M  V30 2406 H 226.017 0.369231 6.45946 0
M  V30 2407 N 226.149 -1.5696 0.141893 0
M  V30 2408 C 227.56 -1.82797 -0.379776 0
M  V30 2409 C 227.911 -1.06033 -1.6508 0
M  V30 2410 O 227.036 -0.304011 -2.14254 0
M  V30 2411 C 227.631 -3.31578 -0.695802 0
M  V30 2412 C 226.19 -3.58014 -1.16201 0
M  V30 2413 C 225.337 -2.76699 -0.182455 0
M  V30 2414 H 228.288 -1.54406 0.366675 0
M  V30 2415 H 228.309 -3.47454 -1.55099 0
M  V30 2416 H 227.821 -3.87421 0.229449 0
M  V30 2417 H 225.922 -3.07553 -2.10338 0
M  V30 2418 H 226.035 -4.66501 -1.09151 0
M  V30 2419 H 224.399 -2.45618 -0.674072 0
M  V30 2420 H 225.182 -3.35311 0.736297 0
M  V30 2421 N 227.627 0.131896 -1.57047 0
M  V30 2422 C 228.577 1.1679 -1.95816 0
M  V30 2423 C 229.561 1.37756 -0.831393 0
M  V30 2424 O 230.753 1.39065 -1.09499 0
M  V30 2425 C 227.882 2.49778 -2.35512 0
M  V30 2426 C 226.968 2.32342 -3.54793 0
M  V30 2427 N 227.359 1.8469 -4.70875 0
M  V30 2428 C 225.657 2.63043 -3.60173 0
M  V30 2429 C 226.358 1.80656 -5.52936 0
M  V30 2430 N 225.334 2.24528 -4.95064 0
M  V30 2431 H 229.136 0.791818 -2.83033 0
M  V30 2432 H 226.65 0.339791 -1.58805 0
M  V30 2433 H 228.647 3.24692 -2.61498 0
M  V30 2434 H 227.307 2.88156 -1.49654 0
M  V30 2435 H 228.318 1.54429 -4.9434 0
M  V30 2436 H 224.995 3.05193 -2.84892 0
M  V30 2437 H 226.385 1.45178 -6.56028 0
M  V30 2438 N 229.106 1.52395 0.401703 0
M  V30 2439 C 230.522 1.41363 0.740864 0
M  V30 2440 C 230.722 0.523982 1.94568 0
M  V30 2441 O 229.778 -0.00741204 2.52499 0
M  V30 2442 C 231.091 2.84011 0.987847 0
M  V30 2443 C 232.639 2.93404 1.09011 0
M  V30 2444 C 233.114 4.37036 1.3698 0
M  V30 2445 N 234.605 4.40304 1.43829 0
M  V30 2446 C 235.34 5.48508 1.67112 0
M  V30 2447 N 234.836 6.66819 1.87949 0
M  V30 2448 N 236.629 5.36034 1.69187 0
M  V30 2449 H 228.78 2.08765 -0.391262 0
M  V30 2450 H 231.043 0.941265 -0.112798 0
M  V30 2451 H 230.749 3.51265 0.174835 0
M  V30 2452 H 230.623 3.25502 1.906 0
M  V30 2453 H 233.01 2.26325 1.8937 0
M  V30 2454 H 233.091 2.55359 0.15015 0
M  V30 2455 H 232.735 5.04676 0.571353 0
M  V30 2456 H 232.665 4.72623 2.3224 0
M  V30 2457 H 235.156 3.55024 1.29486 0
M  V30 2458 H 235.469 7.45063 2.05185 0
M  V30 2459 H 233.814 6.6987 1.85199 0
M  V30 2460 H 237.005 4.42579 1.52451 0
M  V30 2461 H 237.178 6.20434 1.86993 0
M  V30 2462 N 230.584 -0.659388 1.43143 0
M  V30 2463 C 231.812 -1.44723 1.47861 0
M  V30 2464 C 232.227 -1.88563 0.0945886 0
M  V30 2465 O 231.584 -1.59108 -0.893915 0
M  V30 2466 C 231.635 -2.68627 2.41913 0
M  V30 2467 O 231.356 -2.26623 3.74932 0
M  V30 2468 C 232.857 -3.62045 2.55809 0
M  V30 2469 H 230.077 -0.444801 0.502387 0
M  V30 2470 H 232.621 -0.808916 1.87821 0
M  V30 2471 H 230.776 -3.28613 2.05164 0
M  V30 2472 H 231.19 -3.06745 4.2545 0
M  V30 2473 H 232.664 -4.45666 3.25708 0
M  V30 2474 H 233.141 -4.08981 1.60099 0
M  V30 2475 H 233.747 -3.07944 2.93344 0
M  V30 2476 N 232.062 -1.29571 -0.897171 0
M  V30 2477 C 232.992 -1.17473 -2.01798 0
M  V30 2478 C 233.973 -0.068323 -1.69963 0
M  V30 2479 O 235.158 -0.248239 -1.92607 0
M  V30 2480 C 232.288 -0.853099 -3.36659 0
M  V30 2481 C 231.242 -1.9161 -3.82713 0
M  V30 2482 C 230.568 -1.44773 -5.14728 0
M  V30 2483 C 231.868 -3.32535 -4.02763 0
M  V30 2484 H 233.562 -2.11237 -2.12177 0
M  V30 2485 H 231.108 -1.01699 -1.01948 0
M  V30 2486 H 233.061 -0.755165 -4.14578 0
M  V30 2487 H 231.785 0.120236 -3.26379 0
M  V30 2488 H 230.444 -2.00346 -3.07013 0
M  V30 2489 H 230.092 -0.462995 -5.00865 0
M  V30 2490 H 229.792 -2.15865 -5.46513 0
M  V30 2491 H 231.316 -1.36334 -5.95185 0
M  V30 2492 H 232.73 -3.26626 -4.71156 0
M  V30 2493 H 231.127 -4.01607 -4.45905 0
M  V30 2494 H 232.197 -3.75326 -3.07016 0
M  V30 2495 N 233.54 1.10788 -1.12088 0
M  V30 2496 C 234.47 2.19083 -0.807755 0
M  V30 2497 C 235.451 1.6858 0.226859 0
M  V30 2498 O 236.636 1.93997 0.0888475 0
M  V30 2499 C 233.766 3.46344 -0.257576 0
M  V30 2500 C 232.72 4.101 -1.22483 0
M  V30 2501 C 232.046 5.32016 -0.535052 0
M  V30 2502 C 233.346 4.54236 -2.57811 0
M  V30 2503 H 235.04 2.45534 -1.71328 0
M  V30 2504 H 232.586 1.1801 -0.825205 0
M  V30 2505 H 234.539 4.21392 -0.0262679 0
M  V30 2506 H 233.263 3.19373 0.683278 0
M  V30 2507 H 231.922 3.37054 -1.44189 0
M  V30 2508 H 231.57 5.01319 0.410827 0
M  V30 2509 H 231.27 5.75625 -1.18024 0
M  V30 2510 H 232.794 6.09799 -0.312695 0
M  V30 2511 H 234.208 5.20575 -2.40155 0
M  V30 2512 H 232.605 5.08682 -3.18375 0
M  V30 2513 H 233.675 3.6734 -3.16528 0
M  V30 2514 N 235.018 0.912232 1.28515 0
M  V30 2515 C 235.951 0.343928 2.25593 0
M  V30 2516 C 236.929 -0.550994 1.5298 0
M  V30 2517 O 238.113 -0.494991 1.81885 0
M  V30 2518 C 235.24 -0.508525 3.34861 0
M  V30 2519 C 234.286 0.320808 4.25292 0
M  V30 2520 S 235.119 1.72658 5.06902 0
M  V30 2521 C 236.275 0.881394 6.19663 0
M  V30 2522 H 236.508 1.16674 2.73449 0
M  V30 2523 H 234.041 0.713384 1.36931 0
M  V30 2524 H 235.999 -0.994539 3.9827 0
M  V30 2525 H 234.66 -1.30571 2.85675 0
M  V30 2526 H 233.853 -0.330941 5.02912 0
M  V30 2527 H 233.455 0.74042 3.66598 0
M  V30 2528 H 235.747 0.110359 6.7741 0
M  V30 2529 H 236.69 1.63009 6.89082 0
M  V30 2530 H 237.098 0.430239 5.62858 0
M  V30 2531 N 236.496 -1.42363 0.676048 0
M  V30 2532 C 237.444 -2.32596 -0.0131507 0
M  V30 2533 C 238.438 -1.49891 -0.789238 0
M  V30 2534 O 239.644 -1.65955 -0.697061 0
M  V30 2535 H 236.019 -0.751647 -0.0230481 0
M  V30 2536 H 237.99 -2.88421 0.765243 0
M  V30 2537 C 236.739 -3.34479 -0.949702 0
M  V30 2538 H 236.062 -3.98158 -0.361938 0
M  V30 2539 H 237.502 -4.00199 -1.4006 0
M  V30 2540 C 235.961 -2.66838 -2.05667 0
M  V30 2541 O 236.491 -2.50124 -3.14326 0
M  V30 2542 N 234.697 -2.25843 -1.82875 0
M  V30 2543 H 234.244 -2.39637 -0.945085 0
M  V30 2544 H 234.202 -1.80918 -2.5713 0
M  V30 2545 N 237.974 -0.419461 -1.51915 0
M  V30 2546 C 238.884 0.407528 -2.31033 0
M  V30 2547 C 239.9 1.04413 -1.3919 0
M  V30 2548 O 241.076 1.0434 -1.72265 0
M  V30 2549 C 238.141 1.50365 -3.12396 0
M  V30 2550 C 237.202 0.889029 -4.19994 0
M  V30 2551 C 236.435 1.93291 -4.97468 0
M  V30 2552 O 236.658 3.15259 -4.75361 0
M  V30 2553 O 235.592 1.53339 -5.8204 0
M  V30 2554 H 239.418 -0.237865 -3.02767 0
M  V30 2555 H 237.003 -0.182413 -1.48282 0
M  V30 2556 H 238.885 2.13975 -3.63032 0
M  V30 2557 H 237.56 2.13345 -2.43445 0
M  V30 2558 H 236.467 0.215353 -3.7348 0
M  V30 2559 H 237.8 0.302991 -4.91267 0
M  V30 2560 N 239.452 1.56882 -0.150215 0
M  V30 2561 C 240.382 2.19935 0.784284 0
M  V30 2562 C 241.363 1.14854 1.25469 0
M  V30 2563 O 242.548 1.43209 1.31168 0
M  V30 2564 C 239.678 2.82349 2.02229 0
M  V30 2565 C 238.632 3.93285 1.68853 0
M  V30 2566 C 237.958 4.42649 2.99944 0
M  V30 2567 C 239.258 5.13904 0.932714 0
M  V30 2568 H 240.952 2.9828 0.258781 0
M  V30 2569 H 238.498 1.43473 0.123029 0
M  V30 2570 H 240.451 3.25126 2.68088 0
M  V30 2571 H 239.175 2.0134 2.57157 0
M  V30 2572 H 237.834 3.5113 1.05371 0
M  V30 2573 H 237.482 3.58458 3.52869 0
M  V30 2574 H 237.182 5.17476 2.78374 0
M  V30 2575 H 238.706 4.88099 3.66868 0
M  V30 2576 H 240.12 5.53506 1.49345 0
M  V30 2577 H 238.517 5.94515 0.81684 0
M  V30 2578 H 239.587 4.84842 -0.0749568 0
M  V30 2579 N 240.93 -0.123565 1.57115 0
M  V30 2580 C 242.178 -0.83051 1.84247 0
M  V30 2581 C 242.499 -1.80629 0.73471 0
M  V30 2582 O 241.769 -1.94403 -0.241688 0
M  V30 2583 H 240.349 -0.309694 0.679778 0
M  V30 2584 H 243.011 -0.111976 1.94578 0
M  V30 2585 H 242.107 -1.37852 2.80006 0
M  V30 2586 N 242.408 -1.52605 -0.393616 0
M  V30 2587 C 243.654 -1.67672 -1.14079 0
M  V30 2588 C 243.987 -0.413121 -1.89755 0
M  V30 2589 O 243.262 0.588952 -1.85369 0
M  V30 2590 C 243.545 -2.9088 -2.12276 0
M  V30 2591 C 243.398 -4.27329 -1.40394 0
M  V30 2592 C 244.717 -3.09628 -3.12759 0
M  V30 2593 H 241.836 -0.610168 -0.413356 0
M  V30 2594 H 244.478 -1.85193 -0.424696 0
M  V30 2595 H 242.628 -2.76073 -2.73342 0
M  V30 2596 H 244.3 -4.53894 -0.82327 0
M  V30 2597 H 242.543 -4.2802 -0.705801 0
M  V30 2598 H 243.214 -5.09615 -2.12123 0
M  V30 2599 H 245.69 -3.23436 -2.61779 0
M  V30 2600 H 244.566 -3.97322 -3.78717 0
M  V30 2601 H 244.827 -2.23637 -3.81365 0
M  V30 2602 N 243.887 0.651787 -1.4349 0
M  V30 2603 C 245.298 1.233 -1.40193 0
M  V30 2604 C 245.649 1.9591 -0.106727 0
M  V30 2605 O 244.774 2.01316 0.793773 0
M  V30 2606 C 245.369 2.24257 -2.53957 0
M  V30 2607 C 243.928 2.77852 -2.5392 0
M  V30 2608 C 243.075 1.52517 -2.3159 0
M  V30 2609 H 246.026 0.443717 -1.52371 0
M  V30 2610 H 246.047 3.0646 -2.25528 0
M  V30 2611 H 245.559 1.71382 -3.4821 0
M  V30 2612 H 243.66 3.34786 -1.63551 0
M  V30 2613 H 243.773 3.25299 -3.51735 0
M  V30 2614 H 242.137 1.79915 -1.80285 0
M  V30 2615 H 242.92 1.01574 -3.27929 0
M  V30 2616 N 245.365 1.30045 0.890287 0
M  V30 2617 C 246.612 1.18561 1.64163 0
M  V30 2618 C 246.94 -0.260852 1.92743 0
M  V30 2619 O 246.195 -1.20376 1.54299 0
M  V30 2620 C 246.494 1.95409 2.99249 0
M  V30 2621 C 246.16 3.45066 2.90242 0
M  V30 2622 C 244.822 3.85878 2.87492 0
M  V30 2623 C 247.174 4.4039 2.78758 0
M  V30 2624 C 244.502 5.20314 2.7109 0
M  V30 2625 C 246.854 5.74928 2.63894 0
M  V30 2626 C 245.518 6.14986 2.59516 0
M  V30 2627 H 244.788 0.433846 0.600715 0
M  V30 2628 H 247.435 1.61088 1.03552 0
M  V30 2629 H 245.74 1.45501 3.63781 0
M  V30 2630 H 247.437 1.8392 3.56334 0
M  V30 2631 H 244.027 3.12631 2.93189 0
M  V30 2632 H 248.211 4.09806 2.79952 0
M  V30 2633 H 243.467 5.50449 2.66112 0
M  V30 2634 H 247.641 6.48434 2.53981 0
M  V30 2635 H 245.268 7.19104 2.46565 0
M  V30 2636 N 246.843 -1.10192 1.12674 0
M  V30 2637 C 247.793 -2.14754 0.765801 0
M  V30 2638 C 248.777 -1.59154 -0.236409 0
M  V30 2639 O 249.969 -1.76951 -0.0415261 0
M  V30 2640 C 247.098 -3.42563 0.224827 0
M  V30 2641 C 246.184 -4.05091 1.25548 0
M  V30 2642 N 246.575 -4.42287 2.4539 0
M  V30 2643 C 244.873 -4.32186 1.10142 0
M  V30 2644 C 245.574 -4.91441 3.11224 0
M  V30 2645 N 244.55 -4.88405 2.38666 0
M  V30 2646 H 248.352 -2.41309 1.67772 0
M  V30 2647 H 245.866 -1.27339 1.00789 0
M  V30 2648 H 247.863 -4.16868 -0.0519578 0
M  V30 2649 H 246.523 -3.17467 -0.681515 0
M  V30 2650 H 247.534 -4.33902 2.82754 0
M  V30 2651 H 244.211 -4.16735 0.252587 0
M  V30 2652 H 245.601 -5.29749 4.13298 0
M  V30 2653 N 248.321 -0.919034 -1.28029 0
M  V30 2654 C 249.251 -0.428581 -2.29533 0
M  V30 2655 C 250.232 0.50659 -1.62381 0
M  V30 2656 O 251.417 0.413195 -1.89753 0
M  V30 2657 C 248.547 0.327388 -3.45753 0
M  V30 2658 C 247.501 -0.519137 -4.2484 0
M  V30 2659 C 246.827 0.365486 -5.33449 0
M  V30 2660 C 248.127 -1.77914 -4.91064 0
M  V30 2661 H 249.821 -1.27687 -2.70807 0
M  V30 2662 H 247.367 -0.615428 -1.30186 0
M  V30 2663 H 249.32 0.681378 -4.15855 0
M  V30 2664 H 248.044 1.20963 -3.03374 0
M  V30 2665 H 246.703 -0.855717 -3.56473 0
M  V30 2666 H 246.351 1.24642 -4.87312 0
M  V30 2667 H 246.051 -0.197356 -5.87268 0
M  V30 2668 H 247.575 0.715241 -6.06396 0
M  V30 2669 H 248.989 -1.49374 -5.53498 0
M  V30 2670 H 247.386 -2.2848 -5.54903 0
M  V30 2671 H 248.456 -2.50382 -4.15255 0
M  V30 2672 N 249.799 1.42003 -0.683588 0
M  V30 2673 C 251.047 2.01015 -0.209101 0
M  V30 2674 C 251.368 1.54365 1.19149 0
M  V30 2675 O 250.638 0.769083 1.80172 0
M  V30 2676 H 249.218 0.743294 -0.074315 0
M  V30 2677 H 251.88 1.73798 -0.882066 0
M  V30 2678 H 250.976 3.11343 -0.2172 0
M  V30 2679 N 251.277 0.427512 1.51691 0
M  V30 2680 C 252.505 -0.141191 2.06418 0
M  V30 2681 C 252.92 -1.37303 1.29589 0
M  V30 2682 O 252.277 -1.79059 0.352732 0
M  V30 2683 C 252.328 -0.473266 3.58389 0
M  V30 2684 O 252.049 0.709673 4.32314 0
M  V30 2685 C 253.55 -1.09371 4.29596 0
M  V30 2686 H 250.77 -0.0122747 0.670888 0
M  V30 2687 H 253.314 0.603764 1.95384 0
M  V30 2688 H 251.469 -1.16812 3.69369 0
M  V30 2689 H 251.883 0.42807 5.2275 0
M  V30 2690 H 253.357 -1.27613 5.37046 0
M  V30 2691 H 253.834 -2.072 3.87253 0
M  V30 2692 H 254.44 -0.43853 4.23033 0
M  V30 2693 N 252.755 -1.56801 0.158532 0
M  V30 2694 C 254.171 -1.5837 -0.197774 0
M  V30 2695 C 254.371 -1.17334 -1.63814 0
M  V30 2696 O 253.427 -0.878988 -2.36707 0
M  V30 2697 C 254.74 -3.00615 0.0714459 0
M  V30 2698 C 256.288 -3.12999 0.00864533 0
M  V30 2699 C 256.763 -4.57313 0.250685 0
M  V30 2700 N 258.254 -4.62777 0.198014 0
M  V30 2701 C 258.989 -5.72271 0.359642 0
M  V30 2702 N 258.485 -6.90371 0.579625 0
M  V30 2703 N 260.278 -5.61318 0.296438 0
M  V30 2704 H 252.429 -1.81765 1.09887 0
M  V30 2705 H 254.692 -0.841849 0.435884 0
M  V30 2706 H 254.398 -3.35068 1.06874 0
M  V30 2707 H 254.272 -3.71683 -0.642757 0
M  V30 2708 H 256.659 -2.7838 -0.979217 0
M  V30 2709 H 256.74 -2.44393 0.755359 0
M  V30 2710 H 256.384 -4.92639 1.2357 0
M  V30 2711 H 256.314 -5.24061 -0.516489 0
M  V30 2712 H 258.805 -3.77885 0.0331115 0
M  V30 2713 H 259.118 -7.69689 0.69275 0
M  V30 2714 H 257.463 -6.92264 0.616087 0
M  V30 2715 H 260.654 -4.67932 0.125258 0
M  V30 2716 H 260.827 -6.46599 0.425831 0
M  V30 2717 N 254.233 0.115231 -1.57178 0
M  V30 2718 C 255.165 1.16694 -1.97269 0
M  V30 2719 C 256.178 1.37445 -0.872502 0
M  V30 2720 O 257.367 1.36454 -1.15077 0
M  V30 2721 C 254.467 2.52627 -2.25905 0
M  V30 2722 C 253.64 2.52427 -3.57211 0
M  V30 2723 C 252.699 3.70134 -3.74016 0
M  V30 2724 O 251.725 3.53546 -4.46087 0
M  V30 2725 N 252.927 4.88844 -3.13068 0
M  V30 2726 H 255.692 0.82588 -2.88096 0
M  V30 2727 H 253.253 0.304461 -1.59011 0
M  V30 2728 H 255.245 3.29937 -2.34359 0
M  V30 2729 H 253.815 2.789 -1.41186 0
M  V30 2730 H 253.035 1.60805 -3.5991 0
M  V30 2731 H 254.323 2.49353 -4.43509 0
M  V30 2732 H 253.721 5.05225 -2.54489 0
M  V30 2733 H 252.278 5.63817 -3.27037 0
M  V30 2734 N 255.711 1.52812 0.385517 0
M  V30 2735 C 256.957 1.68275 1.13188 0
M  V30 2736 C 257.29 0.423179 1.89533 0
M  V30 2737 O 256.565 -0.579113 1.85679 0
M  V30 2738 C 256.848 2.92001 2.1073 0
M  V30 2739 C 256.701 4.28067 1.38125 0
M  V30 2740 C 258.02 3.11283 3.11113 0
M  V30 2741 H 255.139 0.612352 0.410115 0
M  V30 2742 H 257.781 1.85415 0.414869 0
M  V30 2743 H 255.931 2.77519 2.71874 0
M  V30 2744 H 257.603 4.54324 0.799187 0
M  V30 2745 H 255.846 4.28388 0.683092 0
M  V30 2746 H 256.517 5.10733 2.09417 0
M  V30 2747 H 258.993 3.2482 2.6006 0
M  V30 2748 H 257.869 3.99325 3.76605 0
M  V30 2749 H 258.13 2.25656 3.80173 0
M  V30 2750 N 257.189 -0.644168 1.43834 0
M  V30 2751 C 258.429 -1.41565 1.47441 0
M  V30 2752 C 258.793 -1.91743 0.0992723 0
M  V30 2753 O 259.994 -2.68798 0.0100192 0
M  V30 2754 C 258.265 -2.55902 2.49498 0
M  V30 2755 S 259.824 -3.44287 2.72051 0
M  V30 2756 H 256.642 -0.483118 0.521649 0
M  V30 2757 H 259.244 -0.747008 1.80666 0
M  V30 2758 H 257.948 -2.17327 3.48134 0
M  V30 2759 H 257.479 -3.27607 2.17801 0
M  V30 2760 H 259.494 -4.52927 2.0266 0
M  V30 2761 N 258.668 -1.30515 -0.883378 0
M  V30 2762 C 259.917 -1.18795 -1.63005 0
M  V30 2763 C 260.23 0.255923 -1.93919 0
M  V30 2764 O 261.436 0.494654 -2.66956 0
M  V30 2765 C 259.892 -2.07878 -2.93794 0
M  V30 2766 C 259.5 -3.57184 -2.70414 0
M  V30 2767 C 261.244 -2.04924 -3.71761 0
M  V30 2768 C 259.151 -4.38317 -3.97029 0
M  V30 2769 H 258.081 -0.441031 -0.611562 0
M  V30 2770 H 260.732 -1.55275 -0.977854 0
M  V30 2771 H 259.114 -1.64283 -3.60315 0
M  V30 2772 H 260.288 -4.08937 -2.12384 0
M  V30 2773 H 258.603 -3.61976 -2.0582 0
M  V30 2774 H 261.2 -2.62792 -4.65665 0
M  V30 2775 H 261.543 -1.0331 -4.03277 0
M  V30 2776 H 262.076 -2.46649 -3.12104 0
M  V30 2777 H 258.815 -5.40632 -3.70671 0
M  V30 2778 H 258.335 -3.91326 -4.54559 0
M  V30 2779 H 260.014 -4.49834 -4.65036 0
M  V30 2780 N 260.146 1.09593 -1.13257 0
M  V30 2781 C 261.109 2.14359 -0.811358 0
M  V30 2782 C 262.109 1.59808 0.178377 0
M  V30 2783 O 263.299 1.74132 -0.0484911 0
M  V30 2784 C 260.431 3.40269 -0.207276 0
M  V30 2785 H 261.624 2.44284 -1.73969 0
M  V30 2786 H 259.177 1.25102 -0.936973 0
M  V30 2787 H 259.912 3.15969 0.73036 0
M  V30 2788 H 259.697 3.81154 -0.919992 0
M  V30 2789 H 261.187 4.176 0.000667944 0
M  V30 2790 N 261.624 0.925811 1.2754 0
M  V30 2791 C 262.87 0.575575 1.95086 0
M  V30 2792 C 263.225 -0.873246 1.71441 0
M  V30 2793 O 262.518 -1.61443 1.03183 0
M  V30 2794 C 262.712 0.835296 3.47502 0
M  V30 2795 C 262.541 2.30781 3.85967 0
M  V30 2796 C 261.311 2.96017 4.09514 0
M  V30 2797 C 263.509 3.28519 3.95702 0
M  V30 2798 N 261.491 4.3344 4.34744 0
M  V30 2799 C 262.862 4.51146 4.25285 0
M  V30 2800 C 264.917 3.23753 3.7827 0
M  V30 2801 C 263.62 5.69606 4.39251 0
M  V30 2802 C 265.646 4.41523 3.9346 0
M  V30 2803 C 265.008 5.62928 4.23428 0
M  V30 2804 H 261.107 0.260711 0.737261 0
M  V30 2805 H 263.691 1.19204 1.53943 0
M  V30 2806 H 261.862 0.248005 3.87607 0
M  V30 2807 H 263.594 0.447878 4.02214 0
M  V30 2808 H 260.349 2.46695 4.04275 0
M  V30 2809 H 260.773 5.04528 4.5142 0
M  V30 2810 H 265.415 2.3096 3.54143 0
M  V30 2811 H 263.133 6.62866 4.62205 0
M  V30 2812 H 266.719 4.39351 3.81394 0
M  V30 2813 H 265.599 6.52538 4.34929 0
M  V30 2814 N 263.102 -1.41638 0.69111 0
M  V30 2815 C 264.327 -2.06148 0.227583 0
M  V30 2816 C 264.752 -1.51652 -1.11281 0
M  V30 2817 O 264.11 -0.64164 -1.69566 0
M  V30 2818 C 264.158 -3.60095 0.190858 0
M  V30 2819 O 263.262 -4.03845 -0.835664 0
M  V30 2820 H 262.603 -0.654434 0.112306 0
M  V30 2821 H 265.133 -1.81484 0.944714 0
M  V30 2822 H 265.143 -4.07995 0.020207 0
M  V30 2823 H 263.818 -3.99129 1.16915 0
M  V30 2824 H 262.395 -3.67458 -0.63473 0
M  V30 2825 N 264.58 -0.43555 -1.51462 0
M  V30 2826 C 265.805 0.132627 -2.06976 0
M  V30 2827 C 266.23 1.35848 -1.30104 0
M  V30 2828 O 265.588 1.78112 -0.338493 0
M  V30 2829 C 265.636 0.43523 -3.57964 0
M  V30 2830 O 264.74 1.52198 -3.83288 0
M  V30 2831 H 264.081 0.00265 -0.663995 0
M  V30 2832 H 266.611 -0.616369 -1.95095 0
M  V30 2833 H 266.621 0.686206 -4.02188 0
M  V30 2834 H 265.296 -0.460739 -4.1334 0
M  V30 2835 H 263.873 1.2611 -3.50928 0
M  V30 2836 N 266.058 1.56714 -0.166846 0
M  V30 2837 C 267.283 2.01557 0.488833 0
M  V30 2838 C 267.708 1.0463 1.56314 0
M  V30 2839 O 267.066 0.0251304 1.81283 0
M  V30 2840 C 267.114 3.4503 1.04818 0
M  V30 2841 O 266.218 3.51163 2.16236 0
M  V30 2842 H 265.559 0.653516 0.117526 0
M  V30 2843 H 268.089 2.02818 -0.269421 0
M  V30 2844 H 268.099 3.84243 1.37191 0
M  V30 2845 H 266.774 4.15077 0.261572 0
M  V30 2846 H 265.351 3.23807 1.84942 0
M  V30 2847 N 267.536 -0.106894 1.57237 0
M  V30 2848 C 268.761 -0.830287 1.90055 0
M  V30 2849 C 269.186 -1.72064 0.75998 0
M  V30 2850 O 268.544 -1.78982 -0.288991 0
M  V30 2851 C 268.592 -1.6295 3.21683 0
M  V30 2852 O 267.696 -2.73748 3.08441 0
M  V30 2853 H 267.037 -0.228855 0.623315 0
M  V30 2854 H 269.567 -0.085658 2.04421 0
M  V30 2855 H 269.577 -2.01621 3.54701 0
M  V30 2856 H 268.252 -0.975989 4.04286 0
M  V30 2857 H 266.829 -2.38192 2.86913 0
M  V30 2858 N 269.014 -1.53014 -0.377408 0
M  V30 2859 C 270.254 -1.70318 -1.1301 0
M  V30 2860 C 270.618 -0.439538 -1.86901 0
M  V30 2861 O 271.819 -0.489095 -2.64313 0
M  V30 2862 C 270.09 -2.91125 -2.07319 0
M  V30 2863 S 271.649 -3.29075 -2.90268 0
M  V30 2864 H 268.467 -0.599426 -0.382374 0
M  V30 2865 H 271.069 -1.91089 -0.412933 0
M  V30 2866 H 269.773 -3.81303 -1.51777 0
M  V30 2867 H 269.304 -2.7272 -2.83526 0
M  V30 2868 H 271.319 -2.80165 -4.09539 0
M  V30 2869 N 270.492 0.636531 -1.44174 0
M  V30 2870 C 271.442 1.74233 -1.47061 0
M  V30 2871 C 272.426 1.57331 -0.337034 0
M  V30 2872 O 273.618 1.67159 -0.581973 0
M  V30 2873 C 270.747 3.12897 -1.41246 0
M  V30 2874 C 269.833 3.35288 -2.59698 0
M  V30 2875 N 270.224 3.2807 -3.84972 0
M  V30 2876 C 268.522 3.66065 -2.54778 0
M  V30 2877 C 269.223 3.51001 -4.63867 0
M  V30 2878 N 268.199 3.73616 -3.94857 0
M  V30 2879 H 272.001 1.67103 -2.41773 0
M  V30 2880 H 269.515 0.838806 -1.3906 0
M  V30 2881 H 271.512 3.92189 -1.41398 0
M  V30 2882 H 270.172 3.21197 -0.47569 0
M  V30 2883 H 271.183 3.07109 -4.17019 0
M  V30 2884 H 267.86 3.81379 -1.6987 0
M  V30 2885 H 269.25 3.51059 -5.72894 0
M  V30 2886 N 271.97 1.30982 0.876444 0
M  V30 2887 C 273.247 1.10942 1.61094 0
M  V30 2888 C 273.627 -0.338223 2.08373 0
M  V30 2889 O 272.975 -1.33122 1.85717 0
M  V30 2890 C 273.185 2.11789 2.77392 0
M  V30 2891 C 274.533 2.43965 3.47514 0
M  V30 2892 O 275.557 2.10166 2.87591 0
M  V30 2893 O 274.416 3.01817 4.55597 0
M  V30 2894 H 271.51 0.42667 0.708436 0
M  V30 2895 H 274.056 1.42438 0.922474 0
M  V30 2896 H 272.828 3.09194 2.39823 0
M  V30 2897 H 272.451 1.81161 3.5393 0
M  V30 2898 N 273.449 -1.08991 1.13837 0
M  V30 2899 C 274.697 -1.80899 0.901098 0
M  V30 2900 C 275.018 -1.86356 -0.574134 0
M  V30 2901 O 274.288 -1.35235 -1.41733 0
M  V30 2902 H 272.868 -0.669966 0.330386 0
M  V30 2903 H 275.53 -1.318 1.43578 0
M  V30 2904 H 274.626 -2.83929 1.29578 0
M  V30 2905 N 274.927 -0.932562 -1.27047 0
M  V30 2906 C 275.874 -0.434072 -2.26681 0
M  V30 2907 C 276.844 0.501639 -1.58344 0
M  V30 2908 O 278.029 0.419734 -1.86126 0
M  V30 2909 C 275.169 0.30261 -3.43771 0
M  V30 2910 C 274.282 -0.667774 -4.26808 0
M  V30 2911 C 273.417 0.0892393 -5.31125 0
M  V30 2912 C 272.456 -0.873532 -6.05835 0
M  V30 2913 N 271.593 -0.148832 -7.01942 0
M  V30 2914 H 276.433 -1.28868 -2.68695 0
M  V30 2915 H 273.97 -0.646713 -1.32121 0
M  V30 2916 H 275.928 0.746092 -4.10474 0
M  V30 2917 H 274.558 1.12142 -3.02695 0
M  V30 2918 H 273.61 -1.22978 -3.59973 0
M  V30 2919 H 274.922 -1.40337 -4.78651 0
M  V30 2920 H 274.076 0.592409 -6.03801 0
M  V30 2921 H 272.815 0.85777 -4.80097 0
M  V30 2922 H 271.82 -1.38791 -5.31994 0
M  V30 2923 H 273.045 -1.64193 -6.58952 0
M  V30 2924 H 270.991 0.601365 -6.53238 0
M  V30 2925 H 270.908 -0.82391 -7.51497 0
M  V30 2926 H 272.176 0.333527 -7.78786 0
M  V30 2927 N 276.405 1.4127 -0.698611 0
M  V30 2928 C 277.368 2.29158 -0.044132 0
M  V30 2929 C 278.368 1.44529 0.704841 0
M  V30 2930 O 279.558 1.65643 0.539276 0
M  V30 2931 C 276.69 3.27459 0.947809 0
M  V30 2932 H 277.883 2.88529 -0.817994 0
M  V30 2933 H 275.436 1.49307 -0.46228 0
M  V30 2934 H 276.171 2.73073 1.74933 0
M  V30 2935 H 275.956 3.8991 0.41385 0
M  V30 2936 H 277.446 3.93311 1.40344 0
M  V30 2937 N 277.883 0.443576 1.51229 0
M  V30 2938 C 279.129 -0.11321 2.03085 0
M  V30 2939 C 279.484 -1.39841 1.32145 0
M  V30 2940 O 278.777 -1.86723 0.429542 0
M  V30 2941 C 278.971 -0.380579 3.55368 0
M  V30 2942 C 278.8 0.877157 4.41062 0
M  V30 2943 C 277.57 1.4125 4.85156 0
M  V30 2944 C 279.768 1.76503 4.83064 0
M  V30 2945 N 277.75 2.62213 5.55083 0
M  V30 2946 C 279.121 2.82067 5.52122 0
M  V30 2947 C 281.176 1.7787 4.65045 0
M  V30 2948 C 279.879 3.88952 6.05069 0
M  V30 2949 C 281.905 2.83694 5.18914 0
M  V30 2950 C 281.267 3.87978 5.87922 0
M  V30 2951 H 277.366 -0.00210178 0.781997 0
M  V30 2952 H 279.95 0.605641 1.85041 0
M  V30 2953 H 278.121 -1.06847 3.73414 0
M  V30 2954 H 279.853 -0.929274 3.93887 0
M  V30 2955 H 276.608 0.965542 4.63653 0
M  V30 2956 H 277.032 3.23568 5.9467 0
M  V30 2957 H 281.674 0.985744 4.11148 0
M  V30 2958 H 279.392 4.69082 6.58018 0
M  V30 2959 H 282.978 2.85702 5.06819 0
M  V30 2960 H 281.858 4.68517 6.28857 0
M  V30 2961 N 279.361 -1.56624 0.175154 0
M  V30 2962 C 280.291 -2.21155 -0.749195 0
M  V30 2963 C 281.272 -1.16836 -1.23626 0
M  V30 2964 O 282.457 -1.45277 -1.28873 0
M  V30 2965 C 279.587 -2.8553 -1.97711 0
M  V30 2966 C 278.541 -3.95921 -1.62575 0
M  V30 2967 C 277.867 -4.47365 -2.92864 0
M  V30 2968 C 279.167 -5.15323 -0.850838 0
M  V30 2969 H 280.861 -2.98653 -0.211295 0
M  V30 2970 H 278.407 -1.43651 -0.100188 0
M  V30 2971 H 280.36 -3.2935 -2.62881 0
M  V30 2972 H 279.084 -2.05406 -2.53921 0
M  V30 2973 H 277.743 -3.52762 -0.997719 0
M  V30 2974 H 277.391 -3.64027 -3.47122 0
M  V30 2975 H 277.091 -5.21839 -2.70106 0
M  V30 2976 H 278.615 -4.93873 -3.59056 0
M  V30 2977 H 280.029 -5.55812 -1.40521 0
M  V30 2978 H 278.426 -5.95739 -0.722154 0
M  V30 2979 H 279.496 -4.84661 0.152082 0
M  V30 2980 N 280.839 0.0985539 -1.57292 0
M  V30 2981 C 281.789 1.1261 -1.9825 0
M  V30 2982 C 282.773 1.35961 -0.860426 0
M  V30 2983 O 283.965 1.36711 -1.12424 0
M  V30 2984 C 281.094 2.44727 -2.40757 0
M  V30 2985 C 280.18 2.24764 -3.59642 0
M  V30 2986 N 280.571 1.74661 -4.74687 0
M  V30 2987 C 278.869 2.55344 -3.65672 0
M  V30 2988 C 279.57 1.68887 -5.56644 0
M  V30 2989 N 278.546 2.13976 -4.99715 0
M  V30 2990 H 282.348 0.731604 -2.84648 0
M  V30 2991 H 279.862 0.306029 -1.59491 0
M  V30 2992 H 281.859 3.19072 -2.68326 0
M  V30 2993 H 280.519 2.84917 -1.55733 0
M  V30 2994 H 281.53 1.43908 -4.97505 0
M  V30 2995 H 278.207 2.99081 -2.91302 0
M  V30 2996 H 279.597 1.3123 -6.5896 0
M  V30 2997 N 282.317 1.53212 0.369288 0
M  V30 2998 C 283.563 1.69466 1.11397 0
M  V30 2999 C 283.896 0.443257 1.89074 0
M  V30 3000 O 283.171 -0.559386 1.86282 0
M  V30 3001 C 283.454 2.9422 2.07621 0
M  V30 3002 C 283.307 4.29508 1.33577 0
M  V30 3003 C 284.626 3.14565 3.07794 0
M  V30 3004 H 281.745 0.616667 0.403597 0
M  V30 3005 H 284.387 1.85845 0.395179 0
M  V30 3006 H 282.537 2.80387 2.68916 0
M  V30 3007 H 284.209 4.55147 0.750955 0
M  V30 3008 H 282.452 4.29088 0.637618 0
M  V30 3009 H 283.123 5.12926 2.03989 0
M  V30 3010 H 285.599 3.2756 2.56601 0
M  V30 3011 H 284.475 4.03297 3.72348 0
M  V30 3012 H 284.736 2.29675 3.77759 0
M  V30 3013 N 283.795 -0.628877 1.44509 0
M  V30 3014 C 285.035 -1.39993 1.48934 0
M  V30 3015 C 285.399 -1.91627 0.119604 0
M  V30 3016 O 286.6 -2.68772 0.0385283 0
M  V30 3017 C 284.871 -2.53241 2.52198 0
M  V30 3018 S 286.43 -3.41383 2.75687 0
M  V30 3019 H 283.248 -0.477558 0.526744 0
M  V30 3020 H 285.85 -0.727804 1.81448 0
M  V30 3021 H 284.554 -2.13622 3.50419 0
M  V30 3022 H 284.085 -3.25278 2.21264 0
M  V30 3023 H 286.1 -4.50752 2.07453 0
M  V30 3024 N 285.273 -1.31445 -0.869486 0
M  V30 3025 C 286.522 -1.20517 -1.61736 0
M  V30 3026 C 286.835 0.235341 -1.94179 0
M  V30 3027 O 288.041 0.466312 -2.67465 0
M  V30 3028 C 286.497 -2.10982 -2.91573 0
M  V30 3029 C 286.105 -3.60032 -2.66611 0
M  V30 3030 C 287.849 -2.08856 -3.69567 0
M  V30 3031 C 285.756 -4.42503 -3.92358 0
M  V30 3032 H 284.686 -0.447493 -0.606849 0
M  V30 3033 H 287.337 -1.56303 -0.96133 0
M  V30 3034 H 285.719 -1.68095 -3.58553 0
M  V30 3035 H 286.893 -4.11167 -2.08035 0
M  V30 3036 H 285.208 -3.64139 -2.0197 0
M  V30 3037 H 287.805 -2.67716 -4.62852 0
M  V30 3038 H 288.148 -1.07582 -4.02159 0
M  V30 3039 H 288.681 -2.49945 -3.09471 0
M  V30 3040 H 285.42 -5.44533 -3.64916 0
M  V30 3041 H 284.94 -3.96125 -4.50383 0
M  V30 3042 H 286.619 -4.54741 -4.60238 0
M  V30 3043 N 286.751 1.08385 -1.14413 0
M  V30 3044 C 287.979 1.84517 -0.936001 0
M  V30 3045 C 288.394 1.81626 0.515503 0
M  V30 3046 O 287.751 1.22008 1.35721 0
M  V30 3047 C 287.802 3.32049 -1.42918 0
M  V30 3048 O 287.523 3.34951 -2.82381 0
M  V30 3049 C 289.024 4.24986 -1.26103 0
M  V30 3050 H 286.244 0.582491 -0.333084 0
M  V30 3051 H 288.788 1.36885 -1.5193 0
M  V30 3052 H 286.943 3.7707 -0.888641 0
M  V30 3053 H 287.357 4.27048 -3.04517 0
M  V30 3054 H 288.831 5.26615 -1.6547 0
M  V30 3055 H 289.308 4.38726 -0.20392 0
M  V30 3056 H 289.914 3.85791 -1.79012 0
M  V30 3057 N 288.23 0.939286 1.26551 0
M  V30 3058 C 289.478 0.58469 1.93457 0
M  V30 3059 C 289.799 -0.878774 1.74076 0
M  V30 3060 O 289.069 -1.62421 1.09528 0
M  V30 3061 H 287.649 0.21325 0.715914 0
M  V30 3062 H 290.311 1.1942 1.54029 0
M  V30 3063 H 289.407 0.800849 3.0165 0
M  V30 3064 N 289.708 -1.40897 0.706093 0
M  V30 3065 C 290.985 -1.94868 0.169099 0
M  V30 3066 C 291.365 -1.64485 -1.32318 0
M  V30 3067 O 290.713 -0.95744 -2.07474 0
M  V30 3068 C 290.923 -3.45798 0.471654 0
M  V30 3069 C 292.271 -4.22663 0.405127 0
M  V30 3070 O 293.295 -3.53865 0.407168 0
M  V30 3071 O 292.154 -5.45216 0.374383 0
M  V30 3072 H 289.248 -0.82673 0.0211352 0
M  V30 3073 H 291.794 -1.50558 0.782976 0
M  V30 3074 H 290.566 -3.61235 1.50416 0
M  V30 3075 H 290.189 -3.97225 -0.172666 0
M  V30 3076 N 291.186 -0.45159 -1.50991 0
M  V30 3077 C 292.463 0.170707 -1.94854 0
M  V30 3078 C 292.843 1.58788 -1.39103 0
M  V30 3079 O 292.191 2.20913 -0.583921 0
M  V30 3080 C 292.401 0.133929 -3.48743 0
M  V30 3081 C 293.749 0.33248 -4.23296 0
M  V30 3082 O 294.773 0.211403 -3.55572 0
M  V30 3083 O 293.632 0.57486 -5.43468 0
M  V30 3084 H 290.726 0.122264 -0.817912 0
M  V30 3085 H 293.272 -0.510594 -1.61836 0
M  V30 3086 H 292.044 -0.856283 -3.81816 0
M  V30 3087 H 291.667 0.857529 -3.88242 0
M  V30 3088 N 292.664 1.56529 -0.183458 0
M  V30 3089 C 293.611 2.18546 0.742055 0
M  V30 3090 C 294.581 1.12912 1.2182 0
M  V30 3091 O 295.766 1.41115 1.28418 0
M  V30 3092 C 292.906 2.83977 1.96089 0
M  V30 3093 C 292.019 4.04105 1.52719 0
M  V30 3094 C 291.154 4.57427 2.70063 0
M  V30 3095 C 290.193 5.69938 2.23243 0
M  V30 3096 N 289.33 6.17717 3.33722 0
M  V30 3097 H 294.17 2.97284 0.206432 0
M  V30 3098 H 291.707 1.46823 0.0901571 0
M  V30 3099 H 293.665 3.20077 2.67594 0
M  V30 3100 H 292.295 2.07822 2.47002 0
M  V30 3101 H 291.347 3.73745 0.708436 0
M  V30 3102 H 292.659 4.85513 1.1436 0
M  V30 3103 H 291.813 4.95772 3.49708 0
M  V30 3104 H 290.552 3.75101 3.11689 0
M  V30 3105 H 289.557 5.31133 1.42048 0
M  V30 3106 H 290.782 6.54073 1.82661 0
M  V30 3107 H 288.728 5.38317 3.74902 0
M  V30 3108 H 288.645 6.94146 2.99495 0
M  V30 3109 H 289.913 6.60713 4.13616 0
M  V30 3110 N 294.142 -0.090211 1.57342 0
M  V30 3111 C 295.09 -1.12792 2.03422 0
M  V30 3112 C 296.084 -1.41182 0.936166 0
M  V30 3113 O 297.29 -1.40805 1.12133 0
M  V30 3114 H 293.665 -0.380986 0.648347 0
M  V30 3115 H 295.636 -0.71299 2.89757 0
M  V30 3116 C 294.385 -2.43855 2.47851 0
M  V30 3117 H 293.708 -2.22855 3.31927 0
M  V30 3118 H 295.148 -3.14955 2.83865 0
M  V30 3119 C 293.607 -3.08503 1.3538 0
M  V30 3120 O 294.137 -3.95805 0.685641 0
M  V30 3121 N 292.343 -2.68831 1.10355 0
M  V30 3122 H 291.89 -1.97929 1.64869 0
M  V30 3123 H 291.848 -3.12412 0.353031 0
M  V30 3124 N 295.62 -1.53406 -0.361157 0
M  V30 3125 C 296.583 -1.79479 -1.42548 0
M  V30 3126 C 297.583 -0.665327 -1.4639 0
M  V30 3127 O 298.773 -0.933549 -1.47073 0
M  V30 3128 C 295.905 -1.92087 -2.8163 0
M  V30 3129 H 297.098 -2.74538 -1.20701 0
M  V30 3130 H 294.651 -1.4455 -0.594546 0
M  V30 3131 H 295.386 -0.991099 -3.08784 0
M  V30 3132 H 295.171 -2.74241 -2.80239 0
M  V30 3133 H 296.661 -2.13836 -3.58697 0
M  V30 3134 N 297.098 0.621204 -1.44841 0
M  V30 3135 C 298.326 1.40752 -1.51646 0
M  V30 3136 C 298.741 1.88246 -0.144549 0
M  V30 3137 O 298.098 1.61422 0.851416 0
M  V30 3138 C 298.149 2.62119 -2.4895 0
M  V30 3139 O 297.87 2.16602 -3.80808 0
M  V30 3140 C 299.371 3.55135 -2.65319 0
M  V30 3141 H 296.591 0.431325 -0.514004 0
M  V30 3142 H 299.135 0.758835 -1.899 0
M  V30 3143 H 297.29 3.23058 -2.13805 0
M  V30 3144 H 297.704 2.95358 -4.33433 0
M  V30 3145 H 299.178 4.36874 -3.37409 0
M  V30 3146 H 299.655 4.04592 -1.70886 0
M  V30 3147 H 300.261 3.00058 -3.01405 0
M  V30 3148 N 298.576 1.31904 0.862503 0
M  V30 3149 C 299.539 1.20131 1.95195 0
M  V30 3150 C 300.539 0.126409 1.60302 0
M  V30 3151 O 301.729 0.376234 1.70089 0
M  V30 3152 C 298.861 0.845691 3.30244 0
M  V30 3153 H 300.054 2.16943 2.07064 0
M  V30 3154 H 297.607 1.15622 1.05172 0
M  V30 3155 H 298.342 -0.120957 3.24074 0
M  V30 3156 H 298.127 1.62276 3.56944 0
M  V30 3157 H 299.617 0.787418 4.10109 0
M  V30 3158 N 300.054 -1.07777 1.14986 0
M  V30 3159 C 301.279 -1.84558 0.946213 0
M  V30 3160 C 301.704 -1.81323 -0.500362 0
M  V30 3161 O 301.062 -1.20301 -1.35637 0
M  V30 3162 C 301.11 -3.29736 1.45968 0
M  V30 3163 O 300.214 -4.07149 0.65601 0
M  V30 3164 H 299.555 -0.571641 0.33782 0
M  V30 3165 H 302.085 -1.35991 1.52865 0
M  V30 3166 H 302.095 -3.80574 1.47063 0
M  V30 3167 H 300.77 -3.31406 2.51283 0
M  V30 3168 H 299.347 -3.65994 0.714322 0
M  V30 3169 N 301.532 -0.945985 -1.26051 0
M  V30 3170 C 302.779 -0.596118 -1.93527 0
M  V30 3171 C 303.107 0.865559 -1.74179 0
M  V30 3172 O 302.362 1.63524 -1.0751 0
M  V30 3173 C 302.661 -0.890475 -3.46129 0
M  V30 3174 C 302.327 -2.3368 -3.85622 0
M  V30 3175 C 300.989 -2.73216 -3.96114 0
M  V30 3176 C 303.341 -3.27648 -4.05334 0
M  V30 3177 C 300.669 -4.05806 -4.2372 0
M  V30 3178 C 303.021 -4.59841 -4.3443 0
M  V30 3179 C 301.685 -4.99185 -4.43137 0
M  V30 3180 H 300.955 -0.218135 -0.708165 0
M  V30 3181 H 303.602 -1.1934 -1.49768 0
M  V30 3182 H 301.907 -0.210711 -3.91233 0
M  V30 3183 H 303.604 -0.598478 -3.96509 0
M  V30 3184 H 300.194 -2.02015 -3.78005 0
M  V30 3185 H 304.378 -2.98298 -3.96651 0
M  V30 3186 H 299.634 -4.35945 -4.28675 0
M  V30 3187 H 303.808 -5.32641 -4.48628 0
M  V30 3188 H 301.435 -6.01952 -4.64282 0
M  V30 3189 N 303.011 1.40521 -0.713556 0
M  V30 3190 C 304.26 2.00155 -0.249192 0
M  V30 3191 C 304.573 1.57224 1.16362 0
M  V30 3192 O 305.779 2.09542 1.72639 0
M  V30 3193 C 304.235 3.5773 -0.3946 0
M  V30 3194 C 303.843 4.09635 -1.81392 0
M  V30 3195 C 305.587 4.24499 0.00907364 0
M  V30 3196 C 303.494 5.59707 -1.91003 0
M  V30 3197 H 302.424 0.74868 -0.0894114 0
M  V30 3198 H 305.075 1.60784 -0.884352 0
M  V30 3199 H 303.457 3.94792 0.30911 0
M  V30 3200 H 304.631 3.83955 -2.54785 0
M  V30 3201 H 302.946 3.55456 -2.16888 0
M  V30 3202 H 305.543 5.34683 -0.0420404 0
M  V30 3203 H 305.886 4.02824 1.05065 0
M  V30 3204 H 306.419 3.92536 -0.645007 0
M  V30 3205 H 303.158 5.86234 -2.93275 0
M  V30 3206 H 302.678 5.87258 -1.22019 0
M  V30 3207 H 304.357 6.24776 -1.6812 0
M  V30 3208 N 304.489 0.459591 1.5075 0
M  V30 3209 C 305.719 -0.0972338 2.06371 0
M  V30 3210 C 306.127 -1.35074 1.32483 0
M  V30 3211 O 305.47 -1.79637 0.384226 0
M  V30 3212 C 305.532 -0.462759 3.56509 0
M  V30 3213 C 305.196 0.687084 4.51805 0
M  V30 3214 C 306.193 1.56578 4.95761 0
M  V30 3215 C 303.878 0.874144 4.94635 0
M  V30 3216 C 305.872 2.61604 5.81242 0
M  V30 3217 C 303.559 1.92765 5.79901 0
M  V30 3218 C 304.557 2.79697 6.23104 0
M  V30 3219 O 304.245 3.83235 7.06673 0
M  V30 3220 H 303.977 -0.00140687 0.675999 0
M  V30 3221 H 306.531 0.644011 1.95043 0
M  V30 3222 H 304.761 -1.25703 3.65699 0
M  V30 3223 H 306.45 -0.953323 3.94546 0
M  V30 3224 H 307.216 1.4329 4.6335 0
M  V30 3225 H 303.095 0.207006 4.60535 0
M  V30 3226 H 306.639 3.29489 6.14884 0
M  V30 3227 H 302.536 2.06064 6.11725 0
M  V30 3228 H 303.304 3.80084 7.24899 0
M  V30 3229 N 305.967 -1.56429 0.191757 0
M  V30 3230 C 307.244 -1.89224 -0.495332 0
M  V30 3231 C 307.624 -1.10478 -1.79883 0
M  V30 3232 O 306.972 -0.204852 -2.2758 0
M  V30 3233 C 307.182 -3.41548 -0.717367 0
M  V30 3234 C 308.53 -4.11711 -1.03823 0
M  V30 3235 O 309.554 -3.4698 -0.805204 0
M  V30 3236 O 308.413 -5.2611 -1.47887 0
M  V30 3237 H 305.507 -0.785788 -0.25781 0
M  V30 3238 H 308.053 -1.68111 0.231721 0
M  V30 3239 H 306.825 -3.90772 0.203287 0
M  V30 3240 H 306.448 -3.68342 -1.497 0
M  V30 3241 N 307.445 0.0818655 -1.57387 0
M  V30 3242 C 308.693 0.781368 -1.86384 0
M  V30 3243 C 309.014 1.78618 -0.782342 0
M  V30 3244 O 308.284 1.94976 0.190061 0
M  V30 3245 H 306.864 0.291562 -0.687751 0
M  V30 3246 H 309.526 0.060348 -1.94807 0
M  V30 3247 H 308.622 1.3038 -2.83562 0
M  V30 3248 N 308.923 1.53595 0.353017 0
M  V30 3249 C 310.339 1.43648 0.695516 0
M  V30 3250 C 310.539 0.585617 1.92802 0
M  V30 3251 O 309.595 0.0729223 2.52395 0
M  V30 3252 C 310.908 2.8701 0.896991 0
M  V30 3253 C 312.456 2.96723 0.996209 0
M  V30 3254 C 312.931 4.41173 1.23007 0
M  V30 3255 N 314.422 4.44657 1.29749 0
M  V30 3256 C 315.157 5.53547 1.49577 0
M  V30 3257 N 314.653 6.72461 1.66639 0
M  V30 3258 N 316.446 5.41145 1.52048 0
M  V30 3259 H 308.597 2.07415 -0.457481 0
M  V30 3260 H 310.86 0.9372 -0.142687 0
M  V30 3261 H 310.566 3.51644 0.0629938 0
M  V30 3262 H 310.44 3.31401 1.80148 0
M  V30 3263 H 312.827 2.32235 1.82074 0
M  V30 3264 H 312.908 2.55707 0.0688331 0
M  V30 3265 H 312.552 5.06238 0.410505 0
M  V30 3266 H 312.482 4.79772 2.17086 0
M  V30 3267 H 314.973 3.58963 1.18126 0
M  V30 3268 H 315.286 7.51214 1.81378 0
M  V30 3269 H 313.631 6.75423 1.63794 0
M  V30 3270 H 316.822 4.47205 1.38294 0
M  V30 3271 H 316.995 6.26068 1.67159 0
M  V30 3272 N 310.401 -0.613514 1.45168 0
M  V30 3273 C 311.331 -1.7354 1.56225 0
M  V30 3274 C 312.312 -1.64981 0.41414 0
M  V30 3275 O 313.497 -1.83472 0.636526 0
M  V30 3276 C 310.627 -3.12128 1.52295 0
M  V30 3277 C 309.581 -3.35491 2.65762 0
M  V30 3278 C 308.907 -4.74291 2.46885 0
M  V30 3279 C 310.207 -3.26325 4.0781 0
M  V30 3280 H 311.901 -1.64543 2.50132 0
M  V30 3281 H 309.447 -0.790185 1.20383 0
M  V30 3282 H 311.4 -3.90404 1.58628 0
M  V30 3283 H 310.124 -3.2195 0.549139 0
M  V30 3284 H 308.783 -2.59603 2.58847 0
M  V30 3285 H 308.431 -4.80839 1.47657 0
M  V30 3286 H 308.131 -4.9088 3.22972 0
M  V30 3287 H 309.655 -5.54775 2.55063 0
M  V30 3288 H 311.069 -3.94483 4.16 0
M  V30 3289 H 309.466 -3.54445 4.8424 0
M  V30 3290 H 310.536 -2.23855 4.30136 0
M  V30 3291 N 311.879 -1.3236 -0.855495 0
M  V30 3292 C 313.125 -1.23054 -1.612 0
M  V30 3293 C 313.458 0.207404 -1.93089 0
M  V30 3294 O 312.733 1.14432 -1.57275 0
M  V30 3295 C 313.016 -2.08937 -2.93287 0
M  V30 3296 C 312.869 -3.61105 -2.68185 0
M  V30 3297 C 314.188 -1.94986 -3.94549 0
M  V30 3298 H 311.307 -0.448364 -0.584926 0
M  V30 3299 H 313.949 -1.62297 -0.987917 0
M  V30 3300 H 312.099 -1.75599 -3.46551 0
M  V30 3301 H 313.771 -4.04652 -2.21483 0
M  V30 3302 H 312.014 -3.83813 -2.02164 0
M  V30 3303 H 312.685 -4.16522 -3.62234 0
M  V30 3304 H 315.161 -2.24189 -3.5054 0
M  V30 3305 H 314.037 -2.57356 -4.84829 0
M  V30 3306 H 314.298 -0.917263 -4.3248 0
M  V30 3307 N 313.357 1.07166 -1.15556 0
M  V30 3308 C 314.634 1.76546 -0.842069 0
M  V30 3309 C 315.014 2.00453 0.661939 0
M  V30 3310 O 314.362 1.62452 1.60691 0
M  V30 3311 C 314.572 3.07266 -1.65495 0
M  V30 3312 C 315.92 3.81578 -1.86234 0
M  V30 3313 O 316.944 3.17083 -1.62287 0
M  V30 3314 O 315.803 4.97419 -2.26355 0
M  V30 3315 H 312.897 0.766756 -0.309862 0
M  V30 3316 H 315.443 1.13514 -1.26145 0
M  V30 3317 H 314.215 2.85494 -2.67598 0
M  V30 3318 H 313.838 3.7803 -1.23203 0
M  V30 3319 N 314.835 0.952656 1.25548 0
M  V30 3320 C 316.06 0.623025 1.97821 0
M  V30 3321 C 316.485 -0.7976 1.70352 0
M  V30 3322 O 315.843 -1.53905 0.958283 0
M  V30 3323 C 315.891 0.885532 3.49558 0
M  V30 3324 O 314.995 -0.0366641 4.12384 0
M  V30 3325 H 314.336 0.237082 0.620232 0
M  V30 3326 H 316.866 1.27871 1.59719 0
M  V30 3327 H 316.876 0.811009 3.99858 0
M  V30 3328 H 315.551 1.92094 3.6888 0
M  V30 3329 H 314.128 0.0898954 3.72792 0
M  V30 3330 N 316.313 -1.40141 0.720998 0
M  V30 3331 C 317.562 -2.0002 0.259804 0
M  V30 3332 C 317.875 -1.57839 -1.15526 0
M  V30 3333 O 319.081 -2.10455 -1.71525 0
M  V30 3334 C 317.537 -3.57516 0.413566 0
M  V30 3335 C 317.145 -4.08667 1.83562 0
M  V30 3336 C 318.889 -4.24498 0.0134387 0
M  V30 3337 C 316.796 -5.58686 1.93968 0
M  V30 3338 H 315.726 -0.748195 0.0933806 0
M  V30 3339 H 318.377 -1.60313 0.892866 0
M  V30 3340 H 316.759 -3.9495 -0.288169 0
M  V30 3341 H 317.933 -3.82598 2.56817 0
M  V30 3342 H 316.248 -3.543 2.1877 0
M  V30 3343 H 318.845 -5.34654 0.0703954 0
M  V30 3344 H 319.188 -4.03375 -1.02927 0
M  V30 3345 H 319.721 -3.92188 0.665815 0
M  V30 3346 H 316.46 -5.8467 2.96379 0
M  V30 3347 H 315.98 -5.86602 1.25131 0
M  V30 3348 H 317.659 -6.23875 1.71431 0
M  V30 3349 N 317.792 -0.46758 -1.50504 0
M  V30 3350 C 319.04 0.0884469 -2.01906 0
M  V30 3351 C 319.361 1.40532 -1.35188 0
M  V30 3352 O 318.631 1.89515 -0.496079 0
M  V30 3353 H 317.211 0.0356765 -0.746148 0
M  V30 3354 H 319.873 -0.6172 -1.84869 0
M  V30 3355 H 318.969 0.2425 -3.11156 0
M  V30 3356 N 319.27 1.56325 -0.20005 0
M  V30 3357 C 320.495 2.02548 0.44597 0
M  V30 3358 C 320.92 1.07922 1.5406 0
M  V30 3359 O 320.278 0.0635775 1.81188 0
M  V30 3360 C 320.326 3.47175 0.974761 0
M  V30 3361 O 319.43 3.55671 2.08739 0
M  V30 3362 H 318.771 0.655862 0.103638 0
M  V30 3363 H 321.301 2.02201 -0.312381 0
M  V30 3364 H 321.311 3.87067 1.2901 0
M  V30 3365 H 319.986 4.15538 0.17347 0
M  V30 3366 H 318.563 3.27657 1.78032 0
M  V30 3367 N 320.748 -0.0735177 1.57428 0
M  V30 3368 C 321.994 -0.768909 1.88307 0
M  V30 3369 C 322.349 -1.75273 0.793535 0
M  V30 3370 O 321.642 -1.90527 -0.202466 0
M  V30 3371 C 321.836 -1.51799 3.23561 0
M  V30 3372 C 321.665 -0.608217 4.45568 0
M  V30 3373 C 320.435 -0.245808 5.04702 0
M  V30 3374 C 322.633 0.0942904 5.14214 0
M  V30 3375 N 320.615 0.66987 6.10234 0
M  V30 3376 C 321.986 0.867222 6.13905 0
M  V30 3377 C 324.041 0.165943 4.97623 0
M  V30 3378 C 322.744 1.70515 6.98797 0
M  V30 3379 C 324.77 0.990837 5.83041 0
M  V30 3380 C 324.132 1.75182 6.82269 0
M  V30 3381 H 320.231 -0.25685 0.738615 0
M  V30 3382 H 322.815 -0.030499 1.94676 0
M  V30 3383 H 320.986 -2.22713 3.18203 0
M  V30 3384 H 322.718 -2.16226 3.42094 0
M  V30 3385 H 319.473 -0.598284 4.69806 0
M  V30 3386 H 319.897 1.1209 6.67656 0
M  V30 3387 H 324.539 -0.408064 4.20826 0
M  V30 3388 H 322.257 2.29013 7.7497 0
M  V30 3389 H 325.843 1.04923 5.72261 0
M  V30 3390 H 324.723 2.37983 7.47217 0
M  V30 3391 N 322.226 -1.5378 -0.344866 0
M  V30 3392 C 323.451 -1.75211 -1.10977 0
M  V30 3393 C 323.876 -0.48936 -1.81623 0
M  V30 3394 O 323.234 0.557925 -1.72502 0
M  V30 3395 C 323.282 -2.93147 -2.09993 0
M  V30 3396 O 322.386 -2.63203 -3.17487 0
M  V30 3397 H 321.727 -0.581241 -0.321021 0
M  V30 3398 H 324.257 -2.00738 -0.395661 0
M  V30 3399 H 324.267 -3.19898 -2.53237 0
M  V30 3400 H 322.942 -3.84731 -1.5797 0
M  V30 3401 H 321.519 -2.47336 -2.79069 0
M  V30 3402 N 323.704 0.605807 -1.45491 0
M  V30 3403 C 324.636 1.73031 -1.5031 0
M  V30 3404 C 325.649 1.57968 -0.393687 0
M  V30 3405 O 326.838 1.65817 -0.660839 0
M  V30 3406 C 323.938 3.11049 -1.34543 0
M  V30 3407 C 323.111 3.52334 -2.59189 0
M  V30 3408 C 322.17 4.69323 -2.37954 0
M  V30 3409 O 321.196 4.7635 -3.11575 0
M  V30 3410 N 322.398 5.62705 -1.4263 0
M  V30 3411 H 325.163 1.6936 -2.4726 0
M  V30 3412 H 322.724 0.79114 -1.41254 0
M  V30 3413 H 324.716 3.87071 -1.18144 0
M  V30 3414 H 323.286 3.09217 -0.458623 0
M  V30 3415 H 322.506 2.66256 -2.90691 0
M  V30 3416 H 323.794 3.76677 -3.42041 0
M  V30 3417 H 323.192 5.59744 -0.818758 0
M  V30 3418 H 321.749 6.38252 -1.32202 0
M  V30 3419 N 325.182 1.32811 0.848464 0
M  V30 3420 C 326.13 1.22231 1.97895 0
M  V30 3421 C 327.124 0.125749 1.68933 0
M  V30 3422 O 328.33 0.289083 1.77663 0
M  V30 3423 H 324.705 0.379058 0.649476 0
M  V30 3424 H 326.676 2.17828 2.03945 0
M  V30 3425 C 325.425 0.968572 3.33937 0
M  V30 3426 H 324.748 1.80458 3.56756 0
M  V30 3427 H 326.188 0.934808 4.13567 0
M  V30 3428 C 324.647 -0.328628 3.35293 0
M  V30 3429 O 325.177 -1.33848 3.78745 0
M  V30 3430 N 323.383 -0.352788 2.88451 0
M  V30 3431 H 322.93 0.469541 2.53285 0
M  V30 3432 H 322.888 -1.22057 2.89741 0
M  V30 3433 N 326.66 -1.06551 1.16123 0
M  V30 3434 C 327.909 -1.78687 0.935622 0
M  V30 3435 C 328.222 -1.88056 -0.538001 0
M  V30 3436 O 329.428 -2.56794 -0.88143 0
M  V30 3437 C 327.884 -3.21143 1.62466 0
M  V30 3438 C 327.492 -3.19949 3.13587 0
M  V30 3439 C 329.236 -3.9783 1.48092 0
M  V30 3440 C 327.143 -4.57108 3.75241 0
M  V30 3441 H 326.073 -0.669712 0.346412 0
M  V30 3442 H 328.724 -1.19534 1.39226 0
M  V30 3443 H 327.106 -3.80539 1.09572 0
M  V30 3444 H 328.28 -2.70151 3.73303 0
M  V30 3445 H 326.595 -2.5676 3.27816 0
M  V30 3446 H 329.192 -4.99217 1.91538 0
M  V30 3447 H 329.535 -4.14078 0.429507 0
M  V30 3448 H 330.068 -3.4495 1.98127 0
M  V30 3449 H 326.807 -4.46065 4.80319 0
M  V30 3450 H 326.327 -5.07111 3.20309 0
M  V30 3451 H 328.006 -5.26069 3.76644 0
M  V30 3452 N 328.138 -0.959301 -1.25041 0
M  V30 3453 C 329.068 -0.501388 -2.28053 0
M  V30 3454 C 330.049 0.454673 -1.63911 0
M  V30 3455 O 331.234 0.352618 -1.90972 0
M  V30 3456 C 328.364 0.217224 -3.4662 0
M  V30 3457 C 327.318 -0.654034 -4.22973 0
M  V30 3458 C 326.644 0.195589 -5.34342 0
M  V30 3459 C 327.944 -1.93447 -4.85155 0
M  V30 3460 H 329.638 -1.36238 -2.66608 0
M  V30 3461 H 327.184 -0.656534 -1.28163 0
M  V30 3462 H 329.137 0.548732 -4.17812 0
M  V30 3463 H 327.861 1.1125 -3.07068 0
M  V30 3464 H 326.52 -0.968693 -3.5357 0
M  V30 3465 H 326.168 1.09076 -4.91031 0
M  V30 3466 H 325.868 -0.384091 -5.86343 0
M  V30 3467 H 327.392 0.521958 -6.08365 0
M  V30 3468 H 328.806 -1.66908 -5.48466 0
M  V30 3469 H 327.203 -2.46018 -5.47353 0
M  V30 3470 H 328.273 -2.63466 -4.07079 0
M  V30 3471 N 329.616 1.39756 -0.72842 0
M  V30 3472 C 331.032 1.5442 -0.403308 0
M  V30 3473 C 331.232 1.69694 1.08656 0
M  V30 3474 O 330.288 1.69373 1.87267 0
M  V30 3475 C 331.601 2.76555 -1.18058 0
M  V30 3476 C 333.149 2.90384 -1.16815 0
M  V30 3477 C 333.624 4.15449 -1.92785 0
M  V30 3478 N 335.115 4.22475 -1.89918 0
M  V30 3479 C 335.85 5.1818 -2.45514 0
M  V30 3480 N 335.346 6.19714 -3.09719 0
M  V30 3481 N 337.139 5.1035 -2.35584 0
M  V30 3482 H 329.29 1.28089 -1.69431 0
M  V30 3483 H 331.553 0.620327 -0.716867 0
M  V30 3484 H 331.259 2.7159 -2.23455 0
M  V30 3485 H 331.133 3.69033 -0.780662 0
M  V30 3486 H 333.52 2.94846 -0.12234 0
M  V30 3487 H 333.601 1.98988 -1.6074 0
M  V30 3488 H 333.245 4.11749 -2.97364 0
M  V30 3489 H 333.175 5.05877 -1.46272 0
M  V30 3490 H 335.666 3.49743 -1.43138 0
M  V30 3491 H 335.979 6.8919 -3.49625 0
M  V30 3492 H 334.324 6.20121 -3.13807 0
M  V30 3493 H 337.515 4.2996 -1.85072 0
M  V30 3494 H 337.688 5.84761 -2.79211 0
M  V30 3495 N 331.094 0.475555 1.50254 0
M  V30 3496 C 332.322 -0.0754493 2.06762 0
M  V30 3497 C 332.737 -1.33111 1.33891 0
M  V30 3498 O 332.094 -1.77846 0.40952 0
M  V30 3499 C 332.145 -0.359008 3.59713 0
M  V30 3500 O 331.866 0.846851 4.29837 0
M  V30 3501 C 333.367 -0.956484 4.32858 0
M  V30 3502 H 330.587 0.00907525 0.670939 0
M  V30 3503 H 333.131 0.665618 1.93364 0
M  V30 3504 H 331.286 -1.05001 3.72899 0
M  V30 3505 H 331.7 0.594162 5.21124 0
M  V30 3506 H 333.174 -1.10463 5.40834 0
M  V30 3507 H 333.651 -1.94775 3.93649 0
M  V30 3508 H 334.257 -0.303723 4.24214 0
M  V30 3509 N 332.573 -1.56217 0.208337 0
M  V30 3510 C 333.505 -2.1695 -0.739276 0
M  V30 3511 C 334.518 -1.13492 -1.1672 0
M  V30 3512 O 335.707 -1.40529 -1.10063 0
M  V30 3513 C 332.807 -2.72755 -2.01142 0
M  V30 3514 C 331.98 -4.0125 -1.74118 0
M  V30 3515 C 331.039 -4.41749 -2.85909 0
M  V30 3516 O 330.065 -5.08912 -2.54946 0
M  V30 3517 N 331.267 -4.06342 -4.14568 0
M  V30 3518 H 334.032 -2.98893 -0.219837 0
M  V30 3519 H 331.593 -1.61878 0.0268445 0
M  V30 3520 H 333.585 -2.96826 -2.75094 0
M  V30 3521 H 332.155 -1.95191 -2.4417 0
M  V30 3522 H 331.375 -3.85173 -0.838775 0
M  V30 3523 H 332.663 -4.851 -1.53477 0
M  V30 3524 H 332.061 -3.52345 -4.42571 0
M  V30 3525 H 330.618 -4.35335 -4.85105 0
M  V30 3526 N 334.051 0.0651679 -1.57465 0
M  V30 3527 C 334.961 1.09448 -2.07505 0
M  V30 3528 C 335.977 1.41974 -1.00595 0
M  V30 3529 O 337.153 1.52018 -1.32107 0
M  V30 3530 C 334.218 2.38689 -2.51453 0
M  V30 3531 C 333.279 2.13073 -3.72691 0
M  V30 3532 C 332.512 3.36152 -4.14533 0
M  V30 3533 O 332.735 4.45517 -3.56189 0
M  V30 3534 O 331.669 3.23974 -5.07272 0
M  V30 3535 H 335.495 0.69935 -2.95538 0
M  V30 3536 H 333.08 0.279752 -1.46757 0
M  V30 3537 H 334.962 3.14736 -2.80212 0
M  V30 3538 H 333.637 2.77568 -1.66546 0
M  V30 3539 H 332.544 1.34709 -3.49005 0
M  V30 3540 H 333.877 1.79071 -4.5847 0
M  V30 3541 N 335.529 1.53961 0.336706 0
M  V30 3542 C 336.754 1.75797 1.10046 0
M  V30 3543 C 337.179 0.498985 1.81361 0
M  V30 3544 O 336.537 -0.548769 1.72795 0
M  V30 3545 C 336.585 2.94257 2.08436 0
M  V30 3546 O 335.689 2.64883 3.16087 0
M  V30 3547 H 335.03 0.582936 0.317934 0
M  V30 3548 H 337.56 2.00945 0.38501 0
M  V30 3549 H 337.57 3.21237 2.51537 0
M  V30 3550 H 336.245 3.85564 1.55927 0
M  V30 3551 H 334.822 2.48812 2.77753 0
M  V30 3552 N 337.007 -0.598083 1.45811 0
M  V30 3553 C 337.917 -1.73632 1.57763 0
M  V30 3554 C 338.933 -1.67763 0.461676 0
M  V30 3555 O 340.109 -1.87949 0.723685 0
M  V30 3556 C 337.174 -3.10114 1.55018 0
M  V30 3557 C 336.235 -3.27364 2.77726 0
M  V30 3558 C 335.468 -4.57334 2.75102 0
M  V30 3559 O 335.691 -5.40258 1.8297 0
M  V30 3560 O 334.625 -4.77502 3.66437 0
M  V30 3561 H 338.451 -1.66498 2.53992 0
M  V30 3562 H 336.036 -0.763308 1.28429 0
M  V30 3563 H 337.918 -3.9141 1.56129 0
M  V30 3564 H 336.593 -3.17718 0.619431 0
M  V30 3565 H 335.5 -2.45619 2.82174 0
M  V30 3566 H 336.833 -3.24641 3.69958 0
M  V30 3567 N 338.485 -1.33259 -0.841409 0
M  V30 3568 C 339.725 -1.25902 -1.61022 0
M  V30 3569 C 340.089 0.173325 -1.91216 0
M  V30 3570 O 341.29 0.370824 -2.6623 0
M  V30 3571 C 339.561 -2.10735 -2.88662 0
M  V30 3572 S 341.12 -2.20541 -3.79351 0
M  V30 3573 H 337.938 -0.447958 -0.552137 0
M  V30 3574 H 340.54 -1.68263 -0.995382 0
M  V30 3575 H 339.244 -3.1384 -2.64448 0
M  V30 3576 H 338.775 -1.69201 -3.55154 0
M  V30 3577 H 340.79 -1.36462 -4.77067 0
M  V30 3578 N 339.963 1.05934 -1.16686 0
M  V30 3579 C 341.209 1.79065 -0.95203 0
M  V30 3580 C 341.542 1.87147 0.518629 0
M  V30 3581 O 340.817 1.36574 1.38484 0
M  V30 3582 C 341.1 3.23359 -1.58464 0
M  V30 3583 C 340.953 3.23336 -3.12689 0
M  V30 3584 C 342.272 4.21004 -1.28232 0
M  V30 3585 H 339.391 0.65005 -0.34728 0
M  V30 3586 H 342.033 1.23868 -1.44072 0
M  V30 3587 H 340.183 3.70493 -1.16908 0
M  V30 3588 H 341.855 2.84336 -3.6325 0
M  V30 3589 H 340.098 2.61886 -3.4583 0
M  V30 3590 H 340.769 4.25144 -3.52075 0
M  V30 3591 H 343.245 3.8233 -1.64203 0
M  V30 3592 H 342.121 5.20225 -1.75092 0
M  V30 3593 H 342.382 4.41639 -0.201791 0
M  V30 3594 N 341.441 0.965919 1.2453 0
M  V30 3595 C 342.681 0.634656 1.94297 0
M  V30 3596 C 343.045 -0.814822 1.73852 0
M  V30 3597 O 344.246 -1.25622 2.3764 0
M  V30 3598 C 342.517 0.99702 3.43212 0
M  V30 3599 S 344.076 0.780038 4.31811 0
M  V30 3600 H 340.894 0.232893 0.671775 0
M  V30 3601 H 343.496 1.24249 1.50938 0
M  V30 3602 H 342.2 2.04886 3.55598 0
M  V30 3603 H 341.731 0.379888 3.91562 0
M  V30 3604 H 343.746 -0.343512 4.9501 0
M  V30 3605 N 342.919 -1.39368 0.735821 0
M  V30 3606 C 344.168 -1.99733 0.281004 0
M  V30 3607 C 344.481 -1.59055 -1.13846 0
M  V30 3608 O 345.687 -2.12262 -1.69284 0
M  V30 3609 C 344.143 -3.57057 0.451462 0
M  V30 3610 C 343.751 -4.06697 1.87886 0
M  V30 3611 C 345.495 -4.2446 0.0584616 0
M  V30 3612 C 343.402 -5.56598 1.99883 0
M  V30 3613 H 342.332 -0.747163 0.101311 0
M  V30 3614 H 344.983 -1.59357 0.909819 0
M  V30 3615 H 343.365 -3.95234 -0.246263 0
M  V30 3616 H 344.539 -3.79853 2.60861 0
M  V30 3617 H 342.854 -3.5196 2.22515 0
M  V30 3618 H 345.451 -5.34549 0.127099 0
M  V30 3619 H 345.794 -4.04444 -0.986433 0
M  V30 3620 H 346.327 -3.9146 0.707374 0
M  V30 3621 H 343.066 -5.81494 3.02564 0
M  V30 3622 H 342.586 -5.85242 1.31346 0
M  V30 3623 H 344.265 -6.22022 1.78039 0
M  V30 3624 N 344.397 -0.483516 -1.5 0
M  V30 3625 C 345.345 0.318061 -2.30415 0
M  V30 3626 C 346.339 0.978988 -1.38247 0
M  V30 3627 O 347.545 0.908673 -1.55381 0
M  V30 3628 H 343.92 0.121419 -0.742133 0
M  V30 3629 H 345.891 -0.380403 -2.95965 0
M  V30 3630 C 344.64 1.38013 -3.19136 0
M  V30 3631 H 343.963 0.880952 -3.89973 0
M  V30 3632 H 345.403 1.91332 -3.78375 0
M  V30 3633 C 343.862 2.38884 -2.37563 0
M  V30 3634 O 344.392 3.44412 -2.06744 0
M  V30 3635 N 342.598 2.10912 -1.99911 0
M  V30 3636 H 342.145 1.25118 -2.25174 0
M  V30 3637 H 342.103 2.78635 -1.45636 0
M  V30 3638 N 345.875 1.56104 -0.216619 0
M  V30 3639 C 347.123 1.97781 0.415593 0
M  V30 3640 C 347.444 1.10536 1.60645 0
M  V30 3641 O 346.714 0.181303 1.95059 0
M  V30 3642 H 345.294 0.730415 0.156534 0
M  V30 3643 H 347.956 1.92445 -0.308366 0
M  V30 3644 H 347.052 3.03072 0.74525 0
M  V30 3645 N 347.353 -0.0568162 1.57498 0
M  V30 3646 C 348.581 -0.765626 1.92213 0
M  V30 3647 C 348.996 -1.70353 0.813961 0
M  V30 3648 O 348.353 -1.81268 -0.211701 0
M  V30 3649 C 348.404 -1.5465 3.2675 0
M  V30 3650 O 348.125 -0.646278 4.33307 0
M  V30 3651 C 349.626 -2.35497 3.75574 0
M  V30 3652 H 346.846 -0.216835 0.634999 0
M  V30 3653 H 349.39 -0.0226146 2.04487 0
M  V30 3654 H 347.545 -2.24165 3.15957 0
M  V30 3655 H 347.959 -1.19093 5.108 0
M  V30 3656 H 349.433 -2.85722 4.72299 0
M  V30 3657 H 349.91 -3.15692 3.05344 0
M  V30 3658 H 350.516 -1.7111 3.8936 0
M  V30 3659 N 348.832 -1.54138 -0.328536 0
M  V30 3660 C 350.072 -1.73827 -1.07534 0
M  V30 3661 C 350.436 -0.498777 -1.85408 0
M  V30 3662 O 351.637 -0.572937 -2.62623 0
M  V30 3663 C 349.908 -2.97573 -1.97952 0
M  V30 3664 S 351.467 -3.38143 -2.79652 0
M  V30 3665 H 348.285 -0.611287 -0.36311 0
M  V30 3666 H 350.887 -1.92306 -0.351931 0
M  V30 3667 H 349.591 -3.85939 -1.39569 0
M  V30 3668 H 349.122 -2.81603 -2.74706 0
M  V30 3669 H 351.137 -2.93052 -4.00418 0
M  V30 3670 N 350.31 0.590341 -1.46126 0
M  V30 3671 C 351.538 1.37504 -1.54597 0
M  V30 3672 C 351.953 1.87897 -0.184447 0
M  V30 3673 O 351.31 1.63192 0.816984 0
M  V30 3674 C 351.361 2.56779 -2.54454 0
M  V30 3675 O 351.082 2.08476 -3.85317 0
M  V30 3676 C 352.583 3.49427 -2.72792 0
M  V30 3677 H 349.803 0.420325 -0.523037 0
M  V30 3678 H 352.347 0.718383 -1.91467 0
M  V30 3679 H 350.502 3.1845 -2.20609 0
M  V30 3680 H 350.916 2.86097 -4.396 0
M  V30 3681 H 352.39 4.29619 -3.466 0
M  V30 3682 H 352.867 4.00876 -1.79429 0
M  V30 3683 H 353.473 2.93598 -3.07702 0
M  V30 3684 N 351.788 1.33704 0.83433 0
M  V30 3685 C 353.034 1.25603 1.59222 0
M  V30 3686 C 353.367 -0.176659 1.93395 0
M  V30 3687 O 352.642 -1.11915 1.59076 0
M  V30 3688 C 352.925 2.13576 2.89926 0
M  V30 3689 C 352.778 3.65326 2.62406 0
M  V30 3690 C 354.097 2.01238 3.91397 0
M  V30 3691 H 351.216 0.457613 0.577719 0
M  V30 3692 H 353.858 1.63848 0.961972 0
M  V30 3693 H 352.008 1.8109 3.43713 0
M  V30 3694 H 353.68 4.08124 2.15017 0
M  V30 3695 H 351.923 3.8698 1.96033 0
M  V30 3696 H 352.594 4.22232 3.55562 0
M  V30 3697 H 355.07 2.29738 3.46929 0
M  V30 3698 H 353.946 2.65036 4.80673 0
M  V30 3699 H 354.207 0.985951 4.30966 0
M  V30 3700 N 353.266 -1.05314 1.17247 0
M  V30 3701 C 354.512 -1.78557 0.961513 0
M  V30 3702 C 354.845 -1.87419 -0.508697 0
M  V30 3703 O 354.12 -1.37307 -1.37757 0
M  V30 3704 C 354.403 -3.22514 1.60176 0
M  V30 3705 C 354.256 -3.21673 3.14399 0
M  V30 3706 C 355.575 -4.20318 1.30463 0
M  V30 3707 H 352.694 -0.6482 0.350723 0
M  V30 3708 H 355.336 -1.23102 1.44727 0
M  V30 3709 H 353.486 -3.69867 1.18871 0
M  V30 3710 H 355.158 -2.82405 3.64753 0
M  V30 3711 H 353.401 -2.60048 3.47214 0
M  V30 3712 H 354.072 -4.23271 3.54324 0
M  V30 3713 H 356.548 -3.81454 1.66229 0
M  V30 3714 H 355.424 -5.19289 1.77848 0
M  V30 3715 H 355.685 -4.41526 0.22521 0
M  V30 3716 N 354.744 -0.972509 -1.24016 0
M  V30 3717 C 355.677 -0.45117 -2.23696 0
M  V30 3718 C 356.655 0.477378 -1.55434 0
M  V30 3719 O 357.839 0.407647 -1.84039 0
M  V30 3720 C 354.966 0.34818 -3.36906 0
M  V30 3721 C 354.012 -0.523355 -4.23277 0
M  V30 3722 S 354.845 -1.96647 -4.98087 0
M  V30 3723 C 356.001 -1.17604 -6.14752 0
M  V30 3724 H 356.234 -1.29588 -2.67571 0
M  V30 3725 H 353.767 -0.777903 -1.33372 0
M  V30 3726 H 355.725 0.803387 -4.02562 0
M  V30 3727 H 354.386 1.16792 -2.91579 0
M  V30 3728 H 353.579 0.0906181 -5.03919 0
M  V30 3729 H 353.181 -0.914485 -3.62647 0
M  V30 3730 H 355.473 -0.433434 -6.76112 0
M  V30 3731 H 356.416 -1.95701 -6.8052 0
M  V30 3732 H 356.824 -0.698295 -5.60164 0
M  V30 3733 N 356.222 1.38976 -0.743202 0
M  V30 3734 C 357.45 2.04636 -0.30525 0
M  V30 3735 C 357.865 1.56044 1.06281 0
M  V30 3736 O 357.222 0.728921 1.67311 0
M  V30 3737 C 357.273 3.60193 -0.307177 0
M  V30 3738 O 356.994 4.06998 -1.62124 0
M  V30 3739 C 358.495 4.4306 0.145928 0
M  V30 3740 H 355.715 0.65788 -0.132041 0
M  V30 3741 H 358.259 1.77866 -1.00915 0
M  V30 3742 H 356.414 3.85835 0.347898 0
M  V30 3743 H 356.828 5.01371 -1.54036 0
M  V30 3744 H 358.302 5.51921 0.0934183 0
M  V30 3745 H 358.779 4.22706 1.19231 0
M  V30 3746 H 359.385 4.22584 -0.479886 0
M  V30 3747 N 357.7 0.491464 1.49741 0
M  V30 3748 C 358.977 -0.118984 1.95238 0
M  V30 3749 C 359.357 -1.55044 1.43264 0
M  V30 3750 O 358.705 -2.19287 0.642287 0
M  V30 3751 C 358.915 -0.0414187 3.48975 0
M  V30 3752 C 360.263 -0.220133 4.24029 0
M  V30 3753 O 361.287 -0.117055 3.56008 0
M  V30 3754 O 360.146 -0.430567 5.44801 0
M  V30 3755 H 357.24 -0.100536 0.820866 0
M  V30 3756 H 359.786 0.553322 1.60426 0
M  V30 3757 H 358.558 0.957214 3.79412 0
M  V30 3758 H 358.181 -0.754292 3.9038 0
M  V30 3759 N 359.178 -1.55987 0.224894 0
M  V30 3760 C 360.426 -1.97998 -0.405099 0
M  V30 3761 C 360.747 -1.11387 -1.60056 0
M  V30 3762 O 360.017 -0.191645 -1.9496 0
M  V30 3763 H 358.597 -0.731235 -0.152658 0
M  V30 3764 H 361.259 -1.92279 0.318567 0
M  V30 3765 H 360.355 -3.03463 -0.729167 0
M  V30 3766 N 360.656 0.0484629 -1.57525 0
M  V30 3767 C 361.881 0.759177 -1.93006 0
M  V30 3768 C 362.306 1.69125 -0.823317 0
M  V30 3769 O 361.664 1.79931 0.222364 0
M  V30 3770 C 361.712 1.50899 -3.27509 0
M  V30 3771 O 360.816 2.62112 -3.18388 0
M  V30 3772 H 360.157 0.205564 -0.631379 0
M  V30 3773 H 362.687 0.00972959 -2.04598 0
M  V30 3774 H 362.697 1.88317 -3.6194 0
M  V30 3775 H 361.372 0.825269 -4.0763 0
M  V30 3776 H 359.949 2.27379 -2.95556 0
M  V30 3777 N 362.134 1.5431 0.320358 0
M  V30 3778 C 363.097 1.83195 1.3774 0
M  V30 3779 C 364.097 0.703906 1.44575 0
M  V30 3780 O 365.287 0.972214 1.44546 0
M  V30 3781 C 362.419 1.99487 2.76438 0
M  V30 3782 H 363.612 2.77642 1.1338 0
M  V30 3783 H 361.165 1.46076 0.556012 0
M  V30 3784 H 361.9 1.07262 3.06048 0
M  V30 3785 H 361.685 2.81575 2.7287 0
M  V30 3786 H 363.175 2.23271 3.52902 0
M  V30 3787 N 363.613 -0.582584 1.46437 0
M  V30 3788 C 364.838 -1.37168 1.55563 0
M  V30 3789 C 365.263 -1.87061 0.19743 0
M  V30 3790 O 364.621 -1.61572 -0.822451 0
M  V30 3791 C 364.669 -2.53511 2.56446 0
M  V30 3792 O 363.773 -3.54953 2.09958 0
M  V30 3793 H 363.114 -0.408494 0.523477 0
M  V30 3794 H 365.644 -0.706646 1.9201 0
M  V30 3795 H 365.654 -3.00426 2.76058 0
M  V30 3796 H 364.329 -2.16549 3.55076 0
M  V30 3797 H 362.906 -3.14516 2.00334 0
M  V30 3798 N 365.091 -1.34144 -0.827227 0
M  V30 3799 C 366.339 -1.26009 -1.58007 0
M  V30 3800 C 366.66 0.170971 -1.94249 0
M  V30 3801 O 365.93 1.10256 -1.61927 0
M  V30 3802 H 364.51 -0.463414 -0.585881 0
M  V30 3803 H 367.172 -1.68005 -0.987951 0
M  V30 3804 H 366.268 -1.86187 -2.50481 0
M  V30 3805 N 366.569 1.04691 -1.17803 0
M  V30 3806 C 367.985 1.29963 -0.926379 0
M  V30 3807 C 368.185 1.97251 0.411635 0
M  V30 3808 O 367.241 2.24922 1.14744 0
M  V30 3809 C 368.554 2.16447 -2.08737 0
M  V30 3810 C 370.102 2.29814 -2.12496 0
M  V30 3811 C 370.577 3.19661 -3.27995 0
M  V30 3812 N 372.068 3.27247 -3.27816 0
M  V30 3813 C 372.803 3.96906 -4.13827 0
M  V30 3814 N 372.299 4.6895 -5.09959 0
M  V30 3815 N 374.092 3.93122 -4.01761 0
M  V30 3816 H 366.243 0.594182 -2.0392 0
M  V30 3817 H 368.506 0.324649 -0.890678 0
M  V30 3818 H 368.212 1.74304 -3.05469 0
M  V30 3819 H 368.086 3.17103 -2.04268 0
M  V30 3820 H 370.473 2.71196 -1.16347 0
M  V30 3821 H 370.554 1.2877 -2.21025 0
M  V30 3822 H 370.198 2.78991 -4.24413 0
M  V30 3823 H 370.128 4.20722 -3.16703 0
M  V30 3824 H 372.619 2.75921 -2.58217 0
M  V30 3825 H 372.932 5.19679 -5.71974 0
M  V30 3826 H 371.277 4.67875 -5.13924 0
M  V30 3827 H 374.468 3.35967 -3.2595 0
M  V30 3828 H 374.641 4.47139 -4.6901 0
M  V30 3829 N 368.047 0.979072 1.23499 0
M  V30 3830 C 369.01 0.523244 2.23147 0
M  V30 3831 C 370.01 -0.386406 1.56088 0
M  V30 3832 O 371.2 -0.180283 1.73265 0
M  V30 3833 C 368.332 -0.240739 3.40049 0
M  V30 3834 H 369.525 1.40432 2.64989 0
M  V30 3835 H 367.078 0.764824 1.36309 0
M  V30 3836 H 367.813 -1.13841 3.03662 0
M  V30 3837 H 367.598 0.412207 3.89927 0
M  V30 3838 H 369.088 -0.548297 4.13985 0
M  V30 3839 N 369.525 -1.3858 0.750561 0
M  V30 3840 C 370.802 -1.94231 0.231009 0
M  V30 3841 C 371.182 -1.68611 -1.27018 0
M  V30 3842 O 370.53 -1.02296 -2.04323 0
M  V30 3843 C 370.74 -3.44123 0.581428 0
M  V30 3844 C 372.088 -4.2116 0.539389 0
M  V30 3845 O 373.112 -3.52391 0.519541 0
M  V30 3846 O 371.971 -5.43749 0.54765 0
M  V30 3847 H 369.065 -0.825639 0.0474263 0
M  V30 3848 H 371.611 -1.4799 0.830478 0
M  V30 3849 H 370.383 -3.56267 1.61833 0
M  V30 3850 H 370.006 -3.97573 -0.0462047 0
M  V30 3851 N 371.003 -0.499398 -1.49478 0
M  V30 3852 C 372.231 0.0425456 -2.06856 0
M  V30 3853 C 372.646 1.30964 -1.35992 0
M  V30 3854 O 372.003 1.77172 -0.437762 0
M  V30 3855 C 372.054 0.301735 -3.60239 0
M  V30 3856 O 371.775 -0.915127 -4.28436 0
M  V30 3857 C 373.276 0.887499 -4.34325 0
M  V30 3858 H 370.496 -0.0197482 -0.670709 0
M  V30 3859 H 373.04 -0.696297 -1.92281 0
M  V30 3860 H 371.195 0.990556 -3.74522 0
M  V30 3861 H 371.609 -0.676993 -5.20113 0
M  V30 3862 H 373.083 1.01845 -5.42523 0
M  V30 3863 H 373.56 1.88488 -3.96698 0
M  V30 3864 H 374.166 0.236196 -4.24644 0
M  V30 3865 N 372.481 1.55866 -0.233164 0
M  V30 3866 C 373.897 1.59133 0.121988 0
M  V30 3867 C 374.097 1.25016 1.58029 0
M  V30 3868 O 373.153 0.990922 2.32243 0
M  V30 3869 C 374.466 2.99932 -0.214792 0
M  V30 3870 C 376.014 3.12601 -0.157971 0
M  V30 3871 C 376.489 4.55597 -0.46859 0
M  V30 3872 N 377.98 4.61305 -0.418585 0
M  V30 3873 C 378.715 5.69903 -0.63227 0
M  V30 3874 N 378.211 6.86819 -0.90835 0
M  V30 3875 N 380.004 5.59264 -0.563913 0
M  V30 3876 H 372.155 1.76315 -1.18434 0
M  V30 3877 H 374.418 0.820093 -0.475553 0
M  V30 3878 H 374.124 3.29588 -1.22739 0
M  V30 3879 H 373.998 3.74327 0.464691 0
M  V30 3880 H 376.385 2.82735 0.845283 0
M  V30 3881 H 376.466 2.40511 -0.871102 0
M  V30 3882 H 376.11 4.86182 -1.46934 0
M  V30 3883 H 376.04 5.25928 0.265865 0
M  V30 3884 H 378.531 3.77297 -0.213368 0
M  V30 3885 H 378.844 7.65507 -1.05919 0
M  V30 3886 H 377.189 6.88536 -0.945673 0
M  V30 3887 H 380.38 4.66802 -0.348372 0
M  V30 3888 H 380.553 6.43831 -0.733847 0
M  V30 3889 N 373.959 -0.0401083 1.57549 0
M  V30 3890 C 375.208 -0.732108 1.87944 0
M  V30 3891 C 375.521 -1.77107 0.830206 0
M  V30 3892 O 376.727 -2.51488 1.02302 0
M  V30 3893 C 375.183 -1.35315 3.33494 0
M  V30 3894 C 374.791 -0.351105 4.46622 0
M  V30 3895 C 376.535 -2.02566 3.73051 0
M  V30 3896 C 374.442 -0.979859 5.83226 0
M  V30 3897 H 373.372 -0.277188 0.701201 0
M  V30 3898 H 376.023 0.0138501 1.83495 0
M  V30 3899 H 374.405 -2.14844 3.32653 0
M  V30 3900 H 375.579 0.416674 4.58912 0
M  V30 3901 H 373.894 0.218708 4.15825 0
M  V30 3902 H 376.491 -2.50441 4.72423 0
M  V30 3903 H 376.834 -2.83904 3.04474 0
M  V30 3904 H 377.367 -1.29827 3.76018 0
M  V30 3905 H 374.106 -0.206135 6.55176 0
M  V30 3906 H 373.626 -1.71774 5.74677 0
M  V30 3907 H 375.305 -1.49046 6.29599 0
M  V30 3908 N 375.437 -1.54477 -0.31217 0
M  V30 3909 C 376.367 -1.87652 -1.38957 0
M  V30 3910 C 377.348 -0.734358 -1.53431 0
M  V30 3911 O 378.533 -0.98911 -1.67123 0
M  V30 3912 C 375.663 -2.11396 -2.75552 0
M  V30 3913 C 374.617 -3.27243 -2.75855 0
M  V30 3914 C 373.943 -3.36382 -4.15633 0
M  V30 3915 C 375.243 -4.64622 -2.38587 0
M  V30 3916 H 376.937 -2.77887 -1.11442 0
M  V30 3917 H 374.483 -1.33707 -0.534655 0
M  V30 3918 H 376.436 -2.33189 -3.51 0
M  V30 3919 H 375.16 -1.17921 -3.04569 0
M  V30 3920 H 373.819 -3.05356 -2.02863 0
M  V30 3921 H 373.467 -2.40445 -4.41809 0
M  V30 3922 H 373.167 -4.14249 -4.1674 0
M  V30 3923 H 374.691 -3.60422 -4.92877 0
M  V30 3924 H 376.105 -4.86219 -3.03749 0
M  V30 3925 H 374.502 -5.45121 -2.50925 0
M  V30 3926 H 375.572 -4.66097 -1.33723 0
M  V30 3927 N 376.915 0.57481 -1.46744 0
M  V30 3928 C 378.162 1.33272 -1.52462 0
M  V30 3929 C 378.49 1.93669 -0.179572 0
M  V30 3930 O 377.745 1.7743 0.825664 0
M  V30 3931 C 378.044 2.476 -2.57738 0
M  V30 3932 C 377.71 2.05146 -4.01529 0
M  V30 3933 C 376.372 1.93284 -4.40676 0
M  V30 3934 C 378.724 1.72506 -4.91824 0
M  V30 3935 C 376.052 1.47049 -5.67973 0
M  V30 3936 C 378.404 1.27748 -6.19567 0
M  V30 3937 C 377.068 1.14468 -6.57612 0
M  V30 3938 H 376.338 0.487678 -0.557899 0
M  V30 3939 H 378.985 0.646456 -1.80259 0
M  V30 3940 H 377.29 3.21708 -2.23632 0
M  V30 3941 H 378.987 3.05807 -2.5939 0
M  V30 3942 H 375.577 2.15316 -3.7059 0
M  V30 3943 H 379.761 1.80552 -4.62293 0
M  V30 3944 H 375.017 1.35417 -5.96215 0
M  V30 3945 H 379.191 1.01547 -6.88957 0
M  V30 3946 H 376.818 0.78419 -7.56145 0
M  V30 3947 N 378.394 1.34581 0.820102 0
M  V30 3948 C 379.643 1.26437 1.57151 0
M  V30 3949 C 379.956 -0.163111 1.94919 0
M  V30 3950 O 381.162 -0.366722 2.69012 0
M  V30 3951 C 379.618 2.21658 2.83541 0
M  V30 3952 C 379.226 3.69679 2.53065 0
M  V30 3953 C 380.97 2.22428 3.61561 0
M  V30 3954 C 378.877 4.56761 3.75664 0
M  V30 3955 H 377.807 0.469707 0.589823 0
M  V30 3956 H 380.458 1.59763 0.902656 0
M  V30 3957 H 378.84 1.81287 3.52067 0
M  V30 3958 H 380.014 4.18605 1.92631 0
M  V30 3959 H 378.329 3.71384 1.88316 0
M  V30 3960 H 380.926 2.8471 4.52597 0
M  V30 3961 H 381.269 1.22434 3.97889 0
M  V30 3962 H 381.802 2.61259 2.99981 0
M  V30 3963 H 378.541 5.57702 3.44454 0
M  V30 3964 H 378.061 4.12568 4.35371 0
M  V30 3965 H 379.74 4.71509 4.43044 0
M  V30 3966 N 379.872 -1.04064 1.18357 0
M  V30 3967 C 380.782 -2.15569 0.925596 0
M  V30 3968 C 381.798 -1.7365 -0.110295 0
M  V30 3969 O 382.974 -2.01273 0.0716218 0
M  V30 3970 C 380.039 -3.43704 0.454836 0
M  V30 3971 C 379.1 -4.00004 1.55869 0
M  V30 3972 C 378.333 -5.22023 1.1103 0
M  V30 3973 O 378.556 -5.70392 -0.0309756 0
M  V30 3974 O 377.49 -5.70856 1.90805 0
M  V30 3975 H 381.316 -2.40187 1.8586 0
M  V30 3976 H 378.901 -1.1402 0.965394 0
M  V30 3977 H 380.783 -4.20923 0.200382 0
M  V30 3978 H 379.458 -3.20559 -0.449876 0
M  V30 3979 H 378.365 -3.24172 1.86716 0
M  V30 3980 H 379.698 -4.2749 2.43953 0
M  V30 3981 N 381.35 -0.985608 -1.22978 0
M  V30 3982 C 382.26 -0.538548 -2.28335 0
M  V30 3983 C 383.276 0.409163 -1.69121 0
M  V30 3984 O 384.452 0.277797 -1.99475 0
M  V30 3985 C 381.517 0.146867 -3.46389 0
M  V30 3986 C 380.578 -0.842896 -4.20944 0
M  V30 3987 C 379.811 -0.190095 -5.33361 0
M  V30 3988 O 380.034 1.01767 -5.61248 0
M  V30 3989 O 378.968 -0.891289 -5.95264 0
M  V30 3990 H 382.794 -1.41487 -2.68729 0
M  V30 3991 H 380.379 -0.753495 -1.29007 0
M  V30 3992 H 382.261 0.531125 -4.1804 0
M  V30 3993 H 380.936 0.997871 -3.07935 0
M  V30 3994 H 379.843 -1.27795 -3.51595 0
M  V30 3995 H 381.176 -1.66287 -4.6326 0
M  V30 3996 N 382.828 1.3818 -0.7579 0
M  V30 3997 C 384.076 1.99624 -0.315361 0
M  V30 3998 C 384.397 1.60464 1.10799 0
M  V30 3999 O 383.667 0.863507 1.75842 0
M  V30 4000 H 382.247 0.73831 -0.113611 0
M  V30 4001 H 384.909 1.68878 -0.972952 0
M  V30 4002 H 384.005 3.09754 -0.381931 0
M  V30 4003 N 384.306 0.507319 1.49211 0
M  V30 4004 C 385.253 -0.267728 2.29242 0
M  V30 4005 C 386.223 -0.954609 1.35928 0
M  V30 4006 O 387.408 -0.960046 1.64887 0
M  V30 4007 C 384.548 -1.32243 3.18756 0
M  V30 4008 C 383.661 -0.64669 4.27132 0
M  V30 4009 C 382.796 -1.68238 5.03855 0
M  V30 4010 C 381.835 -0.98885 6.0406 0
M  V30 4011 N 380.972 -1.96903 6.73924 0
M  V30 4012 H 385.812 0.420968 2.95012 0
M  V30 4013 H 383.349 0.219443 1.45454 0
M  V30 4014 H 385.307 -1.94599 3.69036 0
M  V30 4015 H 383.937 -1.97981 2.54958 0
M  V30 4016 H 382.989 0.0902926 3.80293 0
M  V30 4017 H 384.301 -0.101058 4.98698 0
M  V30 4018 H 383.455 -2.38081 5.58034 0
M  V30 4019 H 382.194 -2.26187 4.32077 0
M  V30 4020 H 381.199 -0.276222 5.49106 0
M  V30 4021 H 382.424 -0.415767 6.77826 0
M  V30 4022 H 380.37 -2.53803 6.04913 0
M  V30 4023 H 380.287 -1.47423 7.41487 0
M  V30 4024 H 381.555 -2.66015 7.32705 0
M  V30 4025 N 385.784 -1.5574 0.241426 0
M  V30 4026 C 387.033 -1.97986 -0.385295 0
M  V30 4027 C 387.346 -1.13267 -1.59468 0
M  V30 4028 O 388.552 -1.45501 -2.2922 0
M  V30 4029 C 387.008 -3.52275 -0.736884 0
M  V30 4030 C 386.616 -4.45726 0.450796 0
M  V30 4031 C 388.36 -4.03189 -1.3281 0
M  V30 4032 C 386.267 -5.91352 0.0756662 0
M  V30 4033 H 385.197 -0.739386 -0.147731 0
M  V30 4034 H 387.848 -1.80308 0.340779 0
M  V30 4035 H 386.23 -3.65628 -1.52094 0
M  V30 4036 H 387.404 -4.44131 1.22819 0
M  V30 4037 H 385.719 -4.05264 0.956573 0
M  V30 4038 H 388.316 -5.09505 -1.62201 0
M  V30 4039 H 388.659 -3.50212 -2.25071 0
M  V30 4040 H 389.192 -3.93141 -0.607069 0
M  V30 4041 H 385.931 -6.48354 0.965272 0
M  V30 4042 H 385.451 -5.96095 -0.665635 0
M  V30 4043 H 387.13 -6.46084 -0.344075 0
M  V30 4044 N 387.262 0.0317525 -1.57568 0
M  V30 4045 C 388.508 0.724175 -1.8943 0
M  V30 4046 C 388.841 1.75149 -0.838836 0
M  V30 4047 O 388.116 1.93948 0.146422 0
M  V30 4048 C 388.399 1.39615 -3.31933 0
M  V30 4049 C 388.252 0.382537 -4.4817 0
M  V30 4050 C 389.571 2.33084 -3.73309 0
M  V30 4051 H 386.69 0.261797 -0.688935 0
M  V30 4052 H 389.332 -0.013017 -1.89996 0
M  V30 4053 H 387.482 2.02451 -3.31581 0
M  V30 4054 H 389.154 -0.243689 -4.60656 0
M  V30 4055 H 387.397 -0.29844 -4.32772 0
M  V30 4056 H 388.068 0.891145 -5.44759 0
M  V30 4057 H 390.544 1.80295 -3.7501 0
M  V30 4058 H 389.42 2.77084 -4.73831 0
M  V30 4059 H 389.681 3.19643 -3.05419 0
M  V30 4060 N 388.74 1.54641 0.303973 0
M  V30 4061 C 389.69 1.8177 1.37636 0
M  V30 4062 C 390.674 0.674697 1.46071 0
M  V30 4063 O 391.866 0.935251 1.50273 0
M  V30 4064 C 388.995 2.06584 2.74186 0
M  V30 4065 C 388.081 3.2706 2.69986 0
M  V30 4066 N 388.472 4.47682 2.35402 0
M  V30 4067 C 386.77 3.29028 3.01092 0
M  V30 4068 C 387.471 5.29689 2.40426 0
M  V30 4069 N 386.447 4.67339 2.7766 0
M  V30 4070 H 390.249 2.72596 1.09857 0
M  V30 4071 H 387.763 1.541 0.51254 0
M  V30 4072 H 389.76 2.24166 3.51504 0
M  V30 4073 H 388.42 1.17024 3.02879 0
M  V30 4074 H 389.431 4.74336 2.07908 0
M  V30 4075 H 386.108 2.49565 3.34699 0
M  V30 4076 H 387.498 6.3606 2.16512 0
M  V30 4077 N 390.218 -0.567019 1.47046 0
M  V30 4078 C 391.467 -1.32091 1.5243 0
M  V30 4079 C 391.78 -1.94704 0.187021 0
M  V30 4080 O 392.986 -2.7124 0.118771 0
M  V30 4081 C 391.442 -2.39479 2.68659 0
M  V30 4082 C 391.05 -1.831 4.08874 0
M  V30 4083 C 392.794 -3.16111 2.83327 0
M  V30 4084 C 390.701 -2.8821 5.16419 0
M  V30 4085 H 389.631 -0.496629 0.56734 0
M  V30 4086 H 392.282 -0.603354 1.73297 0
M  V30 4087 H 390.664 -3.14105 2.41152 0
M  V30 4088 H 391.838 -1.14913 4.46242 0
M  V30 4089 H 390.153 -1.19085 3.99008 0
M  V30 4090 H 392.75 -3.94585 3.60842 0
M  V30 4091 H 393.093 -3.69686 1.91411 0
M  V30 4092 H 393.626 -2.48595 3.10556 0
M  V30 4093 H 390.365 -2.39504 6.10179 0
M  V30 4094 H 389.885 -3.54839 4.8358 0
M  V30 4095 H 391.564 -3.51881 5.42945 0
M  V30 4096 N 391.696 -1.35014 -0.812953 0
M  V30 4097 C 392.921 -1.31187 -1.60639 0
M  V30 4098 C 393.346 0.109382 -1.87782 0
M  V30 4099 O 392.704 1.07424 -1.46047 0
M  V30 4100 C 392.752 -2.11809 -2.91838 0
M  V30 4101 O 391.856 -1.49444 -3.8437 0
M  V30 4102 H 391.197 -0.450084 -0.488181 0
M  V30 4103 H 393.727 -1.77963 -1.00947 0
M  V30 4104 H 393.737 -2.23531 -3.41318 0
M  V30 4105 H 392.412 -3.15137 -2.71407 0
M  V30 4106 H 390.989 -1.46524 -3.42907 0
M  V30 4107 N 393.175 1.03435 -1.18907 0
M  V30 4108 C 394.586 1.58195 -0.991523 0
M  V30 4109 C 394.937 1.90801 0.457081 0
M  V30 4110 O 394.062 1.70272 1.33553 0
M  V30 4111 C 394.657 2.87432 -1.79355 0
M  V30 4112 C 393.216 3.38785 -1.64017 0
M  V30 4113 C 392.363 2.12292 -1.78402 0
M  V30 4114 H 395.314 0.860299 -1.33359 0
M  V30 4115 H 395.335 3.58096 -1.28638 0
M  V30 4116 H 394.847 2.63669 -2.84781 0
M  V30 4117 H 392.948 3.67547 -0.611536 0
M  V30 4118 H 393.061 4.12186 -2.44212 0
M  V30 4119 H 391.425 2.23901 -1.2141 0
M  V30 4120 H 392.208 1.90977 -2.85277 0
M  V30 4121 N 394.653 0.992116 1.22453 0
M  V30 4122 C 395.583 0.561677 2.26644 0
M  V30 4123 C 396.564 -0.411055 1.65059 0
M  V30 4124 O 397.749 -0.301861 1.9184 0
M  V30 4125 C 394.879 -0.125247 3.47074 0
M  V30 4126 C 393.833 0.765948 4.21091 0
M  V30 4127 C 393.159 -0.0538484 5.34673 0
M  V30 4128 C 394.459 2.06242 4.79856 0
M  V30 4129 H 396.153 1.43259 2.62902 0
M  V30 4130 H 393.699 0.690283 1.26377 0
M  V30 4131 H 395.652 -0.437764 4.1912 0
M  V30 4132 H 394.376 -1.03069 3.0991 0
M  V30 4133 H 393.035 1.0621 3.50878 0
M  V30 4134 H 392.683 -0.960188 4.9375 0
M  V30 4135 H 392.383 0.539415 5.85119 0
M  V30 4136 H 393.907 -0.360477 6.09535 0
M  V30 4137 H 395.321 1.8139 5.43848 0
M  V30 4138 H 393.718 2.60444 5.40638 0
M  V30 4139 H 394.788 2.74167 3.99951 0
M  V30 4140 N 396.131 -1.37776 0.765217 0
M  V30 4141 C 397.094 -2.28686 0.153416 0
M  V30 4142 C 398.094 -1.47727 -0.635081 0
M  V30 4143 O 399.284 -1.68027 -0.459632 0
M  V30 4144 C 396.416 -3.31608 -0.790495 0
M  V30 4145 H 397.609 -2.84297 0.954723 0
M  V30 4146 H 395.162 -1.46932 0.53299 0
M  V30 4147 H 395.897 -2.81109 -1.61705 0
M  V30 4148 H 395.682 -3.9144 -0.227348 0
M  V30 4149 H 397.172 -3.99559 -1.21419 0
M  V30 4150 N 397.609 -0.515225 -1.4894 0
M  V30 4151 C 398.857 0.0241671 -2.02086 0
M  V30 4152 C 399.178 1.3616 -1.3959 0
M  V30 4153 O 398.448 1.87841 -0.556121 0
M  V30 4154 H 397.028 0.0119203 -0.746905 0
M  V30 4155 H 399.69 -0.675702 -1.82812 0
M  V30 4156 H 398.786 0.143385 -3.1177 0
M  V30 4157 N 399.087 1.5561 -0.249682 0
M  V30 4158 C 400.312 2.03865 0.381305 0
M  V30 4159 C 400.737 1.12769 1.50548 0
M  V30 4160 O 400.095 0.121189 1.80895 0
M  V30 4161 C 400.143 3.50101 0.863816 0
M  V30 4162 O 399.247 3.62132 1.97318 0
M  V30 4163 H 398.588 0.658827 0.0827194 0
M  V30 4164 H 401.118 2.01105 -0.376552 0
M  V30 4165 H 401.128 3.90975 1.1663 0
M  V30 4166 H 399.803 4.1588 0.0411816 0
M  V30 4167 H 398.38 3.33155 1.67517 0
M  V30 4168 N 400.565 -0.0233959 1.57583 0
M  V30 4169 C 401.528 -1.00693 2.05897 0
M  V30 4170 C 402.528 -1.28693 0.964092 0
M  V30 4171 O 403.718 -1.23602 1.22753 0
M  V30 4172 C 400.85 -2.33825 2.4807 0
M  V30 4173 H 402.043 -0.589476 2.9405 0
M  V30 4174 H 399.596 -0.270354 1.53944 0
M  V30 4175 H 400.331 -2.80307 1.6309 0
M  V30 4176 H 400.116 -2.1483 3.2801 0
M  V30 4177 H 401.606 -3.04426 2.85857 0
M  V30 4178 N 402.043 -1.548 -0.295768 0
M  V30 4179 C 402.975 -1.82492 -1.3867 0
M  V30 4180 C 403.988 -0.708134 -1.46592 0
M  V30 4181 O 405.177 -0.985686 -1.48817 0
M  V30 4182 C 402.277 -1.95256 -2.76999 0
M  V30 4183 C 401.45 -3.25709 -2.91946 0
M  V30 4184 C 400.509 -3.28824 -4.10806 0
M  V30 4185 O 399.535 -4.02328 -4.02643 0
M  V30 4186 N 400.737 -2.5459 -5.21694 0
M  V30 4187 H 403.502 -2.76646 -1.15269 0
M  V30 4188 H 401.063 -1.54438 -0.485849 0
M  V30 4189 H 403.055 -1.94736 -3.54768 0
M  V30 4190 H 401.625 -1.08072 -2.93324 0
M  V30 4191 H 400.845 -3.38959 -2.01247 0
M  V30 4192 H 402.133 -4.11786 -2.98847 0
M  V30 4193 H 401.531 -1.94512 -5.31208 0
M  V30 4194 H 400.088 -2.59818 -5.97778 0
M  V30 4195 N 403.521 0.559213 -1.47345 0
M  V30 4196 C 404.471 1.66192 -1.5609 0
M  V30 4197 C 405.455 1.55323 -0.419957 0
M  V30 4198 O 406.647 1.63839 -0.669762 0
M  V30 4199 C 403.776 3.0497 -1.57634 0
M  V30 4200 C 402.862 3.2105 -2.77106 0
M  V30 4201 N 403.253 3.07203 -4.01821 0
M  V30 4202 C 401.551 3.52046 -2.73825 0
M  V30 4203 C 402.252 3.25919 -4.81821 0
M  V30 4204 N 401.228 3.52161 -4.14106 0
M  V30 4205 H 405.03 1.54052 -2.5029 0
M  V30 4206 H 402.544 0.763914 -1.43311 0
M  V30 4207 H 404.541 3.84142 -1.61989 0
M  V30 4208 H 403.201 3.18224 -0.645281 0
M  V30 4209 H 404.212 2.84572 -4.32711 0
M  V30 4210 H 400.889 3.71839 -1.89848 0
M  V30 4211 H 402.279 3.20198 -5.90697 0
M  V30 4212 N 404.999 1.35443 0.805782 0
M  V30 4213 C 406.245 1.28952 1.56522 0
M  V30 4214 C 406.578 -0.135597 1.93726 0
M  V30 4215 O 405.853 -1.08516 1.61414 0
M  V30 4216 C 406.136 2.19678 2.85331 0
M  V30 4217 C 405.989 3.7081 2.54598 0
M  V30 4218 C 407.308 2.09495 3.8704 0
M  V30 4219 H 404.427 0.469764 0.567883 0
M  V30 4220 H 407.069 1.65851 0.927001 0
M  V30 4221 H 405.219 1.8834 3.39795 0
M  V30 4222 H 406.891 4.12593 2.06312 0
M  V30 4223 H 405.134 3.91051 1.8778 0
M  V30 4224 H 405.805 4.29679 3.46525 0
M  V30 4225 H 408.281 2.37045 3.41978 0
M  V30 4226 H 407.157 2.75173 4.74943 0
M  V30 4227 H 407.418 1.07714 4.28777 0
M  V30 4228 N 406.477 -1.02803 1.19454 0
M  V30 4229 C 407.387 -2.14575 0.948408 0
M  V30 4230 C 408.403 -1.73757 -0.091871 0
M  V30 4231 O 409.579 -2.01185 0.0929654 0
M  V30 4232 C 406.644 -3.43202 0.491265 0
M  V30 4233 C 405.705 -3.98328 1.60103 0
M  V30 4234 C 404.938 -5.20816 1.16561 0
M  V30 4235 O 405.161 -5.70392 0.0295238 0
M  V30 4236 O 404.095 -5.68801 1.96849 0
M  V30 4237 H 407.921 -2.38202 1.88397 0
M  V30 4238 H 405.506 -1.12989 0.977433 0
M  V30 4239 H 407.388 -4.20687 0.245015 0
M  V30 4240 H 406.063 -3.21018 -0.415851 0
M  V30 4241 H 404.97 -3.22174 1.90144 0
M  V30 4242 H 406.303 -4.24879 2.48473 0
M  V30 4243 N 407.956 -0.998596 -1.21925 0
M  V30 4244 C 408.866 -0.562736 -2.27751 0
M  V30 4245 C 409.882 0.391203 -1.69545 0
M  V30 4246 O 411.058 0.256625 -1.99758 0
M  V30 4247 C 408.123 0.11012 -3.46525 0
M  V30 4248 C 407.184 -0.887495 -4.20026 0
M  V30 4249 C 406.417 -0.246654 -5.3313 0
M  V30 4250 O 406.64 0.958088 -5.62296 0
M  V30 4251 O 405.574 -0.954374 -5.94286 0
M  V30 4252 H 409.4 -1.44329 -2.67213 0
M  V30 4253 H 406.985 -0.767135 -1.28201 0
M  V30 4254 H 408.867 0.486756 -4.18579 0
M  V30 4255 H 407.542 0.965154 -3.08976 0
M  V30 4256 H 406.449 -1.31517 -3.5022 0
M  V30 4257 H 407.782 -1.71191 -4.6147 0
M  V30 4258 N 409.434 1.37368 -0.772513 0
M  V30 4259 C 410.674 2.01512 -0.342361 0
M  V30 4260 C 411.038 1.59997 1.06136 0
M  V30 4261 O 412.239 2.16609 1.59167 0
M  V30 4262 C 410.51 3.54134 -0.482048 0
M  V30 4263 S 412.069 4.38585 -0.137272 0
M  V30 4264 H 408.887 0.698699 -0.131686 0
M  V30 4265 H 411.489 1.67552 -1.0073 0
M  V30 4266 H 410.193 3.81837 -1.50428 0
M  V30 4267 H 409.724 3.92894 0.199413 0
M  V30 4268 H 411.739 4.84594 1.06692 0
M  V30 4269 N 410.912 0.523116 1.48665 0
M  V30 4270 C 412.137 -0.0117284 2.07397 0
M  V30 4271 C 412.562 -1.28031 1.37803 0
M  V30 4272 O 411.92 -1.75836 0.441762 0
M  V30 4273 C 411.968 -0.225786 3.59892 0
M  V30 4274 O 411.072 -1.29592 3.91509 0
M  V30 4275 H 410.413 0.0360673 0.66302 0
M  V30 4276 H 412.943 0.729066 1.9117 0
M  V30 4277 H 412.953 -0.450552 4.05505 0
M  V30 4278 H 411.628 0.700944 4.09951 0
M  V30 4279 H 410.205 -1.05436 3.57684 0
M  V30 4280 N 412.39 -1.55475 0.257931 0
M  V30 4281 C 413.63 -2.01112 -0.365129 0
M  V30 4282 C 413.994 -1.1423 -1.54323 0
M  V30 4283 O 415.195 -1.49371 -2.23477 0
M  V30 4284 C 413.466 -3.49353 -0.754117 0
M  V30 4285 S 415.025 -4.16992 -1.36614 0
M  V30 4286 H 411.843 -0.701737 -0.114397 0
M  V30 4287 H 414.445 -1.91855 0.375747 0
M  V30 4288 H 413.149 -4.10246 0.112441 0
M  V30 4289 H 412.68 -3.6256 -1.52689 0
M  V30 4290 H 414.695 -4.19191 -2.65505 0
M  V30 4291 N 413.868 0.0150385 -1.57593 0
M  V30 4292 C 415.098 0.713359 -1.93894 0
M  V30 4293 C 415.506 1.68663 -0.857289 0
M  V30 4294 O 414.849 1.82876 0.173788 0
M  V30 4295 C 414.911 1.51348 -3.26089 0
M  V30 4296 C 414.575 0.703451 -4.51554 0
M  V30 4297 C 415.572 -0.00237924 -5.199 0
M  V30 4298 C 413.257 0.653854 -4.98026 0
M  V30 4299 C 415.251 -0.746955 -6.33008 0
M  V30 4300 C 412.938 -0.0944578 -6.11027 0
M  V30 4301 C 413.936 -0.793609 -6.78374 0
M  V30 4302 O 413.624 -1.52974 -7.89211 0
M  V30 4303 H 413.356 0.204637 -0.644282 0
M  V30 4304 H 415.91 -0.0276411 -2.05381 0
M  V30 4305 H 414.14 2.29862 -3.10967 0
M  V30 4306 H 415.829 2.09572 -3.47612 0
M  V30 4307 H 416.595 0.0268803 -4.84993 0
M  V30 4308 H 412.474 1.18756 -4.45441 0
M  V30 4309 H 416.018 -1.2932 -6.85509 0
M  V30 4310 H 411.915 -0.125591 -6.45378 0
M  V30 4311 H 412.683 -1.44488 -8.05646 0
M  V30 4312 N 415.346 1.54954 0.287554 0
M  V30 4313 C 416.757 1.65732 0.859634 0
M  V30 4314 C 417.108 0.574767 1.87592 0
M  V30 4315 O 416.233 -0.286299 2.14498 0
M  V30 4316 C 416.828 3.00438 1.56597 0
M  V30 4317 C 415.387 3.13292 2.08627 0
M  V30 4318 C 414.534 2.61473 0.923416 0
M  V30 4319 H 417.485 1.5857 0.0642338 0
M  V30 4320 H 417.506 2.92613 2.43224 0
M  V30 4321 H 417.018 3.79207 0.826053 0
M  V30 4322 H 415.119 2.39268 2.85625 0
M  V30 4323 H 415.232 4.19647 2.31157 0
M  V30 4324 H 413.596 2.18264 1.31275 0
M  V30 4325 H 414.379 3.42733 0.197241 0
M  V30 4326 N 416.824 -0.551391 1.4764 0
M  V30 4327 C 418.24 -0.877887 1.33287 0
M  V30 4328 C 418.44 -1.98817 0.327721 0
M  V30 4329 O 417.496 -2.51171 -0.258695 0
M  V30 4330 C 418.809 -1.26563 2.72768 0
M  V30 4331 C 420.357 -1.37673 2.81097 0
M  V30 4332 C 420.832 -1.79799 4.21232 0
M  V30 4333 N 422.323 -1.8694 4.23802 0
M  V30 4334 C 423.058 -2.20876 5.29151 0
M  V30 4335 N 422.554 -2.53386 6.448 0
M  V30 4336 N 424.347 -2.217 5.16532 0
M  V30 4337 H 416.498 0.18153 2.11623 0
M  V30 4338 H 418.761 0.0185514 0.947818 0
M  V30 4339 H 418.467 -0.523591 3.47781 0
M  V30 4340 H 418.341 -2.22052 3.04915 0
M  V30 4341 H 420.728 -2.10956 2.06353 0
M  V30 4342 H 420.809 -0.40357 2.52596 0
M  V30 4343 H 420.453 -1.07083 4.96483 0
M  V30 4344 H 420.383 -2.78128 4.4716 0
M  V30 4345 H 422.874 -1.64179 3.40373 0
M  V30 4346 H 423.187 -2.78325 7.20941 0
M  V30 4347 H 421.532 -2.50953 6.48111 0
M  V30 4348 H 424.723 -1.95745 4.25207 0
M  V30 4349 H 424.896 -2.47818 5.98741 0
M  V30 4350 N 418.302 -1.35869 -0.798587 0
M  V30 4351 C 419.532 -1.32529 -1.58491 0
M  V30 4352 C 419.94 0.0975405 -1.88948 0
M  V30 4353 O 419.283 1.06224 -1.49874 0
M  V30 4354 C 419.345 -2.07247 -2.9375 0
M  V30 4355 C 419.009 -3.56391 -2.86068 0
M  V30 4356 C 420.006 -4.50824 -2.58947 0
M  V30 4357 C 417.691 -3.9915 -3.04933 0
M  V30 4358 C 419.685 -5.85993 -2.5078 0
M  V30 4359 C 417.372 -5.34413 -2.96389 0
M  V30 4360 C 418.37 -6.27646 -2.69349 0
M  V30 4361 O 418.058 -7.60426 -2.60782 0
M  V30 4362 H 417.79 -0.456529 -0.498556 0
M  V30 4363 H 420.344 -1.79425 -0.999799 0
M  V30 4364 H 418.574 -1.55001 -3.54276 0
M  V30 4365 H 420.263 -1.96883 -3.54954 0
M  V30 4366 H 421.029 -4.19104 -2.44084 0
M  V30 4367 H 416.908 -3.26961 -3.24989 0
M  V30 4368 H 420.452 -6.58735 -2.29595 0
M  V30 4369 H 416.349 -5.65743 -3.10813 0
M  V30 4370 H 417.117 -7.70444 -2.76331 0
M  V30 4371 N 419.78 1.02168 -1.19998 0
M  V30 4372 C 421.191 1.57135 -1.00825 0
M  V30 4373 C 421.542 1.91276 0.436818 0
M  V30 4374 O 420.667 1.71679 1.3174 0
M  V30 4375 C 421.262 2.85514 -1.82393 0
M  V30 4376 C 419.821 3.37027 -1.67601 0
M  V30 4377 C 418.968 2.10388 -1.80644 0
M  V30 4378 H 421.919 0.846106 -1.34264 0
M  V30 4379 H 421.94 3.56711 -1.32429 0
M  V30 4380 H 421.452 2.60634 -2.87561 0
M  V30 4381 H 419.553 3.66878 -0.650485 0
M  V30 4382 H 419.666 4.09572 -2.4857 0
M  V30 4383 H 418.03 2.22601 -1.23778 0
M  V30 4384 H 418.813 1.8794 -2.87286 0
M  V30 4385 N 421.258 1.00505 1.21394 0
M  V30 4386 C 422.506 0.686415 1.90086 0
M  V30 4387 C 422.827 -0.785264 1.7849 0
M  V30 4388 O 422.097 -1.56387 1.17983 0
M  V30 4389 H 420.677 0.2509 0.703604 0
M  V30 4390 H 423.339 1.27417 1.47482 0
M  V30 4391 H 422.435 0.959621 2.96981 0
M  V30 4392 N 422.737 -1.36956 0.779787 0
M  V30 4393 C 423.983 -1.99787 0.348281 0
M  V30 4394 C 424.316 -1.61756 -1.07465 0
M  V30 4395 O 423.591 -0.867639 -1.74075 0
M  V30 4396 C 423.874 -3.56597 0.50104 0
M  V30 4397 C 423.727 -4.04513 1.96697 0
M  V30 4398 C 425.046 -4.40008 -0.0898097 0
M  V30 4399 H 422.165 -0.725796 0.128022 0
M  V30 4400 H 424.807 -1.62514 0.984331 0
M  V30 4401 H 422.957 -3.88479 -0.0404347 0
M  V30 4402 H 424.629 -3.83161 2.56876 0
M  V30 4403 H 422.872 -3.56408 2.47297 0
M  V30 4404 H 423.543 -5.1352 2.02486 0
M  V30 4405 H 426.019 -4.14431 0.372293 0
M  V30 4406 H 424.895 -5.4888 0.0471605 0
M  V30 4407 H 425.156 -4.26035 -1.18096 0
M  V30 4408 N 424.215 -0.530993 -1.48385 0
M  V30 4409 C 425.631 -0.188919 -1.58478 0
M  V30 4410 C 425.831 1.30786 -1.53288 0
M  V30 4411 O 424.887 2.08619 -1.42248 0
M  V30 4412 C 426.2 -0.792343 -2.90073 0
M  V30 4413 C 427.748 -0.76117 -3.03604 0
M  V30 4414 C 428.223 -1.34319 -4.37861 0
M  V30 4415 N 429.714 -1.3052 -4.44431 0
M  V30 4416 C 430.449 -1.72543 -5.46824 0
M  V30 4417 N 429.945 -2.22299 -6.56167 0
M  V30 4418 N 431.738 -1.63773 -5.37712 0
M  V30 4419 H 423.889 -1.50377 -1.50002 0
M  V30 4420 H 426.152 -0.625559 -0.712306 0
M  V30 4421 H 425.858 -1.84323 -2.99529 0
M  V30 4422 H 425.732 -0.270026 -3.76232 0
M  V30 4423 H 428.119 0.280957 -2.93759 0
M  V30 4424 H 428.2 -1.32097 -2.19053 0
M  V30 4425 H 427.844 -2.38425 -4.4846 0
M  V30 4426 H 427.774 -0.759064 -5.21101 0
M  V30 4427 H 430.265 -0.940973 -3.65997 0
M  V30 4428 H 430.578 -2.52356 -7.30436 0
M  V30 4429 H 428.923 -2.26293 -6.57127 0
M  V30 4430 H 432.114 -1.24698 -4.51185 0
M  V30 4431 H 432.287 -1.96844 -6.17379 0
M  V30 4432 N 425.693 1.55336 -0.266172 0
M  V30 4433 C 426.933 2.01303 0.354459 0
M  V30 4434 C 427.297 1.15046 1.53715 0
M  V30 4435 O 428.498 1.50554 2.22681 0
M  V30 4436 C 426.769 3.49748 0.735579 0
M  V30 4437 S 428.328 4.1771 1.34401 0
M  V30 4438 H 425.146 0.702333 0.110674 0
M  V30 4439 H 427.748 1.91653 -0.385916 0
M  V30 4440 H 426.452 4.10181 -0.134196 0
M  V30 4441 H 425.983 3.63364 1.50764 0
M  V30 4442 H 427.998 4.20594 2.63278 0
M  V30 4443 N 427.171 -0.0066808 1.57599 0
M  V30 4444 C 428.42 -0.692078 1.89455 0
M  V30 4445 C 428.733 -1.75306 0.867586 0
M  V30 4446 O 429.939 -2.49262 1.07614 0
M  V30 4447 C 428.395 -1.2821 3.36289 0
M  V30 4448 C 428.003 -0.256291 4.47266 0
M  V30 4449 C 429.747 -1.94608 3.77264 0
M  V30 4450 C 427.654 -0.855927 5.85173 0
M  V30 4451 H 426.584 -0.262252 0.706923 0
M  V30 4452 H 429.235 0.052769 1.83424 0
M  V30 4453 H 427.617 -2.0774 3.37135 0
M  V30 4454 H 428.791 0.513923 4.57925 0
M  V30 4455 H 427.106 0.306862 4.15268 0
M  V30 4456 H 429.703 -2.40364 4.77629 0
M  V30 4457 H 430.046 -2.77382 3.10427 0
M  V30 4458 H 430.579 -1.21822 3.78688 0
M  V30 4459 H 427.318 -0.0671161 6.55466 0
M  V30 4460 H 426.838 -1.59546 5.78191 0
M  V30 4461 H 428.517 -1.35658 6.32618 0
M  V30 4462 N 428.649 -1.55105 -0.279332 0
M  V30 4463 C 429.889 -1.7716 -1.01949 0
M  V30 4464 C 430.253 -0.557511 -1.83728 0
M  V30 4465 O 431.454 -0.656198 -2.60667 0
M  V30 4466 C 429.725 -3.0372 -1.88385 0
M  V30 4467 S 431.284 -3.46868 -2.68752 0
M  V30 4468 H 428.102 -0.62253 -0.343478 0
M  V30 4469 H 430.704 -1.93329 -0.290572 0
M  V30 4470 H 429.408 -3.90184 -1.2722 0
M  V30 4471 H 428.939 -2.902 -2.65608 0
M  V30 4472 H 430.954 -3.05643 -3.90892 0
M  V30 4473 N 430.127 0.543554 -1.4793 0
M  V30 4474 C 431.543 0.870806 -1.3375 0
M  V30 4475 C 431.743 1.9864 -0.338261 0
M  V30 4476 O 430.799 2.51305 0.245371 0
M  V30 4477 C 432.112 1.25114 -2.73435 0
M  V30 4478 C 433.66 1.3618 -2.81823 0
M  V30 4479 C 434.135 1.77563 -4.22179 0
M  V30 4480 N 435.626 1.8469 -4.24787 0
M  V30 4481 C 436.361 2.18067 -5.30315 0
M  V30 4482 N 435.857 2.49963 -6.46135 0
M  V30 4483 N 437.65 2.18958 -5.17701 0
M  V30 4484 H 429.801 -0.19275 -2.11524 0
M  V30 4485 H 432.064 -0.0235777 -0.947707 0
M  V30 4486 H 431.77 0.50514 -3.48053 0
M  V30 4487 H 431.644 2.20431 -3.06088 0
M  V30 4488 H 434.031 2.09859 -2.07468 0
M  V30 4489 H 434.112 0.390169 -2.52807 0
M  V30 4490 H 433.756 1.04449 -4.97044 0
M  V30 4491 H 433.686 2.75753 -4.48629 0
M  V30 4492 H 436.177 1.62372 -3.41239 0
M  V30 4493 H 436.49 2.74497 -7.22406 0
M  V30 4494 H 434.835 2.47513 -6.49432 0
M  V30 4495 H 438.026 1.93488 -4.2624 0
M  V30 4496 H 438.199 2.44639 -6.00047 0
M  V30 4497 N 431.605 1.3629 0.791371 0
M  V30 4498 C 432.882 1.20962 1.53712 0
M  V30 4499 C 433.262 -0.205021 2.10102 0
M  V30 4500 O 432.61 -1.21042 1.93807 0
M  V30 4501 C 432.82 2.29002 2.63361 0
M  V30 4502 C 434.168 2.65572 3.31295 0
M  V30 4503 O 435.192 2.2803 2.73643 0
M  V30 4504 O 434.051 3.3018 4.35481 0
M  V30 4505 H 431.145 0.47086 0.679867 0
M  V30 4506 H 433.691 1.48016 0.830021 0
M  V30 4507 H 432.463 3.2382 2.19674 0
M  V30 4508 H 432.086 2.03303 3.41692 0
M  V30 4509 N 433.083 -1.0153 1.20538 0
M  V30 4510 C 434.031 -2.12215 0.952235 0
M  V30 4511 C 435.025 -1.69123 -0.0968735 0
M  V30 4512 O 436.231 -1.7992 0.0536006 0
M  V30 4513 H 432.606 -0.693576 0.290613 0
M  V30 4514 H 434.577 -2.3075 1.89201 0
M  V30 4515 C 433.326 -3.43755 0.522287 0
M  V30 4516 H 432.649 -3.7734 1.32115 0
M  V30 4517 H 434.089 -4.22254 0.384389 0
M  V30 4518 C 432.548 -3.28088 -0.765489 0
M  V30 4519 O 433.078 -3.57921 -1.8236 0
M  V30 4520 N 431.284 -2.81333 -0.728011 0
M  V30 4521 H 430.831 -2.57255 0.133332 0
M  V30 4522 H 430.789 -2.71232 -1.58999 0
M  V30 4523 N 434.561 -1.01147 -1.20859 0
M  V30 4524 C 435.807 -0.708598 -1.90658 0
M  V30 4525 C 436.162 0.753069 -1.7705 0
M  V30 4526 O 435.455 1.53952 -1.14059 0
M  V30 4527 C 435.649 -1.0727 -3.40922 0
M  V30 4528 C 435.478 -2.56821 -3.69152 0
M  V30 4529 C 434.248 -3.23524 -3.8815 0
M  V30 4530 C 436.446 -3.54997 -3.72131 0
M  V30 4531 N 434.428 -4.62359 -4.03853 0
M  V30 4532 C 435.799 -4.79371 -3.93196 0
M  V30 4533 C 437.854 -3.49042 -3.55069 0
M  V30 4534 C 436.557 -5.98512 -3.98969 0
M  V30 4535 C 438.583 -4.67579 -3.6211 0
M  V30 4536 C 437.945 -5.9076 -3.83643 0
M  V30 4537 H 434.044 -0.31088 -0.71755 0
M  V30 4538 H 436.628 -1.29526 -1.45366 0
M  V30 4539 H 434.799 -0.51443 -3.84978 0
M  V30 4540 H 436.531 -0.723891 -3.98173 0
M  V30 4541 H 433.286 -2.73958 -3.86321 0
M  V30 4542 H 433.71 -5.34427 -4.15592 0
M  V30 4543 H 438.352 -2.54808 -3.37391 0
M  V30 4544 H 436.07 -6.93132 -4.15444 0
M  V30 4545 H 439.656 -4.64581 -3.50222 0
M  V30 4546 H 438.536 -6.8095 -3.88944 0
M  V30 4547 N 436.039 1.36541 -0.78704 0
M  V30 4548 C 436.986 2.30082 -0.181901 0
M  V30 4549 C 437.956 1.5186 0.672896 0
M  V30 4550 O 439.141 1.80374 0.622072 0
M  V30 4551 C 436.281 3.3835 0.679197 0
M  V30 4552 C 435.394 4.31565 -0.193882 0
M  V30 4553 C 434.529 5.26915 0.673364 0
M  V30 4554 C 433.568 6.11769 -0.201315 0
M  V30 4555 N 432.705 6.99315 0.624777 0
M  V30 4556 H 437.545 2.81248 -0.985064 0
M  V30 4557 H 435.082 1.38437 -0.497342 0
M  V30 4558 H 437.04 3.99767 1.19341 0
M  V30 4559 H 435.67 2.8851 1.44781 0
M  V30 4560 H 434.722 3.71323 -0.826044 0
M  V30 4561 H 436.034 4.91191 -0.867937 0
M  V30 4562 H 435.188 5.9361 1.25348 0
M  V30 4563 H 433.927 4.67737 1.38105 0
M  V30 4564 H 432.932 5.44039 -0.793849 0
M  V30 4565 H 434.157 6.73022 -0.906568 0
M  V30 4566 H 432.103 6.42648 1.3168 0
M  V30 4567 H 432.02 7.56 0.00835237 0
M  V30 4568 H 433.288 7.70382 1.18879 0
M  V30 4569 N 437.518 0.538854 1.48102 0
M  V30 4570 C 438.766 0.00798599 2.02098 0
M  V30 4571 C 439.087 -1.33922 1.41739 0
M  V30 4572 O 438.357 -1.86932 0.585934 0
M  V30 4573 H 436.937 -3.62179e-05 0.747 0
M  V30 4574 H 439.599 0.7047 1.81714 0
M  V30 4575 H 438.695 -0.0937672 3.11959 0
M  V30 4576 N 438.996 -1.55193 0.274407 0
M  V30 4577 C 440.221 -2.04446 -0.348824 0
M  V30 4578 C 440.646 -1.15149 -1.48735 0
M  V30 4579 O 440.004 -0.149952 -1.80679 0
M  V30 4580 C 440.052 -3.51431 -0.808009 0
M  V30 4581 O 439.156 -3.65225 -1.91531 0
M  V30 4582 H 438.497 -0.66006 -0.0722276 0
M  V30 4583 H 441.027 -2.00481 0.408498 0
M  V30 4584 H 441.037 -3.92781 -1.10395 0
M  V30 4585 H 439.712 -4.15892 0.0249865 0
M  V30 4586 H 438.289 -3.35778 -1.62196 0
M  V30 4587 N 440.474 -0.00167713 -1.576 0
M  V30 4588 C 441.422 1.0074 -2.09652 0
M  V30 4589 C 442.416 1.35483 -1.01689 0
M  V30 4590 O 443.622 1.34028 -1.20152 0
M  V30 4591 H 439.997 0.342537 -0.669457 0
M  V30 4592 H 441.968 0.542841 -2.93421 0
M  V30 4593 C 440.717 2.2899 -2.61647 0
M  V30 4594 H 440.04 2.03124 -3.44355 0
M  V30 4595 H 441.48 2.9787 -3.01744 0
M  V30 4596 C 439.939 3.00085 -1.53136 0
M  V30 4597 O 440.469 3.91135 -0.91524 0
M  V30 4598 N 438.675 2.6194 -1.25841 0
M  V30 4599 H 438.222 1.8798 -1.76129 0
M  V30 4600 H 438.18 3.09822 -0.534576 0
M  V30 4601 N 441.952 1.55251 0.271103 0
M  V30 4602 C 443.368 1.47133 0.618393 0
M  V30 4603 C 443.568 0.686994 1.89427 0
M  V30 4604 O 442.624 0.206609 2.51653 0
M  V30 4605 C 443.937 2.91361 0.743593 0
M  V30 4606 C 445.485 3.01587 0.837522 0
M  V30 4607 C 445.96 4.47073 0.994483 0
M  V30 4608 N 447.451 4.50909 1.05996 0
M  V30 4609 C 448.186 5.60698 1.20024 0
M  V30 4610 N 447.682 6.80348 1.30759 0
M  V30 4611 N 449.475 5.48444 1.23149 0
M  V30 4612 H 441.626 2.04698 -0.566784 0
M  V30 4613 H 443.889 0.928319 -0.192165 0
M  V30 4614 H 443.595 3.51483 -0.123493 0
M  V30 4615 H 443.469 3.40484 1.62328 0
M  V30 4616 H 445.856 2.4156 1.69507 0
M  V30 4617 H 445.937 2.55713 -0.0668086 0
M  V30 4618 H 445.581 5.07703 0.141582 0
M  V30 4619 H 445.511 4.90605 1.91349 0
M  V30 4620 H 448.002 3.6472 0.989316 0
M  V30 4621 H 448.315 7.59772 1.41303 0
M  V30 4622 H 446.66 6.83156 1.27761 0
M  V30 4623 H 449.851 4.53907 1.14394 0
M  V30 4624 H 450.024 6.34049 1.33738 0
M  V30 4625 N 443.43 -0.535701 1.48216 0
M  V30 4626 C 444.841 -1.11769 1.49548 0
M  V30 4627 C 445.192 -1.94442 0.26207 0
M  V30 4628 O 444.317 -2.06987 -0.631287 0
M  V30 4629 C 444.912 -2.03367 2.70975 0
M  V30 4630 C 443.471 -2.56795 2.75196 0
M  V30 4631 C 442.618 -1.33631 2.42977 0
M  V30 4632 H 445.569 -0.321232 1.55415 0
M  V30 4633 H 445.59 -2.87569 2.49167 0
M  V30 4634 H 445.102 -1.43169 3.60727 0
M  V30 4635 H 443.203 -3.20731 1.89638 0
M  V30 4636 H 443.316 -2.9632 3.76472 0
M  V30 4637 H 441.68 -1.6502 1.94012 0
M  V30 4638 H 442.463 -0.75194 3.34964 0
M  V30 4639 N 444.908 -1.36708 -0.784132 0
M  V30 4640 C 446.154 -1.31426 -1.54451 0
M  V30 4641 C 446.487 0.10476 -1.93917 0
M  V30 4642 O 445.762 1.05934 -1.6312 0
M  V30 4643 C 446.045 -2.24189 -2.818 0
M  V30 4644 C 445.898 -3.74813 -2.48667 0
M  V30 4645 C 447.217 -2.15626 -3.83658 0
M  V30 4646 H 444.336 -0.478739 -0.560337 0
M  V30 4647 H 446.978 -1.67305 -0.900498 0
M  V30 4648 H 445.128 -1.93722 -3.36755 0
M  V30 4649 H 446.8 -4.15823 -1.99722 0
M  V30 4650 H 445.043 -3.93989 -1.81535 0
M  V30 4651 H 445.714 -4.35138 -3.39646 0
M  V30 4652 H 448.19 -2.42456 -3.38163 0
M  V30 4653 H 447.066 -2.82694 -4.70506 0
M  V30 4654 H 447.327 -1.14522 -4.27009 0
M  V30 4655 N 446.386 1.0089 -1.21074 0
M  V30 4656 C 447.632 1.74866 -1.02712 0
M  V30 4657 C 447.965 1.89178 0.438787 0
M  V30 4658 O 447.24 1.42325 1.32567 0
M  V30 4659 C 447.523 3.16347 -1.72036 0
M  V30 4660 C 447.376 3.09782 -3.26121 0
M  V30 4661 C 448.695 4.15187 -1.45973 0
M  V30 4662 H 445.814 0.634736 -0.374539 0
M  V30 4663 H 448.456 1.17646 -1.49196 0
M  V30 4664 H 446.606 3.65201 -1.32517 0
M  V30 4665 H 448.278 2.68673 -3.74983 0
M  V30 4666 H 446.521 2.46982 -3.56626 0
M  V30 4667 H 447.192 4.09829 -3.6979 0
M  V30 4668 H 449.668 3.75022 -1.80272 0
M  V30 4669 H 448.544 5.12331 -1.96999 0
M  V30 4670 H 448.805 4.40386 -0.388924 0
M  V30 4671 N 447.864 1.01787 1.20321 0
M  V30 4672 C 449.141 0.622978 1.85414 0
M  V30 4673 C 449.521 -0.898887 1.91006 0
M  V30 4674 O 448.869 -1.79112 1.41884 0
M  V30 4675 C 449.079 1.27226 3.24984 0
M  V30 4676 C 450.427 1.3885 4.01255 0
M  V30 4677 O 451.451 1.22857 3.34342 0
M  V30 4678 O 450.31 1.64705 5.2109 0
M  V30 4679 H 447.404 0.215116 0.798533 0
M  V30 4680 H 449.95 1.11533 1.27901 0
M  V30 4681 H 448.722 2.31209 3.15687 0
M  V30 4682 H 448.345 0.767069 3.90131 0
M  V30 4683 N 449.342 -1.36122 0.79427 0
M  V30 4684 C 450.591 -1.98361 0.365464 0
M  V30 4685 C 450.904 -1.6374 -1.06997 0
M  V30 4686 O 452.11 -2.19251 -1.60129 0
M  V30 4687 C 450.566 -3.54821 0.602496 0
M  V30 4688 C 450.174 -3.98362 2.04967 0
M  V30 4689 C 451.918 -4.2383 0.238437 0
M  V30 4690 C 449.825 -5.47619 2.2331 0
M  V30 4691 H 448.755 -0.742193 0.13291 0
M  V30 4692 H 451.406 -1.55354 0.976589 0
M  V30 4693 H 449.788 -3.95922 -0.078409 0
M  V30 4694 H 450.962 -3.68447 2.76737 0
M  V30 4695 H 449.277 -3.42206 2.37243 0
M  V30 4696 H 451.874 -5.33529 0.353705 0
M  V30 4697 H 452.217 -4.08264 -0.814006 0
M  V30 4698 H 452.75 -3.88108 0.872769 0
M  V30 4699 H 449.489 -5.68138 3.26955 0
M  V30 4700 H 449.009 -5.79145 1.5605 0
M  V30 4701 H 450.688 -6.13911 2.0426 0
M  V30 4702 N 450.82 -0.546701 -1.47814 0
M  V30 4703 C 451.768 0.220048 -2.31557 0
M  V30 4704 C 452.762 0.919472 -1.42275 0
M  V30 4705 O 453.968 0.841953 -1.59095 0
M  V30 4706 H 450.343 0.0898334 -0.746615 0
M  V30 4707 H 452.314 -0.505589 -2.94086 0
M  V30 4708 C 451.063 1.24353 -3.24702 0
M  V30 4709 H 450.386 0.714758 -3.93359 0
M  V30 4710 H 451.826 1.75112 -3.8615 0
M  V30 4711 C 450.285 2.28593 -2.47481 0
M  V30 4712 O 450.815 3.35334 -2.21165 0
M  V30 4713 N 449.021 2.02244 -2.08676 0
M  V30 4714 H 448.568 1.15455 -2.30278 0
M  V30 4715 H 448.526 2.72207 -1.57323 0
M  V30 4716 N 452.299 1.55045 -0.282633 0
M  V30 4717 C 453.232 2.18951 0.64311 0
M  V30 4718 C 454.21 1.15287 1.14664 0
M  V30 4719 O 455.394 1.43846 1.21822 0
M  V30 4720 C 452.521 2.81874 1.87789 0
M  V30 4721 C 451.567 3.98906 1.50919 0
M  V30 4722 S 452.4 5.3234 0.580884 0
M  V30 4723 C 453.556 5.98737 1.82387 0
M  V30 4724 H 453.789 2.97131 0.100138 0
M  V30 4725 H 451.322 1.54255 -0.0668514 0
M  V30 4726 H 453.28 3.18757 2.58658 0
M  V30 4727 H 451.941 2.03573 2.392 0
M  V30 4728 H 451.134 4.4165 2.42819 0
M  V30 4729 H 450.736 3.63485 0.88061 0
M  V30 4730 H 453.028 6.18427 2.76684 0
M  V30 4731 H 453.971 6.93318 1.4393 0
M  V30 4732 H 454.379 5.28177 1.99223 0
M  V30 4733 N 453.777 0.010035 1.57597 0
M  V30 4734 C 454.687 -0.994226 2.12491 0
M  V30 4735 C 455.703 -1.37013 1.07254 0
M  V30 4736 O 456.879 -1.45542 1.3921 0
M  V30 4737 C 453.944 -2.2642 2.62555 0
M  V30 4738 C 453.005 -1.95049 3.82432 0
M  V30 4739 C 452.238 -3.15991 4.30099 0
M  V30 4740 O 452.461 -4.28015 3.7704 0
M  V30 4741 O 451.395 -2.99403 5.22151 0
M  V30 4742 H 455.221 -0.557549 2.98538 0
M  V30 4743 H 452.806 -0.209413 1.47925 0
M  V30 4744 H 454.688 -3.01009 2.9491 0
M  V30 4745 H 453.363 -2.69306 1.796 0
M  V30 4746 H 452.27 -1.17904 3.55034 0
M  V30 4747 H 453.603 -1.56992 4.66491 0
M  V30 4748 N 455.255 -1.55392 -0.262866 0
M  V30 4749 C 456.532 -1.67204 -1.01499 0
M  V30 4750 C 456.912 -0.545186 -2.03939 0
M  V30 4751 O 456.26 0.453467 -2.23955 0
M  V30 4752 C 456.47 -3.06847 -1.6627 0
M  V30 4753 C 457.818 -3.64928 -2.17054 0
M  V30 4754 O 458.842 -3.09545 -1.76239 0
M  V30 4755 O 457.701 -4.61984 -2.91947 0
M  V30 4756 H 454.795 -0.679467 -0.471438 0
M  V30 4757 H 457.341 -1.67729 -0.257918 0
M  V30 4758 H 456.113 -3.80309 -0.920915 0
M  V30 4759 H 455.736 -3.10266 -2.48638 0
M  V30 4760 N 456.733 0.527833 -1.48498 0
M  V30 4761 C 457.963 1.30633 -1.60058 0
M  V30 4762 C 458.371 1.87394 -0.260786 0
M  V30 4763 O 457.714 1.67227 0.760317 0
M  V30 4764 C 457.776 2.49361 -2.58958 0
M  V30 4765 C 457.44 2.13671 -4.03972 0
M  V30 4766 C 458.437 1.69217 -4.91591 0
M  V30 4767 C 456.122 2.24129 -4.49524 0
M  V30 4768 C 458.116 1.35689 -6.2279 0
M  V30 4769 C 455.803 1.90212 -5.80743 0
M  V30 4770 C 456.801 1.46063 -6.67199 0
M  V30 4771 O 456.489 1.12593 -7.95976 0
M  V30 4772 H 456.221 0.403444 -0.54241 0
M  V30 4773 H 458.775 0.643233 -1.95068 0
M  V30 4774 H 457.005 3.18659 -2.19073 0
M  V30 4775 H 458.694 3.11421 -2.6033 0
M  V30 4776 H 459.46 1.60607 -4.57636 0
M  V30 4777 H 455.339 2.57447 -3.82416 0
M  V30 4778 H 458.883 1.01157 -6.90227 0
M  V30 4779 H 454.78 1.98464 -6.14233 0
M  V30 4780 H 455.548 1.25972 -8.08748 0
M  V30 4781 N 458.211 1.37122 0.776871 0
M  V30 4782 C 459.436 1.354 1.57104 0
M  V30 4783 C 459.861 -0.0595562 1.88006 0
M  V30 4784 O 459.219 -1.03514 1.48844 0
M  V30 4785 C 459.267 2.19472 2.8612 0
M  V30 4786 O 458.371 1.59582 3.80273 0
M  V30 4787 H 457.712 0.462869 0.476076 0
M  V30 4788 H 460.242 1.80577 0.961932 0
M  V30 4789 H 460.252 2.32502 3.35271 0
M  V30 4790 H 458.927 3.22222 2.62956 0
M  V30 4791 H 457.504 1.55564 3.38902 0
M  V30 4792 N 459.689 -1.00246 1.21608 0
M  V30 4793 C 460.938 -1.73476 1.02902 0
M  V30 4794 C 461.251 -1.90643 -0.437561 0
M  V30 4795 O 462.457 -2.61105 -0.74407 0
M  V30 4796 C 460.913 -3.12079 1.79261 0
M  V30 4797 C 460.521 -3.02877 3.30106 0
M  V30 4798 C 462.265 -3.89421 1.68972 0
M  V30 4799 C 460.172 -4.36575 3.98944 0
M  V30 4800 H 459.102 -0.650408 0.381425 0
M  V30 4801 H 461.753 -1.11985 1.45367 0
M  V30 4802 H 460.135 -3.74196 1.2959 0
M  V30 4803 H 461.309 -2.49983 3.87098 0
M  V30 4804 H 459.624 -2.39022 3.40965 0
M  V30 4805 H 462.221 -4.88362 2.17731 0
M  V30 4806 H 462.564 -4.1122 0.648397 0
M  V30 4807 H 463.097 -3.33963 2.16133 0
M  V30 4808 H 459.836 -4.19978 5.03288 0
M  V30 4809 H 459.356 -4.8942 3.4674 0
M  V30 4810 H 461.035 -5.05364 4.04 0
M  V30 4811 N 461.167 -1.02423 -1.1978 0
M  V30 4812 C 462.444 -0.632802 -1.85081 0
M  V30 4813 C 462.824 0.888745 -1.9148 0
M  V30 4814 O 462.172 1.78357 -1.42832 0
M  V30 4815 C 462.382 -1.28947 -3.24305 0
M  V30 4816 C 463.73 -1.40976 -4.00513 0
M  V30 4817 O 464.754 -1.24628 -3.33686 0
M  V30 4818 O 463.613 -1.67467 -5.20209 0
M  V30 4819 H 460.707 -0.219348 -0.79738 0
M  V30 4820 H 463.253 -1.12209 -1.27307 0
M  V30 4821 H 462.025 -2.3288 -3.14456 0
M  V30 4822 H 461.648 -0.787748 -3.89718 0
M  V30 4823 N 462.645 1.35699 -0.801477 0
M  V30 4824 C 463.87 2.03687 -0.390678 0
M  V30 4825 C 464.295 1.60015 0.988778 0
M  V30 4826 O 463.653 0.774357 1.63931 0
M  V30 4827 C 463.701 3.57439 -0.476404 0
M  V30 4828 O 462.805 4.09208 0.512106 0
M  V30 4829 H 462.146 0.64344 -0.163956 0
M  V30 4830 H 464.676 1.73403 -1.08594 0
M  V30 4831 H 464.686 4.06544 -0.344357 0
M  V30 4832 H 463.361 3.88576 -1.48262 0
M  V30 4833 H 461.938 3.7134 0.340721 0
M  V30 4834 N 464.123 0.554532 1.47522 0
M  V30 4835 C 465.348 0.0322661 2.07375 0
M  V30 4836 C 465.773 -1.25079 1.40488 0
M  V30 4837 O 465.131 -1.74859 0.47896 0
M  V30 4838 C 465.179 -0.149397 3.6029 0
M  V30 4839 O 464.283 -1.21259 3.9417 0
M  V30 4840 H 463.624 0.0501228 0.662106 0
M  V30 4841 H 466.154 0.769452 1.8958 0
M  V30 4842 H 466.164 -0.364437 4.06369 0
M  V30 4843 H 464.839 0.787743 4.08372 0
M  V30 4844 H 463.416 -0.97825 3.5984 0
M  V30 4845 N 465.601 -1.54893 0.290851 0
M  V30 4846 C 466.831 -2.04047 -0.323818 0
M  V30 4847 C 467.239 -1.16809 -1.48837 0
M  V30 4848 O 466.582 -0.184145 -1.82775 0
M  V30 4849 C 466.644 -3.49248 -0.852395 0
M  V30 4850 C 466.308 -4.56623 0.185557 0
M  V30 4851 C 467.305 -5.09985 1.01053 0
M  V30 4852 C 464.99 -5.01252 0.324332 0
M  V30 4853 C 466.984 -6.06507 1.96031 0
M  V30 4854 C 464.671 -5.97596 1.27757 0
M  V30 4855 C 465.669 -6.50107 2.09405 0
M  V30 4856 O 465.357 -7.44565 3.03114 0
M  V30 4857 H 465.089 -0.671735 -0.0758129 0
M  V30 4858 H 467.643 -2.00947 0.425393 0
M  V30 4859 H 465.873 -3.49639 -1.65195 0
M  V30 4860 H 467.562 -3.81654 -1.38185 0
M  V30 4861 H 468.328 -4.76307 0.914129 0
M  V30 4862 H 464.207 -4.60015 -0.301213 0
M  V30 4863 H 467.751 -6.47418 2.598 0
M  V30 4864 H 463.648 -6.30691 1.37473 0
M  V30 4865 H 464.416 -7.62334 2.97976 0
M  V30 4866 N 467.08 -0.0183926 -1.57589 0
M  V30 4867 C 468.326 0.663543 -1.91638 0
M  V30 4868 C 468.659 1.72392 -0.894134 0
M  V30 4869 O 467.934 1.94316 0.0846449 0
M  V30 4870 C 468.217 1.28984 -3.36207 0
M  V30 4871 C 468.07 0.239761 -4.49161 0
M  V30 4872 C 469.389 2.2109 -3.80536 0
M  V30 4873 H 466.508 0.239746 -0.696915 0
M  V30 4874 H 469.15 -0.073456 -1.89858 0
M  V30 4875 H 467.3 1.91799 -3.37854 0
M  V30 4876 H 468.972 -0.390119 -4.59647 0
M  V30 4877 H 467.215 -0.435972 -4.31604 0
M  V30 4878 H 467.886 0.717383 -5.47319 0
M  V30 4879 H 470.362 1.68273 -3.80557 0
M  V30 4880 H 469.238 2.61869 -4.82406 0
M  V30 4881 H 469.499 3.09764 -3.15434 0
M  V30 4882 N 468.558 1.5553 0.254621 0
M  V30 4883 C 469.798 1.7876 0.991179 0
M  V30 4884 C 470.162 0.586669 1.82817 0
M  V30 4885 O 471.363 0.697585 2.5959 0
M  V30 4886 C 469.634 3.06679 1.83529 0
M  V30 4887 S 471.193 3.511 2.632 0
M  V30 4888 H 468.011 0.627916 0.333531 0
M  V30 4889 H 470.613 1.93766 0.259778 0
M  V30 4890 H 469.317 3.92158 1.20996 0
M  V30 4891 H 468.848 2.94388 2.60958 0
M  V30 4892 H 470.863 3.11823 3.8598 0
M  V30 4893 N 470.036 -0.519951 1.48776 0
M  V30 4894 C 471.261 -1.30447 1.6124 0
M  V30 4895 C 471.686 -1.86055 0.276591 0
M  V30 4896 O 471.044 -1.64915 -0.753183 0
M  V30 4897 C 471.092 -2.42406 2.66967 0
M  V30 4898 O 470.196 -3.45728 2.24824 0
M  V30 4899 H 469.537 -0.385924 0.540332 0
M  V30 4900 H 472.067 -0.624572 1.94834 0
M  V30 4901 H 472.077 -2.88447 2.88552 0
M  V30 4902 H 470.752 -2.01294 3.63941 0
M  V30 4903 H 469.329 -3.05737 2.13494 0
M  V30 4904 N 471.514 -1.37532 -0.769588 0
M  V30 4905 C 472.762 -1.32597 -1.5252 0
M  V30 4906 C 473.083 0.0884294 -1.94799 0
M  V30 4907 O 472.353 1.03289 -1.66458 0
M  V30 4908 H 470.933 -0.487846 -0.565699 0
M  V30 4909 H 473.595 -1.72044 -0.915806 0
M  V30 4910 H 472.691 -1.96643 -2.42359 0
M  V30 4911 N 472.992 0.995999 -1.22138 0
M  V30 4912 C 473.922 2.10387 -1.01289 0
M  V30 4913 C 474.903 1.69975 0.0651454 0
M  V30 4914 O 476.088 1.9396 -0.0964628 0
M  V30 4915 C 473.218 3.42312 -0.586517 0
M  V30 4916 C 472.172 3.96558 -1.61014 0
M  V30 4917 C 471.498 5.24494 -1.0397 0
M  V30 4918 C 472.798 4.27595 -2.99933 0
M  V30 4919 H 474.492 2.28086 -1.93951 0
M  V30 4920 H 472.038 1.09607 -0.933928 0
M  V30 4921 H 473.991 4.19223 -0.427793 0
M  V30 4922 H 472.715 3.24431 0.375761 0
M  V30 4923 H 471.374 3.21776 -1.75658 0
M  V30 4924 H 471.022 5.02953 -0.0688703 0
M  V30 4925 H 470.722 5.61755 -1.72352 0
M  V30 4926 H 472.246 6.04042 -0.892494 0
M  V30 4927 H 473.66 4.95315 -2.8868 0
M  V30 4928 H 472.057 4.76021 -3.6541 0
M  V30 4929 H 473.127 3.35498 -3.50099 0
M  V30 4930 N 474.47 1.03057 1.19235 0
M  V30 4931 C 475.716 0.729098 1.89241 0
M  V30 4932 C 476.049 -0.740573 1.79525 0
M  V30 4933 O 475.324 -1.53946 1.18874 0
M  V30 4934 C 475.607 1.18304 3.40112 0
M  V30 4935 C 475.46 2.71406 3.5869 0
M  V30 4936 C 476.779 0.765161 4.33397 0
M  V30 4937 H 473.898 0.266338 0.687192 0
M  V30 4938 H 476.54 1.28079 1.40341 0
M  V30 4939 H 474.69 0.713672 3.81889 0
M  V30 4940 H 476.362 3.26303 3.26074 0
M  V30 4941 H 474.605 3.11717 3.01687 0
M  V30 4942 H 475.276 2.98225 4.64506 0
M  V30 4943 H 477.752 1.16889 3.99345 0
M  V30 4944 H 476.628 1.11065 5.37546 0
M  V30 4945 H 476.889 -0.332372 4.40849 0
M  V30 4946 N 475.948 -1.35272 0.808662 0
M  V30 4947 C 477.196 -1.98316 0.389233 0
M  V30 4948 C 477.517 -1.64465 -1.04767 0
M  V30 4949 O 476.787 -0.928175 -1.72516 0
M  V30 4950 H 475.367 -0.733585 0.140935 0
M  V30 4951 H 478.029 -1.6515 1.03496 0
M  V30 4952 H 477.125 -3.08123 0.496631 0
M  V30 4953 N 477.426 -0.562348 -1.47226 0
M  V30 4954 C 478.703 0.0256985 -1.95583 0
M  V30 4955 C 479.083 1.48032 -1.50498 0
M  V30 4956 O 478.431 2.15973 -0.746181 0
M  V30 4957 C 478.641 -0.125129 -3.48776 0
M  V30 4958 C 479.989 0.0175728 -4.24596 0
M  V30 4959 O 481.013 -0.0529341 -3.56161 0
M  V30 4960 O 479.872 0.170145 -5.46235 0
M  V30 4961 H 476.966 0.0612565 -0.824728 0
M  V30 4962 H 479.512 -0.629233 -1.57603 0
M  V30 4963 H 478.284 -1.13715 -3.74412 0
M  V30 4964 H 477.907 0.567178 -3.93534 0
M  V30 4965 N 478.904 1.54736 -0.299062 0
M  V30 4966 C 480.132 2.04512 0.313447 0
M  V30 4967 C 480.547 1.17643 1.47667 0
M  V30 4968 O 479.904 0.20164 1.81383 0
M  V30 4969 C 479.955 3.53171 0.771542 0
M  V30 4970 O 479.676 4.36736 -0.345379 0
M  V30 4971 C 481.177 4.18936 1.4494 0
M  V30 4972 H 478.397 0.667507 0.0683784 0
M  V30 4973 H 480.941 1.99752 -0.438129 0
M  V30 4974 H 479.096 3.58298 1.47314 0
M  V30 4975 H 479.51 5.24499 0.0109219 0
M  V30 4976 H 480.984 5.24482 1.72111 0
M  V30 4977 H 481.461 3.68554 2.38883 0
M  V30 4978 H 482.067 4.17879 0.791028 0
M  V30 4979 N 480.382 0.0267497 1.57577 0
M  V30 4980 C 481.793 -0.512413 1.79531 0
M  V30 4981 C 482.144 -1.72391 0.936791 0
M  V30 4982 O 481.269 -2.15903 0.146543 0
M  V30 4983 C 481.864 -0.936378 3.25603 0
M  V30 4984 C 480.423 -1.42067 3.4856 0
M  V30 4985 C 479.57 -0.384278 2.74624 0
M  V30 4986 H 482.521 0.252797 1.56674 0
M  V30 4987 H 482.542 -1.80088 3.35184 0
M  V30 4988 H 482.054 -0.0544332 3.88062 0
M  V30 4989 H 480.155 -2.32262 2.9135 0
M  V30 4990 H 480.268 -1.42968 4.57271 0
M  V30 4991 H 478.632 -0.851855 2.40032 0
M  V30 4992 H 479.415 0.489159 3.39797 0
M  V30 4993 N 481.861 -1.55662 -0.24637 0
M  V30 4994 C 483.277 -1.48098 -0.594907 0
M  V30 4995 C 483.477 -0.717044 -1.8831 0
M  V30 4996 O 482.533 -0.246618 -2.51293 0
M  V30 4997 C 483.846 -2.92507 -0.697146 0
M  V30 4998 C 485.394 -3.02881 -0.789436 0
M  V30 4999 C 485.869 -4.48598 -0.923232 0
M  V30 5000 N 487.36 -4.52538 -0.988088 0
M  V30 5001 C 488.095 -5.62536 -1.11089 0
M  V30 5002 N 487.591 -6.82342 -1.19919 0
M  V30 5003 N 489.384 -5.50334 -1.14408 0
M  V30 5004 H 481.535 -2.0377 0.599278 0
M  V30 5005 H 483.798 -0.925145 0.20691 0
M  V30 5006 H 483.504 -3.51242 0.179396 0
M  V30 5007 H 483.378 -3.43024 -1.5689 0
M  V30 5008 H 485.765 -2.44226 -1.65643 0
M  V30 5009 H 485.846 -2.55574 0.107482 0
M  V30 5010 H 485.49 -5.07864 -0.0607927 0
M  V30 5011 H 485.42 -4.93587 -1.8352 0
M  V30 5012 H 487.911 -3.66248 -0.931167 0
M  V30 5013 H 488.224 -7.61924 -1.29197 0
M  V30 5014 H 486.569 -6.85102 -1.16876 0
M  V30 5015 H 489.76 -4.5567 -1.07158 0
M  V30 5016 H 489.933 -6.36096 -1.23634 0
M  V30 5017 N 483.339 0.512053 -1.4905 0
M  V30 5018 C 484.287 1.63568 -1.65373 0
M  V30 5019 C 485.281 1.61228 -0.519806 0
M  V30 5020 O 486.487 1.65869 -0.699101 0
M  V30 5021 H 482.862 0.542019 -0.521267 0
M  V30 5022 H 484.833 1.4695 -2.59708 0
M  V30 5023 C 483.582 3.01761 -1.7273 0
M  V30 5024 H 482.905 3.04263 -2.59353 0
M  V30 5025 H 484.345 3.79948 -1.8819 0
M  V30 5026 C 482.804 3.33609 -0.46973 0
M  V30 5027 O 483.334 3.99607 0.409492 0
M  V30 5028 N 481.54 2.88651 -0.336003 0
M  V30 5029 H 481.087 2.35119 -1.05247 0
M  V30 5030 H 481.045 3.10328 0.504363 0
M  V30 5031 N 484.817 1.37938 0.762283 0
M  V30 5032 C 486.094 1.24196 1.51112 0
M  V30 5033 C 486.474 -0.160409 2.1049 0
M  V30 5034 O 485.822 -1.16904 1.96331 0
M  V30 5035 C 486.032 2.34537 2.58445 0
M  V30 5036 C 487.38 2.7254 3.25588 0
M  V30 5037 O 488.404 2.33783 2.68745 0
M  V30 5038 O 487.263 3.39343 4.28379 0
M  V30 5039 H 484.357 0.485175 0.669727 0
M  V30 5040 H 486.903 1.49743 0.798438 0
M  V30 5041 H 485.675 3.28406 2.12756 0
M  V30 5042 H 485.298 2.10505 3.37303 0
M  V30 5043 N 486.295 -0.989507 1.22664 0
M  V30 5044 C 487.572 -1.70326 0.961688 0
M  V30 5045 C 487.952 -2.04537 -0.522279 0
M  V30 5046 O 487.3 -1.73136 -1.49118 0
M  V30 5047 C 487.51 -2.95135 1.86269 0
M  V30 5048 C 488.858 -3.67842 2.12078 0
M  V30 5049 O 489.882 -3.0515 1.83745 0
M  V30 5050 O 488.741 -4.80644 2.60083 0
M  V30 5051 H 485.835 -0.743589 0.361946 0
M  V30 5052 H 488.381 -1.04555 1.33665 0
M  V30 5053 H 487.153 -2.66382 2.8663 0
M  V30 5054 H 486.776 -3.68645 1.48952 0
M  V30 5055 N 487.773 -1.03688 -1.18687 0
M  V30 5056 C 489.189 -0.755413 -1.4059 0
M  V30 5057 C 489.389 0.656659 -1.905 0
M  V30 5058 O 488.445 1.42144 -2.08689 0
M  V30 5059 C 489.758 -1.7983 -2.41001 0
M  V30 5060 C 491.306 -1.81877 -2.54735 0
M  V30 5061 C 491.781 -2.85148 -3.58406 0
M  V30 5062 N 493.272 -2.84015 -3.6591 0
M  V30 5063 C 494.007 -3.60573 -4.45841 0
M  V30 5064 N 493.503 -4.46871 -5.29413 0
M  V30 5065 N 495.296 -3.49079 -4.40568 0
M  V30 5066 H 487.447 -1.94818 -0.846148 0
M  V30 5067 H 489.71 -0.842727 -0.434184 0
M  V30 5068 H 489.416 -2.81097 -2.1137 0
M  V30 5069 H 489.29 -1.62727 -3.40294 0
M  V30 5070 H 491.677 -0.812836 -2.83685 0
M  V30 5071 H 491.758 -2.03057 -1.55568 0
M  V30 5072 H 491.402 -3.85918 -3.30197 0
M  V30 5073 H 491.332 -2.61224 -4.57241 0
M  V30 5074 H 493.823 -2.21431 -3.0623 0
M  V30 5075 H 494.136 -5.02007 -5.87545 0
M  V30 5076 H 492.481 -4.5094 -5.28846 0
M  V30 5077 H 495.672 -2.81066 -3.74325 0
M  V30 5078 H 495.845 -4.08994 -5.02621 0
M  V30 5079 N 489.251 1.34841 -0.815825 0
M  V30 5080 C 490.476 2.03261 -0.41226 0
M  V30 5081 C 490.901 1.61055 0.971751 0
M  V30 5082 O 490.259 0.7917 1.63101 0
M  V30 5083 C 490.307 3.56914 -0.514289 0
M  V30 5084 O 489.411 4.09728 0.468675 0
M  V30 5085 H 488.752 0.641664 -0.170771 0
M  V30 5086 H 491.282 1.72241 -1.10427 0
M  V30 5087 H 491.292 4.06156 -0.387457 0
M  V30 5088 H 489.967 3.86982 -1.52375 0
M  V30 5089 H 488.544 3.71681 0.301316 0
M  V30 5090 N 490.729 0.570148 1.46925 0
M  V30 5091 C 491.954 0.0542592 2.07329 0
M  V30 5092 C 492.379 -1.23582 1.41806 0
M  V30 5093 O 491.737 -1.74341 0.497479 0
M  V30 5094 C 491.785 -0.111175 3.60429 0
M  V30 5095 O 490.889 -1.17071 3.95434 0
M  V30 5096 H 490.23 0.0571425 0.661537 0
M  V30 5097 H 492.76 0.789516 1.88753 0
M  V30 5098 H 492.77 -0.321315 4.06733 0
M  V30 5099 H 491.445 0.831012 4.07513 0
M  V30 5100 H 490.022 -0.940029 3.60857 0
M  V30 5101 N 492.207 -1.54576 0.307264 0
M  V30 5102 C 493.155 -2.25208 -0.581723 0
M  V30 5103 C 494.149 -1.26031 -1.13192 0
M  V30 5104 O 495.355 -1.43862 -1.08184 0
M  V30 5105 H 491.73 -0.723173 -0.206214 0
M  V30 5106 H 493.701 -2.98378 0.0364663 0
M  V30 5107 C 492.45 -3.01086 -1.73904 0
M  V30 5108 H 491.773 -3.77208 -1.32491 0
M  V30 5109 H 493.213 -3.5378 -2.33701 0
M  V30 5110 C 491.672 -2.08422 -2.64692 0
M  V30 5111 O 492.202 -1.65636 -3.65961 0
M  V30 5112 N 490.408 -1.74247 -2.32564 0
M  V30 5113 H 489.955 -2.09238 -1.50257 0
M  V30 5114 H 489.913 -1.12524 -2.93574 0
M  V30 5115 N 493.685 -0.035106 -1.57561 0
M  V30 5116 C 494.91 0.655802 -1.96759 0
M  V30 5117 C 495.335 1.64523 -0.911809 0
M  V30 5118 O 494.693 1.80857 0.126673 0
M  V30 5119 C 494.741 1.33326 -3.35047 0
M  V30 5120 O 493.845 2.44866 -3.31835 0
M  V30 5121 H 493.186 0.171807 -0.641388 0
M  V30 5122 H 495.716 -0.0987369 -2.04362 0
M  V30 5123 H 495.726 1.68867 -3.71413 0
M  V30 5124 H 494.401 0.608033 -4.11431 0
M  V30 5125 H 492.978 2.11392 -3.07193 0
M  V30 5126 N 495.163 1.55791 0.238111 0
M  V30 5127 C 496.111 1.91885 1.31464 0
M  V30 5128 C 497.105 0.798929 1.49377 0
M  V30 5129 O 498.311 0.983626 1.50747 0
M  V30 5130 H 494.686 0.609551 0.440399 0
M  V30 5131 H 496.657 2.81747 0.982925 0
M  V30 5132 C 495.406 2.23763 2.6613 0
M  V30 5133 H 494.729 3.09444 2.53149 0
M  V30 5134 H 496.169 2.52915 3.40309 0
M  V30 5135 C 494.628 1.05699 3.1989 0
M  V30 5136 O 495.158 0.309524 4.00506 0
M  V30 5137 N 493.364 0.845251 2.78036 0
M  V30 5138 H 492.911 1.4548 2.12588 0
M  V30 5139 H 492.869 0.0569973 3.14348 0
M  V30 5140 N 496.642 -0.504142 1.49319 0
M  V30 5141 C 497.882 -1.26867 1.60263 0
M  V30 5142 C 498.246 -1.89924 0.281578 0
M  V30 5143 O 499.447 -2.67479 0.266176 0
M  V30 5144 C 497.718 -2.30956 2.72753 0
M  V30 5145 S 499.277 -3.1679 3.03628 0
M  V30 5146 H 496.095 -0.431198 0.565322 0
M  V30 5147 H 498.697 -0.571407 1.86963 0
M  V30 5148 H 497.401 -1.83156 3.67263 0
M  V30 5149 H 496.932 -3.05356 2.48035 0
M  V30 5150 H 498.947 -4.31549 2.44908 0
M  V30 5151 N 498.12 -1.38341 -0.754957 0
M  V30 5152 C 499.536 -1.19508 -1.05783 0
M  V30 5153 C 499.736 -0.0428005 -2.01455 0
M  V30 5154 O 498.792 0.611861 -2.44975 0
M  V30 5155 C 500.105 -2.52091 -1.63923 0
M  V30 5156 C 501.653 -2.58762 -1.76101 0
M  V30 5157 C 502.128 -3.91517 -2.37652 0
M  V30 5158 N 503.619 -3.93049 -2.45085 0
M  V30 5159 C 504.354 -4.9253 -2.93602 0
M  V30 5160 N 503.85 -6.02408 -3.42165 0
M  V30 5161 N 505.643 -4.79921 -2.92629 0
M  V30 5162 H 497.794 -2.1206 -0.120056 0
M  V30 5163 H 500.057 -0.94089 -0.11589 0
M  V30 5164 H 499.763 -3.36858 -1.01093 0
M  V30 5165 H 499.637 -2.70388 -2.63003 0
M  V30 5166 H 502.024 -1.74391 -2.38058 0
M  V30 5167 H 502.105 -2.44333 -0.757294 0
M  V30 5168 H 501.749 -4.76309 -1.76329 0
M  V30 5169 H 501.679 -4.03256 -3.38662 0
M  V30 5170 H 504.17 -3.13685 -2.10736 0
M  V30 5171 H 504.483 -6.74248 -3.77637 0
M  V30 5172 H 502.828 -6.0603 -3.40225 0
M  V30 5173 H 506.019 -3.93194 -2.54001 0
M  V30 5174 H 506.192 -5.57601 -3.30128 0
M  V30 5175 N 499.598 0.982988 -1.23187 0
M  V30 5176 C 500.546 2.09616 -1.00817 0
M  V30 5177 C 501.54 1.6932 0.0519995 0
M  V30 5178 O 502.746 1.79715 -0.101284 0
M  V30 5179 H 499.121 0.685628 -0.308899 0
M  V30 5180 H 501.092 2.25652 -1.95253 0
M  V30 5181 C 499.841 3.42249 -0.613243 0
M  V30 5182 H 499.164 3.73705 -1.42073 0
M  V30 5183 H 500.604 4.21086 -0.496208 0
M  V30 5184 C 499.063 3.30002 0.678233 0
M  V30 5185 O 499.593 3.6263 1.72807 0
M  V30 5186 N 497.799 2.83164 0.653165 0
M  V30 5187 H 497.346 2.56811 -0.201492 0
M  V30 5188 H 497.304 2.75352 1.51752 0
M  V30 5189 N 501.076 1.04316 1.18135 0
M  V30 5190 C 502.487 0.775505 1.69832 0
M  V30 5191 C 502.838 -0.703348 1.8316 0
M  V30 5192 O 501.963 -1.54729 1.51287 0
M  V30 5193 C 502.558 1.40112 3.0847 0
M  V30 5194 C 501.117 1.18172 3.57368 0
M  V30 5195 C 500.264 1.49022 2.33854 0
M  V30 5196 H 503.215 1.20925 1.02775 0
M  V30 5197 H 503.236 0.805672 3.71873 0
M  V30 5198 H 502.748 2.47744 2.98738 0
M  V30 5199 H 500.849 0.124258 3.72393 0
M  V30 5200 H 500.962 1.8805 4.40652 0
M  V30 5201 H 499.326 0.909995 2.37889 0
M  V30 5202 H 500.109 2.57768 2.26738 0
M  V30 5203 N 502.554 -1.34406 0.822964 0
M  V30 5204 C 503.502 -2.31428 0.233165 0
M  V30 5205 C 504.496 -1.57404 -0.626118 0
M  V30 5206 O 505.702 -1.72402 -0.517453 0
M  V30 5207 H 502.077 -0.749863 0.0566557 0
M  V30 5208 H 504.048 -2.78699 1.06628 0
M  V30 5209 C 502.797 -3.42653 -0.590264 0
M  V30 5210 H 502.12 -3.99753 0.0616129 0
M  V30 5211 H 503.56 -4.12778 -0.969054 0
M  V30 5212 C 502.019 -2.87112 -1.76262 0
M  V30 5213 O 502.549 -2.81995 -2.8608 0
M  V30 5214 N 500.755 -2.43934 -1.57938 0
M  V30 5215 H 500.302 -2.48296 -0.686078 0
M  V30 5216 H 500.26 -2.07123 -2.36532 0
M  V30 5217 N 504.032 -0.577932 -1.46621 0
M  V30 5218 C 504.98 0.170882 -2.31971 0
M  V30 5219 C 505.974 0.889086 -1.44193 0
M  V30 5220 O 507.18 0.808017 -1.60845 0
M  V30 5221 H 503.555 0.0739763 -0.748353 0
M  V30 5222 H 505.526 -0.567856 -2.92947 0
M  V30 5223 C 504.275 1.17438 -3.27267 0
M  V30 5224 H 503.598 0.63116 -3.94787 0
M  V30 5225 H 505.038 1.66882 -3.89778 0
M  V30 5226 C 503.497 2.23292 -2.52274 0
M  V30 5227 O 504.027 3.30567 -2.28229 0
M  V30 5228 N 502.233 1.97772 -2.12919 0
M  V30 5229 H 501.78 1.10545 -2.32675 0
M  V30 5230 H 501.738 2.68809 -1.63062 0
M  V30 5231 N 505.51 1.54411 -0.315457 0
M  V30 5232 C 506.42 2.27737 0.56329 0
M  V30 5233 C 507.436 1.31787 1.13614 0
M  V30 5234 O 508.612 1.64791 1.15784 0
M  V30 5235 C 505.677 3.01478 1.71207 0
M  V30 5236 C 504.738 4.12997 1.17185 0
M  V30 5237 C 503.971 4.83212 2.26588 0
M  V30 5238 O 504.194 4.52884 3.46775 0
M  V30 5239 O 503.128 5.70299 1.92463 0
M  V30 5240 H 506.954 3.03683 -0.0319614 0
M  V30 5241 H 504.539 1.49178 -0.0814188 0
M  V30 5242 H 506.421 3.47683 2.38106 0
M  V30 5243 H 505.096 2.28414 2.29366 0
M  V30 5244 H 504.003 3.71159 0.468174 0
M  V30 5245 H 505.336 4.8808 0.635501 0
M  V30 5246 N 506.988 0.0434614 1.5754 0
M  V30 5247 C 508.404 -0.313039 1.565 0
M  V30 5248 C 508.604 -1.71954 1.05043 0
M  V30 5249 O 507.66 -2.425 0.703564 0
M  V30 5250 C 508.973 -0.148544 3.00333 0
M  V30 5251 C 510.521 -0.220231 3.12224 0
M  V30 5252 C 510.996 -0.0843565 4.57922 0
M  V30 5253 N 512.487 -0.140881 4.62986 0
M  V30 5254 C 513.222 -0.0597443 5.73369 0
M  V30 5255 N 512.718 0.0733004 6.92761 0
M  V30 5256 N 514.511 -0.11477 5.61983 0
M  V30 5257 H 506.662 0.96303 1.89313 0
M  V30 5258 H 508.925 0.373164 0.871466 0
M  V30 5259 H 508.631 0.820894 3.41986 0
M  V30 5260 H 508.505 -0.912798 3.65989 0
M  V30 5261 H 510.892 -1.18014 2.70475 0
M  V30 5262 H 510.973 0.574646 2.49262 0
M  V30 5263 H 510.617 0.872192 5.00355 0
M  V30 5264 H 510.547 -0.898281 5.18882 0
M  V30 5265 H 513.038 -0.243273 3.77116 0
M  V30 5266 H 513.351 0.128128 7.72694 0
M  V30 5267 H 511.696 0.10828 6.94916 0
M  V30 5268 H 514.887 -0.217212 4.67596 0
M  V30 5269 H 515.06 -0.0480779 6.47982 0
M  V30 5270 N 508.466 -1.55915 -0.229846 0
M  V30 5271 C 509.714 -1.7819 -0.953565 0
M  V30 5272 C 510.035 -0.610504 -1.85197 0
M  V30 5273 O 509.305 0.372988 -1.92316 0
M  V30 5274 H 507.885 -0.657208 -0.355087 0
M  V30 5275 H 510.547 -1.9337 -0.243693 0
M  V30 5276 H 509.643 -2.70011 -1.56527 0
M  V30 5277 N 509.944 0.496216 -1.49584 0
M  V30 5278 C 511.172 1.27394 -1.63029 0
M  V30 5279 C 511.587 1.86344 -0.303569 0
M  V30 5280 O 510.944 1.68057 0.711547 0
M  V30 5281 C 510.995 2.40077 -2.70269 0
M  V30 5282 O 510.716 1.83549 -3.97796 0
M  V30 5283 C 512.217 3.31372 -2.94462 0
M  V30 5284 H 509.437 0.386211 -0.54871 0
M  V30 5285 H 511.981 0.595163 -1.95648 0
M  V30 5286 H 510.136 3.03775 -2.40415 0
M  V30 5287 H 510.55 2.57561 -4.56905 0
M  V30 5288 H 512.024 4.06707 -3.73221 0
M  V30 5289 H 512.501 3.88654 -2.0456 0
M  V30 5290 H 513.107 2.73435 -3.25751 0
M  V30 5291 N 511.423 1.38739 0.74761 0
M  V30 5292 C 512.355 1.32341 1.87132 0
M  V30 5293 C 513.368 0.234502 1.61102 0
M  V30 5294 O 514.557 0.492516 1.71571 0
M  V30 5295 C 511.657 1.02915 3.22896 0
M  V30 5296 C 510.83 2.22834 3.76383 0
M  V30 5297 C 509.889 1.90059 4.90677 0
M  V30 5298 O 508.915 2.62615 5.04997 0
M  V30 5299 N 510.117 0.859141 5.74107 0
M  V30 5300 H 512.882 2.29175 1.93129 0
M  V30 5301 H 510.443 1.32678 0.927805 0
M  V30 5302 H 512.435 0.79031 3.96908 0
M  V30 5303 H 511.005 0.148572 3.12247 0
M  V30 5304 H 510.225 2.62747 2.93867 0
M  V30 5305 H 511.513 3.02851 4.08851 0
M  V30 5306 H 510.911 0.257564 5.65113 0
M  V30 5307 H 509.468 0.680189 6.48241 0
M  V30 5308 N 512.901 -0.976442 1.23707 0
M  V30 5309 C 514.149 -1.71487 1.06942 0
M  V30 5310 C 514.47 -1.9098 -0.393897 0
M  V30 5311 O 513.74 -1.48128 -1.28198 0
M  V30 5312 H 512.32 -0.635425 0.392739 0
M  V30 5313 H 514.982 -1.17515 1.55487 0
M  V30 5314 H 514.078 -2.70286 1.56051 0
M  V30 5315 N 514.379 -1.04941 -1.1758 0
M  V30 5316 C 515.625 -0.759112 -1.88057 0
M  V30 5317 C 515.958 0.711918 -1.8068 0
M  V30 5318 O 515.233 1.52035 -1.21308 0
M  V30 5319 C 515.516 -1.237 -3.38187 0
M  V30 5320 C 515.369 -2.77078 -3.54327 0
M  V30 5321 C 516.688 -0.834014 -4.32125 0
M  V30 5322 H 513.807 -0.277237 -0.682868 0
M  V30 5323 H 516.449 -1.30296 -1.38286 0
M  V30 5324 H 514.599 -0.774337 -3.80705 0
M  V30 5325 H 516.271 -3.31449 -3.20842 0
M  V30 5326 H 514.514 -3.16477 -2.96689 0
M  V30 5327 H 515.185 -3.05577 -4.59703 0
M  V30 5328 H 517.661 -1.23228 -3.97434 0
M  V30 5329 H 516.537 -1.19603 -5.35711 0
M  V30 5330 H 516.798 0.262195 -4.41322 0
M  V30 5331 N 515.857 1.33968 -0.830081 0
M  V30 5332 C 516.804 2.29387 -0.255008 0
M  V30 5333 C 517.774 1.53923 0.624243 0
M  V30 5334 O 518.959 1.82262 0.564372 0
M  V30 5335 C 516.099 3.4034 0.571209 0
M  V30 5336 C 515.212 4.30729 -0.331083 0
M  V30 5337 C 514.347 5.2879 0.505389 0
M  V30 5338 C 513.386 6.10819 -0.395843 0
M  V30 5339 N 512.523 7.00948 0.401979 0
M  V30 5340 H 517.363 2.77972 -1.07404 0
M  V30 5341 H 514.9 1.36785 -0.541133 0
M  V30 5342 H 516.858 4.03361 1.06562 0
M  V30 5343 H 515.488 2.9297 1.35529 0
M  V30 5344 H 514.54 3.68507 -0.943759 0
M  V30 5345 H 515.852 4.88181 -1.02377 0
M  V30 5346 H 515.006 5.97297 1.06399 0
M  V30 5347 H 513.745 4.71894 1.23155 0
M  V30 5348 H 512.75 5.41238 -0.966529 0
M  V30 5349 H 513.975 6.69797 -1.12023 0
M  V30 5350 H 511.921 6.46512 1.11168 0
M  V30 5351 H 511.838 7.55643 -0.232167 0
M  V30 5352 H 513.106 7.73774 0.943102 0
M  V30 5353 N 517.335 0.585699 1.46312 0
M  V30 5354 C 518.583 0.072278 2.01971 0
M  V30 5355 C 518.904 -1.29345 1.45928 0
M  V30 5356 O 518.174 -1.84973 0.645109 0
M  V30 5357 H 516.754 0.023729 0.746623 0
M  V30 5358 H 519.416 0.762155 1.7938 0
M  V30 5359 H 518.512 0.00552767 3.121 0
M  V30 5360 N 518.813 -1.54241 0.323641 0
M  V30 5361 C 520.059 -2.01572 -0.272089 0
M  V30 5362 C 520.414 -1.20774 -1.49771 0
M  V30 5363 O 519.707 -0.281821 -1.89516 0
M  V30 5364 C 519.901 -3.5129 -0.658031 0
M  V30 5365 C 519.73 -4.46582 0.528645 0
M  V30 5366 C 518.5 -4.94737 1.02777 0
M  V30 5367 C 520.698 -4.95416 1.38086 0
M  V30 5368 N 518.68 -5.73933 2.17885 0
M  V30 5369 C 520.051 -5.72537 2.3791 0
M  V30 5370 C 522.106 -4.77559 1.40861 0
M  V30 5371 C 520.809 -6.33702 3.40314 0
M  V30 5372 C 522.835 -5.39559 2.42136 0
M  V30 5373 C 522.197 -6.16532 3.40688 0
M  V30 5374 H 518.296 -0.779425 -0.0634072 0
M  V30 5375 H 520.88 -1.8922 0.458697 0
M  V30 5376 H 519.051 -3.63888 -1.35795 0
M  V30 5377 H 520.783 -3.85388 -1.23524 0
M  V30 5378 H 517.538 -4.69796 0.599046 0
M  V30 5379 H 517.962 -6.18209 2.75947 0
M  V30 5380 H 522.604 -4.17611 0.660352 0
M  V30 5381 H 520.322 -6.9277 4.16047 0
M  V30 5382 H 523.908 -5.27659 2.45086 0
M  V30 5383 H 522.788 -6.63655 4.1777 0
M  V30 5384 N 520.291 -0.0518155 -1.57515 0
M  V30 5385 C 521.254 0.907547 -2.10467 0
M  V30 5386 C 522.254 1.23947 -1.02439 0
M  V30 5387 O 523.444 1.17604 -1.2851 0
M  V30 5388 C 520.576 2.21723 -2.58944 0
M  V30 5389 H 521.769 0.44851 -2.96527 0
M  V30 5390 H 519.322 0.196598 -1.55059 0
M  V30 5391 H 520.057 2.72206 -1.76279 0
M  V30 5392 H 519.842 1.98935 -3.37886 0
M  V30 5393 H 521.332 2.90441 -3.00056 0
M  V30 5394 N 521.769 1.56035 0.221574 0
M  V30 5395 C 523.016 1.79047 0.94597 0
M  V30 5396 C 523.344 0.62057 1.84334 0
M  V30 5397 O 522.599 -0.395053 1.91671 0
M  V30 5398 C 522.898 3.07813 1.8162 0
M  V30 5399 C 522.564 4.3797 1.07206 0
M  V30 5400 C 521.226 4.73334 0.866508 0
M  V30 5401 C 523.578 5.18326 0.546565 0
M  V30 5402 C 520.906 5.8657 0.123549 0
M  V30 5403 C 523.258 6.32335 -0.18305 0
M  V30 5404 C 521.922 6.66301 -0.399861 0
M  V30 5405 H 521.192 0.655178 0.346155 0
M  V30 5406 H 523.839 1.90299 0.214146 0
M  V30 5407 H 522.144 2.91682 2.61589 0
M  V30 5408 H 523.841 3.2282 2.37884 0
M  V30 5409 H 520.431 4.10202 1.24226 0
M  V30 5410 H 524.615 4.9144 0.692847 0
M  V30 5411 H 519.871 6.11376 -0.0546591 0
M  V30 5412 H 524.045 6.9383 -0.59775 0
M  V30 5413 H 521.672 7.53889 -0.977489 0
M  V30 5414 N 523.247 -0.488276 1.49845 0
M  V30 5415 C 524.524 -1.24959 1.50481 0
M  V30 5416 C 524.904 -2.09735 0.239698 0
M  V30 5417 O 524.252 -2.14865 -0.777524 0
M  V30 5418 C 524.462 -2.0954 2.79095 0
M  V30 5419 C 525.81 -2.68305 3.29086 0
M  V30 5420 O 526.834 -2.19797 2.80299 0
M  V30 5421 O 525.693 -3.56643 4.14087 0
M  V30 5422 H 522.787 -0.566133 0.602845 0
M  V30 5423 H 525.333 -0.501504 1.6212 0
M  V30 5424 H 524.105 -1.46958 3.62656 0
M  V30 5425 H 523.728 -2.91517 2.70377 0
M  V30 5426 N 524.725 -1.39134 -0.740242 0
M  V30 5427 C 525.673 -1.3757 -1.87556 0
M  V30 5428 C 526.667 -0.259593 -1.67399 0
M  V30 5429 O 527.873 -0.429349 -1.74804 0
M  V30 5430 H 524.248 -0.42947 -0.6173 0
M  V30 5431 H 526.219 -2.33345 -1.85991 0
M  V30 5432 C 524.968 -1.23087 -3.25184 0
M  V30 5433 H 524.291 -2.08237 -3.41288 0
M  V30 5434 H 525.731 -1.26049 -4.0483 0
M  V30 5435 C 524.19 0.0611471 -3.36845 0
M  V30 5436 O 524.72 1.03328 -3.88183 0
M  V30 5437 N 522.926 0.122454 -2.90342 0
M  V30 5438 H 522.473 -0.669329 -2.48752 0
M  V30 5439 H 522.431 0.986463 -2.98523 0
M  V30 5440 N 526.204 0.969867 -1.24223 0
M  V30 5441 C 527.452 1.70918 -1.0785 0
M  V30 5442 C 527.773 1.91186 0.383763 0
M  V30 5443 O 527.043 1.48806 1.27411 0
M  V30 5444 H 525.623 0.633334 -0.396103 0
M  V30 5445 H 528.285 1.16689 -1.56108 0
M  V30 5446 H 527.381 2.69455 -1.57482 0
M  V30 5447 N 527.682 1.05563 1.17022 0
M  V30 5448 C 528.63 0.653887 2.2322 0
M  V30 5449 C 529.624 -0.326642 1.66221 0
M  V30 5450 O 530.83 -0.192301 1.7897 0
M  V30 5451 H 527.205 0.193297 0.726733 0
M  V30 5452 H 529.176 1.5596 2.54399 0
M  V30 5453 C 527.925 0.0485434 3.47666 0
M  V30 5454 H 527.248 0.79413 3.91834 0
M  V30 5455 H 528.688 -0.195133 4.23551 0
M  V30 5456 C 527.147 -1.20583 3.14581 0
M  V30 5457 O 527.677 -2.29475 3.29703 0
M  V30 5458 N 525.883 -1.10493 2.68774 0
M  V30 5459 H 525.43 -0.218795 2.56669 0
M  V30 5460 H 525.388 -1.94507 2.47011 0
M  V30 5461 N 529.16 -1.33526 0.837174 0
M  V30 5462 C 530.437 -1.92369 0.354065 0
M  V30 5463 C 530.817 -1.76348 -1.16038 0
M  V30 5464 O 530.165 -1.15083 -1.97403 0
M  V30 5465 C 530.375 -3.39728 0.799101 0
M  V30 5466 C 531.723 -4.16877 0.806139 0
M  V30 5467 O 532.747 -3.48373 0.742597 0
M  V30 5468 O 531.606 -5.39166 0.892345 0
M  V30 5469 H 528.7 -0.820952 0.0998378 0
M  V30 5470 H 531.246 -1.42409 0.922913 0
M  V30 5471 H 530.018 -3.45254 1.84162 0
M  V30 5472 H 529.641 -3.97062 0.206731 0
M  V30 5473 N 530.638 -0.59345 -1.46 0
M  V30 5474 C 531.568 0.121192 -2.33185 0
M  V30 5475 C 532.549 0.872977 -1.4599 0
M  V30 5476 O 533.734 0.846321 -1.74789 0
M  V30 5477 C 530.864 1.12844 -3.28456 0
M  V30 5478 C 529.818 0.4908 -4.25177 0
M  V30 5479 C 529.144 1.60529 -5.10034 0
M  V30 5480 C 530.444 -0.578949 -5.19081 0
M  V30 5481 H 532.138 -0.606767 -2.93187 0
M  V30 5482 H 529.684 -0.293242 -1.40983 0
M  V30 5483 H 531.637 1.63684 -3.88311 0
M  V30 5484 H 530.361 1.88681 -2.66584 0
M  V30 5485 H 529.02 0.00339328 -3.666 0
M  V30 5486 H 528.668 2.35359 -4.44539 0
M  V30 5487 H 528.368 1.18422 -5.75543 0
M  V30 5488 H 529.892 2.11623 -5.72755 0
M  V30 5489 H 531.306 -0.155199 -5.7309 0
M  V30 5490 H 529.703 -0.920947 -5.92991 0
M  V30 5491 H 530.773 -1.46109 -4.62364 0
M  V30 5492 N 532.116 1.54067 -0.331816 0
M  V30 5493 C 533.362 2.01713 0.261395 0
M  V30 5494 C 533.717 1.21566 1.49129 0
M  V30 5495 O 533.01 0.291867 1.89364 0
M  V30 5496 C 533.204 3.51634 0.639392 0
M  V30 5497 C 533.033 4.46295 -0.552321 0
M  V30 5498 C 531.803 4.94185 -1.05399 0
M  V30 5499 C 534.001 4.94677 -1.40711 0
M  V30 5500 N 531.983 5.7277 -2.20925 0
M  V30 5501 C 533.354 5.71267 -2.40943 0
M  V30 5502 C 535.409 4.76805 -1.43392 0
M  V30 5503 C 534.112 6.31889 -3.4367 0
M  V30 5504 C 536.138 5.38268 -2.44994 0
M  V30 5505 C 535.5 6.14716 -3.43952 0
M  V30 5506 H 531.599 0.77975 0.0592729 0
M  V30 5507 H 534.183 1.88974 -0.468726 0
M  V30 5508 H 532.354 3.64603 1.33863 0
M  V30 5509 H 534.086 3.86038 1.21478 0
M  V30 5510 H 530.841 4.69472 -0.623952 0
M  V30 5511 H 531.265 6.16737 -2.79222 0
M  V30 5512 H 535.907 4.17255 -0.682489 0
M  V30 5513 H 533.625 6.90554 -4.19715 0
M  V30 5514 H 537.211 5.26352 -2.4788 0
M  V30 5515 H 536.091 6.6143 -4.21283 0
M  V30 5516 N 533.594 0.0601682 1.57485 0
M  V30 5517 C 534.527 -0.94676 2.07634 0
M  V30 5518 C 535.505 -1.29837 0.978826 0
M  V30 5519 O 536.689 -1.40969 1.2514 0
M  V30 5520 C 533.816 -2.25822 2.52433 0
M  V30 5521 C 532.862 -2.05901 3.73507 0
M  V30 5522 S 533.695 -1.32907 5.18745 0
M  V30 5523 C 534.851 -2.65356 5.66866 0
M  V30 5524 H 535.084 -0.520003 2.92717 0
M  V30 5525 H 532.617 -0.152319 1.53647 0
M  V30 5526 H 534.575 -3.01201 2.78905 0
M  V30 5527 H 533.236 -2.65624 1.67639 0
M  V30 5528 H 532.429 -3.02929 4.02803 0
M  V30 5529 H 532.031 -1.38659 3.47347 0
M  V30 5530 H 534.323 -3.61492 5.73001 0
M  V30 5531 H 535.266 -2.40685 6.6594 0
M  V30 5532 H 535.674 -2.72028 4.94632 0
M  V30 5533 N 535.072 -1.5615 -0.213296 0
M  V30 5534 C 536.32 -1.79191 -0.934612 0
M  V30 5535 C 536.641 -0.630112 -1.84539 0
M  V30 5536 O 535.911 0.35257 -1.92701 0
M  V30 5537 H 534.491 -0.660937 -0.348097 0
M  V30 5538 H 537.153 -1.93618 -0.22317 0
M  V30 5539 H 536.249 -2.71656 -1.53654 0
M  V30 5540 N 536.55 0.480323 -1.50102 0
M  V30 5541 C 537.966 0.813295 -1.37323 0
M  V30 5542 C 538.166 1.97027 -0.422206 0
M  V30 5543 O 537.222 2.5212 0.138563 0
M  V30 5544 C 538.535 1.13404 -2.78496 0
M  V30 5545 C 540.083 1.24104 -2.87345 0
M  V30 5546 C 540.558 1.59497 -4.29331 0
M  V30 5547 N 542.049 1.66507 -4.32238 0
M  V30 5548 C 542.784 1.95378 -5.39087 0
M  V30 5549 N 542.28 2.22333 -6.56155 0
M  V30 5550 N 544.073 1.96803 -5.26522 0
M  V30 5551 H 536.224 -0.282291 -2.10516 0
M  V30 5552 H 538.487 -0.063752 -0.945854 0
M  V30 5553 H 538.193 0.357064 -3.49883 0
M  V30 5554 H 538.067 2.07251 -3.15162 0
M  V30 5555 H 540.454 2.00871 -2.16183 0
M  V30 5556 H 540.535 0.282593 -2.54234 0
M  V30 5557 H 540.179 0.832736 -5.01027 0
M  V30 5558 H 540.109 2.56477 -4.59921 0
M  V30 5559 H 542.6 1.47753 -3.47818 0
M  V30 5560 H 542.913 2.43611 -7.33399 0
M  V30 5561 H 541.258 2.19745 -6.59346 0
M  V30 5562 H 544.449 1.75235 -4.34062 0
M  V30 5563 H 544.622 2.18969 -6.09883 0
M  V30 5564 N 538.028 1.39524 0.732853 0
M  V30 5565 C 539.256 1.40143 1.52209 0
M  V30 5566 C 539.671 -0.00348836 1.888 0
M  V30 5567 O 539.028 -0.975357 1.5425 0
M  V30 5568 C 539.079 2.27632 2.8083 0
M  V30 5569 O 538.8 3.62654 2.45792 0
M  V30 5570 C 540.301 2.36658 3.74844 0
M  V30 5571 H 537.521 0.478604 0.470297 0
M  V30 5572 H 540.065 1.83366 0.905388 0
M  V30 5573 H 538.22 1.87818 3.38826 0
M  V30 5574 H 538.634 4.08941 3.28431 0
M  V30 5575 H 540.108 3.02118 4.61984 0
M  V30 5576 H 540.585 1.38638 4.16745 0
M  V30 5577 H 541.191 2.76951 3.22766 0
M  V30 5578 N 539.506 -0.963266 1.24736 0
M  V30 5579 C 540.755 -1.70115 1.08369 0
M  V30 5580 C 541.068 -1.91939 -0.376688 0
M  V30 5581 O 542.274 -2.6334 -0.660624 0
M  V30 5582 C 540.73 -3.06218 1.89099 0
M  V30 5583 C 540.338 -2.92221 3.39574 0
M  V30 5584 C 542.082 -3.83848 1.81275 0
M  V30 5585 C 539.989 -4.23662 4.12631 0
M  V30 5586 H 538.919 -0.637944 0.401924 0
M  V30 5587 H 541.57 -1.07304 1.48856 0
M  V30 5588 H 539.952 -3.69884 1.41429 0
M  V30 5589 H 541.126 -2.37541 3.94856 0
M  V30 5590 H 539.441 -2.28054 3.48397 0
M  V30 5591 H 542.038 -4.81188 2.33158 0
M  V30 5592 H 542.381 -4.08949 0.778895 0
M  V30 5593 H 542.914 -3.26918 2.26649 0
M  V30 5594 H 539.653 -4.03753 5.16395 0
M  V30 5595 H 539.173 -4.78141 3.62135 0
M  V30 5596 H 540.852 -4.92256 4.19873 0
M  V30 5597 N 540.985 -1.06182 -1.16461 0
M  V30 5598 C 542.21 -0.798599 -1.91408 0
M  V30 5599 C 542.635 0.640987 -1.76842 0
M  V30 5600 O 541.993 1.44652 -1.09296 0
M  V30 5601 C 542.041 -1.19665 -3.40165 0
M  V30 5602 O 541.145 -0.334768 -4.11039 0
M  V30 5603 H 540.486 -0.291961 -0.596368 0
M  V30 5604 H 543.016 -1.41732 -1.47557 0
M  V30 5605 H 543.026 -1.16772 -3.90933 0
M  V30 5606 H 541.701 -2.24526 -3.50087 0
M  V30 5607 H 540.278 -0.425168 -3.70468 0
M  V30 5608 N 542.463 1.3308 -0.844243 0
M  V30 5609 C 543.41 2.29104 -0.279323 0
M  V30 5610 C 544.38 1.54577 0.607882 0
M  V30 5611 O 545.565 1.8285 0.545009 0
M  V30 5612 C 542.705 3.40927 0.53508 0
M  V30 5613 C 541.818 4.30354 -0.376749 0
M  V30 5614 C 540.953 5.29297 0.449276 0
M  V30 5615 C 539.992 6.10365 -0.460606 0
M  V30 5616 N 539.129 7.01335 0.327612 0
M  V30 5617 H 543.969 2.76817 -1.10346 0
M  V30 5618 H 541.506 1.36203 -0.555611 0
M  V30 5619 H 543.464 4.04469 1.02278 0
M  V30 5620 H 542.094 2.94391 1.32414 0
M  V30 5621 H 541.146 3.67485 -0.982791 0
M  V30 5622 H 542.458 4.87067 -1.07549 0
M  V30 5623 H 541.612 5.98392 1.00058 0
M  V30 5624 H 540.351 4.73174 1.18143 0
M  V30 5625 H 539.356 5.40182 -1.02388 0
M  V30 5626 H 540.581 6.68571 -1.1912 0
M  V30 5627 H 538.527 6.47655 1.04305 0
M  V30 5628 H 538.444 7.55355 -0.3123 0
M  V30 5629 H 539.712 7.74731 0.86098 0
M  V30 5630 N 543.941 0.601185 1.45683 0
M  V30 5631 C 545.218 0.0261659 1.95582 0
M  V30 5632 C 545.598 -1.4399 1.5437 0
M  V30 5633 O 544.946 -2.13919 0.80318 0
M  V30 5634 C 545.156 0.217557 3.48321 0
M  V30 5635 C 546.504 0.0950076 4.24494 0
M  V30 5636 O 547.528 0.147345 3.55895 0
M  V30 5637 O 546.387 -0.025261 5.46494 0
M  V30 5638 H 543.481 -0.0393688 0.826062 0
M  V30 5639 H 546.027 0.670798 1.55879 0
M  V30 5640 H 544.799 1.23601 3.71266 0
M  V30 5641 H 544.422 -0.46264 3.94899 0
M  V30 5642 N 545.419 -1.53889 0.339982 0
M  V30 5643 C 546.349 -2.27843 -0.510856 0
M  V30 5644 C 547.33 -1.29267 -1.10563 0
M  V30 5645 O 548.515 -1.58104 -1.12768 0
M  V30 5646 C 545.645 -3.04857 -1.66372 0
M  V30 5647 C 544.599 -4.10907 -1.19746 0
M  V30 5648 C 543.925 -4.75855 -2.43857 0
M  V30 5649 C 545.225 -5.21435 -0.300501 0
M  V30 5650 H 546.919 -2.99212 0.106067 0
M  V30 5651 H 544.465 -1.43904 0.0524533 0
M  V30 5652 H 546.418 -3.5533 -2.26537 0
M  V30 5653 H 545.142 -2.31133 -2.30749 0
M  V30 5654 H 543.801 -3.61342 -0.618654 0
M  V30 5655 H 543.449 -3.9873 -3.06633 0
M  V30 5656 H 543.149 -5.47502 -2.13343 0
M  V30 5657 H 544.673 -5.2911 -3.04754 0
M  V30 5658 H 546.087 -5.67565 -0.80889 0
M  V30 5659 H 544.484 -6.00036 -0.0874076 0
M  V30 5660 H 545.554 -4.80328 0.664321 0
M  V30 5661 N 546.897 -0.0685191 -1.57451 0
M  V30 5662 C 548.313 0.288101 -1.56978 0
M  V30 5663 C 548.513 1.70262 -1.07765 0
M  V30 5664 O 547.569 2.4135 -0.742054 0
M  V30 5665 C 548.882 0.100745 -3.00531 0
M  V30 5666 C 550.43 0.170531 -3.12535 0
M  V30 5667 C 550.905 0.0114944 -4.57999 0
M  V30 5668 N 552.396 0.0672065 -4.63151 0
M  V30 5669 C 553.131 -0.0314813 -5.73391 0
M  V30 5670 N 552.627 -0.183503 -6.92557 0
M  V30 5671 N 554.42 0.0253489 -5.62094 0
M  V30 5672 H 546.571 -0.993026 -1.87757 0
M  V30 5673 H 548.834 -0.386981 -0.865419 0
M  V30 5674 H 548.54 -0.875197 -3.40636 0
M  V30 5675 H 548.414 0.854457 -3.67395 0
M  V30 5676 H 550.801 1.13696 -2.72318 0
M  V30 5677 H 550.882 -0.614229 -2.48316 0
M  V30 5678 H 550.526 -0.951684 -4.98904 0
M  V30 5679 H 550.456 0.815617 -5.20245 0
M  V30 5680 H 552.947 0.183246 -3.77455 0
M  V30 5681 H 553.26 -0.251041 -7.72392 0
M  V30 5682 H 551.605 -0.218822 -6.94655 0
M  V30 5683 H 554.796 0.142794 -4.67882 0
M  V30 5684 H 554.969 -0.0550166 -6.47977 0
M  V30 5685 N 548.375 1.56261 0.205012 0
M  V30 5686 C 549.6 1.84491 0.947512 0
M  V30 5687 C 550.025 0.650894 1.76479 0
M  V30 5688 O 549.383 -0.40035 1.76824 0
M  V30 5689 C 549.431 3.10863 1.82747 0
M  V30 5690 O 548.535 2.90719 2.925 0
M  V30 5691 H 547.876 0.607783 0.267386 0
M  V30 5692 H 550.406 2.03485 0.213323 0
M  V30 5693 H 550.416 3.41399 2.23407 0
M  V30 5694 H 549.091 3.97392 1.2269 0
M  V30 5695 H 547.668 2.71457 2.55667 0
M  V30 5696 N 549.853 -0.472356 1.50355 0
M  V30 5697 C 551.101 -1.22211 1.60962 0
M  V30 5698 C 551.422 -1.92497 0.311439 0
M  V30 5699 O 550.692 -1.8405 -0.671002 0
M  V30 5700 H 549.272 -0.454092 0.593135 0
M  V30 5701 H 551.934 -0.544977 1.87126 0
M  V30 5702 H 551.03 -1.9707 2.42012 0
M  V30 5703 N 551.331 -1.39911 -0.725443 0
M  V30 5704 C 552.561 -1.40744 -1.51244 0
M  V30 5705 C 552.969 -0.00275403 -1.892 0
M  V30 5706 O 552.312 0.981299 -1.55294 0
M  V30 5707 C 552.374 -2.22527 -2.82351 0
M  V30 5708 C 552.038 -3.71053 -2.66774 0
M  V30 5709 C 553.035 -4.63916 -2.34686 0
M  V30 5710 C 550.72 -4.14753 -2.83347 0
M  V30 5711 C 552.714 -5.98463 -2.19366 0
M  V30 5712 C 550.401 -5.49372 -2.67644 0
M  V30 5713 C 551.399 -6.41042 -2.357 0
M  V30 5714 O 551.087 -7.73181 -2.20107 0
M  V30 5715 H 550.819 -0.482314 -0.473655 0
M  V30 5716 H 553.373 -1.84472 -0.903284 0
M  V30 5717 H 551.603 -1.73563 -3.45562 0
M  V30 5718 H 553.292 -2.15421 -3.44018 0
M  V30 5719 H 554.058 -4.31453 -2.21525 0
M  V30 5720 H 549.937 -3.43728 -3.072 0
M  V30 5721 H 553.481 -6.69979 -1.94354 0
M  V30 5722 H 549.378 -5.81424 -2.80387 0
M  V30 5723 H 550.146 -7.84008 -2.35103 0
M  V30 5724 N 552.809 0.956637 -1.25245 0
M  V30 5725 C 553.719 2.0868 -1.0719 0
M  V30 5726 C 554.735 1.73997 -0.00959074 0
M  V30 5727 O 555.911 2.00301 -0.210104 0
M  V30 5728 C 552.976 3.39754 -0.690526 0
M  V30 5729 C 552.037 3.88316 -1.83055 0
M  V30 5730 C 551.27 5.13134 -1.46728 0
M  V30 5731 O 551.493 5.6925 -0.362029 0
M  V30 5732 O 550.427 5.56356 -2.29677 0
M  V30 5733 H 554.253 2.26813 -2.01965 0
M  V30 5734 H 551.838 1.07098 -1.04165 0
M  V30 5735 H 553.72 4.18543 -0.489871 0
M  V30 5736 H 552.395 3.22896 0.227981 0
M  V30 5737 H 551.302 3.1054 -2.08604 0
M  V30 5738 H 552.635 4.09669 -2.72822 0
M  V30 5739 N 554.287 1.06798 1.15896 0
M  V30 5740 C 555.515 0.808694 1.90441 0
M  V30 5741 C 555.93 -0.637506 1.77711 0
M  V30 5742 O 555.287 -1.43684 1.12522 0
M  V30 5743 C 555.338 1.20068 3.40978 0
M  V30 5744 O 555.059 2.59013 3.53333 0
M  V30 5745 C 556.56 0.96987 4.3256 0
M  V30 5746 H 553.78 0.292809 0.603742 0
M  V30 5747 H 556.324 1.42296 1.46874 0
M  V30 5748 H 554.479 0.630842 3.82229 0
M  V30 5749 H 554.893 2.7485 4.46719 0
M  V30 5750 H 556.367 1.29371 5.36626 0
M  V30 5751 H 556.844 -0.0941209 4.39099 0
M  V30 5752 H 557.45 1.52433 3.97044 0
M  V30 5753 N 555.766 -1.3263 0.851289 0
M  V30 5754 C 557.013 -1.97368 0.453023 0
M  V30 5755 C 557.341 -1.67384 -0.990596 0
M  V30 5756 O 556.596 -0.952665 -1.70947 0
M  V30 5757 C 556.895 -3.51713 0.635015 0
M  V30 5758 C 556.561 -4.01676 2.04859 0
M  V30 5759 C 555.223 -4.15031 2.43522 0
M  V30 5760 C 557.575 -4.28206 2.97135 0
M  V30 5761 C 554.903 -4.52257 3.73739 0
M  V30 5762 C 557.255 -4.66889 4.26846 0
M  V30 5763 C 555.919 -4.7845 4.65448 0
M  V30 5764 H 555.189 -0.722219 0.165773 0
M  V30 5765 H 557.836 -1.58092 1.0807 0
M  V30 5766 H 556.141 -3.91726 -0.0759081 0
M  V30 5767 H 557.838 -3.99823 0.306964 0
M  V30 5768 H 554.428 -3.91764 1.73836 0
M  V30 5769 H 558.612 -4.174 2.68498 0
M  V30 5770 H 553.868 -4.59402 4.03435 0
M  V30 5771 H 558.042 -4.86372 4.98413 0
M  V30 5772 H 555.669 -5.07052 5.66395 0
M  V30 5773 N 557.244 -0.608902 -1.45362 0
M  V30 5774 C 558.191 0.109172 -2.30542 0
M  V30 5775 C 559.161 0.858704 -1.42181 0
M  V30 5776 O 560.346 0.844178 -1.71109 0
M  V30 5777 C 557.486 1.09971 -3.27109 0
M  V30 5778 C 556.599 0.350911 -4.30572 0
M  V30 5779 C 555.734 1.33129 -5.14247 0
M  V30 5780 C 554.773 0.570377 -6.09437 0
M  V30 5781 N 553.91 1.5001 -6.85887 0
M  V30 5782 H 558.75 -0.623195 -2.91411 0
M  V30 5783 H 556.287 -0.319122 -1.43597 0
M  V30 5784 H 558.245 1.68714 -3.81564 0
M  V30 5785 H 556.875 1.79947 -2.67991 0
M  V30 5786 H 555.927 -0.352054 -3.78767 0
M  V30 5787 H 557.239 -0.242725 -4.98209 0
M  V30 5788 H 556.393 1.99074 -5.73109 0
M  V30 5789 H 555.132 1.95885 -4.46632 0
M  V30 5790 H 554.137 -0.102702 -5.49704 0
M  V30 5791 H 555.362 -0.0521607 -6.7908 0
M  V30 5792 H 553.308 2.11529 -6.2096 0
M  V30 5793 H 553.225 0.959934 -7.49881 0
M  V30 5794 H 554.493 2.14909 -7.49289 0
M  V30 5795 N 558.722 1.53707 -0.348139 0
M  V30 5796 C 559.968 2.01286 0.247332 0
M  V30 5797 C 560.301 1.23546 1.49834 0
M  V30 5798 O 559.576 0.324331 1.91777 0
M  V30 5799 C 559.859 3.55768 0.556858 0
M  V30 5800 C 559.712 4.44216 -0.706564 0
M  V30 5801 C 561.031 4.1841 1.3646 0
M  V30 5802 H 558.15 0.731677 0.0884201 0
M  V30 5803 H 560.792 1.84106 -0.469584 0
M  V30 5804 H 558.942 3.70539 1.16761 0
M  V30 5805 H 560.614 4.41274 -1.34444 0
M  V30 5806 H 558.857 4.12892 -1.33052 0
M  V30 5807 H 559.528 5.50202 -0.445186 0
M  V30 5808 H 562.004 4.07365 0.848113 0
M  V30 5809 H 560.88 5.26563 1.54992 0
M  V30 5810 H 561.141 3.7333 2.36805 0
M  V30 5811 N 560.2 0.0768682 1.57412 0
M  V30 5812 C 561.449 -0.590679 1.92857 0
M  V30 5813 C 561.762 -1.70461 0.959293 0
M  V30 5814 O 562.968 -2.43207 1.20675 0
M  V30 5815 C 561.424 -1.10204 3.42612 0
M  V30 5816 C 561.032 -0.0188447 4.47996 0
M  V30 5817 C 562.776 -1.74336 3.87049 0
M  V30 5818 C 560.683 -0.544536 5.88888 0
M  V30 5819 H 559.613 -0.224411 0.71983 0
M  V30 5820 H 562.264 0.149924 1.82887 0
M  V30 5821 H 560.646 -1.89577 3.47673 0
M  V30 5822 H 561.82 0.755936 4.54557 0
M  V30 5823 H 560.135 0.526555 4.13057 0
M  V30 5824 H 562.732 -2.14708 4.89699 0
M  V30 5825 H 563.075 -2.60537 3.24694 0
M  V30 5826 H 563.608 -1.01577 3.84613 0
M  V30 5827 H 560.347 0.280426 6.549 0
M  V30 5828 H 559.867 -1.28673 5.85836 0
M  V30 5829 H 561.546 -1.01933 6.3892 0
M  V30 5830 N 561.678 -1.56367 -0.196722 0
M  V30 5831 C 562.926 -1.80172 -0.915554 0
M  V30 5832 C 563.247 -0.649649 -1.8386 0
M  V30 5833 O 562.517 0.332111 -1.93064 0
M  V30 5834 H 561.097 -0.664592 -0.341067 0
M  V30 5835 H 563.759 -1.93844 -0.202622 0
M  V30 5836 H 562.855 -2.7327 -1.50764 0
M  V30 5837 N 563.156 0.464375 -1.50603 0
M  V30 5838 C 564.404 1.21356 -1.61608 0
M  V30 5839 C 564.725 1.92329 -0.321643 0
M  V30 5840 O 563.995 1.84403 0.661232 0
M  V30 5841 H 562.575 0.45094 -0.595535 0
M  V30 5842 H 565.237 0.535046 -1.87412 0
M  V30 5843 H 564.333 1.95783 -2.43054 0
M  V30 5844 N 564.634 1.40294 0.718013 0
M  V30 5845 C 565.88 1.39648 1.47885 0
M  V30 5846 C 566.235 -0.0023879 1.924 0
M  V30 5847 O 565.528 -0.972304 1.65096 0
M  V30 5848 C 565.722 2.31814 2.72024 0
M  V30 5849 C 565.551 3.80523 2.3965 0
M  V30 5850 C 564.321 4.49351 2.3111 0
M  V30 5851 C 566.519 4.72077 2.04079 0
M  V30 5852 N 564.501 5.83305 1.91385 0
M  V30 5853 C 565.872 5.94809 1.74935 0
M  V30 5854 C 567.927 4.59935 1.90694 0
M  V30 5855 C 566.63 7.06755 1.33753 0
M  V30 5856 C 568.656 5.7182 1.50915 0
M  V30 5857 C 568.018 6.93637 1.22668 0
M  V30 5858 H 564.117 0.566263 0.539324 0
M  V30 5859 H 566.701 1.75986 0.832891 0
M  V30 5860 H 564.872 1.97607 3.34374 0
M  V30 5861 H 566.604 2.22042 3.38348 0
M  V30 5862 H 563.359 4.03002 2.4877 0
M  V30 5863 H 563.783 6.54239 1.74068 0
M  V30 5864 H 568.425 3.66274 2.11194 0
M  V30 5865 H 566.143 8.00302 1.11995 0
M  V30 5866 H 569.729 5.64421 1.4114 0
M  V30 5867 H 568.609 7.78743 0.923502 0
M  V30 5868 N 566.112 -0.949982 1.2575 0
M  V30 5869 C 567.337 -1.73503 1.13628 0
M  V30 5870 C 567.762 -1.85601 -0.30559 0
M  V30 5871 O 567.12 -1.33984 -1.22139 0
M  V30 5872 C 567.168 -3.1243 1.80055 0
M  V30 5873 O 566.272 -3.97916 1.08336 0
M  V30 5874 H 565.613 -0.532665 0.396439 0
M  V30 5875 H 568.143 -1.19043 1.66403 0
M  V30 5876 H 568.153 -3.62866 1.86527 0
M  V30 5877 H 566.828 -3.02941 2.84956 0
M  V30 5878 H 565.405 -3.56375 1.09777 0
M  V30 5879 N 567.59 -1.07411 -1.15328 0
M  V30 5880 C 568.818 -0.818782 -1.90009 0
M  V30 5881 C 569.233 0.628072 -1.78047 0
M  V30 5882 O 568.59 1.43085 -1.13282 0
M  V30 5883 C 568.641 -1.21874 -3.40337 0
M  V30 5884 O 568.362 -2.60883 -3.51954 0
M  V30 5885 C 569.863 -0.992796 -4.3204 0
M  V30 5886 H 567.083 -0.296007 -0.60218 0
M  V30 5887 H 569.627 -1.43073 -1.46117 0
M  V30 5888 H 567.782 -0.651103 -3.81889 0
M  V30 5889 H 568.196 -2.77216 -4.45255 0
M  V30 5890 H 569.67 -1.32215 -5.35932 0
M  V30 5891 H 570.147 0.0708331 -4.39143 0
M  V30 5892 H 570.753 -1.54537 -3.9623 0
M  V30 5893 N 569.068 1.32177 -0.85831 0
M  V30 5894 C 570.479 1.79381 -0.517621 0
M  V30 5895 C 570.83 1.70841 0.964769 0
M  V30 5896 O 569.955 1.26917 1.75274 0
M  V30 5897 C 570.55 3.25706 -0.932801 0
M  V30 5898 C 569.109 3.70851 -0.643953 0
M  V30 5899 C 568.256 2.53208 -1.13054 0
M  V30 5900 H 571.207 1.19424 -1.04516 0
M  V30 5901 H 571.228 3.79673 -0.250674 0
M  V30 5902 H 570.74 3.31889 -2.01174 0
M  V30 5903 H 568.841 3.70178 0.424112 0
M  V30 5904 H 568.954 4.63495 -1.21281 0
M  V30 5905 H 567.318 2.48676 -0.550679 0
M  V30 5906 H 568.101 2.62143 -2.21666 0
M  V30 5907 N 570.547 0.616602 1.45037 0
M  V30 5908 C 571.495 -0.109318 2.32343 0
M  V30 5909 C 572.489 -0.850543 1.465 0
M  V30 5910 O 573.695 -0.765088 1.62931 0
M  V30 5911 H 570.07 -0.0541091 0.750051 0
M  V30 5912 H 572.041 0.645326 2.91338 0
M  V30 5913 C 570.79 -1.0872 3.30266 0
M  V30 5914 H 570.113 -0.526267 3.96321 0
M  V30 5915 H 571.553 -1.56489 3.94065 0
M  V30 5916 C 570.012 -2.16525 2.58105 0
M  V30 5917 O 570.542 -3.244 2.36913 0
M  V30 5918 N 568.748 -1.92057 2.18088 0
M  V30 5919 H 568.295 -1.04337 2.35524 0
M  V30 5920 H 568.253 -2.64391 1.70131 0
M  V30 5921 N 572.025 -1.5352 0.356285 0
M  V30 5922 C 573.25 -2.06007 -0.239961 0
M  V30 5923 C 573.675 -1.22872 -1.42422 0
M  V30 5924 O 573.033 -0.245516 -1.7963 0
M  V30 5925 C 573.081 -3.5522 -0.620587 0
M  V30 5926 O 572.185 -3.74864 -1.71902 0
M  V30 5927 H 571.526 -0.662961 -0.0371377 0
M  V30 5928 H 574.056 -1.98033 0.514194 0
M  V30 5929 H 574.066 -3.98081 -0.894197 0
M  V30 5930 H 572.741 -4.15175 0.245407 0
M  V30 5931 H 571.318 -3.43904 -1.44169 0
M  V30 5932 N 573.503 -0.0852151 -1.57369 0
M  V30 5933 C 574.45 0.877268 -2.13478 0
M  V30 5934 C 575.42 1.28642 -1.05073 0
M  V30 5935 O 576.605 1.36992 -1.32808 0
M  V30 5936 C 573.745 2.13464 -2.71159 0
M  V30 5937 C 572.858 1.77691 -3.93764 0
M  V30 5938 C 571.993 2.98139 -4.39643 0
M  V30 5939 C 571.032 2.58447 -5.54862 0
M  V30 5940 N 570.169 3.71698 -5.95639 0
M  V30 5941 H 575.009 0.391933 -2.95411 0
M  V30 5942 H 572.546 0.181796 -1.45972 0
M  V30 5943 H 574.504 2.87086 -3.02717 0
M  V30 5944 H 573.134 2.59514 -1.91969 0
M  V30 5945 H 572.186 0.940768 -3.68583 0
M  V30 5946 H 573.498 1.44497 -4.77412 0
M  V30 5947 H 572.652 3.80026 -4.72933 0
M  V30 5948 H 571.391 3.34536 -3.54876 0
M  V30 5949 H 570.396 1.74984 -5.21211 0
M  V30 5950 H 571.621 2.23205 -6.41371 0
M  V30 5951 H 569.567 4.07831 -5.13819 0
M  V30 5952 H 569.484 3.42317 -6.74059 0
M  V30 5953 H 570.752 4.54123 -6.33555 0
M  V30 5954 N 574.981 1.5647 0.188427 0
M  V30 5955 C 576.206 1.85486 0.927891 0
M  V30 5956 C 576.631 0.669575 1.75779 0
M  V30 5957 O 575.989 -0.381573 1.77239 0
M  V30 5958 C 576.037 3.12784 1.7944 0
M  V30 5959 O 575.141 2.93805 2.894 0
M  V30 5960 H 574.482 0.610585 0.260925 0
M  V30 5961 H 577.012 2.037 0.191729 0
M  V30 5962 H 577.022 3.43749 2.19774 0
M  V30 5963 H 575.697 3.98671 1.18468 0
M  V30 5964 H 574.274 2.74153 2.52774 0
M  V30 5965 N 576.459 -0.456382 1.50847 0
M  V30 5966 C 577.391 -1.57033 1.66953 0
M  V30 5967 C 578.404 -1.53207 0.550593 0
M  V30 5968 O 579.593 -1.58328 0.824285 0
M  V30 5969 C 576.693 -2.95937 1.65149 0
M  V30 5970 C 575.866 -3.24475 2.93317 0
M  V30 5971 C 574.925 -4.43007 2.83957 0
M  V30 5972 O 573.951 -4.42592 3.57912 0
M  V30 5973 N 575.153 -5.45503 1.9851 0
M  V30 5974 H 577.918 -1.43629 2.63042 0
M  V30 5975 H 575.479 -0.645037 1.48495 0
M  V30 5976 H 577.471 -3.73224 1.56481 0
M  V30 5977 H 576.041 -3.03036 0.767343 0
M  V30 5978 H 575.261 -2.35664 3.16 0
M  V30 5979 H 576.549 -3.4036 3.78196 0
M  V30 5980 H 575.947 -5.48668 1.37766 0
M  V30 5981 H 574.504 -6.21716 1.95735 0
M  V30 5982 N 577.937 -1.40673 -0.710563 0
M  V30 5983 C 579.186 -1.38525 -1.46607 0
M  V30 5984 C 579.499 0.0077024 -1.95598 0
M  V30 5985 O 580.705 0.151792 -2.71075 0
M  V30 5986 C 579.161 -2.43489 -2.6503 0
M  V30 5987 C 578.769 -3.88619 -2.22888 0
M  V30 5988 C 580.513 -2.50456 -3.42742 0
M  V30 5989 C 578.42 -4.85168 -3.3818 0
M  V30 5990 H 577.35 -0.515092 -0.550632 0
M  V30 5991 H 580.001 -1.66431 -0.772846 0
M  V30 5992 H 578.383 -2.0869 -3.36548 0
M  V30 5993 H 579.557 -4.32588 -1.58758 0
M  V30 5994 H 577.872 -3.85174 -1.58208 0
M  V30 5995 H 580.469 -3.19776 -4.28541 0
M  V30 5996 H 580.812 -1.53665 -3.86902 0
M  V30 5997 H 581.345 -2.84271 -2.78271 0
M  V30 5998 H 578.084 -5.8331 -2.99047 0
M  V30 5999 H 577.604 -4.4586 -4.01209 0
M  V30 6000 H 579.283 -5.05225 -4.04174 0
M  V30 6001 N 579.415 0.9433 -1.26252 0
M  V30 6002 C 580.363 2.06302 -1.07434 0
M  V30 6003 C 581.357 1.694 -0.00189471 0
M  V30 6004 O 582.563 1.79302 -0.158408 0
M  V30 6005 H 578.938 0.675453 -0.330556 0
M  V30 6006 H 580.909 2.19326 -2.02333 0
M  V30 6007 C 579.658 3.40125 -0.721817 0
M  V30 6008 H 578.981 3.68996 -1.5389 0
M  V30 6009 H 580.421 4.19295 -0.629922 0
M  V30 6010 C 578.88 3.31993 0.572902 0
M  V30 6011 O 579.41 3.67945 1.61182 0
M  V30 6012 N 577.616 2.85099 0.562748 0
M  V30 6013 H 577.163 2.5604 -0.283092 0
M  V30 6014 H 577.121 2.80041 1.42915 0
M  V30 6015 N 580.893 1.08022 1.14757 0
M  V30 6016 C 582.309 0.807072 1.3769 0
M  V30 6017 C 582.509 -0.585504 1.92806 0
M  V30 6018 O 581.565 -1.34301 2.13821 0
M  V30 6019 C 582.878 1.88651 2.34161 0
M  V30 6020 C 584.426 1.91206 2.47809 0
M  V30 6021 C 584.901 2.98253 3.47576 0
M  V30 6022 N 586.392 2.974 3.55117 0
M  V30 6023 C 587.127 3.76872 4.32152 0
M  V30 6024 N 586.623 4.66212 5.12463 0
M  V30 6025 N 588.416 3.6519 4.27309 0
M  V30 6026 H 580.567 1.97824 0.77326 0
M  V30 6027 H 582.83 0.85826 0.402608 0
M  V30 6028 H 582.536 2.88749 2.00791 0
M  V30 6029 H 582.41 1.75244 3.3402 0
M  V30 6030 H 584.797 0.917564 2.80472 0
M  V30 6031 H 584.878 2.08691 1.47925 0
M  V30 6032 H 584.522 3.97907 3.15646 0
M  V30 6033 H 584.452 2.78014 4.47231 0
M  V30 6034 H 586.943 2.32643 2.97801 0
M  V30 6035 H 587.256 5.23468 5.68508 0
M  V30 6036 H 585.601 4.70257 5.11745 0
M  V30 6037 H 588.792 2.94765 3.63636 0
M  V30 6038 H 588.965 4.27366 4.87095 0
M  V30 6039 N 582.371 -1.3172 0.865308 0
M  V30 6040 C 583.303 -2.27545 0.274906 0
M  V30 6041 C 584.316 -1.52887 -0.559413 0
M  V30 6042 O 585.505 -1.74361 -0.382166 0
M  V30 6043 C 582.605 -3.33006 -0.629286 0
M  V30 6044 C 581.778 -4.37063 0.171553 0
M  V30 6045 C 580.837 -5.22044 -0.660052 0
M  V30 6046 O 579.863 -5.69129 -0.0897527 0
M  V30 6047 N 581.065 -5.45946 -1.97289 0
M  V30 6048 H 583.83 -2.78848 1.09836 0
M  V30 6049 H 581.391 -1.44693 0.726331 0
M  V30 6050 H 583.383 -3.86772 -1.19121 0
M  V30 6051 H 581.953 -2.81782 -1.35342 0
M  V30 6052 H 581.173 -3.83436 0.914919 0
M  V30 6053 H 582.461 -5.03662 0.721235 0
M  V30 6054 H 581.859 -5.0944 -2.45942 0
M  V30 6055 H 580.416 -6.02665 -2.4827 0
M  V30 6056 N 583.85 -0.624285 -1.44708 0
M  V30 6057 C 585.096 -0.126237 -2.02407 0
M  V30 6058 C 585.428 1.24618 -1.48943 0
M  V30 6059 O 584.704 1.82569 -0.670742 0
M  V30 6060 C 584.986 -0.105449 -3.59946 0
M  V30 6061 C 584.84 -1.50972 -4.23707 0
M  V30 6062 C 586.159 0.573629 -4.36346 0
M  V30 6063 H 583.278 -0.0473472 -0.735478 0
M  V30 6064 H 585.92 -0.799452 -1.72362 0
M  V30 6065 H 584.07 0.46783 -3.85673 0
M  V30 6066 H 585.742 -2.13136 -4.0911 0
M  V30 6067 H 583.985 -2.0656 -3.81465 0
M  V30 6068 H 584.656 -1.44727 -5.32689 0
M  V30 6069 H 587.132 0.0861787 -4.16011 0
M  V30 6070 H 586.008 0.557338 -5.46063 0
M  V30 6071 H 586.269 1.64276 -4.10446 0
M  V30 6072 N 585.328 1.53329 -0.364422 0
M  V30 6073 C 586.577 2.00421 0.226747 0
M  V30 6074 C 586.89 1.25581 1.49963 0
M  V30 6075 O 588.096 1.63256 2.16933 0
M  V30 6076 C 586.552 3.57017 0.454618 0
M  V30 6077 C 586.16 4.40734 -0.803568 0
M  V30 6078 C 587.904 4.12468 1.00351 0
M  V30 6079 C 585.811 5.8888 -0.545345 0
M  V30 6080 H 584.741 0.748787 0.0885082 0
M  V30 6081 H 587.392 1.7703 -0.482983 0
M  V30 6082 H 585.774 3.76558 1.22558 0
M  V30 6083 H 586.948 4.32967 -1.57723 0
M  V30 6084 H 585.263 3.96381 -1.27559 0
M  V30 6085 H 587.86 5.20783 1.212 0
M  V30 6086 H 588.203 3.6699 1.9653 0
M  V30 6087 H 588.736 3.96721 0.29274 0
M  V30 6088 H 585.475 6.38633 -1.47743 0
M  V30 6089 H 584.995 5.99499 0.189842 0
M  V30 6090 H 586.674 6.46776 -0.170425 0
M  V30 6091 N 586.806 0.0935595 1.57322 0
M  V30 6092 C 588.052 -0.571355 1.94585 0
M  V30 6093 C 588.385 -1.67929 0.975366 0
M  V30 6094 O 587.66 -1.94498 0.00816206 0
M  V30 6095 C 587.943 -1.12797 3.41978 0
M  V30 6096 C 587.796 -0.0251881 4.49793 0
M  V30 6097 C 589.115 -2.02682 3.90651 0
M  V30 6098 H 586.234 -0.206223 0.70756 0
M  V30 6099 H 588.876 0.163956 1.89291 0
M  V30 6100 H 587.026 -1.75461 3.4662 0
M  V30 6101 H 588.698 0.608979 4.57263 0
M  V30 6102 H 586.941 0.641399 4.29032 0
M  V30 6103 H 587.612 -0.455433 5.50118 0
M  V30 6104 H 590.088 -1.49925 3.88152 0
M  V30 6105 H 588.964 -2.38555 4.94351 0
M  V30 6106 H 589.225 -2.94362 3.29854 0
M  V30 6107 N 588.284 -1.56567 -0.180126 0
M  V30 6108 C 589.561 -1.7235 -0.924931 0
M  V30 6109 C 589.941 -0.652523 -2.00762 0
M  V30 6110 O 589.289 0.334115 -2.26044 0
M  V30 6111 C 589.499 -3.1523 -1.49771 0
M  V30 6112 C 590.847 -3.75921 -1.97405 0
M  V30 6113 O 591.871 -3.18452 -1.59583 0
M  V30 6114 O 590.73 -4.7681 -2.67048 0
M  V30 6115 H 587.824 -0.703502 -0.434758 0
M  V30 6116 H 590.37 -1.6886 -0.168647 0
M  V30 6117 H 589.142 -3.84656 -0.718027 0
M  V30 6118 H 588.765 -3.23009 -2.31842 0
M  V30 6119 N 589.762 0.448376 -1.51087 0
M  V30 6120 C 590.987 1.22605 -1.6728 0
M  V30 6121 C 591.412 1.84524 -0.365045 0
M  V30 6122 O 590.77 1.6832 0.673642 0
M  V30 6123 C 590.818 2.29393 -2.78229 0
M  V30 6124 O 589.922 3.34608 -2.41063 0
M  V30 6125 H 589.263 0.359705 -0.558129 0
M  V30 6126 H 591.793 0.530903 -1.97592 0
M  V30 6127 H 591.803 2.74352 -3.01986 0
M  V30 6128 H 590.478 1.83701 -3.73131 0
M  V30 6129 H 589.055 2.95202 -2.27838 0
M  V30 6130 N 591.24 1.41047 0.703093 0
M  V30 6131 C 592.517 1.30493 1.45708 0
M  V30 6132 C 592.897 -0.0709892 2.10981 0
M  V30 6133 O 592.245 -1.08471 2.01113 0
M  V30 6134 C 592.455 2.45287 2.48265 0
M  V30 6135 C 593.803 2.86104 3.13735 0
M  V30 6136 O 594.827 2.44971 2.58587 0
M  V30 6137 O 593.686 3.57206 4.13601 0
M  V30 6138 H 590.78 0.513144 0.648546 0
M  V30 6139 H 593.326 1.52995 0.734208 0
M  V30 6140 H 592.098 3.37135 1.98635 0
M  V30 6141 H 591.721 2.24622 3.28071 0
M  V30 6142 N 592.718 -0.936591 1.26751 0
M  V30 6143 C 593.666 -2.0573 1.08527 0
M  V30 6144 C 594.66 -1.69397 0.0108784 0
M  V30 6145 O 595.866 -1.79215 0.167915 0
M  V30 6146 H 592.241 -0.673691 0.334133 0
M  V30 6147 H 594.212 -2.1825 2.03493 0
M  V30 6148 C 592.961 -3.39738 0.739845 0
M  V30 6149 H 592.284 -3.68174 1.55845 0
M  V30 6150 H 593.724 -4.18955 0.652149 0
M  V30 6151 C 592.183 -3.32292 -0.555288 0
M  V30 6152 O 592.713 -3.68794 -1.59229 0
M  V30 6153 N 590.919 -2.85394 -0.54762 0
M  V30 6154 H 590.466 -2.55886 0.296667 0
M  V30 6155 H 590.424 -2.80795 -1.41427 0
M  V30 6156 N 594.196 -1.08629 -1.14182 0
M  V30 6157 C 595.612 -0.814363 -1.3726 0
M  V30 6158 C 595.812 0.575271 -1.93114 0
M  V30 6159 O 594.868 1.33165 -2.1453 0
M  V30 6160 C 596.181 -1.8989 -2.33157 0
M  V30 6161 C 597.729 -1.92518 -2.46791 0
M  V30 6162 C 598.204 -3.00092 -3.45989 0
M  V30 6163 N 599.695 -2.99279 -3.53534 0
M  V30 6164 C 600.43 -3.79158 -4.30147 0
M  V30 6165 N 599.926 -4.68923 -5.09983 0
M  V30 6166 N 601.719 -3.67451 -4.25366 0
M  V30 6167 H 593.87 -1.98232 -0.762758 0
M  V30 6168 H 596.133 -0.860383 -0.398051 0
M  V30 6169 H 595.839 -2.89809 -1.99257 0
M  V30 6170 H 595.713 -1.77013 -3.33086 0
M  V30 6171 H 598.1 -0.932425 -2.79982 0
M  V30 6172 H 598.181 -2.09473 -1.46816 0
M  V30 6173 H 597.825 -3.99575 -3.13532 0
M  V30 6174 H 597.755 -2.80382 -4.45751 0
M  V30 6175 H 600.246 -2.3422 -2.96563 0
M  V30 6176 H 600.559 -5.26475 -5.65724 0
M  V30 6177 H 598.904 -4.72964 -5.09244 0
M  V30 6178 H 602.095 -2.9669 -3.62067 0
M  V30 6179 H 602.268 -4.29944 -4.84822 0
M  V30 6180 N 595.674 1.31259 -0.872281 0
M  V30 6181 C 596.899 2.0133 -0.498099 0
M  V30 6182 C 597.324 1.65031 0.902568 0
M  V30 6183 O 596.682 0.860164 1.59596 0
M  V30 6184 C 596.73 3.54411 -0.665205 0
M  V30 6185 O 595.834 4.11347 0.294473 0
M  V30 6186 H 595.175 0.633844 -0.197832 0
M  V30 6187 H 597.705 1.67402 -1.17633 0
M  V30 6188 H 597.715 4.04147 -0.559373 0
M  V30 6189 H 596.39 3.80171 -1.68651 0
M  V30 6190 H 594.967 3.72624 0.143403 0
M  V30 6191 N 597.152 0.631951 1.44375 0
M  V30 6192 C 598.4 0.136497 2.01639 0
M  V30 6193 C 598.721 -1.24637 1.49969 0
M  V30 6194 O 597.991 -1.82827 0.70363 0
M  V30 6195 H 596.571 0.0474703 0.74549 0
M  V30 6196 H 599.233 0.818837 1.76865 0
M  V30 6197 H 598.329 0.104817 3.11924 0
M  V30 6198 N 598.631 -1.53133 0.372548 0
M  V30 6199 C 599.861 -2.05476 -0.215202 0
M  V30 6200 C 600.269 -1.24534 -1.42436 0
M  V30 6201 O 599.612 -0.280771 -1.81542 0
M  V30 6202 C 599.674 -3.53276 -0.666068 0
M  V30 6203 C 599.338 -4.54998 0.427342 0
M  V30 6204 C 600.335 -5.03911 1.27944 0
M  V30 6205 C 598.02 -4.98828 0.589579 0
M  V30 6206 C 600.014 -5.95263 2.27905 0
M  V30 6207 C 597.701 -5.89984 1.59255 0
M  V30 6208 C 598.699 -6.38093 2.43571 0
M  V30 6209 O 598.387 -7.27451 3.42156 0
M  V30 6210 H 598.119 -0.67481 -0.040099 0
M  V30 6211 H 600.673 -1.98409 0.531312 0
M  V30 6212 H 598.903 -3.57904 -1.4643 0
M  V30 6213 H 600.592 -3.88442 -1.1776 0
M  V30 6214 H 601.358 -4.70792 1.16532 0
M  V30 6215 H 597.237 -4.60965 -0.0569456 0
M  V30 6216 H 600.781 -6.32736 2.93753 0
M  V30 6217 H 596.678 -6.22518 1.70711 0
M  V30 6218 H 597.446 -7.45467 3.37967 0
M  V30 6219 N 600.109 -0.101901 -1.5727 0
M  V30 6220 C 601.334 0.571759 -1.99363 0
M  V30 6221 C 601.759 1.60507 -0.980768 0
M  V30 6222 O 601.117 1.81231 0.0498517 0
M  V30 6223 C 601.165 1.18996 -3.404 0
M  V30 6224 O 600.269 2.30572 -3.41922 0
M  V30 6225 H 599.61 0.144449 -0.648098 0
M  V30 6226 H 602.14 -0.185325 -2.03759 0
M  V30 6227 H 602.15 1.52962 -3.78241 0
M  V30 6228 H 600.825 0.432984 -4.1364 0
M  V30 6229 H 599.402 1.98173 -3.15883 0
M  V30 6230 N 601.587 1.56661 0.17182 0
M  V30 6231 C 602.835 1.81606 0.886774 0
M  V30 6232 C 603.156 0.678818 1.82803 0
M  V30 6233 O 602.426 -0.301354 1.93568 0
M  V30 6234 H 601.006 0.669934 0.330451 0
M  V30 6235 H 603.668 1.94142 0.171757 0
M  V30 6236 H 602.764 2.75634 1.46398 0
M  V30 6237 N 603.065 -0.440357 1.51323 0
M  V30 6238 C 604.314 -1.18697 1.63076 0
M  V30 6239 C 604.627 -1.92418 0.35136 0
M  V30 6240 O 605.833 -2.69258 0.348221 0
M  V30 6241 C 604.289 -2.15849 2.87988 0
M  V30 6242 C 603.897 -1.47789 4.22921 0
M  V30 6243 C 605.641 -2.90962 3.09098 0
M  V30 6244 C 603.548 -2.43407 5.38987 0
M  V30 6245 H 602.478 -0.44676 0.607389 0
M  V30 6246 H 605.129 -0.454313 1.77787 0
M  V30 6247 H 603.511 -2.92537 2.66905 0
M  V30 6248 H 604.685 -0.7668 4.54375 0
M  V30 6249 H 603 -0.848404 4.07665 0
M  V30 6250 H 605.597 -3.62584 3.92985 0
M  V30 6251 H 605.94 -3.52133 2.22053 0
M  V30 6252 H 606.473 -2.21381 3.30507 0
M  V30 6253 H 603.212 -1.86929 6.28282 0
M  V30 6254 H 602.732 -3.12579 5.11913 0
M  V30 6255 H 604.411 -3.046 5.70813 0
M  V30 6256 N 604.543 -1.41418 -0.695603 0
M  V30 6257 C 605.79 -1.40774 -1.45564 0
M  V30 6258 C 606.118 -0.0168604 -1.94493 0
M  V30 6259 O 605.373 0.971259 -1.69897 0
M  V30 6260 C 605.672 -2.36112 -2.68302 0
M  V30 6261 C 605.338 -3.82952 -2.38031 0
M  V30 6262 C 604 -4.22954 -2.29486 0
M  V30 6263 C 606.352 -4.75662 -2.13061 0
M  V30 6264 C 603.68 -5.53674 -1.94067 0
M  V30 6265 C 606.032 -6.06702 -1.79151 0
M  V30 6266 C 604.696 -6.45725 -1.69102 0
M  V30 6267 H 603.966 -0.515128 -0.532658 0
M  V30 6268 H 606.613 -1.74216 -0.795047 0
M  V30 6269 H 604.918 -1.95924 -3.39295 0
M  V30 6270 H 606.615 -2.32887 -3.26442 0
M  V30 6271 H 603.205 -3.5127 -2.45576 0
M  V30 6272 H 607.389 -4.45561 -2.18608 0
M  V30 6273 H 602.645 -5.8279 -1.8484 0
M  V30 6274 H 606.819 -6.78041 -1.5885 0
M  V30 6275 H 604.446 -7.46929 -1.41426 0
M  V30 6276 N 606.021 0.929856 -1.27246 0
M  V30 6277 C 607.246 1.71674 -1.16374 0
M  V30 6278 C 607.671 1.86064 0.276024 0
M  V30 6279 O 607.029 1.3591 1.19992 0
M  V30 6280 C 607.077 3.09526 -1.85003 0
M  V30 6281 O 606.181 3.96142 -1.14653 0
M  V30 6282 H 605.522 0.52629 -0.404863 0
M  V30 6283 H 608.052 1.16381 -1.68276 0
M  V30 6284 H 608.062 3.59852 -1.92276 0
M  V30 6285 H 606.737 2.98369 -2.89739 0
M  V30 6286 H 605.314 3.54584 -1.15433 0
M  V30 6287 N 607.499 1.09233 1.13605 0
M  V30 6288 C 608.745 0.828385 1.8511 0
M  V30 6289 C 609.078 -0.64437 1.83198 0
M  V30 6290 O 608.353 -1.47428 1.26867 0
M  V30 6291 C 608.636 1.36167 3.33363 0
M  V30 6292 C 608.489 2.90038 3.438 0
M  V30 6293 C 609.808 0.993819 4.28732 0
M  V30 6294 H 606.927 0.30239 0.672108 0
M  V30 6295 H 609.569 1.35339 1.33355 0
M  V30 6296 H 607.719 0.9151 3.77569 0
M  V30 6297 H 609.391 3.43128 3.08319 0
M  V30 6298 H 607.634 3.27271 2.84739 0
M  V30 6299 H 608.305 3.22428 4.48045 0
M  V30 6300 H 610.781 1.37893 3.92587 0
M  V30 6301 H 609.657 1.39403 5.30903 0
M  V30 6302 H 609.918 -0.0982206 4.41991 0
M  V30 6303 N 608.977 -1.30795 0.87923 0
M  V30 6304 C 609.887 -2.32041 0.345565 0
M  V30 6305 C 610.903 -1.65103 -0.549265 0
M  V30 6306 O 612.079 -1.9645 -0.443763 0
M  V30 6307 C 609.144 -3.43944 -0.436245 0
M  V30 6308 C 608.205 -4.26521 0.48765 0
M  V30 6309 C 607.438 -5.33081 -0.256943 0
M  V30 6310 O 607.661 -5.50762 -1.48381 0
M  V30 6311 O 606.595 -6.00635 0.389985 0
M  V30 6312 H 610.421 -2.79627 1.18501 0
M  V30 6313 H 608.006 -1.3486 0.642885 0
M  V30 6314 H 609.888 -4.12128 -0.879119 0
M  V30 6315 H 608.563 -2.98504 -1.25208 0
M  V30 6316 H 607.47 -3.61057 0.979216 0
M  V30 6317 H 608.803 -4.75551 1.26933 0
M  V30 6318 N 610.455 -0.639598 -1.44038 0
M  V30 6319 C 611.703 -0.147188 -2.01563 0
M  V30 6320 C 612.024 1.2384 -1.50628 0
M  V30 6321 O 611.294 1.82452 -0.713316 0
M  V30 6322 H 609.874 -0.0514231 -0.745228 0
M  V30 6323 H 612.536 -0.828205 -1.76428 0
M  V30 6324 H 611.632 -0.121358 -3.11864 0
M  V30 6325 N 611.933 1.52934 -0.380664 0
M  V30 6326 C 612.88 2.26197 0.458641 0
M  V30 6327 C 613.85 1.27462 1.06502 0
M  V30 6328 O 615.035 1.56274 1.09467 0
M  V30 6329 C 612.175 3.06571 1.58456 0
M  V30 6330 C 611.288 4.20222 1.00189 0
M  V30 6331 C 610.423 4.88007 2.09815 0
M  V30 6332 C 609.462 5.93665 1.49092 0
M  V30 6333 N 608.599 6.55081 2.52613 0
M  V30 6334 H 613.439 2.975 -0.172595 0
M  V30 6335 H 610.976 1.4678 -0.0969426 0
M  V30 6336 H 612.934 3.51455 2.24801 0
M  V30 6337 H 611.564 2.37494 2.18624 0
M  V30 6338 H 610.616 3.79714 0.228292 0
M  V30 6339 H 611.928 4.96102 0.518064 0
M  V30 6340 H 611.082 5.36151 2.83948 0
M  V30 6341 H 609.821 4.11632 2.61555 0
M  V30 6342 H 608.826 5.44868 0.7348 0
M  V30 6343 H 610.051 6.71969 0.981582 0
M  V30 6344 H 607.997 5.8155 3.03538 0
M  V30 6345 H 607.914 7.26548 2.08961 0
M  V30 6346 H 609.182 7.07871 3.26402 0
M  V30 6347 N 613.412 0.11024 1.57214 0
M  V30 6348 C 614.637 -0.561179 1.99664 0
M  V30 6349 C 615.062 -1.59985 0.989266 0
M  V30 6350 O 614.42 -1.81255 -0.0402399 0
M  V30 6351 C 614.468 -1.17189 3.41027 0
M  V30 6352 O 613.572 -2.28755 3.4314 0
M  V30 6353 H 612.913 -0.14101 0.648855 0
M  V30 6354 H 615.443 0.196128 2.03658 0
M  V30 6355 H 615.453 -1.50954 3.79047 0
M  V30 6356 H 614.128 -0.411041 4.13864 0
M  V30 6357 H 612.705 -1.96495 3.16929 0
M  V30 6358 N 614.89 -1.56749 -0.16351 0
M  V30 6359 C 616.13 -1.84234 -0.885271 0
M  V30 6360 C 616.494 -0.692259 -1.79086 0
M  V30 6361 O 617.695 -0.847747 -2.55082 0
M  V30 6362 C 615.966 -3.16857 -1.65337 0
M  V30 6363 S 617.525 -3.65848 -2.42282 0
M  V30 6364 H 614.343 -0.646293 -0.296354 0
M  V30 6365 H 616.945 -1.94951 -0.146365 0
M  V30 6366 H 615.649 -3.98546 -0.979266 0
M  V30 6367 H 615.18 -3.09102 -2.4335 0
M  V30 6368 H 617.195 -3.33796 -3.67143 0
M  V30 6369 N 616.368 0.432326 -1.51554 0
M  V30 6370 C 617.617 1.17831 -1.63703 0
M  V30 6371 C 617.93 1.92229 -0.36156 0
M  V30 6372 O 619.136 2.69069 -0.362495 0
M  V30 6373 C 617.592 2.14318 -2.89129 0
M  V30 6374 C 617.2 1.45544 -4.23699 0
M  V30 6375 C 618.944 2.89319 -3.10636 0
M  V30 6376 C 616.851 2.40545 -5.4027 0
M  V30 6377 H 615.781 0.443533 -0.60975 0
M  V30 6378 H 618.432 0.444878 -1.78026 0
M  V30 6379 H 616.814 2.91117 -2.68452 0
M  V30 6380 H 617.988 0.742693 -4.54775 0
M  V30 6381 H 616.303 0.826772 -4.0811 0
M  V30 6382 H 618.9 3.60495 -3.94902 0
M  V30 6383 H 619.243 3.50951 -2.23918 0
M  V30 6384 H 619.776 2.19625 -3.31677 0
M  V30 6385 H 616.515 1.83594 -6.29264 0
M  V30 6386 H 616.035 3.09859 -5.13563 0
M  V30 6387 H 617.714 3.01569 -5.72421 0
M  V30 6388 N 617.846 1.41785 0.688094 0
M  V30 6389 C 618.794 1.44436 1.82321 0
M  V30 6390 C 619.788 0.321544 1.6632 0
M  V30 6391 O 620.994 0.493931 1.73091 0
M  V30 6392 H 617.369 0.452084 0.600936 0
M  V30 6393 H 619.34 2.40087 1.77202 0
M  V30 6394 C 618.089 1.35071 3.20392 0
M  V30 6395 H 617.412 2.2076 3.33324 0
M  V30 6396 H 618.852 1.40988 3.99873 0
M  V30 6397 C 617.311 0.0639127 3.36839 0
M  V30 6398 O 617.841 -0.888495 3.91751 0
M  V30 6399 N 616.047 -0.0146114 2.90596 0
M  V30 6400 H 615.594 0.761191 2.46097 0
M  V30 6401 H 615.552 -0.874988 3.01979 0
M  V30 6402 N 619.324 -0.923095 1.27737 0
M  V30 6403 C 620.74 -1.19985 1.05241 0
M  V30 6404 C 620.94 -2.00391 -0.21113 0
M  V30 6405 O 619.996 -2.35324 -0.915366 0
M  V30 6406 C 621.309 -1.94352 2.29451 0
M  V30 6407 C 622.857 -2.07273 2.34536 0
M  V30 6408 C 623.332 -2.85046 3.58487 0
M  V30 6409 N 624.823 -2.92612 3.59072 0
M  V30 6410 C 625.558 -3.53266 4.51654 0
M  V30 6411 N 625.054 -4.15274 5.54545 0
M  V30 6412 N 626.847 -3.50714 4.39268 0
M  V30 6413 H 618.998 -0.386042 2.08862 0
M  V30 6414 H 621.261 -0.233407 0.918817 0
M  V30 6415 H 620.967 -1.42692 3.21453 0
M  V30 6416 H 620.841 -2.94947 2.3513 0
M  V30 6417 H 623.228 -2.58117 1.43037 0
M  V30 6418 H 623.309 -1.05884 2.32857 0
M  V30 6419 H 622.953 -2.34884 4.50324 0
M  V30 6420 H 622.883 -3.8673 3.57418 0
M  V30 6421 H 625.374 -2.48547 2.84663 0
M  V30 6422 H 625.687 -4.59507 6.21348 0
M  V30 6423 H 624.032 -4.13806 5.58382 0
M  V30 6424 H 627.223 -3.01475 3.58093 0
M  V30 6425 H 627.396 -3.97693 5.1161 0
M  V30 6426 N 620.802 -1.09834 -1.13024 0
M  V30 6427 C 622.042 -0.846664 -1.8604 0
M  V30 6428 C 622.406 0.616557 -1.81831 0
M  V30 6429 O 623.607 0.984329 -2.50129 0
M  V30 6430 C 621.878 -1.37228 -3.30005 0
M  V30 6431 S 623.437 -1.25511 -4.20467 0
M  V30 6432 H 620.255 -0.30611 -0.64173 0
M  V30 6433 H 622.857 -1.40255 -1.36194 0
M  V30 6434 H 621.561 -2.43138 -3.30624 0
M  V30 6435 H 621.092 -0.81271 -3.84914 0
M  V30 6436 H 623.107 -0.208762 -4.95761 0
M  V30 6437 N 622.28 1.30327 -0.886154 0
M  V30 6438 C 623.527 1.96097 -0.505192 0
M  V30 6439 C 623.855 1.69952 0.945868 0
M  V30 6440 O 623.11 0.997653 1.68361 0
M  V30 6441 C 623.409 3.49906 -0.728042 0
M  V30 6442 C 623.075 3.96103 -2.15437 0
M  V30 6443 C 621.737 4.08428 -2.5444 0
M  V30 6444 C 624.089 4.20177 -3.08384 0
M  V30 6445 C 621.417 4.42189 -3.85598 0
M  V30 6446 C 623.769 4.55407 -4.39075 0
M  V30 6447 C 622.433 4.65941 -4.7797 0
M  V30 6448 H 621.703 0.71757 -0.184863 0
M  V30 6449 H 624.35 1.55171 -1.12223 0
M  V30 6450 H 622.655 3.9179 -0.027978 0
M  V30 6451 H 624.352 3.98869 -0.412862 0
M  V30 6452 H 620.942 3.87017 -1.84162 0
M  V30 6453 H 625.126 4.10134 -2.7947 0
M  V30 6454 H 620.382 4.48544 -4.15473 0
M  V30 6455 H 624.556 4.72986 -5.11133 0
M  V30 6456 H 622.183 4.91856 -5.79639 0
M  V30 6457 N 623.758 0.647228 1.43697 0
M  V30 6458 C 624.988 0.16551 2.05936 0
M  V30 6459 C 625.396 -1.17164 1.48557 0
M  V30 6460 O 624.739 -1.73307 0.60914 0
M  V30 6461 C 624.801 -0.00648082 3.59499 0
M  V30 6462 C 624.465 1.25503 4.39429 0
M  V30 6463 C 625.462 2.18241 4.71876 0
M  V30 6464 C 623.147 1.49494 4.79538 0
M  V30 6465 C 625.141 3.33268 5.43333 0
M  V30 6466 C 622.828 2.64815 5.50742 0
M  V30 6467 C 623.826 3.56528 5.82561 0
M  V30 6468 O 623.514 4.69836 6.52311 0
M  V30 6469 H 623.246 0.0844124 0.670709 0
M  V30 6470 H 625.8 0.88638 1.8529 0
M  V30 6471 H 624.03 -0.782661 3.78697 0
M  V30 6472 H 625.719 -0.444794 4.03456 0
M  V30 6473 H 626.485 2.00946 4.41413 0
M  V30 6474 H 622.364 0.789912 4.54182 0
M  V30 6475 H 625.908 4.04874 5.68087 0
M  V30 6476 H 621.805 2.82047 5.8062 0
M  V30 6477 H 622.573 4.69024 6.70789 0
M  V30 6478 N 625.236 -1.5273 0.388769 0
M  V30 6479 C 626.482 -2.01871 -0.193877 0
M  V30 6480 C 626.815 -1.27475 -1.46505 0
M  V30 6481 O 626.09 -0.375063 -1.90849 0
M  V30 6482 C 626.373 -3.5712 -0.462336 0
M  V30 6483 C 626.226 -4.42186 0.824091 0
M  V30 6484 C 627.545 -4.21881 -1.25319 0
M  V30 6485 H 624.664 -0.733764 -0.0689899 0
M  V30 6486 H 627.306 -1.82796 0.518231 0
M  V30 6487 H 625.456 -3.73504 -1.06896 0
M  V30 6488 H 627.128 -4.37554 1.46096 0
M  V30 6489 H 625.371 -4.09219 1.43952 0
M  V30 6490 H 626.042 -5.48828 0.590905 0
M  V30 6491 H 628.518 -4.0947 -0.73981 0
M  V30 6492 H 627.394 -5.30487 -1.40977 0
M  V30 6493 H 627.655 -3.79478 -2.26824 0
M  V30 6494 N 626.714 -0.118576 -1.57153 0
M  V30 6495 C 627.624 0.845484 -2.18835 0
M  V30 6496 C 628.64 1.29299 -1.16438 0
M  V30 6497 O 629.816 1.35607 -1.48905 0
M  V30 6498 C 626.881 2.07795 -2.77529 0
M  V30 6499 C 625.942 1.6824 -3.9496 0
M  V30 6500 C 625.175 2.85612 -4.50845 0
M  V30 6501 O 625.398 4.01025 -4.05629 0
M  V30 6502 O 624.332 2.62721 -5.41536 0
M  V30 6503 H 628.158 0.350568 -3.0167 0
M  V30 6504 H 625.743 0.107013 -1.49016 0
M  V30 6505 H 627.625 2.79978 -3.14945 0
M  V30 6506 H 626.3 2.56294 -1.97725 0
M  V30 6507 H 625.207 0.931663 -3.62313 0
M  V30 6508 H 626.54 1.24484 -4.76198 0
M  V30 6509 N 628.193 1.56834 0.155195 0
M  V30 6510 C 629.123 2.00678 1.19376 0
M  V30 6511 C 630.104 0.884973 1.45266 0
M  V30 6512 O 631.289 1.1522 1.56326 0
M  V30 6513 C 628.419 2.38042 2.5289 0
M  V30 6514 C 627.373 3.53332 2.41538 0
M  V30 6515 C 626.699 3.76485 3.79688 0
M  V30 6516 C 627.999 4.86265 1.9064 0
M  V30 6517 H 629.693 2.87688 0.829232 0
M  V30 6518 H 627.239 1.38407 0.397445 0
M  V30 6519 H 629.192 2.67314 3.25763 0
M  V30 6520 H 627.916 1.4796 2.91162 0
M  V30 6521 H 626.575 3.24213 1.71117 0
M  V30 6522 H 626.223 2.83667 4.15382 0
M  V30 6523 H 625.923 4.54068 3.72956 0
M  V30 6524 H 627.447 4.08174 4.54122 0
M  V30 6525 H 628.861 5.14308 2.53299 0
M  V30 6526 H 627.258 5.67597 1.94818 0
M  V30 6527 H 628.328 4.77184 0.861596 0
M  V30 6528 N 629.671 -0.424282 1.51781 0
M  V30 6529 C 630.92 -1.16961 1.64326 0
M  V30 6530 C 631.233 -1.92035 0.371749 0
M  V30 6531 O 632.439 -2.68873 0.37676 0
M  V30 6532 C 630.895 -2.12782 2.90262 0
M  V30 6533 C 630.503 -1.43295 4.24465 0
M  V30 6534 C 632.247 -2.87667 3.12166 0
M  V30 6535 C 630.154 -2.37676 5.41538 0
M  V30 6536 H 629.084 -0.440293 0.612093 0
M  V30 6537 H 631.735 -0.435431 1.78259 0
M  V30 6538 H 630.117 -2.8969 2.69992 0
M  V30 6539 H 631.291 -0.718564 4.55163 0
M  V30 6540 H 629.606 -0.805118 4.08542 0
M  V30 6541 H 632.203 -3.58395 3.96808 0
M  V30 6542 H 632.546 -3.49758 2.25776 0
M  V30 6543 H 633.079 -2.17863 3.32837 0
M  V30 6544 H 629.818 -1.80255 6.30229 0
M  V30 6545 H 629.338 -3.07132 5.15199 0
M  V30 6546 H 631.017 -2.98529 5.74012 0
M  V30 6547 N 631.149 -1.42148 -0.680565 0
M  V30 6548 C 632.565 -1.24947 -0.992995 0
M  V30 6549 C 632.765 -0.149527 -2.00944 0
M  V30 6550 O 631.821 0.481145 -2.47873 0
M  V30 6551 C 633.134 -2.60426 -1.5033 0
M  V30 6552 C 634.682 -2.67733 -1.62137 0
M  V30 6553 C 635.157 -4.03564 -2.16565 0
M  V30 6554 N 636.648 -4.05488 -2.23905 0
M  V30 6555 C 637.383 -5.07401 -2.67081 0
M  V30 6556 N 636.879 -6.19698 -3.09751 0
M  V30 6557 N 638.672 -4.94758 -2.66778 0
M  V30 6558 H 630.823 -2.12399 -0.0074788 0
M  V30 6559 H 633.086 -0.94571 -0.0658529 0
M  V30 6560 H 632.792 -3.41743 -0.830947 0
M  V30 6561 H 632.666 -2.83949 -2.483 0
M  V30 6562 H 635.053 -1.86765 -2.2848 0
M  V30 6563 H 635.134 -2.48004 -0.626713 0
M  V30 6564 H 634.778 -4.84987 -1.50833 0
M  V30 6565 H 634.708 -4.20641 -3.1681 0
M  V30 6566 H 637.199 -3.24415 -1.93812 0
M  V30 6567 H 637.512 -6.93318 -3.41365 0
M  V30 6568 H 635.857 -6.23212 -3.07623 0
M  V30 6569 H 639.048 -4.06105 -2.32801 0
M  V30 6570 H 639.221 -5.74317 -3.00107 0
M  V30 6571 N 632.627 0.916307 -1.28225 0
M  V30 6572 C 633.875 1.6619 -1.15002 0
M  V30 6573 C 634.196 1.92642 0.302329 0
M  V30 6574 O 633.466 1.54076 1.20985 0
M  V30 6575 H 632.046 0.615964 -0.422608 0
M  V30 6576 H 634.708 1.09963 -1.60917 0
M  V30 6577 H 633.804 2.62533 -1.68769 0
M  V30 6578 N 634.105 1.10431 1.1244 0
M  V30 6579 C 635.521 0.836096 1.35947 0
M  V30 6580 C 635.721 -0.544475 1.94004 0
M  V30 6581 O 634.777 -1.29735 2.16622 0
M  V30 6582 C 636.09 1.93575 2.30107 0
M  V30 6583 C 637.638 1.9642 2.43697 0
M  V30 6584 C 638.113 3.05559 3.41171 0
M  V30 6585 N 639.604 3.04865 3.48728 0
M  V30 6586 C 640.339 3.85954 4.24061 0
M  V30 6587 N 639.835 4.76977 5.02458 0
M  V30 6588 N 641.628 3.74172 4.19466 0
M  V30 6589 H 633.779 1.9942 0.731124 0
M  V30 6590 H 636.042 0.866607 0.384312 0
M  V30 6591 H 635.748 2.92943 1.94621 0
M  V30 6592 H 635.622 1.8229 3.30227 0
M  V30 6593 H 638.009 0.97685 2.78463 0
M  V30 6594 H 638.09 2.11782 1.43465 0
M  V30 6595 H 637.734 4.04513 3.07135 0
M  V30 6596 H 637.664 2.87438 4.41234 0
M  V30 6597 H 640.155 2.38908 2.92799 0
M  V30 6598 H 640.468 5.35409 5.57277 0
M  V30 6599 H 638.813 4.81006 5.01655 0
M  V30 6600 H 642.004 3.02412 3.57302 0
M  V30 6601 H 642.177 4.37602 4.77921 0
M  V30 6602 N 635.583 -1.29855 0.893053 0
M  V30 6603 C 636.53 -2.27909 0.364161 0
M  V30 6604 C 637.5 -1.56726 -0.550093 0
M  V30 6605 O 638.685 -1.84747 -0.47677 0
M  V30 6606 C 635.825 -3.42678 -0.408178 0
M  V30 6607 C 634.938 -4.28659 0.536212 0
M  V30 6608 C 634.073 -5.30599 -0.252521 0
M  V30 6609 C 633.112 -6.08234 0.686822 0
M  V30 6610 N 632.249 -7.02068 -0.0670902 0
M  V30 6611 H 637.089 -2.72531 1.20544 0
M  V30 6612 H 634.626 -1.34047 0.605779 0
M  V30 6613 H 636.584 -4.07986 -0.871962 0
M  V30 6614 H 635.214 -2.99103 -1.21397 0
M  V30 6615 H 634.266 -3.63584 1.1185 0
M  V30 6616 H 635.578 -4.8274 1.25552 0
M  V30 6617 H 634.732 -6.01694 -0.777801 0
M  V30 6618 H 633.471 -4.77233 -1.005 0
M  V30 6619 H 632.476 -5.3601 1.22366 0
M  V30 6620 H 633.701 -6.63689 1.43852 0
M  V30 6621 H 631.647 -6.5108 -0.801955 0
M  V30 6622 H 631.564 -7.53675 0.59243 0
M  V30 6623 H 632.832 -7.77392 -0.572851 0
M  V30 6624 N 637.061 -0.65484 -1.43351 0
M  V30 6625 C 637.993 0.0744757 -2.29079 0
M  V30 6626 C 639.006 0.7855 -1.42596 0
M  V30 6627 O 640.195 0.642986 -1.66517 0
M  V30 6628 C 637.295 1.12859 -3.19556 0
M  V30 6629 C 636.468 0.495381 -4.34586 0
M  V30 6630 C 635.527 1.44659 -5.05925 0
M  V30 6631 O 634.553 0.954567 -5.61139 0
M  V30 6632 N 635.755 2.78051 -5.09576 0
M  V30 6633 H 638.52 -0.661346 -2.92312 0
M  V30 6634 H 636.081 -0.497744 -1.54059 0
M  V30 6635 H 638.073 1.76577 -3.64147 0
M  V30 6636 H 636.643 1.76636 -2.57912 0
M  V30 6637 H 635.863 -0.32092 -3.92892 0
M  V30 6638 H 637.151 0.0534203 -5.08772 0
M  V30 6639 H 636.549 3.20584 -4.66093 0
M  V30 6640 H 635.106 3.37068 -5.57878 0
M  V30 6641 N 638.539 1.52521 -0.396863 0
M  V30 6642 C 639.449 2.30403 0.44178 0
M  V30 6643 C 640.465 1.37625 1.06468 0
M  V30 6644 O 641.641 1.70697 1.06886 0
M  V30 6645 C 638.706 3.1013 1.54986 0
M  V30 6646 C 637.767 4.18628 0.951279 0
M  V30 6647 C 637 4.94543 2.00655 0
M  V30 6648 O 637.223 4.70629 3.22281 0
M  V30 6649 O 636.157 5.797 1.61962 0
M  V30 6650 H 639.983 3.03087 -0.192892 0
M  V30 6651 H 637.568 1.48537 -0.16038 0
M  V30 6652 H 639.45 3.59816 2.19341 0
M  V30 6653 H 638.125 2.40251 2.16935 0
M  V30 6654 H 637.032 3.73119 0.270773 0
M  V30 6655 H 638.365 4.90763 0.375887 0
M  V30 6656 N 640.017 0.126909 1.57088 0
M  V30 6657 C 641.245 -0.53667 1.99819 0
M  V30 6658 C 641.66 -1.5972 1.00673 0
M  V30 6659 O 641.017 -1.825 0.000747365 0
M  V30 6660 C 641.068 -1.15563 3.42531 0
M  V30 6661 O 640.789 -0.137483 4.37884 0
M  V30 6662 C 642.29 -1.90176 4.00435 0
M  V30 6663 H 639.51 -0.141443 0.655923 0
M  V30 6664 H 642.054 0.215578 2.03361 0
M  V30 6665 H 640.209 -1.85861 3.39904 0
M  V30 6666 H 640.623 -0.588229 5.21191 0
M  V30 6667 H 642.097 -2.28801 5.02349 0
M  V30 6668 H 642.574 -2.78002 3.40017 0
M  V30 6669 H 643.18 -1.24623 4.06632 0
M  V30 6670 N 641.495 -1.56914 -0.146875 0
M  V30 6671 C 642.911 -1.51582 -0.499518 0
M  V30 6672 C 643.111 -0.83535 -1.83369 0
M  V30 6673 O 642.167 -0.405932 -2.49216 0
M  V30 6674 C 643.48 -2.96349 -0.509711 0
M  V30 6675 C 645.028 -3.07288 -0.595217 0
M  V30 6676 C 645.503 -4.53562 -0.636071 0
M  V30 6677 N 646.994 -4.57906 -0.69829 0
M  V30 6678 C 647.729 -5.68462 -0.750886 0
M  V30 6679 N 647.225 -6.88588 -0.76282 0
M  V30 6680 N 649.018 -5.56496 -0.791777 0
M  V30 6681 H 641.169 -1.99547 0.727656 0
M  V30 6682 H 643.432 -0.910113 0.265327 0
M  V30 6683 H 643.138 -3.4939 0.402409 0
M  V30 6684 H 643.012 -3.52307 -1.34758 0
M  V30 6685 H 645.399 -2.54266 -1.49776 0
M  V30 6686 H 645.48 -2.54373 0.2698 0
M  V30 6687 H 645.124 -5.07222 0.262313 0
M  V30 6688 H 645.054 -5.04259 -1.51758 0
M  V30 6689 H 647.545 -3.71429 -0.696362 0
M  V30 6690 H 647.858 -7.68598 -0.804804 0
M  V30 6691 H 646.203 -6.91148 -0.730694 0
M  V30 6692 H 649.394 -4.61562 -0.779624 0
M  V30 6693 H 649.567 -6.42671 -0.829301 0
M  V30 6694 N 642.974 0.416227 -1.52004 0
M  V30 6695 C 644.22 1.16555 -1.6596 0
M  V30 6696 C 644.553 1.90347 -0.384906 0
M  V30 6697 O 643.828 1.84474 0.616405 0
M  V30 6698 C 644.111 2.1657 -2.87696 0
M  V30 6699 C 643.964 1.46722 -4.25197 0
M  V30 6700 C 645.283 3.17321 -3.04951 0
M  V30 6701 H 642.402 0.422369 -0.603965 0
M  V30 6702 H 645.044 0.452141 -1.84542 0
M  V30 6703 H 643.194 2.77411 -2.71985 0
M  V30 6704 H 644.866 0.89056 -4.52622 0
M  V30 6705 H 643.109 0.769263 -4.26925 0
M  V30 6706 H 643.78 2.19665 -5.0641 0
M  V30 6707 H 646.256 2.66552 -3.19514 0
M  V30 6708 H 645.132 3.84573 -3.91656 0
M  V30 6709 H 645.393 3.84643 -2.17951 0
M  V30 6710 N 644.452 1.42507 0.673017 0
M  V30 6711 C 645.698 1.44282 1.43367 0
M  V30 6712 C 646.053 0.0588239 1.9231 0
M  V30 6713 O 645.346 -0.919288 1.68106 0
M  V30 6714 C 645.54 2.40351 2.64511 0
M  V30 6715 C 645.369 3.87955 2.27423 0
M  V30 6716 C 644.139 4.56476 2.16697 0
M  V30 6717 C 646.337 4.7833 1.88957 0
M  V30 6718 N 644.319 5.89099 1.72731 0
M  V30 6719 C 645.69 6.00073 1.55923 0
M  V30 6720 C 647.745 4.65769 1.75965 0
M  V30 6721 C 646.448 7.10652 1.112 0
M  V30 6722 C 648.474 5.76332 1.32647 0
M  V30 6723 C 647.836 6.97188 1.00538 0
M  V30 6724 H 643.935 0.583134 0.521036 0
M  V30 6725 H 646.519 1.78547 0.776481 0
M  V30 6726 H 644.69 2.08145 3.27918 0
M  V30 6727 H 646.422 2.32694 3.31113 0
M  V30 6728 H 643.177 4.10712 2.35823 0
M  V30 6729 H 643.601 6.59446 1.53166 0
M  V30 6730 H 648.243 3.72808 1.99435 0
M  V30 6731 H 645.961 8.0346 0.864768 0
M  V30 6732 H 649.547 5.68625 1.23112 0
M  V30 6733 H 648.427 7.81287 0.675283 0
M  V30 6734 N 645.93 -0.909495 1.28709 0
M  V30 6735 C 647.176 -1.66175 1.17293 0
M  V30 6736 C 647.531 -1.90426 -0.274891 0
M  V30 6737 O 646.824 -1.49659 -1.19635 0
M  V30 6738 C 647.018 -3.02117 1.90945 0
M  V30 6739 C 646.847 -2.91134 3.42741 0
M  V30 6740 C 645.617 -2.92429 4.12085 0
M  V30 6741 C 647.815 -2.68889 4.3841 0
M  V30 6742 N 645.797 -2.72078 5.50315 0
M  V30 6743 C 647.168 -2.57423 5.64033 0
M  V30 6744 C 649.223 -2.53919 4.28287 0
M  V30 6745 C 647.926 -2.32513 6.80683 0
M  V30 6746 C 649.952 -2.3039 5.44678 0
M  V30 6747 C 649.314 -2.19682 6.69268 0
M  V30 6748 H 645.413 -0.614095 0.48416 0
M  V30 6749 H 647.997 -1.07377 1.62414 0
M  V30 6750 H 646.168 -3.58993 1.48252 0
M  V30 6751 H 647.9 -3.66388 1.71878 0
M  V30 6752 H 644.655 -3.03345 3.63701 0
M  V30 6753 H 645.079 -2.64983 6.22987 0
M  V30 6754 H 649.721 -2.60946 3.32666 0
M  V30 6755 H 647.439 -2.24225 7.76369 0
M  V30 6756 H 651.025 -2.19665 5.38738 0
M  V30 6757 H 649.905 -2.01725 7.5781 0
M  V30 6758 N 647.408 -1.11026 -1.11852 0
M  V30 6759 C 648.636 -0.878818 -1.87308 0
M  V30 6760 C 649.051 0.57111 -1.79955 0
M  V30 6761 O 648.408 1.39409 -1.17777 0
M  V30 6762 C 648.459 -1.3264 -3.36287 0
M  V30 6763 O 648.18 -2.71948 -3.43476 0
M  V30 6764 C 649.681 -1.12974 -4.28663 0
M  V30 6765 H 646.901 -0.315015 -0.592458 0
M  V30 6766 H 649.445 -1.47649 -1.41492 0
M  V30 6767 H 647.6 -0.772269 -3.79625 0
M  V30 6768 H 648.014 -2.91241 -4.3621 0
M  V30 6769 H 649.488 -1.49198 -5.31454 0
M  V30 6770 H 649.965 -0.0689127 -4.39146 0
M  V30 6771 H 650.571 -1.67064 -3.91113 0
M  V30 6772 N 648.886 1.2938 -0.899927 0
M  V30 6773 C 650.111 2.00228 -0.540692 0
M  V30 6774 C 650.536 1.66909 0.867359 0
M  V30 6775 O 649.894 0.893824 1.57735 0
M  V30 6776 C 649.942 3.52921 -0.740232 0
M  V30 6777 O 649.046 4.11879 0.207154 0
M  V30 6778 H 648.387 0.629505 -0.211233 0
M  V30 6779 H 650.917 1.6487 -1.21158 0
M  V30 6780 H 650.927 4.0287 -0.644973 0
M  V30 6781 H 649.602 3.76508 -1.76677 0
M  V30 6782 H 648.179 3.72845 0.0643315 0
M  V30 6783 N 650.364 0.662433 1.43002 0
M  V30 6784 C 651.312 -0.035345 2.32573 0
M  V30 6785 C 652.306 -0.803505 1.49131 0
M  V30 6786 O 653.512 -0.712865 1.65282 0
M  V30 6787 H 649.887 -0.0302194 0.751393 0
M  V30 6788 H 651.858 0.737686 2.89138 0
M  V30 6789 C 650.607 -0.981575 3.33557 0
M  V30 6790 H 649.93 -0.399914 3.97795 0
M  V30 6791 H 651.37 -1.43873 3.98844 0
M  V30 6792 C 649.829 -2.08204 2.64863 0
M  V30 6793 O 650.359 -3.16698 2.47113 0
M  V30 6794 N 648.565 -1.85022 2.24088 0
M  V30 6795 H 648.112 -0.967909 2.38724 0
M  V30 6796 H 648.07 -2.58845 1.78457 0
M  V30 6797 N 651.842 -1.52309 0.404946 0
M  V30 6798 C 653.067 -2.06666 -0.1743 0
M  V30 6799 C 653.492 -1.27341 -1.38441 0
M  V30 6800 O 652.85 -0.302539 -1.78758 0
M  V30 6801 C 652.898 -3.57014 -0.507262 0
M  V30 6802 O 652.002 -3.80144 -1.59889 0
M  V30 6803 H 651.343 -0.663807 -0.0160273 0
M  V30 6804 H 653.873 -1.96297 0.576937 0
M  V30 6805 H 653.883 -4.00724 -0.767098 0
M  V30 6806 H 652.558 -4.14184 0.377368 0
M  V30 6807 H 651.135 -3.48316 -1.33155 0
M  V30 6808 N 653.32 -0.135238 -1.57019 0
M  V30 6809 C 654.569 0.518694 -1.94917 0
M  V30 6810 C 654.882 1.66783 -1.0219 0
M  V30 6811 O 656.088 2.38561 -1.29619 0
M  V30 6812 C 654.544 0.974123 -3.46466 0
M  V30 6813 C 654.152 -0.147439 -4.47757 0
M  V30 6814 C 655.896 1.59851 -3.93253 0
M  V30 6815 C 653.803 0.325599 -5.90503 0
M  V30 6816 H 652.733 0.19754 -0.727663 0
M  V30 6817 H 655.384 -0.217698 -1.82204 0
M  V30 6818 H 653.766 1.76542 -3.5447 0
M  V30 6819 H 654.94 -0.924122 -4.51438 0
M  V30 6820 H 653.255 -0.679496 -4.10818 0
M  V30 6821 H 655.852 1.96385 -4.9733 0
M  V30 6822 H 656.195 2.48306 -3.3414 0
M  V30 6823 H 656.728 0.872323 -3.88118 0
M  V30 6824 H 653.467 -0.523295 -6.53408 0
M  V30 6825 H 652.987 1.06841 -5.90208 0
M  V30 6826 H 654.666 0.781498 -6.42263 0
M  V30 6827 N 654.798 1.5699 0.138552 0
M  V30 6828 C 656.044 1.84081 0.85099 0
M  V30 6829 C 656.377 0.718107 1.80435 0
M  V30 6830 O 655.652 -0.277633 1.92508 0
M  V30 6831 C 655.935 3.21699 1.61808 0
M  V30 6832 C 655.788 4.44544 0.685633 0
M  V30 6833 C 657.107 3.5664 2.57868 0
M  V30 6834 H 654.226 0.669592 0.307922 0
M  V30 6835 H 656.868 1.89646 0.11588 0
M  V30 6836 H 655.018 3.17086 2.24474 0
M  V30 6837 H 656.69 4.61248 0.0693179 0
M  V30 6838 H 654.933 4.338 -0.00421993 0
M  V30 6839 H 655.604 5.3746 1.25858 0
M  V30 6840 H 658.08 3.61918 2.05316 0
M  V30 6841 H 656.956 4.53946 3.08584 0
M  V30 6842 H 657.217 2.83036 3.39622 0
M  V30 6843 N 656.276 -0.40816 1.52223 0
M  V30 6844 C 657.522 -1.15673 1.66576 0
M  V30 6845 C 657.855 -1.90141 0.394996 0
M  V30 6846 O 657.13 -1.84798 -0.606613 0
M  V30 6847 C 657.413 -2.15042 2.88841 0
M  V30 6848 C 657.266 -1.44465 4.25969 0
M  V30 6849 C 658.585 -3.15699 3.0663 0
M  V30 6850 H 655.704 -0.41916 0.606196 0
M  V30 6851 H 658.346 -0.442348 1.84779 0
M  V30 6852 H 656.496 -2.75964 2.73452 0
M  V30 6853 H 658.168 -0.866544 4.53088 0
M  V30 6854 H 656.411 -0.746612 4.27327 0
M  V30 6855 H 657.082 -2.16976 5.07568 0
M  V30 6856 H 659.558 -2.64854 3.20923 0
M  V30 6857 H 658.434 -3.82491 3.9369 0
M  V30 6858 H 658.695 -3.83481 2.19987 0
M  V30 6859 N 657.755 -1.42862 -0.66545 0
M  V30 6860 C 659.002 -1.4383 -1.42546 0
M  V30 6861 C 659.33 -0.0581114 -1.94413 0
M  V30 6862 O 658.585 0.935002 -1.71919 0
M  V30 6863 C 658.884 -2.4175 -2.63233 0
M  V30 6864 C 658.55 -3.87915 -2.29854 0
M  V30 6865 C 657.212 -4.27726 -2.20463 0
M  V30 6866 C 659.564 -4.80074 -2.02924 0
M  V30 6867 C 656.892 -5.57666 -1.82279 0
M  V30 6868 C 659.244 -6.10366 -1.66242 0
M  V30 6869 C 657.908 -6.49167 -1.55367 0
M  V30 6870 H 657.178 -0.52631 -0.521612 0
M  V30 6871 H 659.825 -1.75863 -0.757914 0
M  V30 6872 H 658.13 -2.03077 -3.35063 0
M  V30 6873 H 659.827 -2.39759 -3.21429 0
M  V30 6874 H 656.417 -3.564 -2.3807 0
M  V30 6875 H 660.601 -4.50097 -2.09108 0
M  V30 6876 H 655.857 -5.8658 -1.72436 0
M  V30 6877 H 660.031 -6.81258 -1.44432 0
M  V30 6878 H 657.658 -7.49761 -1.2555 0
M  V30 6879 N 659.233 0.902656 -1.29189 0
M  V30 6880 C 660.473 1.6672 -1.18254 0
M  V30 6881 C 660.837 1.90199 0.262336 0
M  V30 6882 O 662.038 2.6421 0.494612 0
M  V30 6883 C 660.309 2.98178 -1.9704 0
M  V30 6884 S 661.868 3.89226 -2.02605 0
M  V30 6885 H 658.686 0.572432 -0.421714 0
M  V30 6886 H 661.288 1.07279 -1.63436 0
M  V30 6887 H 659.992 2.788 -3.01163 0
M  V30 6888 H 659.523 3.62661 -1.5245 0
M  V30 6889 H 661.538 4.82913 -1.14059 0
M  V30 6890 N 660.711 1.11618 1.11262 0
M  V30 6891 C 661.959 0.864469 1.82678 0
M  V30 6892 C 662.28 -0.611564 1.85162 0
M  V30 6893 O 661.55 -1.44429 1.32352 0
M  V30 6894 H 660.13 0.316821 0.676486 0
M  V30 6895 H 662.792 1.40894 1.34666 0
M  V30 6896 H 661.888 1.23832 2.86482 0
M  V30 6897 N 662.189 -1.289 0.906776 0
M  V30 6898 C 663.417 -1.99401 0.551969 0
M  V30 6899 C 663.832 -1.67816 -0.865048 0
M  V30 6900 O 663.189 -0.927078 -1.57199 0
M  V30 6901 C 663.24 -3.53779 0.743152 0
M  V30 6902 O 662.961 -3.84248 2.1044 0
M  V30 6903 C 664.462 -4.41543 0.39424 0
M  V30 6904 H 661.682 -0.636926 0.211106 0
M  V30 6905 H 664.226 -1.64266 1.21807 0
M  V30 6906 H 662.381 -3.87201 0.124143 0
M  V30 6907 H 662.795 -4.78904 2.13895 0
M  V30 6908 H 664.269 -5.48957 0.578814 0
M  V30 6909 H 664.746 -4.34073 -0.669137 0
M  V30 6910 H 665.352 -4.13605 0.990491 0
M  V30 6911 N 663.667 -0.670007 -1.42649 0
M  V30 6912 C 664.892 -0.196955 -2.06463 0
M  V30 6913 C 665.317 1.1352 -1.49983 0
M  V30 6914 O 664.675 1.705 -0.616397 0
M  V30 6915 C 664.723 -0.137381 -3.60338 0
M  V30 6916 O 663.827 0.895523 -4.02559 0
M  V30 6917 H 663.168 -0.102579 -0.656029 0
M  V30 6918 H 665.698 -0.917669 -1.82866 0
M  V30 6919 H 665.708 0.0403625 -4.0798 0
M  V30 6920 H 664.383 -1.10977 -4.0082 0
M  V30 6921 H 662.96 0.689209 -3.66476 0
M  V30 6922 N 665.145 1.52092 -0.413018 0
M  V30 6923 C 666.393 2.01456 0.161178 0
M  V30 6924 C 666.714 1.30034 1.45314 0
M  V30 6925 O 665.984 0.427435 1.9118 0
M  V30 6926 H 664.564 0.744376 0.0625526 0
M  V30 6927 H 667.226 1.86974 -0.550151 0
M  V30 6928 H 666.322 3.1008 0.354517 0
M  V30 6929 N 666.623 0.143563 1.56945 0
M  V30 6930 C 667.851 -0.515447 2.00377 0
M  V30 6931 C 668.266 -1.58643 1.02361 0
M  V30 6932 O 667.623 -1.82489 0.0201039 0
M  V30 6933 C 667.674 -1.11923 3.43737 0
M  V30 6934 O 667.395 -0.0910318 4.38005 0
M  V30 6935 C 668.896 -1.85918 4.02429 0
M  V30 6936 H 666.116 -0.134478 0.657386 0
M  V30 6937 H 668.66 0.237135 2.0312 0
M  V30 6938 H 666.815 -1.82245 3.41856 0
M  V30 6939 H 667.229 -0.532916 5.21786 0
M  V30 6940 H 668.703 -2.2346 5.04747 0
M  V30 6941 H 669.18 -2.7438 3.42947 0
M  V30 6942 H 669.786 -1.20303 4.07931 0
M  V30 6943 N 668.101 -1.57061 -0.130224 0
M  V30 6944 C 669.331 -1.88159 -0.853217 0
M  V30 6945 C 669.739 -0.731675 -1.7448 0
M  V30 6946 O 669.082 0.307035 -1.81116 0
M  V30 6947 C 669.144 -3.1415 -1.74785 0
M  V30 6948 C 668.808 -4.45202 -1.03173 0
M  V30 6949 C 669.805 -5.18526 -0.377759 0
M  V30 6950 C 667.49 -4.91912 -1.01624 0
M  V30 6951 C 669.484 -6.36775 0.282123 0
M  V30 6952 C 667.171 -6.10082 -0.352555 0
M  V30 6953 C 668.169 -6.82361 0.295483 0
M  V30 6954 O 667.857 -7.98284 0.948606 0
M  V30 6955 H 667.589 -0.627596 -0.251197 0
M  V30 6956 H 670.143 -2.05034 -0.1226 0
M  V30 6957 H 668.373 -2.93328 -2.51983 0
M  V30 6958 H 670.062 -3.31359 -2.34427 0
M  V30 6959 H 670.828 -4.83498 -0.381417 0
M  V30 6960 H 666.707 -4.35566 -1.51007 0
M  V30 6961 H 670.251 -6.93129 0.788525 0
M  V30 6962 H 666.148 -6.44569 -0.346621 0
M  V30 6963 H 666.916 -8.14054 0.851954 0
M  V30 6964 N 669.579 0.400081 -1.52437 0
M  V30 6965 C 670.827 1.14392 -1.6661 0
M  V30 6966 C 671.148 1.90792 -0.402927 0
M  V30 6967 O 670.418 1.87042 0.582425 0
M  V30 6968 H 668.998 0.425275 -0.614125 0
M  V30 6969 H 671.66 0.455076 -1.89513 0
M  V30 6970 H 670.756 1.85298 -2.51139 0
M  V30 6971 N 671.057 1.43213 0.657864 0
M  V30 6972 C 672.285 1.48015 1.44566 0
M  V30 6973 C 672.7 0.0965951 1.88553 0
M  V30 6974 O 672.057 -0.892221 1.59203 0
M  V30 6975 C 672.108 2.42199 2.68369 0
M  V30 6976 O 671.829 3.75173 2.26223 0
M  V30 6977 C 673.33 2.56195 3.61772 0
M  V30 6978 H 670.55 0.502861 0.444266 0
M  V30 6979 H 673.094 1.87907 0.806917 0
M  V30 6980 H 671.249 2.05514 3.28394 0
M  V30 6981 H 671.663 4.25776 3.06293 0
M  V30 6982 H 673.137 3.26182 4.4532 0
M  V30 6983 H 673.614 1.60534 4.0881 0
M  V30 6984 H 674.22 2.93671 3.07632 0
M  V30 6985 N 672.536 -0.895792 1.29666 0
M  V30 6986 C 673.784 -1.64339 1.17631 0
M  V30 6987 C 674.105 -1.93099 -0.271643 0
M  V30 6988 O 673.375 -1.55981 -1.18518 0
M  V30 6989 H 671.955 -0.609162 0.432354 0
M  V30 6990 H 674.617 -1.07389 1.62646 0
M  V30 6991 H 673.713 -2.59815 1.72924 0
M  V30 6992 N 674.014 -1.12206 -1.10668 0
M  V30 6993 C 675.239 -0.898938 -1.86906 0
M  V30 6994 C 675.664 0.546346 -1.79991 0
M  V30 6995 O 675.022 1.38655 -1.1681 0
M  V30 6996 C 675.07 -1.37529 -3.33344 0
M  V30 6997 O 674.174 -0.55218 -4.08687 0
M  V30 6998 H 673.515 -0.323163 -0.580053 0
M  V30 6999 H 676.045 -1.49355 -1.39837 0
M  V30 7000 H 676.055 -1.3733 -3.84193 0
M  V30 7001 H 674.73 -2.42767 -3.37693 0
M  V30 7002 H 673.307 -0.620947 -3.67694 0
M  V30 7003 N 675.492 1.28418 -0.913599 0
M  V30 7004 C 676.738 1.95627 -0.556933 0
M  V30 7005 C 677.093 1.706 0.889565 0
M  V30 7006 O 676.386 1.01637 1.6242 0
M  V30 7007 C 676.58 3.48283 -0.802099 0
M  V30 7008 C 676.409 3.88151 -2.27088 0
M  V30 7009 C 675.179 4.1232 -2.92096 0
M  V30 7010 C 677.377 3.98819 -3.24728 0
M  V30 7011 N 675.359 4.3886 -4.29272 0
M  V30 7012 C 676.73 4.29571 -4.47067 0
M  V30 7013 C 678.785 3.81342 -3.20129 0
M  V30 7014 C 677.488 4.44667 -5.65388 0
M  V30 7015 C 679.514 3.97656 -4.37749 0
M  V30 7016 C 678.876 4.2878 -5.58862 0
M  V30 7017 H 674.975 0.739715 -0.253664 0
M  V30 7018 H 677.559 1.55074 -1.1773 0
M  V30 7019 H 675.73 3.87826 -0.211007 0
M  V30 7020 H 677.462 4.02623 -0.409478 0
M  V30 7021 H 674.217 4.06611 -2.42826 0
M  V30 7022 H 674.641 4.56214 -5.00198 0
M  V30 7023 H 679.283 3.56331 -2.2757 0
M  V30 7024 H 677.001 4.68509 -6.58426 0
M  V30 7025 H 680.587 3.85569 -4.35692 0
M  V30 7026 H 679.467 4.41136 -6.48359 0
M  V30 7027 N 676.97 0.677563 1.42291 0
M  V30 7028 C 678.381 0.277912 1.8462 0
M  V30 7029 C 678.732 -1.18048 1.56714 0
M  V30 7030 O 677.857 -1.90404 1.02836 0
M  V30 7031 C 678.452 0.497619 3.35126 0
M  V30 7032 C 677.011 0.152063 3.76093 0
M  V30 7033 C 676.158 0.78872 2.65847 0
M  V30 7034 H 679.109 0.879527 1.32098 0
M  V30 7035 H 679.13 -0.24939 3.79682 0
M  V30 7036 H 678.642 1.55913 3.55405 0
M  V30 7037 H 676.743 -0.905896 3.6142 0
M  V30 7038 H 676.856 0.594514 4.75397 0
M  V30 7039 H 675.22 0.219813 2.5375 0
M  V30 7040 H 676.003 1.85374 2.88949 0
M  V30 7041 N 678.448 -1.51871 0.421078 0
M  V30 7042 C 679.725 -1.9447 -0.20993 0
M  V30 7043 C 680.105 -1.35875 -1.61558 0
M  V30 7044 O 679.453 -0.539294 -2.22045 0
M  V30 7045 C 679.663 -3.48402 -0.204165 0
M  V30 7046 C 681.011 -4.2254 -0.417696 0
M  V30 7047 O 682.035 -3.55074 -0.282999 0
M  V30 7048 O 680.894 -5.422 -0.684239 0
M  V30 7049 H 677.988 -0.815283 -0.138718 0
M  V30 7050 H 680.534 -1.62832 0.477884 0
M  V30 7051 H 679.306 -3.83464 0.779183 0
M  V30 7052 H 678.929 -3.86436 -0.935576 0
M  V30 7053 N 679.926 -0.151884 -1.56866 0
M  V30 7054 C 681.174 0.497021 -1.95893 0
M  V30 7055 C 681.495 1.65078 -1.03799 0
M  V30 7056 O 680.765 1.95642 -0.10049 0
M  V30 7057 H 679.345 0.186603 -0.723318 0
M  V30 7058 H 682.007 -0.228525 -1.93556 0
M  V30 7059 H 681.103 0.869933 -2.99731 0
M  V30 7060 N 681.404 1.57128 0.121893 0
M  V30 7061 C 682.367 1.99197 1.13372 0
M  V30 7062 C 683.367 0.881728 1.3447 0
M  V30 7063 O 684.557 1.14783 1.31036 0
M  V30 7064 C 681.689 2.32963 2.4888 0
M  V30 7065 H 682.882 2.89788 0.772204 0
M  V30 7066 H 680.435 1.51952 0.366093 0
M  V30 7067 H 681.17 1.45243 2.89957 0
M  V30 7068 H 680.955 3.13934 2.34921 0
M  V30 7069 H 682.445 2.66261 3.21706 0
M  V30 7070 N 682.882 -0.391992 1.52647 0
M  V30 7071 C 683.83 -1.4991 1.77848 0
M  V30 7072 C 684.824 -1.56587 0.646282 0
M  V30 7073 O 686.03 -1.59789 0.828698 0
M  V30 7074 H 682.405 -0.498883 0.56269 0
M  V30 7075 H 684.376 -1.25847 2.70564 0
M  V30 7076 C 683.125 -2.87081 1.96163 0
M  V30 7077 H 682.448 -2.82692 2.82711 0
M  V30 7078 H 683.888 -3.63792 2.17787 0
M  V30 7079 C 682.347 -3.28822 0.733348 0
M  V30 7080 O 682.877 -4.01598 -0.0906481 0
M  V30 7081 N 681.083 -2.85068 0.564317 0
M  V30 7082 H 680.63 -2.26012 1.23598 0
M  V30 7083 H 680.588 -3.13355 -0.256166 0
M  V30 7084 N 684.36 -1.4356 -0.65026 0
M  V30 7085 C 685.609 -1.44619 -1.406 0
M  V30 7086 C 685.922 -0.0752645 -1.95455 0
M  V30 7087 O 687.128 0.0366832 -2.71475 0
M  V30 7088 C 685.584 -2.54511 -2.54465 0
M  V30 7089 C 685.192 -3.97723 -2.06204 0
M  V30 7090 C 686.936 -2.64768 -3.31811 0
M  V30 7091 C 684.843 -4.99075 -3.17298 0
M  V30 7092 H 683.773 -0.537983 -0.52829 0
M  V30 7093 H 686.424 -1.69559 -0.701561 0
M  V30 7094 H 684.806 -2.22777 -3.27393 0
M  V30 7095 H 685.98 -4.38932 -1.40267 0
M  V30 7096 H 684.295 -3.91538 -1.41729 0
M  V30 7097 H 686.892 -3.37664 -4.14593 0
M  V30 7098 H 687.235 -1.69936 -3.80036 0
M  V30 7099 H 687.768 -2.95817 -2.65964 0
M  V30 7100 H 684.507 -5.95469 -2.74038 0
M  V30 7101 H 684.027 -4.62476 -3.81937 0
M  V30 7102 H 685.706 -5.21913 -3.82382 0
M  V30 7103 N 685.838 0.888903 -1.30139 0
M  V30 7104 C 686.786 2.0156 -1.16088 0
M  V30 7105 C 687.78 1.69239 -0.0737413 0
M  V30 7106 O 688.986 1.78468 -0.234313 0
M  V30 7107 H 685.361 0.660825 -0.358907 0
M  V30 7108 H 687.332 2.10547 -2.11453 0
M  V30 7109 C 686.081 3.36758 -0.865426 0
M  V30 7110 H 685.404 3.62137 -1.69402 0
M  V30 7111 H 686.844 4.16246 -0.807192 0
M  V30 7112 C 685.303 3.34124 0.431577 0
M  V30 7113 O 685.833 3.7445 1.45431 0
M  V30 7114 N 684.039 2.87229 0.441321 0
M  V30 7115 H 683.586 2.54609 -0.391433 0
M  V30 7116 H 683.544 2.8585 1.30909 0
M  V30 7117 N 687.317 1.12792 1.10072 0
M  V30 7118 C 688.564 0.885545 1.82111 0
M  V30 7119 C 688.892 -0.588519 1.85383 0
M  V30 7120 O 688.147 -1.45124 1.31292 0
M  V30 7121 C 688.446 1.4102 3.28403 0
M  V30 7122 C 688.112 2.89995 3.45273 0
M  V30 7123 C 686.774 3.30671 3.49585 0
M  V30 7124 C 689.126 3.85874 3.50358 0
M  V30 7125 C 686.454 4.65925 3.56553 0
M  V30 7126 C 688.806 5.20963 3.58859 0
M  V30 7127 C 687.47 5.61177 3.61437 0
M  V30 7128 H 686.74 0.324044 0.666391 0
M  V30 7129 H 689.387 1.40874 1.29718 0
M  V30 7130 H 687.692 0.807551 3.83387 0
M  V30 7131 H 689.389 1.19882 3.82661 0
M  V30 7132 H 685.979 2.57537 3.42597 0
M  V30 7133 H 690.163 3.5554 3.46273 0
M  V30 7134 H 685.419 4.96468 3.56833 0
M  V30 7135 H 689.593 5.95079 3.61738 0
M  V30 7136 H 687.22 6.6597 3.66589 0
M  V30 7137 N 688.795 -1.27931 0.920396 0
M  V30 7138 C 689.728 -2.2537 0.358285 0
M  V30 7139 C 690.706 -1.53328 -0.541242 0
M  V30 7140 O 691.89 -1.82196 -0.483399 0
M  V30 7141 C 689.017 -3.35178 -0.487193 0
M  V30 7142 C 688.063 -4.25079 0.347881 0
M  V30 7143 S 688.896 -5.05792 1.75883 0
M  V30 7144 C 690.052 -6.19089 0.920832 0
M  V30 7145 H 690.285 -2.72701 1.18413 0
M  V30 7146 H 687.818 -1.36474 0.722088 0
M  V30 7147 H 689.776 -3.98895 -0.96916 0
M  V30 7148 H 688.437 -2.865 -1.28749 0
M  V30 7149 H 687.63 -5.03113 -0.298912 0
M  V30 7150 H 687.232 -3.66119 0.763748 0
M  V30 7151 H 689.524 -6.77326 0.15349 0
M  V30 7152 H 690.467 -6.8803 1.67394 0
M  V30 7153 H 690.875 -5.62573 0.466069 0
M  V30 7154 N 690.273 -0.685099 -1.4193 0
M  V30 7155 C 691.684 -0.287699 -1.8447 0
M  V30 7156 C 692.035 1.17215 -1.57338 0
M  V30 7157 O 691.16 1.89856 -1.03845 0
M  V30 7158 C 691.755 -0.515385 -3.34857 0
M  V30 7159 C 690.314 -0.172006 -3.76007 0
M  V30 7160 C 689.461 -0.802808 -2.65425 0
M  V30 7161 H 692.412 -0.88652 -1.3163 0
M  V30 7162 H 692.433 0.229251 -3.79809 0
M  V30 7163 H 691.945 -1.57796 -3.54573 0
M  V30 7164 H 690.046 0.886716 -3.61895 0
M  V30 7165 H 690.159 -0.619717 -4.75075 0
M  V30 7166 H 688.523 -0.233267 -2.5363 0
M  V30 7167 H 689.306 -1.86904 -2.87961 0
M  V30 7168 N 691.751 1.51645 -0.429126 0
M  V30 7169 C 693 2.01203 0.141538 0
M  V30 7170 C 693.313 1.31828 1.44502 0
M  V30 7171 O 694.519 1.7231 2.09813 0
M  V30 7172 C 692.975 3.58624 0.302786 0
M  V30 7173 C 692.583 4.3693 -0.989775 0
M  V30 7174 C 694.327 4.16353 0.827661 0
M  V30 7175 C 692.234 5.86037 -0.794619 0
M  V30 7176 H 691.164 0.751867 0.05667 0
M  V30 7177 H 693.815 1.74822 -0.557633 0
M  V30 7178 H 692.197 3.81417 1.06476 0
M  V30 7179 H 693.371 4.25887 -1.75945 0
M  V30 7180 H 691.686 3.90614 -1.44256 0
M  V30 7181 H 694.283 5.25455 0.990026 0
M  V30 7182 H 694.626 3.74995 1.80787 0
M  V30 7183 H 695.159 3.97606 0.124213 0
M  V30 7184 H 691.898 6.31792 -1.74697 0
M  V30 7185 H 691.418 5.99765 -0.0645968 0
M  V30 7186 H 693.097 6.45471 -0.444591 0
M  V30 7187 O 693.268 0.301146 1.58667 0
M  V30 7188 H 693.959 -0.263453 1.919 0
M  V30 END ATOM
M  V30 BEGIN BOND
M  V30 END BOND
M  V30 END CTAB
M  END
$$$$
