drugbank_target|P09917 Arachidonate 5-lipoxygenase (DB00163; DB00179; DB00233; DB00244; DB00471; DB00711; DB00744; DB00795; DB00939; DB01014; DB01017; DB01892; DB02709; DB04725; DB05431; DB09285; DB11994; DB12010; DB13174; DB14001; DB14002)
 OpenBabel12092119273D

  0  0  0     0  0            999 V3000
M  V30 BEGIN CTAB
M  V30 COUNTS 10897 11042 0 0 0
M  V30 BEGIN ATOM
M  V30 1 H -0.908 1.98254 -0.117106 0
M  V30 2 N 0 1.576 0 0
M  V30 3 C 0.933 2.03868 1.02534 0
M  V30 4 C 1.911 0.928543 1.3348 0
M  V30 5 O 3.095 1.19667 1.45644 0
M  V30 6 C 0.222 2.43627 2.35294 0
M  V30 7 C -0.732 3.65373 2.2001 0
M  V30 8 S 0.101 5.13292 1.52614 0
M  V30 9 C 1.257 5.56322 2.86805 0
M  V30 10 H 1.49 2.90518 0.631377 0
M  V30 11 H -0.977 1.52953 0.210867 0
M  V30 12 H 0.981 2.67203 3.11629 0
M  V30 13 H -0.358 1.57376 2.7183 0
M  V30 14 H -1.165 3.90944 3.18086 0
M  V30 15 H -1.563 3.418 1.51819 0
M  V30 16 H 0.729 5.58782 3.83104 0
M  V30 17 H 1.672 6.56266 2.65933 0
M  V30 18 H 2.08 4.83886 2.90714 0
M  V30 19 N 1.4781 -0.272755 1.55222 0
M  V30 20 C 2.8891 -0.84378 1.66545 0
M  V30 21 C 3.2401 -1.87035 0.592641 0
M  V30 22 O 2.3651 -2.14761 -0.265818 0
M  V30 23 C 2.9601 -1.53723 3.01918 0
M  V30 24 C 1.5191 -2.05628 3.15268 0
M  V30 25 C 0.6661 -0.898424 2.62343 0
M  V30 26 H 3.6171 -0.0490998 1.58624 0
M  V30 27 H 3.6381 -2.40421 2.94921 0
M  V30 28 H 3.1501 -0.78983 3.79978 0
M  V30 29 H 1.2511 -2.83329 2.41983 0
M  V30 30 H 1.3641 -2.27142 4.21833 0
M  V30 31 H -0.2719 -1.29186 2.19506 0
M  V30 32 H 0.5111 -0.164528 3.42906 0
M  V30 33 N 2.9562 -1.48159 -0.537278 0
M  V30 34 C 4.1812 -1.59707 -1.32319 0
M  V30 35 C 4.6062 -0.254859 -1.86365 0
M  V30 36 O 3.9642 0.772378 -1.64024 0
M  V30 37 C 4.0122 -2.6412 -2.45505 0
M  V30 38 O 3.1162 -2.20774 -3.48328 0
M  V30 39 H 2.4572 -0.535791 -0.392204 0
M  V30 40 H 4.9872 -1.94092 -0.647268 0
M  V30 41 H 4.9972 -2.85166 -2.91795 0
M  V30 42 H 3.6722 -3.61567 -2.05528 0
M  V30 43 H 2.2492 -2.09911 -3.08207 0
M  V30 44 N 4.4343 0.785586 -1.36625 0
M  V30 45 C 5.6643 1.5722 -1.34036 0
M  V30 46 C 6.0723 1.89033 0.0795062 0
M  V30 47 O 5.4153 1.50881 1.04789 0
M  V30 48 C 5.4773 2.91759 -2.10041 0
M  V30 49 C 5.1413 2.82654 -3.59104 0
M  V30 50 C 6.1383 2.54634 -4.53274 0
M  V30 51 C 3.8233 3.01111 -4.02042 0
M  V30 52 C 5.8173 2.45177 -5.88359 0
M  V30 53 C 3.5043 2.91276 -5.37216 0
M  V30 54 C 4.5023 2.63348 -6.30188 0
M  V30 55 O 4.1903 2.53514 -7.6288 0
M  V30 56 H 3.9223 0.494177 -0.461265 0
M  V30 57 H 6.4763 0.982632 -1.8037 0
M  V30 58 H 4.7063 3.52781 -1.58375 0
M  V30 59 H 6.3953 3.53059 -2.00261 0
M  V30 60 H 7.1613 2.40073 -4.21414 0
M  V30 61 H 3.0403 3.21854 -3.30047 0
M  V30 62 H 6.5843 2.23299 -6.60896 0
M  V30 63 H 2.4813 3.054 -5.68684 0
M  V30 64 H 3.2493 2.68967 -7.73045 0
M  V30 65 N 5.9124 1.20967 1.01018 0
M  V30 66 C 7.1404 1.04956 1.78303 0
M  V30 67 C 7.5554 -0.400915 1.84494 0
M  V30 68 O 6.9124 -1.27826 1.30257 0
M  V30 69 C 6.9634 1.63403 3.22462 0
M  V30 70 O 6.6844 3.02775 3.16637 0
M  V30 71 C 8.1854 1.52432 4.16268 0
M  V30 72 H 5.4054 0.368858 0.560522 0
M  V30 73 H 7.9494 1.60193 1.27116 0
M  V30 74 H 6.1044 1.1227 3.70775 0
M  V30 75 H 6.5184 3.30626 4.07169 0
M  V30 76 H 7.9924 1.98078 5.15237 0
M  V30 77 H 8.4694 0.477875 4.36592 0
M  V30 78 H 9.0754 2.02787 3.73841 0
M  V30 79 N 7.3905 -1.2043 1.01659 0
M  V30 80 C 8.6365 -1.90079 0.706963 0
M  V30 81 C 8.9695 -1.78648 -0.761474 0
M  V30 82 O 8.2445 -1.17069 -1.55323 0
M  V30 83 C 8.5275 -3.41469 1.14327 0
M  V30 84 C 8.3805 -3.61833 2.67201 0
M  V30 85 C 9.6995 -4.34261 0.714529 0
M  V30 86 H 6.8185 -0.690254 0.2583 0
M  V30 87 H 9.4605 -1.41826 1.26433 0
M  V30 88 H 7.6105 -3.82696 0.669056 0
M  V30 89 H 9.2825 -3.2986 3.22475 0
M  V30 90 H 7.5255 -3.05304 3.08175 0
M  V30 91 H 8.1965 -4.67955 2.92783 0
M  V30 92 H 10.6725 -4.00682 1.12221 0
M  V30 93 H 9.5485 -5.38806 1.04784 0
M  V30 94 H 9.8095 -4.40431 -0.383799 0
M  V30 95 N 8.8686 -0.792821 -1.36206 0
M  V30 96 C 10.0966 -0.378825 -2.03402 0
M  V30 97 C 10.5116 1.00586 -1.59774 0
M  V30 98 O 9.8686 1.64574 -0.788764 0
M  V30 99 C 9.9196 -0.43683 -3.58851 0
M  V30 100 O 9.6406 -1.76691 -4.00889 0
M  V30 101 C 11.1416 -0.0138943 -4.43298 0
M  V30 102 H 8.3616 -0.155673 -0.652692 0
M  V30 103 H 10.9056 -1.07261 -1.74113 0
M  V30 104 H 9.0606 0.208575 -3.86838 0
M  V30 105 H 9.4746 -1.72011 -4.95492 0
M  V30 106 H 10.9486 -0.105615 -5.51899 0
M  V30 107 H 11.4256 1.03915 -4.2673 0
M  V30 108 H 12.0316 -0.63192 -4.20579 0
M  V30 109 N 10.3467 1.47872 -0.545128 0
M  V30 110 C 11.5927 2.02793 -0.0166104 0
M  V30 111 C 11.9257 1.41987 1.32489 0
M  V30 112 O 11.2007 0.571045 1.85928 0
M  V30 113 C 11.4837 3.59989 0.0893294 0
M  V30 114 C 11.3367 4.3125 -1.27841 0
M  V30 115 C 12.6557 4.32606 0.808724 0
M  V30 116 H 9.7747 0.736962 -0.00751035 0
M  V30 117 H 12.4167 1.76433 -0.705085 0
M  V30 118 H 10.5667 3.82579 0.675681 0
M  V30 119 H 12.2387 4.20035 -1.90704 0
M  V30 120 H 10.4817 3.92076 -1.85632 0
M  V30 121 H 11.1527 5.39736 -1.15713 0
M  V30 122 H 13.6287 4.14936 0.310992 0
M  V30 123 H 12.5047 5.42251 0.851782 0
M  V30 124 H 12.7657 4.00963 1.86229 0
M  V30 125 N 11.8248 0.280983 1.55075 0
M  V30 126 C 12.7878 -0.590896 2.21452 0
M  V30 127 C 13.7878 -1.07682 1.19421 0
M  V30 128 O 14.9778 -0.97605 1.44288 0
M  V30 129 C 12.1098 -1.81587 2.88511 0
M  V30 130 H 13.3028 -0.0112554 2.99898 0
M  V30 131 H 10.8558 0.0316438 1.56268 0
M  V30 132 H 11.5908 -2.43587 2.14093 0
M  V30 133 H 11.3758 -1.4753 3.63287 0
M  V30 134 H 12.8658 -2.43575 3.39206 0
M  V30 135 N 13.3029 -1.57598 0.00835791 0
M  V30 136 C 14.5309 -1.95214 -0.68549 0
M  V30 137 C 14.9459 -0.883706 -1.66841 0
M  V30 138 O 14.3029 0.136565 -1.81988 0
M  V30 139 C 14.3539 -3.32865 -1.41007 0
M  V30 140 O 14.0749 -4.35609 -0.466552 0
M  V30 141 C 15.5759 -3.84991 -2.19765 0
M  V30 142 H 12.7959 -0.643422 -0.190392 0
M  V30 143 H 15.3399 -2.04406 0.0619607 0
M  V30 144 H 13.4949 -3.24956 -2.10908 0
M  V30 145 H 13.9089 -5.15288 -0.978699 0
M  V30 146 H 15.3829 -4.8371 -2.65948 0
M  V30 147 H 15.8599 -3.18137 -3.02796 0
M  V30 148 H 16.4659 -3.96103 -1.54864 0
M  V30 149 N 14.781 0.264519 -1.55364 0
M  V30 150 C 16.029 0.993021 -1.76021 0
M  V30 151 C 16.35 1.86511 -0.569099 0
M  V30 152 O 15.62 1.91438 0.415735 0
M  V30 153 H 14.2 0.369639 -0.649135 0
M  V30 154 H 16.862 0.286707 -1.9278 0
M  V30 155 H 15.958 1.62502 -2.66457 0
M  V30 156 N 16.2591 1.48442 0.529413 0
M  V30 157 C 17.4841 1.60406 1.31471 0
M  V30 158 C 17.9091 0.264738 1.86228 0
M  V30 159 O 17.2671 -0.763668 1.64432 0
M  V30 160 C 17.3151 2.65419 2.44101 0
M  V30 161 O 16.4191 2.22618 3.47153 0
M  V30 162 H 15.7601 0.537863 0.389357 0
M  V30 163 H 18.2901 1.94432 0.636965 0
M  V30 164 H 18.3001 2.86709 2.90279 0
M  V30 165 H 16.9751 3.62652 2.03608 0
M  V30 166 H 15.5521 2.11543 3.0709 0
M  V30 167 N 17.7372 -0.778329 1.37039 0
M  V30 168 C 18.6692 -1.90034 1.2814 0
M  V30 169 C 19.6822 -1.61585 0.198558 0
M  V30 170 O 20.8712 -1.72625 0.454175 0
M  V30 171 C 17.9712 -3.25108 0.956968 0
M  V30 172 C 17.1442 -3.81253 2.14394 0
M  V30 173 C 16.2032 -4.94789 1.79082 0
M  V30 174 O 15.2292 -5.10721 2.51301 0
M  V30 175 N 16.4312 -5.75878 0.731043 0
M  V30 176 H 19.1962 -1.98186 2.24816 0
M  V30 177 H 16.7572 -0.957129 1.30578 0
M  V30 178 H 18.7492 -3.9857 0.701701 0
M  V30 179 H 17.3192 -3.125 0.0789812 0
M  V30 180 H 16.5392 -2.99647 2.56135 0
M  V30 181 H 17.8272 -4.15495 2.93668 0
M  V30 182 H 17.2252 -5.65547 0.131618 0
M  V30 183 H 15.7822 -6.49596 0.535622 0
M  V30 184 N 19.2153 -1.21501 -1.00376 0
M  V30 185 C 20.4613 -1.04457 -1.74529 0
M  V30 186 C 20.8163 0.417386 -1.87818 0
M  V30 187 O 20.1093 1.30556 -1.40234 0
M  V30 188 C 20.3033 -1.67673 -3.15627 0
M  V30 189 C 20.1323 -3.19865 -3.16096 0
M  V30 190 C 18.9023 -3.88915 -3.22604 0
M  V30 191 C 21.1003 -4.16936 -3.01112 0
M  V30 192 N 19.0823 -5.28284 -3.12712 0
M  V30 193 C 20.4533 -5.43066 -2.99131 0
M  V30 194 C 22.5083 -4.07968 -2.85423 0
M  V30 195 C 21.2113 -6.6126 -2.83068 0
M  V30 196 C 23.2373 -5.258 -2.70718 0
M  V30 197 C 22.5993 -6.50842 -2.69414 0
M  V30 198 H 18.6983 -0.436584 -0.648782 0
M  V30 199 H 21.2823 -1.53875 -1.19293 0
M  V30 200 H 19.4533 -1.20822 -3.6913 0
M  V30 201 H 21.1853 -1.43824 -3.78281 0
M  V30 202 H 17.9403 -3.39847 -3.2985 0
M  V30 203 H 18.3643 -6.01284 -3.11105 0
M  V30 204 H 23.0063 -3.1209 -2.85236 0
M  V30 205 H 20.7243 -7.57298 -2.82002 0
M  V30 206 H 24.3103 -5.20683 -2.59577 0
M  V30 207 H 23.1903 -7.40485 -2.5817 0
M  V30 208 N 20.6934 1.19889 -1.02296 0
M  V30 209 C 21.9404 1.8942 -0.715972 0
M  V30 210 C 22.2684 1.79251 0.754944 0
M  V30 211 O 21.5234 1.17526 1.56481 0
M  V30 212 C 21.8224 3.39883 -1.10518 0
M  V30 213 C 21.4884 3.70254 -2.57337 0
M  V30 214 C 20.1504 3.78254 -2.97452 0
M  V30 215 C 22.5024 3.84052 -3.52354 0
M  V30 216 C 19.8304 3.97514 -4.31509 0
M  V30 217 C 22.1824 4.04824 -4.86108 0
M  V30 218 C 20.8464 4.11054 -5.25919 0
M  V30 219 H 20.1164 0.693138 -0.261993 0
M  V30 220 H 22.7634 1.42012 -1.28472 0
M  V30 221 H 21.0684 3.8915 -0.454953 0
M  V30 222 H 22.7654 3.9199 -0.845261 0
M  V30 223 H 19.3554 3.64632 -2.25258 0
M  V30 224 H 23.5394 3.77221 -3.22518 0
M  V30 225 H 18.7954 4.00574 -4.61898 0
M  V30 226 H 22.9694 4.14442 -5.59653 0
M  V30 227 H 20.5964 4.2573 -6.29808 0
M  V30 228 N 22.1715 0.800033 1.35784 0
M  V30 229 C 23.1345 0.211565 2.28221 0
M  V30 230 C 24.1345 -0.59728 1.49296 0
M  V30 231 O 25.3245 -0.416721 1.69142 0
M  V30 232 C 22.4565 -0.705846 3.33513 0
M  V30 233 H 23.6495 1.02677 2.81776 0
M  V30 234 H 21.2025 0.570211 1.45528 0
M  V30 235 H 21.9375 -1.54498 2.85133 0
M  V30 236 H 21.7225 -0.127655 3.91892 0
M  V30 237 H 23.2125 -1.11211 4.02519 0
M  V30 238 N 23.6496 -1.47581 0.552962 0
M  V30 239 C 24.8976 -2.02082 0.0272703 0
M  V30 240 C 25.2186 -1.4301 -1.32563 0
M  V30 241 O 24.4886 -0.603745 -1.86365 0
M  V30 242 H 23.0686 -0.746966 0.00709182 0
M  V30 243 H 25.7306 -1.81033 0.722008 0
M  V30 244 H 24.8266 -3.12034 -0.0639951 0
M  V30 245 N 25.1277 -0.289203 -1.54924 0
M  V30 246 C 26.3557 0.326463 -2.04308 0
M  V30 247 C 26.7707 1.48413 -1.16701 0
M  V30 248 O 26.1277 1.81507 -0.190087 0
M  V30 249 C 26.1787 0.794014 -3.52672 0
M  V30 250 O 25.8997 -0.317564 -4.36948 0
M  V30 251 C 27.4007 1.47605 -4.18004 0
M  V30 252 H 24.6207 0.0726272 -0.667058 0
M  V30 253 H 27.1647 -0.425401 -2.00026 0
M  V30 254 H 25.3197 1.49593 -3.57352 0
M  V30 255 H 25.7337 0.0443186 -5.24481 0
M  V30 256 H 27.2077 1.75447 -5.23376 0
M  V30 257 H 27.6847 2.41224 -3.67025 0
M  V30 258 H 28.2907 0.81762 -4.17367 0
M  V30 259 N 26.6058 1.57591 -0.0167156 0
M  V30 260 C 27.8828 1.82547 0.702564 0
M  V30 261 C 28.2628 0.898018 1.91047 0
M  V30 262 O 27.6108 -0.0493456 2.28447 0
M  V30 263 C 27.8208 3.31459 1.09251 0
M  V30 264 C 29.1688 3.97622 1.48937 0
M  V30 265 O 30.1928 3.35881 1.18584 0
M  V30 266 O 29.0518 5.06415 2.05442 0
M  V30 267 H 26.1458 0.752268 0.343544 0
M  V30 268 H 28.6918 1.69644 -0.0434495 0
M  V30 269 H 27.4638 3.9061 0.23227 0
M  V30 270 H 27.0868 3.49422 1.89709 0
M  V30 271 N 28.0839 -0.256276 1.55502 0
M  V30 272 C 29.3609 -1.00789 1.67633 0
M  V30 273 C 29.7409 -2.03706 0.553826 0
M  V30 274 O 29.0889 -2.24145 -0.443969 0
M  V30 275 C 29.2989 -1.64968 3.07549 0
M  V30 276 C 30.6469 -2.15505 3.65845 0
M  V30 277 O 31.6709 -1.74925 3.1029 0
M  V30 278 O 30.5299 -2.89986 4.63217 0
M  V30 279 H 27.6239 -0.468553 0.681459 0
M  V30 280 H 30.1699 -0.250806 1.67836 0
M  V30 281 H 28.9419 -0.904785 3.80696 0
M  V30 282 H 28.5649 -2.47321 3.11317 0
M  V30 283 N 29.562 -1.4872 -0.521534 0
M  V30 284 C 30.792 -1.6061 -1.29954 0
M  V30 285 C 31.2 -0.268728 -1.87282 0
M  V30 286 O 30.543 0.753221 -1.67548 0
M  V30 287 C 30.605 -2.60013 -2.48261 0
M  V30 288 C 30.269 -4.04874 -2.11957 0
M  V30 289 C 31.266 -4.92304 -1.67132 0
M  V30 290 C 28.951 -4.5047 -2.22221 0
M  V30 291 C 30.945 -6.2336 -1.33047 0
M  V30 292 C 28.632 -5.81544 -1.87748 0
M  V30 293 C 29.63 -6.67812 -1.43234 0
M  V30 294 O 29.318 -7.96446 -1.09217 0
M  V30 295 H 29.05 -0.544116 -0.401141 0
M  V30 296 H 31.604 -1.95339 -0.634958 0
M  V30 297 H 29.834 -2.20422 -3.17728 0
M  V30 298 H 31.523 -2.61648 -3.10315 0
M  V30 299 H 32.289 -4.58312 -1.58665 0
M  V30 300 H 28.168 -3.83504 -2.55823 0
M  V30 301 H 31.712 -6.90649 -0.982299 0
M  V30 302 H 27.609 -6.15069 -1.95858 0
M  V30 303 H 28.377 -8.09275 -1.22542 0
M  V30 304 N 31.0401 0.771051 -1.3745 0
M  V30 305 C 32.2891 1.52491 -1.3202 0
M  V30 306 C 32.6021 1.9538 0.0927347 0
M  V30 307 O 33.8081 2.70159 0.269503 0
M  V30 308 C 32.2641 2.75366 -2.31736 0
M  V30 309 C 31.8721 2.39573 -3.78562 0
M  V30 310 C 33.6161 3.53307 -2.35318 0
M  V30 311 C 31.5231 3.58954 -4.70007 0
M  V30 312 H 30.4531 0.572506 -0.490666 0
M  V30 313 H 33.1041 0.844474 -1.62914 0
M  V30 314 H 31.4861 3.45303 -1.93861 0
M  V30 315 H 32.6601 1.77415 -4.25277 0
M  V30 316 H 30.9751 1.74805 -3.77932 0
M  V30 317 H 33.5721 4.42039 -3.00842 0
M  V30 318 H 33.9151 3.93217 -1.36698 0
M  V30 319 H 34.4481 2.90367 -2.71904 0
M  V30 320 H 31.1871 3.24125 -5.69757 0
M  V30 321 H 30.7071 4.20214 -4.27996 0
M  V30 322 H 32.3861 4.25758 -4.87175 0
M  V30 323 N 32.5182 1.22032 0.997298 0
M  V30 324 C 33.7482 1.06686 1.76923 0
M  V30 325 C 34.1562 -0.385838 1.85224 0
M  V30 326 O 33.4992 -1.27929 1.31833 0
M  V30 327 C 33.5612 1.59802 3.22031 0
M  V30 328 C 33.2252 3.08362 3.37286 0
M  V30 329 C 34.2222 4.05835 3.24952 0
M  V30 330 C 31.9072 3.47727 3.6248 0
M  V30 331 C 33.9012 5.4066 3.37588 0
M  V30 332 C 31.5882 4.82701 3.74757 0
M  V30 333 C 32.5862 5.78977 3.62319 0
M  V30 334 O 32.2742 7.11502 3.74193 0
M  V30 335 H 32.0062 0.374767 0.562606 0
M  V30 336 H 34.5602 1.61991 1.26286 0
M  V30 337 H 32.7902 0.989003 3.73839 0
M  V30 338 H 34.4792 1.40184 3.80924 0
M  V30 339 H 35.2452 3.76766 3.05405 0
M  V30 340 H 31.1242 2.73317 3.7124 0
M  V30 341 H 34.6682 6.15788 3.27796 0
M  V30 342 H 30.5652 5.11453 3.9381 0
M  V30 343 H 31.3332 7.19019 3.91093 0
M  V30 344 N 33.9963 -1.19345 1.0293 0
M  V30 345 C 34.9263 -2.2481 0.631105 0
M  V30 346 C 35.9073 -1.66245 -0.360104 0
M  V30 347 O 37.0923 -1.92677 -0.242726 0
M  V30 348 C 34.2223 -3.47295 -0.0184607 0
M  V30 349 C 33.1763 -4.18536 0.895073 0
M  V30 350 C 32.5023 -5.34586 0.110592 0
M  V30 351 C 33.8023 -4.73287 2.209 0
M  V30 352 H 35.4963 -2.58372 1.51275 0
M  V30 353 H 33.0423 -1.24194 0.728818 0
M  V30 354 H 34.9953 -4.20268 -0.308675 0
M  V30 355 H 33.7193 -3.12933 -0.934907 0
M  V30 356 H 32.3783 -3.47446 1.16949 0
M  V30 357 H 32.0263 -4.96469 -0.807902 0
M  V30 358 H 31.7263 -5.83183 0.719087 0
M  V30 359 H 33.2503 -6.10355 -0.172871 0
M  V30 360 H 34.6643 -5.38013 1.98028 0
M  V30 361 H 33.0613 -5.32373 2.76946 0
M  V30 362 H 34.1313 -3.91331 2.86336 0
M  V30 363 N 35.4744 -0.807222 -1.35358 0
M  V30 364 C 36.6994 -0.399309 -2.0352 0
M  V30 365 C 37.1244 0.981986 -1.60433 0
M  V30 366 O 36.4824 1.63601 -0.781299 0
M  V30 367 C 36.5304 -0.491552 -3.57234 0
M  V30 368 O 35.6344 0.494754 -4.09421 0
M  V30 369 H 34.9754 -0.166682 -0.642739 0
M  V30 370 H 37.5054 -1.09328 -1.72941 0
M  V30 371 H 37.5154 -0.361588 -4.06395 0
M  V30 372 H 36.1904 -1.49907 -3.87944 0
M  V30 373 H 34.7674 0.324977 -3.71481 0
M  V30 374 N 36.9525 1.47285 -0.560781 0
M  V30 375 C 37.8825 2.32857 0.173105 0
M  V30 376 C 38.8635 1.44009 0.905281 0
M  V30 377 O 40.0485 1.7286 0.885046 0
M  V30 378 C 37.1785 3.25861 1.20133 0
M  V30 379 C 36.1325 4.23978 0.585388 0
M  V30 380 C 35.4585 5.06332 1.7185 0
M  V30 381 C 36.7585 5.20242 -0.463178 0
M  V30 382 H 38.4525 2.94466 -0.541307 0
M  V30 383 H 35.9985 1.41601 -0.261764 0
M  V30 384 H 37.9515 3.84569 1.72293 0
M  V30 385 H 36.6755 2.62315 1.94573 0
M  V30 386 H 35.3345 3.66501 0.085054 0
M  V30 387 H 34.9825 4.39186 2.45203 0
M  V30 388 H 34.6825 5.72762 1.31213 0
M  V30 389 H 36.2065 5.67899 2.24329 0
M  V30 390 H 37.6205 5.73293 -0.027502 0
M  V30 391 H 36.0175 5.94896 -0.788627 0
M  V30 392 H 37.0875 4.65504 -1.35773 0
M  V30 393 N 38.4306 0.297415 1.54768 0
M  V30 394 C 39.6766 -0.313376 2.00364 0
M  V30 395 C 40.0096 -1.53815 1.18553 0
M  V30 396 O 39.2846 -1.92739 0.261103 0
M  V30 397 C 39.5676 -0.673525 3.53745 0
M  V30 398 C 39.4206 0.560133 4.46299 0
M  V30 399 C 40.7396 -1.50143 4.13697 0
M  V30 400 H 37.8586 -0.112428 0.728374 0
M  V30 401 H 40.5006 0.4088 1.8555 0
M  V30 402 H 38.6506 -1.28881 3.665 0
M  V30 403 H 40.3226 1.19863 4.45455 0
M  V30 404 H 38.5656 1.19405 4.17043 0
M  V30 405 H 39.2366 0.26405 5.51368 0
M  V30 406 H 41.7126 -0.981588 4.04356 0
M  V30 407 H 40.5886 -1.72221 5.21182 0
M  V30 408 H 40.8496 -2.48952 3.65343 0
M  V30 409 N 39.9087 -1.5758 0.0250728 0
M  V30 410 C 41.1567 -1.91255 -0.653151 0
M  V30 411 C 41.4777 -0.901691 -1.729 0
M  V30 412 O 40.7477 0.0573785 -1.95816 0
M  V30 413 H 39.3277 -0.705942 -0.244243 0
M  V30 414 H 41.9897 -1.94767 0.0719209 0
M  V30 415 H 41.0857 -2.91752 -1.10847 0
M  V30 416 N 41.3868 0.248026 -1.55636 0
M  V30 417 C 42.6118 0.998028 -1.81808 0
M  V30 418 C 43.0368 1.78207 -0.601979 0
M  V30 419 O 42.3948 1.75653 0.448961 0
M  V30 420 C 42.4428 1.9125 -3.05705 0
M  V30 421 O 41.5468 3.00406 -2.82542 0
M  V30 422 H 40.8878 0.284045 -0.600179 0
M  V30 423 H 43.4178 0.269357 -2.02819 0
M  V30 424 H 43.4278 2.32737 -3.35108 0
M  V30 425 H 42.1028 1.33602 -3.93857 0
M  V30 426 H 40.6798 2.63056 -2.64303 0
M  V30 427 N 42.8649 1.48995 0.513639 0
M  V30 428 C 43.8279 1.64229 1.59879 0
M  V30 429 C 44.8279 0.514696 1.5234 0
M  V30 430 O 46.0179 0.78087 1.55718 0
M  V30 431 C 43.1499 1.62783 2.99524 0
M  V30 432 H 44.3429 2.61004 1.47705 0
M  V30 433 H 41.8959 1.37837 0.736936 0
M  V30 434 H 42.6309 0.675461 3.17188 0
M  V30 435 H 42.4159 2.4466 3.06404 0
M  V30 436 H 43.9059 1.76669 3.78388 0
M  V30 437 N 44.343 -0.763751 1.37857 0
M  V30 438 C 45.591 -1.51957 1.33243 0
M  V30 439 C 45.912 -1.94835 -0.0801709 0
M  V30 440 O 45.182 -1.66894 -1.02582 0
M  V30 441 H 43.762 -0.563626 0.49024 0
M  V30 442 H 46.424 -0.908504 1.7243 0
M  V30 443 H 45.52 -2.41523 1.97669 0
M  V30 444 N 45.8211 -1.22559 -0.990812 0
M  V30 445 C 47.0611 -1.06302 -1.74583 0
M  V30 446 C 47.4251 0.394737 -1.87898 0
M  V30 447 O 48.6261 0.678214 -2.60103 0
M  V30 448 C 46.8971 -1.75699 -3.11231 0
M  V30 449 S 48.4561 -1.74882 -4.02445 0
M  V30 450 H 45.2741 -0.380639 -0.600529 0
M  V30 451 H 47.8761 -1.55532 -1.18449 0
M  V30 452 H 46.5801 -2.80923 -2.99183 0
M  V30 453 H 46.1111 -1.26708 -3.72436 0
M  V30 454 H 48.1261 -0.799997 -4.89709 0
M  V30 455 N 47.2992 1.18797 -1.03562 0
M  V30 456 C 48.5242 1.9314 -0.755764 0
M  V30 457 C 48.9492 1.7537 0.68022 0
M  V30 458 O 48.3072 1.06046 1.47051 0
M  V30 459 C 48.3552 3.42747 -1.12058 0
M  V30 460 O 47.4592 4.11683 -0.243124 0
M  V30 461 H 46.8002 0.602724 -0.278604 0
M  V30 462 H 49.3302 1.50678 -1.3841 0
M  V30 463 H 49.3402 3.93437 -1.08035 0
M  V30 464 H 48.0152 3.55002 -2.16672 0
M  V30 465 H 46.5922 3.71323 -0.342539 0
M  V30 466 N 48.7773 0.814389 1.34928 0
M  V30 467 C 49.6873 0.231978 2.3345 0
M  V30 468 C 50.7033 -0.629139 1.62228 0
M  V30 469 O 51.8793 -0.539052 1.94052 0
M  V30 470 C 48.9443 -0.603482 3.41407 0
M  V30 471 C 48.0053 0.279037 4.28392 0
M  V30 472 C 47.2383 -0.516643 5.31193 0
M  V30 473 O 47.4613 -1.75068 5.4287 0
M  V30 474 O 46.3953 0.0965652 6.01823 0
M  V30 475 H 50.2213 1.04721 2.85074 0
M  V30 476 H 47.8063 0.576343 1.37836 0
M  V30 477 H 49.6883 -1.07908 4.0735 0
M  V30 478 H 48.3633 -1.39618 2.92042 0
M  V30 479 H 47.2703 0.801948 3.65403 0
M  V30 480 H 48.6033 1.03588 4.81176 0
M  V30 481 N 50.2554 -1.46986 0.568584 0
M  V30 482 C 51.2024 -2.30153 -0.172707 0
M  V30 483 C 52.1724 -1.39759 -0.897586 0
M  V30 484 O 53.3574 -1.68716 -0.891044 0
M  V30 485 C 50.4974 -3.23952 -1.1895 0
M  V30 486 C 49.6104 -4.29441 -0.469517 0
M  V30 487 C 48.7454 -5.1038 -1.47259 0
M  V30 488 C 47.7844 -6.07632 -0.738225 0
M  V30 489 N 46.9214 -6.8149 -1.68868 0
M  V30 490 H 51.7614 -2.93019 0.542596 0
M  V30 491 H 49.2984 -1.44422 0.279401 0
M  V30 492 H 51.2564 -3.76767 -1.79173 0
M  V30 493 H 49.8864 -2.62926 -1.87269 0
M  V30 494 H 48.9384 -3.79594 0.247467 0
M  V30 495 H 50.2504 -4.98689 0.105241 0
M  V30 496 H 49.4044 -5.67402 -2.14803 0
M  V30 497 H 48.1434 -4.4106 -2.08128 0
M  V30 498 H 47.1484 -5.49778 -0.0489293 0
M  V30 499 H 48.3734 -6.78966 -0.135129 0
M  V30 500 H 46.3194 -6.14891 -2.28573 0
M  V30 501 H 46.2364 -7.46948 -1.16636 0
M  V30 502 H 47.5044 -7.43078 -2.3549 0
M  V30 503 N 51.7335 -0.305618 -1.54608 0
M  V30 504 C 52.6835 0.583595 -2.20405 0
M  V30 505 C 53.6675 1.09539 -1.17856 0
M  V30 506 O 54.8595 1.0354 -1.43557 0
M  V30 507 C 51.9885 1.75277 -2.95183 0
M  V30 508 C 51.0745 1.25672 -4.05052 0
M  V30 509 N 51.4655 0.478998 -5.03527 0
M  V30 510 C 49.7635 1.53704 -4.18678 0
M  V30 511 C 50.4645 0.214269 -5.81305 0
M  V30 512 N 49.4405 0.795374 -5.3775 0
M  V30 513 H 53.2425 -0.0180946 -2.93894 0
M  V30 514 H 50.7565 -0.110601 -1.62023 0
M  V30 515 H 52.7535 2.4014 -3.40791 0
M  V30 516 H 51.4135 2.35812 -2.23211 0
M  V30 517 H 52.4245 0.123473 -5.17753 0
M  V30 518 H 49.1015 2.14954 -3.57912 0
M  V30 519 H 50.4915 -0.410656 -6.70644 0
M  V30 520 N 53.2116 1.57565 -0.0334293 0
M  V30 521 C 54.1416 2.13511 0.945265 0
M  V30 522 C 55.1226 1.05231 1.33643 0
M  V30 523 O 56.3076 1.33084 1.41429 0
M  V30 524 C 53.4376 2.6657 2.22616 0
M  V30 525 C 52.3916 3.79676 1.97561 0
M  V30 526 C 51.7176 4.1918 3.31952 0
M  V30 527 C 53.0176 5.0557 1.31135 0
M  V30 528 H 54.7116 2.95538 0.479325 0
M  V30 529 H 52.2576 1.42166 0.229115 0
M  V30 530 H 54.2106 3.04344 2.91466 0
M  V30 531 H 52.9346 1.8171 2.71384 0
M  V30 532 H 51.5936 3.42347 1.31127 0
M  V30 533 H 51.2416 3.31296 3.78487 0
M  V30 534 H 50.9416 4.95402 3.15992 0
M  V30 535 H 52.4656 4.59541 4.02063 0
M  V30 536 H 53.8796 5.40903 1.89992 0
M  V30 537 H 52.2766 5.86818 1.25559 0
M  V30 538 H 53.3466 4.84062 0.284894 0
M  V30 539 N 54.6897 -0.239769 1.55765 0
M  V30 540 C 55.6197 -1.30052 1.9393 0
M  V30 541 C 56.6007 -1.49839 0.805132 0
M  V30 542 O 57.7857 -1.62328 1.06599 0
M  V30 543 C 54.9157 -2.65391 2.2402 0
M  V30 544 C 53.8697 -2.60289 3.39755 0
M  V30 545 C 53.1957 -3.99489 3.55405 0
M  V30 546 C 54.4957 -2.16654 4.75246 0
M  V30 547 H 56.1897 -0.983573 2.82783 0
M  V30 548 H 53.7357 -0.471701 1.36055 0
M  V30 549 H 55.6887 -3.3974 2.49308 0
M  V30 550 H 54.4127 -2.98736 1.32 0
M  V30 551 H 53.0717 -1.88398 3.14487 0
M  V30 552 H 52.7197 -4.30112 2.60793 0
M  V30 553 H 52.4197 -3.96962 4.33238 0
M  V30 554 H 53.9437 -4.75528 3.83022 0
M  V30 555 H 55.3577 -2.80737 4.99859 0
M  V30 556 H 53.7547 -2.25223 5.56232 0
M  V30 557 H 54.8247 -1.11835 4.71827 0
M  V30 558 N 56.1678 -1.49265 -0.50573 0
M  V30 559 C 57.4448 -1.49012 -1.26707 0
M  V30 560 C 57.8248 -0.215205 -2.1 0
M  V30 561 O 57.1728 0.802547 -2.13943 0
M  V30 562 C 57.3828 -2.7663 -2.12783 0
M  V30 563 C 58.7308 -3.25932 -2.72127 0
M  V30 564 O 59.7548 -2.77715 -2.23054 0
M  V30 565 O 58.6138 -4.09897 -3.61451 0
M  V30 566 H 55.7078 -0.596197 -0.57313 0
M  V30 567 H 58.2538 -1.61524 -0.52039 0
M  V30 568 H 57.0258 -3.60916 -1.5118 0
M  V30 569 H 56.6488 -2.66956 -2.94653 0
M  V30 570 N 57.6459 0.756429 -1.3826 0
M  V30 571 C 58.5929 1.87011 -1.35261 0
M  V30 572 C 59.5629 1.64695 -0.215616 0
M  V30 573 O 60.7479 1.864 -0.407399 0
M  V30 574 C 57.8879 3.24275 -1.18068 0
M  V30 575 C 57.0009 3.58442 -2.41129 0
M  V30 576 C 56.1359 4.84994 -2.16689 0
M  V30 577 C 55.1749 5.11939 -3.35537 0
M  V30 578 N 54.3119 6.29685 -3.10549 0
M  V30 579 H 59.1519 1.8891 -2.30472 0
M  V30 580 H 56.6889 0.923373 -1.14509 0
M  V30 581 H 58.6469 4.03479 -1.06116 0
M  V30 582 H 57.2769 3.21711 -0.264973 0
M  V30 583 H 56.3289 2.74103 -2.63764 0
M  V30 584 H 57.6409 3.74283 -3.29717 0
M  V30 585 H 56.7949 5.72135 -2.01857 0
M  V30 586 H 55.5339 4.71286 -1.25462 0
M  V30 587 H 54.5389 4.23268 -3.50891 0
M  V30 588 H 55.7639 5.27546 -4.27635 0
M  V30 589 H 53.7099 6.17306 -2.21967 0
M  V30 590 H 53.6269 6.46014 -3.92686 0
M  V30 591 H 54.8949 7.19722 -2.99367 0
M  V30 592 N 59.124 1.23083 0.984299 0
M  V30 593 C 60.535 1.05609 1.5396 0
M  V30 594 C 60.886 -0.377793 1.92528 0
M  V30 595 O 60.011 -1.26398 1.75649 0
M  V30 596 C 60.606 1.91087 2.7977 0
M  V30 597 C 59.165 1.77885 3.31713 0
M  V30 598 C 58.312 1.87028 2.04733 0
M  V30 599 H 61.263 1.36802 0.804419 0
M  V30 600 H 61.284 1.43336 3.5247 0
M  V30 601 H 60.796 2.9544 2.51668 0
M  V30 602 H 58.897 0.762995 3.64704 0
M  V30 603 H 59.01 2.61047 4.01735 0
M  V30 604 H 57.374 1.30565 2.18689 0
M  V30 605 H 58.157 2.92929 1.79017 0
M  V30 606 N 60.6021 -1.18246 1.0419 0
M  V30 607 C 61.8491 -1.88257 0.746017 0
M  V30 608 C 62.1771 -1.80429 -0.726331 0
M  V30 609 O 61.4321 -1.2 -1.54591 0
M  V30 610 C 61.7311 -3.38082 1.15911 0
M  V30 611 C 61.3971 -3.66114 2.63195 0
M  V30 612 C 60.0591 -3.73474 3.03432 0
M  V30 613 C 62.4111 -3.78398 3.5842 0
M  V30 614 C 59.7391 -3.90599 4.37778 0
M  V30 615 C 62.0911 -3.97039 4.92487 0
M  V30 616 C 60.7551 -4.02635 5.32392 0
M  V30 617 H 60.0251 -0.688883 0.272987 0
M  V30 618 H 62.6721 -1.3995 1.30715 0
M  V30 619 H 60.9771 -3.88377 0.516806 0
M  V30 620 H 62.6741 -3.90596 0.907516 0
M  V30 621 H 59.2641 -3.61003 2.3103 0
M  V30 622 H 63.4481 -3.72042 3.28479 0
M  V30 623 H 58.7041 -3.93175 4.68213 0
M  V30 624 H 62.8781 -4.05486 5.66175 0
M  V30 625 H 60.5051 -4.15657 6.36501 0
M  V30 626 N 62.0802 -0.821533 -1.34494 0
M  V30 627 C 63.3102 -0.421272 -2.02259 0
M  V30 628 C 63.7182 0.977047 -1.6202 0
M  V30 629 O 63.0612 1.64348 -0.820703 0
M  V30 630 C 63.1232 -0.44231 -3.56769 0
M  V30 631 C 62.7872 -1.79372 -4.20327 0
M  V30 632 C 63.7842 -2.75435 -4.40944 0
M  V30 633 C 61.4692 -2.08182 -4.57127 0
M  V30 634 C 63.4632 -3.98482 -4.97484 0
M  V30 635 C 61.1502 -3.31489 -5.13379 0
M  V30 636 C 62.1482 -4.26457 -5.33501 0
M  V30 637 O 61.8362 -5.47585 -5.88562 0
M  V30 638 H 61.5682 -0.167473 -0.654927 0
M  V30 639 H 64.1222 -1.11073 -1.72777 0
M  V30 640 H 62.3522 0.303836 -3.85505 0
M  V30 641 H 64.0412 -0.0622925 -4.05852 0
M  V30 642 H 64.8072 -2.54473 -4.12878 0
M  V30 643 H 60.6862 -1.35066 -4.4077 0
M  V30 644 H 64.2302 -4.72618 -5.13106 0
M  V30 645 H 60.1272 -3.52316 -5.40873 0
M  V30 646 H 60.8952 -5.49086 -6.06998 0
M  V30 647 N 63.5583 1.46682 -0.576371 0
M  V30 648 C 64.5063 2.31953 0.17335 0
M  V30 649 C 65.5003 1.44098 0.89062 0
M  V30 650 O 66.7063 1.60759 0.809728 0
M  V30 651 H 63.0813 0.748273 0.0747727 0
M  V30 652 H 65.0523 2.93007 -0.564738 0
M  V30 653 C 63.8013 3.27142 1.17786 0
M  V30 654 H 63.1243 3.94719 0.635361 0
M  V30 655 H 64.5643 3.896 1.67296 0
M  V30 656 C 63.0233 2.52036 2.23561 0
M  V30 657 O 63.5533 2.27877 3.3081 0
M  V30 658 N 61.7593 2.12709 1.97998 0
M  V30 659 H 61.3063 2.32557 1.10792 0
M  V30 660 H 61.2643 1.62776 2.68982 0
M  V30 661 N 65.0364 0.313813 1.54444 0
M  V30 662 C 66.3134 -0.345447 1.92525 0
M  V30 663 C 66.6934 -1.70667 1.24242 0
M  V30 664 O 66.0414 -2.25273 0.382654 0
M  V30 665 C 66.2514 -0.44737 3.46121 0
M  V30 666 C 67.5994 -0.712238 4.18584 0
M  V30 667 O 68.6234 -0.530678 3.52225 0
M  V30 668 O 67.4824 -1.06183 5.36085 0
M  V30 669 H 64.5764 -0.195407 0.803583 0
M  V30 670 H 67.1224 0.362813 1.65776 0
M  V30 671 H 65.8944 0.509043 3.87975 0
M  V30 672 H 65.5174 -1.20359 3.78945 0
M  V30 673 N 66.5145 -1.57545 0.0417849 0
M  V30 674 C 67.7615 -1.92317 -0.634082 0
M  V30 675 C 68.0895 -0.919334 -1.71402 0
M  V30 676 O 67.3445 0.0698253 -1.95575 0
M  V30 677 C 67.6435 -3.33794 -1.27735 0
M  V30 678 C 67.3095 -4.49716 -0.326543 0
M  V30 679 C 65.9715 -4.81156 -0.0648814 0
M  V30 680 C 68.3235 -5.20182 0.325623 0
M  V30 681 C 65.6515 -5.80414 0.856539 0
M  V30 682 C 68.0035 -6.20424 1.23518 0
M  V30 683 C 66.6675 -6.50298 1.5056 0
M  V30 684 H 65.9375 -0.703736 -0.232027 0
M  V30 685 H 68.5845 -1.91205 0.106259 0
M  V30 686 H 66.8895 -3.31228 -2.09274 0
M  V30 687 H 68.5865 -3.57975 -1.80707 0
M  V30 688 H 65.1765 -4.25176 -0.540665 0
M  V30 689 H 69.3605 -4.96112 0.136546 0
M  V30 690 H 64.6165 -6.019 1.07363 0
M  V30 691 H 68.7905 -6.74141 1.74664 0
M  V30 692 H 66.4175 -7.27025 2.22123 0
M  V30 693 N 67.9926 0.231505 -1.5589 0
M  V30 694 C 68.9026 1.308 -1.94752 0
M  V30 695 C 69.9186 1.51826 -0.849989 0
M  V30 696 O 71.0946 1.6515 -1.15271 0
M  V30 697 C 68.1596 2.63968 -2.24771 0
M  V30 698 C 67.2206 2.51331 -3.48039 0
M  V30 699 C 66.4536 3.78148 -3.76616 0
M  V30 700 O 66.6766 4.80722 -3.07022 0
M  V30 701 O 65.6106 3.75857 -4.70123 0
M  V30 702 H 69.4366 1.0083 -2.86474 0
M  V30 703 H 67.0216 0.433547 -1.42971 0
M  V30 704 H 68.9036 3.42633 -2.45318 0
M  V30 705 H 67.5786 2.9364 -1.36225 0
M  V30 706 H 66.4856 1.709 -3.32782 0
M  V30 707 H 67.8186 2.26601 -4.36936 0
M  V30 708 N 69.4707 1.49531 0.497807 0
M  V30 709 C 70.8867 1.36365 0.829266 0
M  V30 710 C 71.0867 0.399184 1.97506 0
M  V30 711 O 70.1427 -0.167977 2.51941 0
M  V30 712 C 71.4557 2.77153 1.16647 0
M  V30 713 C 73.0037 2.85877 1.27449 0
M  V30 714 C 73.4787 4.2744 1.64497 0
M  V30 715 N 74.9697 4.30265 1.7154 0
M  V30 716 C 75.7047 5.3677 2.01656 0
M  V30 717 N 75.2007 6.53516 2.29976 0
M  V30 718 N 76.9937 5.24189 2.02934 0
M  V30 719 H 69.1447 2.10831 -0.257703 0
M  V30 720 H 71.4077 0.946534 -0.0527091 0
M  V30 721 H 71.1137 3.49442 0.397872 0
M  V30 722 H 70.9877 3.12722 2.10915 0
M  V30 723 H 73.3747 2.13824 2.0338 0
M  V30 724 H 73.4557 2.53887 0.312244 0
M  V30 725 H 73.0997 5.00021 0.891151 0
M  V30 726 H 73.0297 4.56896 2.61827 0
M  V30 727 H 75.5207 3.4607 1.51802 0
M  V30 728 H 75.8337 7.30506 2.52153 0
M  V30 729 H 74.1787 6.56737 2.27425 0
M  V30 730 H 77.3697 4.31988 1.80289 0
M  V30 731 H 77.5427 6.07286 2.26071 0
M  V30 732 N 70.9488 -0.749086 1.3866 0
M  V30 733 C 72.1968 -1.50535 1.34847 0
M  V30 734 C 72.5178 -1.94909 -0.0595016 0
M  V30 735 O 71.7878 -1.67973 -1.00806 0
M  V30 736 H 70.3678 -0.558395 0.49619 0
M  V30 737 H 73.0298 -0.890165 1.73384 0
M  V30 738 H 72.1258 -2.39413 2.00219 0
M  V30 739 N 72.4269 -1.23603 -0.977757 0
M  V30 740 C 73.3899 -1.02069 -2.05218 0
M  V30 741 C 74.3899 0.0184305 -1.60789 0
M  V30 742 O 75.5799 -0.221569 -1.72785 0
M  V30 743 C 72.7119 -0.544926 -3.36517 0
M  V30 744 H 73.9049 -1.9742 -2.25755 0
M  V30 745 H 71.4579 -1.05684 -1.15155 0
M  V30 746 H 72.1929 0.412241 -3.21669 0
M  V30 747 H 71.9779 -1.2948 -3.70105 0
M  V30 748 H 73.4679 -0.414985 -4.15533 0
M  V30 749 N 73.905 1.17692 -1.04816 0
M  V30 750 C 75.151 1.88137 -0.75711 0
M  V30 751 C 75.484 1.80604 0.713841 0
M  V30 752 O 74.759 1.21146 1.52164 0
M  V30 753 C 75.042 3.38318 -1.2334 0
M  V30 754 C 74.895 3.54622 -2.76701 0
M  V30 755 C 76.214 4.32214 -0.829415 0
M  V30 756 H 73.333 0.683163 -0.27651 0
M  V30 757 H 75.975 1.38424 -1.30149 0
M  V30 758 H 74.125 3.80787 -0.770286 0
M  V30 759 H 75.797 3.21194 -3.31107 0
M  V30 760 H 74.04 2.97026 -3.16161 0
M  V30 761 H 74.711 4.60028 -3.05088 0
M  V30 762 H 77.187 3.97565 -1.22805 0
M  V30 763 H 76.063 5.35838 -1.19033 0
M  V30 764 H 76.324 4.41294 0.266891 0
M  V30 765 N 75.3831 0.828654 1.34056 0
M  V30 766 C 76.6601 0.341809 1.9259 0
M  V30 767 C 77.0401 -1.17158 1.75605 0
M  V30 768 O 76.3881 -1.98132 1.13824 0
M  V30 769 C 76.5981 0.777453 3.4023 0
M  V30 770 C 77.9461 0.779579 4.17382 0
M  V30 771 O 78.9701 0.7204 3.48839 0
M  V30 772 O 77.8291 0.857996 5.39723 0
M  V30 773 H 74.9231 0.0946085 0.821571 0
M  V30 774 H 77.4691 0.913827 1.42994 0
M  V30 775 H 76.2411 1.8196 3.46419 0
M  V30 776 H 75.8641 0.181444 3.97186 0
M  V30 777 N 76.8612 -1.46375 0.584142 0
M  V30 778 C 78.0862 -2.07268 0.0740405 0
M  V30 779 C 78.5112 -1.42979 -1.22223 0
M  V30 780 O 77.8692 -0.514092 -1.73859 0
M  V30 781 C 77.9172 -3.60518 -0.0767769 0
M  V30 782 O 77.0212 -3.96533 -1.13292 0
M  V30 783 H 76.3622 -0.660961 0.0634524 0
M  V30 784 H 78.8922 -1.87991 0.807492 0
M  V30 785 H 78.9022 -4.07021 -0.282489 0
M  V30 786 H 77.5772 -4.06702 0.86986 0
M  V30 787 H 76.1542 -3.61738 -0.905553 0
M  V30 788 N 78.3393 -0.321999 -1.54275 0
M  V30 789 C 79.5693 0.282642 -2.04658 0
M  V30 790 C 79.9773 1.46453 -1.19784 0
M  V30 791 O 79.3203 1.82367 -0.220932 0
M  V30 792 C 79.3823 0.781857 -3.50895 0
M  V30 793 C 79.0463 -0.277517 -4.56157 0
M  V30 794 C 80.0433 -1.11307 -5.07845 0
M  V30 795 C 77.7283 -0.425256 -5.00497 0
M  V30 796 C 79.7223 -2.08211 -6.02434 0
M  V30 797 C 77.4093 -1.39771 -5.94901 0
M  V30 798 C 78.4073 -2.2246 -6.45756 0
M  V30 799 O 78.0953 -3.18054 -7.38307 0
M  V30 800 H 77.8273 0.0622636 -0.673126 0
M  V30 801 H 80.3813 -0.465792 -2.00049 0
M  V30 802 H 78.6113 1.58118 -3.52896 0
M  V30 803 H 80.3003 1.30467 -3.84361 0
M  V30 804 H 81.0663 -1.00991 -4.74369 0
M  V30 805 H 76.9453 0.20847 -4.60528 0
M  V30 806 H 80.4893 -2.72791 -6.42052 0
M  V30 807 H 76.3863 -1.50152 -6.27794 0
M  V30 808 H 77.1543 -3.13275 -7.56175 0
M  V30 809 N 79.8174 1.5752 -0.0501392 0
M  V30 810 C 81.0944 1.83996 0.663685 0
M  V30 811 C 81.4744 0.938339 1.89099 0
M  V30 812 O 80.8224 -0.00087759 2.285 0
M  V30 813 C 81.0324 3.33702 1.02196 0
M  V30 814 C 82.3804 4.00691 1.40469 0
M  V30 815 O 83.4044 3.38321 1.11433 0
M  V30 816 O 82.2634 5.10658 1.94654 0
M  V30 817 H 79.3574 0.759385 0.32751 0
M  V30 818 H 81.9034 1.69514 -0.0794238 0
M  V30 819 H 80.6754 3.91015 0.149364 0
M  V30 820 H 80.2984 3.53368 1.82255 0
M  V30 821 N 81.2955 -0.223234 1.56011 0
M  V30 822 C 82.5415 -0.949279 1.79211 0
M  V30 823 C 82.8745 -1.84054 0.619494 0
M  V30 824 O 82.1495 -1.90726 -0.381317 0
M  V30 825 C 82.4325 -1.78965 3.12479 0
M  V30 826 C 82.2855 -0.924997 4.40186 0
M  V30 827 C 83.6045 -2.76774 3.42175 0
M  V30 828 H 80.7235 -0.343676 0.651963 0
M  V30 829 H 83.3655 -0.218253 1.88742 0
M  V30 830 H 81.5155 -2.41291 3.04485 0
M  V30 831 H 83.1875 -0.318615 4.60198 0
M  V30 832 H 81.4305 -0.230344 4.33188 0
M  V30 833 H 82.1015 -1.54735 5.29869 0
M  V30 834 H 84.5775 -2.24584 3.50287 0
M  V30 835 H 83.4535 -3.32678 4.36597 0
M  V30 836 H 83.7145 -3.54429 2.64258 0
M  V30 837 N 82.7736 -1.49793 -0.48987 0
M  V30 838 C 84.0016 -1.63568 -1.26701 0
M  V30 839 C 84.4166 -0.311465 -1.86213 0
M  V30 840 O 83.7736 0.704416 -1.68357 0
M  V30 841 C 83.8246 -2.71284 -2.38929 0
M  V30 842 O 83.5456 -3.9857 -1.81861 0
M  V30 843 C 85.0466 -2.95864 -3.3012 0
M  V30 844 H 82.2666 -0.550342 -0.383881 0
M  V30 845 H 84.8106 -1.95898 -0.586864 0
M  V30 846 H 82.9656 -2.417 -3.02753 0
M  V30 847 H 83.3796 -4.57993 -2.55622 0
M  V30 848 H 84.8536 -3.74941 -4.05121 0
M  V30 849 H 85.3306 -2.06206 -3.87783 0
M  V30 850 H 85.9366 -3.26907 -2.72051 0
M  V30 851 N 84.2517 0.741722 -1.39055 0
M  V30 852 C 85.4977 1.50336 -1.36113 0
M  V30 853 C 85.8307 1.94148 0.0450796 0
M  V30 854 O 85.1057 1.66301 1.00868 0
M  V30 855 C 85.3887 2.74773 -2.32749 0
M  V30 856 C 85.2417 2.37023 -3.82283 0
M  V30 857 C 86.5607 3.76846 -2.27322 0
M  V30 858 H 83.6797 0.545351 -0.495743 0
M  V30 859 H 86.3217 0.848624 -1.69995 0
M  V30 860 H 84.4717 3.30639 -2.03986 0
M  V30 861 H 86.1437 1.8684 -4.21768 0
M  V30 862 H 84.3867 1.69334 -3.99385 0
M  V30 863 H 85.0577 3.26104 -4.45376 0
M  V30 864 H 87.5337 3.30548 -2.5274 0
M  V30 865 H 86.4097 4.6159 -2.97028 0
M  V30 866 H 86.6707 4.23286 -1.27599 0
M  V30 867 N 85.7298 1.2412 0.971189 0
M  V30 868 C 87.0068 0.986867 1.6888 0
M  V30 869 C 87.3868 -0.491857 2.0529 0
M  V30 870 O 86.7348 -1.46531 1.75331 0
M  V30 871 C 86.9448 1.9063 2.92338 0
M  V30 872 C 88.2928 2.17515 3.64654 0
M  V30 873 O 89.3168 1.88254 3.02388 0
M  V30 874 O 88.1758 2.6719 4.7673 0
M  V30 875 H 85.2698 0.372944 0.738134 0
M  V30 876 H 87.8158 1.35203 1.02559 0
M  V30 877 H 86.5878 2.90552 2.62097 0
M  V30 878 H 86.2108 1.54408 3.66393 0
M  V30 879 N 87.2079 -1.17134 1.05439 0
M  V30 880 C 88.1179 -2.24878 0.668365 0
M  V30 881 C 89.1339 -1.71186 -0.311687 0
M  V30 882 O 90.3099 -2.00738 -0.163161 0
M  V30 883 C 87.3749 -3.46662 0.051648 0
M  V30 884 C 86.4359 -4.15429 1.08246 0
M  V30 885 C 85.6689 -5.31399 0.495082 0
M  V30 886 O 85.8919 -5.66153 -0.694743 0
M  V30 887 O 84.8259 -5.89187 1.23056 0
M  V30 888 H 88.6519 -2.60189 1.56637 0
M  V30 889 H 86.2369 -1.24482 0.826104 0
M  V30 890 H 88.1189 -4.20394 -0.290966 0
M  V30 891 H 86.7939 -3.13142 -0.819971 0
M  V30 892 H 85.7009 -3.43704 1.47711 0
M  V30 893 H 87.0339 -4.52982 1.92532 0
M  V30 894 N 88.686 -0.835752 -1.33615 0
M  V30 895 C 89.596 -0.269088 -2.33052 0
M  V30 896 C 90.612 0.603251 -1.63208 0
M  V30 897 O 91.788 0.508112 -1.94885 0
M  V30 898 C 88.853 0.549091 -3.42324 0
M  V30 899 C 87.914 -0.347156 -4.27894 0
M  V30 900 C 87.147 0.43207 -5.31948 0
M  V30 901 O 87.37 1.66409 -5.45586 0
M  V30 902 O 86.304 -0.192298 -6.01593 0
M  V30 903 H 90.13 -1.09243 -2.83372 0
M  V30 904 H 87.715 -0.598198 -1.36901 0
M  V30 905 H 89.597 1.01414 -4.09015 0
M  V30 906 H 88.272 1.34955 -2.94226 0
M  V30 907 H 87.179 -0.859979 -3.64081 0
M  V30 908 H 88.512 -1.1123 -4.79467 0
M  V30 909 N 90.1641 1.46063 -0.591896 0
M  V30 910 C 91.0941 2.33172 0.123673 0
M  V30 911 C 92.0751 1.45897 0.87453 0
M  V30 912 O 93.2601 1.74698 0.848181 0
M  V30 913 C 90.3901 3.28336 1.13194 0
M  V30 914 C 89.3441 4.25124 0.495324 0
M  V30 915 C 88.6701 5.09863 1.61071 0
M  V30 916 C 89.9701 5.19143 -0.573425 0
M  V30 917 H 91.6641 2.93252 -0.603646 0
M  V30 918 H 89.2101 1.41014 -0.291741 0
M  V30 919 H 91.1631 3.88137 1.64097 0
M  V30 920 H 89.8871 2.66383 1.88965 0
M  V30 921 H 88.5461 3.66599 0.00729452 0
M  V30 922 H 88.1941 4.44288 2.35832 0
M  V30 923 H 87.8941 5.75417 1.19035 0
M  V30 924 H 89.4181 5.72529 2.12233 0
M  V30 925 H 90.8321 5.73106 -0.1491 0
M  V30 926 H 89.2291 5.93089 -0.914636 0
M  V30 927 H 90.2991 4.62519 -1.45617 0
M  V30 928 N 91.6422 0.330177 1.54103 0
M  V30 929 C 92.8902 -0.269871 2.0029 0
M  V30 930 C 93.2112 -1.52133 1.21986 0
M  V30 931 O 92.4812 -1.93212 0.323438 0
M  V30 932 H 91.0612 -0.10271 0.739905 0
M  V30 933 H 93.7232 0.448249 1.89675 0
M  V30 934 H 92.8192 -0.52166 3.07709 0
M  V30 935 N 93.1203 -1.57491 0.0584922 0
M  V30 936 C 94.0303 -2.15448 -0.928414 0
M  V30 937 C 95.0463 -1.11416 -1.3365 0
M  V30 938 O 96.2223 -1.4362 -1.41193 0
M  V30 939 C 93.2873 -2.69393 -2.18239 0
M  V30 940 C 92.3483 -3.88249 -1.83196 0
M  V30 941 C 91.5813 -4.39613 -3.02616 0
M  V30 942 O 91.8043 -3.90023 -4.16219 0
M  V30 943 O 90.7383 -5.31111 -2.83204 0
M  V30 944 H 94.5643 -3.00112 -0.465483 0
M  V30 945 H 92.1493 -1.48499 -0.163826 0
M  V30 946 H 94.0313 -3.04026 -2.91798 0
M  V30 947 H 92.7063 -1.87796 -2.63656 0
M  V30 948 H 91.6133 -3.58492 -1.06931 0
M  V30 949 H 92.9463 -4.71098 -1.42573 0
M  V30 950 N 94.5984 0.214957 -1.56127 0
M  V30 951 C 95.8474 0.936451 -1.78643 0
M  V30 952 C 96.1604 1.85237 -0.628229 0
M  V30 953 O 97.3664 2.613 -0.737186 0
M  V30 954 C 95.8224 1.7154 -3.16389 0
M  V30 955 C 95.4304 0.845299 -4.39953 0
M  V30 956 C 97.1744 2.42772 -3.48227 0
M  V30 957 C 95.0814 1.62198 -5.68723 0
M  V30 958 H 94.0114 0.353401 -0.666051 0
M  V30 959 H 96.6624 0.190169 -1.82512 0
M  V30 960 H 95.0444 2.50484 -3.06715 0
M  V30 961 H 96.2184 0.0959353 -4.607 0
M  V30 962 H 94.5334 0.244789 -4.1568 0
M  V30 963 H 97.1304 3.01394 -4.41663 0
M  V30 964 H 97.4734 3.15984 -2.71035 0
M  V30 965 H 98.0064 1.70813 -3.5926 0
M  V30 966 H 94.7454 0.933011 -6.48826 0
M  V30 967 H 94.2654 2.34579 -5.52026 0
M  V30 968 H 95.9444 2.18095 -6.09133 0
M  V30 969 N 96.0765 1.50051 0.48192 0
M  V30 970 C 97.0085 1.64263 1.59844 0
M  V30 971 C 98.0215 0.52451 1.54119 0
M  V30 972 O 99.2105 0.797293 1.59704 0
M  V30 973 C 96.3105 1.60102 2.98698 0
M  V30 974 C 95.4835 2.87767 3.29407 0
M  V30 975 C 94.5425 2.76397 4.47762 0
M  V30 976 O 93.5685 3.50348 4.48603 0
M  V30 977 N 94.7705 1.89222 5.48794 0
M  V30 978 H 97.5355 2.60566 1.48073 0
M  V30 979 H 95.0965 1.47379 0.670149 0
M  V30 980 H 97.0885 1.50123 3.75826 0
M  V30 981 H 95.6585 0.715798 3.04294 0
M  V30 982 H 94.8785 3.11954 2.40994 0
M  V30 983 H 96.1665 3.72365 3.4673 0
M  V30 984 H 95.5645 1.28434 5.50928 0
M  V30 985 H 94.1215 1.85154 6.24949 0
M  V30 986 N 97.5546 -0.734337 1.39446 0
M  V30 987 C 98.4846 -1.86155 1.40955 0
M  V30 988 C 99.4656 -1.67898 0.272827 0
M  V30 989 O 100.651 -1.88207 0.478743 0
M  V30 990 C 97.7806 -3.23912 1.25294 0
M  V30 991 C 96.7346 -3.56808 2.36373 0
M  V30 992 C 96.0606 -4.93508 2.058 0
M  V30 993 C 97.3606 -3.59713 3.78687 0
M  V30 994 H 99.0546 -1.8515 2.35287 0
M  V30 995 H 96.6006 -0.889367 1.13253 0
M  V30 996 H 98.5536 -4.02443 1.2497 0
M  V30 997 H 97.2776 -3.25446 0.274308 0
M  V30 998 H 95.9366 -2.80606 2.35914 0
M  V30 999 H 95.5846 -4.91623 1.06374 0
M  V30 1000 H 95.2846 -5.16486 2.80208 0
M  V30 1001 H 96.8086 -5.74396 2.07128 0
M  V30 1002 H 98.2226 -4.2832 3.81071 0
M  V30 1003 H 96.6196 -3.94209 4.52459 0
M  V30 1004 H 97.6896 -2.59504 4.09617 0
M  V30 1005 N 99.0327 -1.24633 -0.964593 0
M  V30 1006 C 100.279 -1.08949 -1.71049 0
M  V30 1007 C 100.612 0.370302 -1.90637 0
M  V30 1008 O 99.8867 1.27349 -1.47011 0
M  V30 1009 C 100.17 -1.83329 -3.0994 0
M  V30 1010 C 100.023 -3.37077 -2.97824 0
M  V30 1011 C 101.342 -1.60846 -4.09654 0
M  V30 1012 H 98.4607 -0.397178 -0.620821 0
M  V30 1013 H 101.103 -1.5334 -1.12191 0
M  V30 1014 H 99.2527 -1.45597 -3.60186 0
M  V30 1015 H 100.925 -3.84425 -2.5498 0
M  V30 1016 H 99.1677 -3.65298 -2.33965 0
M  V30 1017 H 99.8387 -3.84324 -3.96231 0
M  V30 1018 H 102.315 -1.93674 -3.68279 0
M  V30 1019 H 101.191 -2.1534 -5.04896 0
M  V30 1020 H 101.452 -0.547434 -4.38698 0
M  V30 1021 N 100.511 1.16574 -1.06058 0
M  V30 1022 C 101.927 1.3904 -0.783585 0
M  V30 1023 C 102.127 1.91784 0.618145 0
M  V30 1024 O 101.183 2.11511 1.37911 0
M  V30 1025 C 102.496 2.37329 -1.84649 0
M  V30 1026 C 104.044 2.51018 -1.86973 0
M  V30 1027 C 104.519 3.52588 -2.92311 0
M  V30 1028 N 106.01 3.60113 -2.91329 0
M  V30 1029 C 106.745 4.38486 -3.69482 0
M  V30 1030 N 106.241 5.20302 -4.57447 0
M  V30 1031 N 108.034 4.33446 -3.57885 0
M  V30 1032 H 100.185 0.806725 -1.96483 0
M  V30 1033 H 102.448 0.417117 -0.851303 0
M  V30 1034 H 102.154 2.05663 -2.85299 0
M  V30 1035 H 102.028 3.36946 -1.6955 0
M  V30 1036 H 104.415 2.81989 -0.869827 0
M  V30 1037 H 104.496 1.51445 -2.0615 0
M  V30 1038 H 104.14 3.22354 -3.92492 0
M  V30 1039 H 104.07 4.51886 -2.70383 0
M  V30 1040 H 106.561 3.01707 -2.27555 0
M  V30 1041 H 106.874 5.77311 -5.13743 0
M  V30 1042 H 105.219 5.19653 -4.61503 0
M  V30 1043 H 108.41 3.68586 -2.88551 0
M  V30 1044 H 108.583 4.94279 -4.19037 0
M  V30 1045 N 101.989 0.842826 1.3317 0
M  V30 1046 C 103.238 0.436738 1.96915 0
M  V30 1047 C 103.551 -1.01025 1.67491 0
M  V30 1048 O 104.757 -1.5212 2.24881 0
M  V30 1049 C 103.213 0.730021 3.52418 0
M  V30 1050 C 102.821 2.19195 3.90714 0
M  V30 1051 C 104.565 0.391076 4.22695 0
M  V30 1052 C 102.472 2.42907 5.39212 0
M  V30 1053 H 101.402 0.15958 0.736919 0
M  V30 1054 H 104.053 1.03196 1.51733 0
M  V30 1055 H 102.435 0.0643755 3.95948 0
M  V30 1056 H 103.609 2.8984 3.58231 0
M  V30 1057 H 101.924 2.49425 3.33431 0
M  V30 1058 H 104.521 0.545817 5.31907 0
M  V30 1059 H 104.864 -0.666294 4.10933 0
M  V30 1060 H 105.397 1.01212 3.84709 0
M  V30 1061 H 102.136 3.47224 5.55982 0
M  V30 1062 H 101.656 1.76827 5.73142 0
M  V30 1063 H 103.335 2.2626 6.06148 0
M  V30 1064 N 103.467 -1.45747 0.599634 0
M  V30 1065 C 104.377 -2.34262 -0.125888 0
M  V30 1066 C 105.393 -1.50768 -0.868625 0
M  V30 1067 O 106.569 -1.83592 -0.828003 0
M  V30 1068 C 103.634 -3.28252 -1.11587 0
M  V30 1069 C 102.695 -4.27651 -0.375956 0
M  V30 1070 C 101.928 -5.1715 -1.31877 0
M  V30 1071 O 102.151 -5.09916 -2.55621 0
M  V30 1072 O 101.085 -5.96286 -0.820157 0
M  V30 1073 H 104.911 -2.97688 0.601315 0
M  V30 1074 H 102.496 -1.44999 0.359934 0
M  V30 1075 H 104.378 -3.86191 -1.68626 0
M  V30 1076 H 103.053 -2.67401 -1.82424 0
M  V30 1077 H 101.96 -3.7335 0.236698 0
M  V30 1078 H 103.293 -4.91334 0.29177 0
M  V30 1079 N 104.945 -0.338344 -1.53925 0
M  V30 1080 C 105.892 0.520845 -2.24846 0
M  V30 1081 C 106.862 1.09976 -1.24477 0
M  V30 1082 O 108.047 1.13735 -1.53196 0
M  V30 1083 C 105.187 1.6685 -3.02084 0
M  V30 1084 C 104.3 1.11739 -4.17299 0
M  V30 1085 C 103.435 2.23193 -4.82036 0
M  V30 1086 C 102.474 1.65407 -5.89328 0
M  V30 1087 N 101.611 2.70582 -6.47866 0
M  V30 1088 H 106.451 -0.0904881 -2.97863 0
M  V30 1089 H 103.988 -0.0564282 -1.46992 0
M  V30 1090 H 105.946 2.34407 -3.45122 0
M  V30 1091 H 104.576 2.2509 -2.31375 0
M  V30 1092 H 103.628 0.332919 -3.7894 0
M  V30 1093 H 104.94 0.654677 -4.94485 0
M  V30 1094 H 104.094 2.98626 -5.28117 0
M  V30 1095 H 102.833 2.72807 -4.04262 0
M  V30 1096 H 101.838 0.884779 -5.42634 0
M  V30 1097 H 103.063 1.16652 -6.69006 0
M  V30 1098 H 101.009 3.1946 -5.72959 0
M  V30 1099 H 100.926 2.28917 -7.20509 0
M  V30 1100 H 102.194 3.45799 -6.98601 0
M  V30 1101 N 106.423 1.57458 -0.0668435 0
M  V30 1102 C 107.839 1.56947 0.289772 0
M  V30 1103 C 108.039 1.07584 1.70376 0
M  V30 1104 O 107.095 0.739486 2.41429 0
M  V30 1105 C 108.408 3.0052 0.103943 0
M  V30 1106 C 109.956 3.12517 0.173857 0
M  V30 1107 C 110.431 4.57997 0.0163682 0
M  V30 1108 N 111.922 4.63144 0.0721352 0
M  V30 1109 C 112.657 5.73394 -0.0253794 0
M  V30 1110 N 112.153 6.92576 -0.176133 0
M  V30 1111 N 113.946 5.62091 0.0313305 0
M  V30 1112 H 106.097 1.87863 -0.991027 0
M  V30 1113 H 108.36 0.86583 -0.38606 0
M  V30 1114 H 108.066 3.40729 -0.871572 0
M  V30 1115 H 107.94 3.67304 0.858366 0
M  V30 1116 H 110.327 2.72197 1.13985 0
M  V30 1117 H 110.408 2.48381 -0.611586 0
M  V30 1118 H 110.052 4.99005 -0.946374 0
M  V30 1119 H 109.982 5.20158 0.821153 0
M  V30 1120 H 112.473 3.77436 0.187263 0
M  V30 1121 H 112.786 7.72418 -0.242821 0
M  V30 1122 H 111.131 6.94678 -0.211429 0
M  V30 1123 H 114.322 4.67867 0.147773 0
M  V30 1124 H 114.495 6.47982 -0.048121 0
M  V30 1125 N 107.901 -0.206675 1.56239 0
M  V30 1126 C 108.848 -1.25617 1.93621 0
M  V30 1127 C 109.818 -1.45824 0.795274 0
M  V30 1128 O 111.003 -1.59148 1.05245 0
M  V30 1129 C 108.143 -2.59839 2.27107 0
M  V30 1130 C 107.256 -2.47308 3.54207 0
M  V30 1131 C 106.391 -3.74155 3.7707 0
M  V30 1132 C 105.43 -3.56407 4.97635 0
M  V30 1133 N 104.567 -4.75238 5.1681 0
M  V30 1134 H 109.407 -0.930383 2.83104 0
M  V30 1135 H 106.944 -0.448065 1.4011 0
M  V30 1136 H 108.902 -3.38021 2.44535 0
M  V30 1137 H 107.532 -2.90485 1.40778 0
M  V30 1138 H 106.584 -1.60483 3.4489 0
M  V30 1139 H 107.896 -2.30122 4.42544 0
M  V30 1140 H 107.05 -4.60778 3.94675 0
M  V30 1141 H 105.789 -3.94282 2.87042 0
M  V30 1142 H 104.794 -2.68168 4.79964 0
M  V30 1143 H 106.019 -3.37736 5.89161 0
M  V30 1144 H 103.965 -4.95651 4.29728 0
M  V30 1145 H 103.882 -4.60835 5.99306 0
M  V30 1146 H 105.15 -5.63246 5.38864 0
M  V30 1147 N 109.379 -1.50304 -0.473955 0
M  V30 1148 C 110.609 -1.64663 -1.24778 0
M  V30 1149 C 111.017 -0.328174 -1.86332 0
M  V30 1150 O 110.36 0.699536 -1.69859 0
M  V30 1151 C 110.422 -2.6778 -2.39863 0
M  V30 1152 C 110.086 -4.11413 -1.98969 0
M  V30 1153 C 111.083 -4.97372 -1.51385 0
M  V30 1154 C 108.768 -4.57312 -2.07777 0
M  V30 1155 C 110.762 -6.27277 -1.13148 0
M  V30 1156 C 108.449 -5.87223 -1.69152 0
M  V30 1157 C 109.447 -6.72031 -1.21915 0
M  V30 1158 O 109.135 -7.99518 -0.838237 0
M  V30 1159 H 108.867 -0.556602 -0.383627 0
M  V30 1160 H 111.421 -1.9726 -0.572491 0
M  V30 1161 H 109.651 -2.30419 -3.10554 0
M  V30 1162 H 111.34 -2.71388 -3.01833 0
M  V30 1163 H 112.106 -4.63128 -1.44004 0
M  V30 1164 H 107.985 -3.91449 -2.43493 0
M  V30 1165 H 111.529 -6.93425 -0.762077 0
M  V30 1166 H 107.426 -6.20989 -1.76191 0
M  V30 1167 H 108.194 -8.12764 -0.967339 0
M  V30 1168 N 110.857 0.726932 -1.39834 0
M  V30 1169 C 112.103 1.48771 -1.38704 0
M  V30 1170 C 112.458 1.92394 0.0146387 0
M  V30 1171 O 111.751 1.64474 0.982797 0
M  V30 1172 C 111.945 2.73495 -2.30077 0
M  V30 1173 C 111.774 2.42068 -3.78989 0
M  V30 1174 C 110.544 2.33966 -4.4787 0
M  V30 1175 C 112.742 2.0708 -4.70768 0
M  V30 1176 N 110.724 1.95095 -5.82075 0
M  V30 1177 C 112.095 1.78719 -5.93683 0
M  V30 1178 C 114.15 1.93618 -4.58712 0
M  V30 1179 C 112.853 1.3825 -7.05889 0
M  V30 1180 C 114.879 1.54553 -5.70848 0
M  V30 1181 C 114.241 1.27082 -6.92842 0
M  V30 1182 H 110.34 0.542919 -0.562817 0
M  V30 1183 H 112.924 0.84408 -1.75452 0
M  V30 1184 H 111.095 3.35625 -1.95474 0
M  V30 1185 H 112.827 3.39755 -2.19883 0
M  V30 1186 H 109.582 2.51331 -4.0141 0
M  V30 1187 H 110.006 1.7823 -6.53118 0
M  V30 1188 H 114.648 2.13522 -3.64922 0
M  V30 1189 H 112.366 1.17088 -7.99572 0
M  V30 1190 H 115.952 1.44731 -5.6351 0
M  V30 1191 H 114.832 0.973069 -7.78139 0
M  V30 1192 N 112.336 1.25143 0.95797 0
M  V30 1193 C 113.266 1.07711 2.07173 0
M  V30 1194 C 114.247 -0.0128462 1.70095 0
M  V30 1195 O 115.432 0.156061 1.93572 0
M  V30 1196 C 112.562 0.691503 3.40346 0
M  V30 1197 C 111.516 1.73132 3.9142 0
M  V30 1198 C 110.842 1.20049 5.21049 0
M  V30 1199 C 112.142 3.1294 4.1817 0
M  V30 1200 H 113.836 2.00873 2.22014 0
M  V30 1201 H 111.382 0.967191 1.06684 0
M  V30 1202 H 113.335 0.556505 4.17709 0
M  V30 1203 H 112.059 -0.275819 3.25433 0
M  V30 1204 H 110.718 1.8547 3.16222 0
M  V30 1205 H 110.366 0.223499 5.02503 0
M  V30 1206 H 110.066 1.89545 5.56189 0
M  V30 1207 H 111.59 1.07782 6.01012 0
M  V30 1208 H 113.004 3.03775 4.86203 0
M  V30 1209 H 111.401 3.79875 4.64559 0
M  V30 1210 H 112.471 3.6025 3.24573 0
M  V30 1211 N 113.814 -1.1601 1.06675 0
M  V30 1212 C 114.762 -2.22586 0.675157 0
M  V30 1213 C 115.756 -1.66525 -0.310766 0
M  V30 1214 O 116.962 -1.79145 -0.175215 0
M  V30 1215 H 113.337 -0.724855 0.200223 0
M  V30 1216 H 115.308 -2.52899 1.58381 0
M  V30 1217 C 114.057 -3.47604 0.0817162 0
M  V30 1218 H 113.38 -3.91058 0.831484 0
M  V30 1219 H 114.82 -4.23718 -0.154708 0
M  V30 1220 C 113.279 -3.15718 -1.17576 0
M  V30 1221 O 113.809 -3.31878 -2.26318 0
M  V30 1222 N 112.015 -2.69816 -1.07923 0
M  V30 1223 H 111.562 -2.56866 -0.194293 0
M  V30 1224 H 111.52 -2.48855 -1.92141 0
M  V30 1225 N 115.292 -0.849877 -1.32721 0
M  V30 1226 C 116.569 -0.372405 -1.92022 0
M  V30 1227 C 116.949 1.1435 -1.77447 0
M  V30 1228 O 116.297 1.96296 -1.16962 0
M  V30 1229 C 116.507 -0.831482 -3.3895 0
M  V30 1230 C 117.855 -0.845882 -4.16089 0
M  V30 1231 O 118.879 -0.775806 -3.47649 0
M  V30 1232 O 117.738 -0.943753 -5.38289 0
M  V30 1233 H 114.832 -0.107667 -0.819961 0
M  V30 1234 H 117.378 -0.93646 -1.41522 0
M  V30 1235 H 116.15 -1.87448 -3.4348 0
M  V30 1236 H 115.773 -0.24461 -3.96847 0
M  V30 1237 N 116.77 1.45427 -0.607355 0
M  V30 1238 C 118.047 1.9557 -0.0344566 0
M  V30 1239 C 118.427 1.54979 1.43334 0
M  V30 1240 O 117.775 0.812241 2.13576 0
M  V30 1241 C 117.985 3.48226 -0.232321 0
M  V30 1242 C 119.333 4.2445 -0.113001 0
M  V30 1243 O 120.357 3.55829 -0.162431 0
M  V30 1244 O 119.216 5.465 0.00209442 0
M  V30 1245 H 116.31 0.826222 0.0358667 0
M  V30 1246 H 118.856 1.55594 -0.6774 0
M  V30 1247 H 117.628 3.70739 -1.25174 0
M  V30 1248 H 117.251 3.95092 0.445896 0
M  V30 1249 N 118.248 0.346503 1.53744 0
M  V30 1250 C 119.494 -0.242135 2.01954 0
M  V30 1251 C 119.849 -1.47962 1.22984 0
M  V30 1252 O 119.142 -1.89077 0.309924 0
M  V30 1253 C 119.336 -0.605809 3.52228 0
M  V30 1254 C 119.165 0.594882 4.45748 0
M  V30 1255 C 117.935 1.1011 4.93157 0
M  V30 1256 C 120.133 1.45425 4.93311 0
M  V30 1257 N 118.115 2.26381 5.70636 0
M  V30 1258 C 119.486 2.46383 5.68942 0
M  V30 1259 C 121.541 1.47935 4.75415 0
M  V30 1260 C 120.244 3.49684 6.28581 0
M  V30 1261 C 122.27 2.50119 5.35905 0
M  V30 1262 C 121.632 3.49803 6.11406 0
M  V30 1263 H 117.731 -0.0518296 0.780281 0
M  V30 1264 H 120.315 0.486736 1.88518 0
M  V30 1265 H 118.486 -1.30378 3.65864 0
M  V30 1266 H 120.218 -1.17789 3.87179 0
M  V30 1267 H 116.973 0.668721 4.68855 0
M  V30 1268 H 117.397 2.85094 6.14044 0
M  V30 1269 H 122.039 0.722274 4.16585 0
M  V30 1270 H 119.757 4.26285 6.86518 0
M  V30 1271 H 123.343 2.52892 5.23963 0
M  V30 1272 H 122.223 4.27576 6.5738 0
M  V30 1273 N 119.726 -1.57421 0.075193 0
M  V30 1274 C 120.956 -1.97659 -0.601203 0
M  V30 1275 C 121.364 -0.952427 -1.63479 0
M  V30 1276 O 120.707 0.0688241 -1.83571 0
M  V30 1277 C 120.769 -3.34218 -1.32434 0
M  V30 1278 C 120.433 -4.5484 -0.443826 0
M  V30 1279 C 121.43 -5.19034 0.299969 0
M  V30 1280 C 119.115 -5.00952 -0.367709 0
M  V30 1281 C 121.109 -6.27695 1.10807 0
M  V30 1282 C 118.796 -6.09484 0.444058 0
M  V30 1283 C 119.794 -6.72719 1.18061 0
M  V30 1284 O 119.482 -7.79161 1.97898 0
M  V30 1285 H 119.214 -0.65494 -0.167422 0
M  V30 1286 H 121.768 -2.04886 0.145157 0
M  V30 1287 H 119.998 -3.23615 -2.11685 0
M  V30 1288 H 121.687 -3.59038 -1.89331 0
M  V30 1289 H 122.453 -4.84351 0.250776 0
M  V30 1290 H 118.332 -4.51509 -0.930638 0
M  V30 1291 H 121.876 -6.76982 1.68347 0
M  V30 1292 H 117.773 -6.43601 0.494803 0
M  V30 1293 H 118.541 -7.96055 1.90367 0
M  V30 1294 N 121.204 0.198386 -1.56346 0
M  V30 1295 C 122.134 1.24865 -1.9731 0
M  V30 1296 C 123.115 1.47651 -0.844576 0
M  V30 1297 O 124.3 1.59444 -1.10866 0
M  V30 1298 C 121.43 2.59358 -2.30977 0
M  V30 1299 C 120.384 2.5119 -3.46537 0
M  V30 1300 C 119.71 3.89926 -3.65871 0
M  V30 1301 C 121.01 2.03977 -4.80823 0
M  V30 1302 H 122.704 0.908252 -2.85291 0
M  V30 1303 H 120.25 0.435462 -1.37258 0
M  V30 1304 H 122.203 3.33011 -2.58228 0
M  V30 1305 H 120.927 2.95132 -1.39874 0
M  V30 1306 H 119.586 1.79993 -3.19371 0
M  V30 1307 H 119.234 4.23046 -2.72105 0
M  V30 1308 H 118.934 3.85336 -4.4361 0
M  V30 1309 H 120.458 4.65205 -3.95495 0
M  V30 1310 H 121.872 2.67386 -5.07127 0
M  V30 1311 H 120.269 2.10397 -5.62008 0
M  V30 1312 H 121.339 0.992861 -4.74626 0
M  V30 1313 N 122.682 1.50554 0.465978 0
M  V30 1314 C 123.629 1.6979 1.56333 0
M  V30 1315 C 124.599 0.539239 1.57103 0
M  V30 1316 O 125.784 0.770401 1.74555 0
M  V30 1317 C 122.924 1.80273 2.94271 0
M  V30 1318 C 122.037 3.07674 3.0325 0
M  V30 1319 C 121.172 3.08922 4.32135 0
M  V30 1320 C 120.211 4.30755 4.34875 0
M  V30 1321 N 119.348 4.29714 5.55239 0
M  V30 1322 H 124.188 2.63472 1.39235 0
M  V30 1323 H 121.725 1.30602 0.676873 0
M  V30 1324 H 123.683 1.84332 3.74269 0
M  V30 1325 H 122.313 0.900258 3.09992 0
M  V30 1326 H 121.365 3.13062 2.16094 0
M  V30 1327 H 122.677 3.97642 3.01135 0
M  V30 1328 H 121.831 3.11738 5.20485 0
M  V30 1329 H 120.57 2.16792 4.36866 0
M  V30 1330 H 119.575 4.28146 3.44922 0
M  V30 1331 H 120.8 5.24117 4.31831 0
M  V30 1332 H 118.746 3.4044 5.60746 0
M  V30 1333 H 118.663 5.13456 5.54886 0
M  V30 1334 H 119.931 4.36683 6.457 0
M  V30 1335 N 124.16 -0.719506 1.40217 0
M  V30 1336 C 125.39 -1.50646 1.41384 0
M  V30 1337 C 125.798 -1.89197 0.0107743 0
M  V30 1338 O 125.141 -1.55709 -0.974708 0
M  V30 1339 C 125.203 -2.81405 2.23722 0
M  V30 1340 C 124.867 -2.65199 3.72181 0
M  V30 1341 C 125.864 -2.32717 4.64907 0
M  V30 1342 C 123.549 -2.81586 4.1595 0
M  V30 1343 C 125.543 -2.16827 5.99387 0
M  V30 1344 C 123.23 -2.65313 5.50502 0
M  V30 1345 C 124.228 -2.32981 6.42035 0
M  V30 1346 O 123.916 -2.16827 7.74107 0
M  V30 1347 H 123.648 -0.471606 0.484318 0
M  V30 1348 H 126.202 -0.895456 1.84853 0
M  V30 1349 H 124.432 -3.44823 1.75026 0
M  V30 1350 H 126.121 -3.43102 2.16878 0
M  V30 1351 H 126.887 -2.19694 4.32388 0
M  V30 1352 H 122.766 -3.0574 3.45027 0
M  V30 1353 H 126.31 -1.91513 6.70797 0
M  V30 1354 H 122.207 -2.7792 5.82607 0
M  V30 1355 H 122.975 -2.31778 7.84998 0
M  V30 1356 N 125.638 -1.25649 -0.95132 0
M  V30 1357 C 126.887 -1.09988 -1.69073 0
M  V30 1358 C 127.2 0.358355 -1.92289 0
M  V30 1359 O 128.406 0.635466 -2.63958 0
M  V30 1360 C 126.862 -1.92012 -3.044 0
M  V30 1361 C 126.47 -3.42347 -2.88968 0
M  V30 1362 C 128.214 -1.8493 -3.82101 0
M  V30 1363 C 126.121 -4.16655 -4.19705 0
M  V30 1364 H 125.051 -0.407993 -0.63408 0
M  V30 1365 H 127.702 -1.49873 -1.05879 0
M  V30 1366 H 126.084 -1.44952 -3.68517 0
M  V30 1367 H 127.258 -3.97104 -2.33762 0
M  V30 1368 H 125.573 -3.50557 -2.24719 0
M  V30 1369 H 128.17 -2.37739 -4.78941 0
M  V30 1370 H 128.513 -0.817883 -4.08187 0
M  V30 1371 H 129.046 -2.29758 -3.2474 0
M  V30 1372 H 125.785 -5.20224 -3.98807 0
M  V30 1373 H 125.305 -3.66681 -4.74663 0
M  V30 1374 H 126.984 -4.24551 -4.88227 0
M  V30 1375 N 127.117 1.15442 -1.07289 0
M  V30 1376 C 128.345 1.90096 -0.81676 0
M  V30 1377 C 128.76 1.7798 0.629966 0
M  V30 1378 O 128.117 1.1313 1.43206 0
M  V30 1379 C 128.168 3.40466 -1.21512 0
M  V30 1380 O 127.889 3.52232 -2.60508 0
M  V30 1381 C 129.39 4.32145 -0.988198 0
M  V30 1382 H 126.61 0.602495 -0.295366 0
M  V30 1383 H 129.154 1.4627 -1.42918 0
M  V30 1384 H 127.309 3.81958 -0.647039 0
M  V30 1385 H 127.723 4.45549 -2.76742 0
M  V30 1386 H 129.197 5.36072 -1.31645 0
M  V30 1387 H 129.674 4.39135 0.0755063 0
M  V30 1388 H 130.28 3.96395 -1.54115 0
M  V30 1389 N 128.595 0.856903 1.32268 0
M  V30 1390 C 129.525 0.31858 2.31316 0
M  V30 1391 C 130.506 -0.583487 1.59779 0
M  V30 1392 O 131.691 -0.503259 1.87566 0
M  V30 1393 C 128.821 -0.491979 3.43798 0
M  V30 1394 C 127.775 0.315849 4.26833 0
M  V30 1395 C 127.101 -0.619586 5.31098 0
M  V30 1396 C 128.401 1.54282 4.98993 0
M  V30 1397 H 130.095 1.14621 2.76591 0
M  V30 1398 H 127.641 0.552613 1.32974 0
M  V30 1399 H 129.594 -0.879012 4.1213 0
M  V30 1400 H 128.318 -1.35299 2.97257 0
M  V30 1401 H 126.977 0.684664 3.6015 0
M  V30 1402 H 126.625 -1.47751 4.8081 0
M  V30 1403 H 126.325 -0.0830621 5.87541 0
M  V30 1404 H 127.849 -1.00375 6.02293 0
M  V30 1405 H 129.263 1.22796 5.59995 0
M  V30 1406 H 127.66 2.01745 5.65172 0
M  V30 1407 H 128.73 2.30285 4.26728 0
M  V30 1408 N 130.073 -1.45103 0.615059 0
M  V30 1409 C 131.02 -2.30586 -0.0993978 0
M  V30 1410 C 131.99 -1.42544 -0.852669 0
M  V30 1411 O 133.175 -1.71465 -0.836917 0
M  V30 1412 C 130.315 -3.27572 -1.08583 0
M  V30 1413 C 129.428 -4.30717 -0.332656 0
M  V30 1414 C 128.563 -5.14807 -1.30947 0
M  V30 1415 C 127.602 -6.09673 -0.544538 0
M  V30 1416 N 126.739 -6.86517 -1.47101 0
M  V30 1417 H 131.579 -2.91144 0.635542 0
M  V30 1418 H 129.116 -1.4346 0.325206 0
M  V30 1419 H 131.074 -3.82276 -1.67095 0
M  V30 1420 H 129.704 -2.68751 -1.78809 0
M  V30 1421 H 128.756 -3.78615 0.368107 0
M  V30 1422 H 130.068 -4.98102 0.263842 0
M  V30 1423 H 129.222 -5.73948 -1.96643 0
M  V30 1424 H 127.961 -4.47458 -1.9399 0
M  V30 1425 H 126.966 -5.49656 0.126003 0
M  V30 1426 H 128.191 -6.79052 0.080947 0
M  V30 1427 H 126.137 -6.21851 -2.08895 0
M  V30 1428 H 126.054 -7.50281 -0.928137 0
M  V30 1429 H 127.322 -7.50194 -2.11731 0
M  V30 1430 N 131.551 -0.354651 -1.53558 0
M  V30 1431 C 132.779 0.239515 -2.05509 0
M  V30 1432 C 133.194 1.4333 -1.2289 0
M  V30 1433 O 132.551 1.80538 -0.266899 0
M  V30 1434 C 132.602 0.643719 -3.55723 0
M  V30 1435 O 132.323 -0.502602 -4.35207 0
M  V30 1436 C 133.824 1.29743 -4.23889 0
M  V30 1437 H 131.044 0.0442697 -0.669538 0
M  V30 1438 H 133.588 -0.509856 -1.98042 0
M  V30 1439 H 131.743 1.34302 -3.63376 0
M  V30 1440 H 132.157 -0.178172 -5.24197 0
M  V30 1441 H 133.631 1.53091 -5.30346 0
M  V30 1442 H 134.108 2.25441 -3.76926 0
M  V30 1443 H 134.714 0.639865 -4.20459 0
M  V30 1444 N 133.029 1.57378 -0.0835403 0
M  V30 1445 C 134.44 1.81261 0.447358 0
M  V30 1446 C 134.791 0.998331 1.68902 0
M  V30 1447 O 133.916 0.224282 2.15235 0
M  V30 1448 C 134.511 3.28767 0.818386 0
M  V30 1449 C 133.07 3.53455 1.29409 0
M  V30 1450 C 132.217 2.75831 0.285024 0
M  V30 1451 H 135.168 1.5566 -0.309115 0
M  V30 1452 H 135.189 3.41459 1.67887 0
M  V30 1453 H 134.701 3.88006 -0.0855019 0
M  V30 1454 H 132.802 2.99534 2.21608 0
M  V30 1455 H 132.915 4.62128 1.2639 0
M  V30 1456 H 131.279 2.42947 0.764767 0
M  V30 1457 H 132.062 3.37813 -0.611341 0
M  V30 1458 N 134.507 -0.190092 1.56449 0
M  V30 1459 C 135.457 -1.23977 1.91347 0
M  V30 1460 C 136.441 -1.40747 0.779693 0
M  V30 1461 O 137.633 -1.43033 1.04262 0
M  V30 1462 C 134.762 -2.58347 2.26079 0
M  V30 1463 C 133.848 -2.4535 3.45925 0
M  V30 1464 N 134.239 -2.02039 4.63696 0
M  V30 1465 C 132.537 -2.76229 3.50162 0
M  V30 1466 C 133.238 -2.01053 5.4585 0
M  V30 1467 N 132.214 -2.42747 4.8639 0
M  V30 1468 H 136.016 -0.896318 2.79899 0
M  V30 1469 H 133.53 -0.398496 1.57435 0
M  V30 1470 H 135.527 -3.34173 2.49267 0
M  V30 1471 H 134.187 -2.93512 1.38856 0
M  V30 1472 H 135.198 -1.7267 4.88268 0
M  V30 1473 H 131.875 -3.15556 2.73369 0
M  V30 1474 H 133.265 -1.69426 6.50188 0
M  V30 1475 N 135.985 -1.50799 -0.457987 0
M  V30 1476 C 137.233 -1.62121 -1.2067 0
M  V30 1477 C 137.554 -0.329793 -1.92191 0
M  V30 1478 O 136.824 0.653409 -1.84682 0
M  V30 1479 H 135.404 -0.597441 -0.448411 0
M  V30 1480 H 138.066 -1.87637 -0.527096 0
M  V30 1481 H 137.162 -2.43882 -1.94751 0
M  V30 1482 N 137.463 0.71206 -1.40597 0
M  V30 1483 C 138.74 1.46536 -1.29563 0
M  V30 1484 C 139.12 2.10931 0.0844217 0
M  V30 1485 O 138.468 2.00418 1.0975 0
M  V30 1486 C 138.678 2.49821 -2.43701 0
M  V30 1487 C 140.026 3.15551 -2.841 0
M  V30 1488 O 141.05 2.60142 -2.4332 0
M  V30 1489 O 139.909 4.15867 -3.54566 0
M  V30 1490 H 137.003 0.651801 -0.509004 0
M  V30 1491 H 139.549 0.743935 -1.52524 0
M  V30 1492 H 138.321 2.00778 -3.35863 0
M  V30 1493 H 137.944 3.29495 -2.22528 0
M  V30 1494 N 138.941 1.26152 0.944643 0
M  V30 1495 C 140.171 1.14094 1.72239 0
M  V30 1496 C 140.579 -0.306931 1.86694 0
M  V30 1497 O 139.922 -1.22222 1.3714 0
M  V30 1498 C 139.984 1.73316 3.14963 0
M  V30 1499 C 139.648 3.2239 3.23904 0
M  V30 1500 C 140.645 4.19252 3.07447 0
M  V30 1501 C 138.33 3.62788 3.47405 0
M  V30 1502 C 140.324 5.54491 3.14353 0
M  V30 1503 C 138.011 4.98162 3.53947 0
M  V30 1504 C 139.009 5.93823 3.37436 0
M  V30 1505 O 138.697 7.26732 3.43679 0
M  V30 1506 H 138.429 0.398292 0.546205 0
M  V30 1507 H 140.983 1.67201 1.19301 0
M  V30 1508 H 139.213 1.14667 3.69308 0
M  V30 1509 H 140.902 1.56214 3.74636 0
M  V30 1510 H 141.668 3.8938 2.8915 0
M  V30 1511 H 137.547 2.88816 3.59313 0
M  V30 1512 H 141.091 6.29137 3.01384 0
M  V30 1513 H 136.988 5.27695 3.71763 0
M  V30 1514 H 137.756 7.3496 3.60245 0
M  V30 1515 N 140.419 -1.14872 1.07899 0
M  V30 1516 C 141.668 -1.85135 0.800499 0
M  V30 1517 C 141.981 -1.83547 -0.676014 0
M  V30 1518 O 143.187 -2.49548 -1.06948 0
M  V30 1519 C 141.643 -3.3231 1.38197 0
M  V30 1520 C 141.251 -3.42329 2.8899 0
M  V30 1521 C 142.995 -4.0772 1.18174 0
M  V30 1522 C 140.902 -4.83684 3.403 0
M  V30 1523 H 139.832 -0.693563 0.29578 0
M  V30 1524 H 142.483 -1.29532 1.29976 0
M  V30 1525 H 140.865 -3.87618 0.810431 0
M  V30 1526 H 142.039 -2.97097 3.52236 0
M  V30 1527 H 140.354 -2.80369 3.07867 0
M  V30 1528 H 142.951 -5.12049 1.5398 0
M  V30 1529 H 143.294 -4.16124 0.12117 0
M  V30 1530 H 143.827 -3.58696 1.71994 0
M  V30 1531 H 140.566 -4.80465 4.45907 0
M  V30 1532 H 140.086 -5.29474 2.81811 0
M  V30 1533 H 141.765 -5.52558 3.36584 0
M  V30 1534 N 141.898 -0.863906 -1.31812 0
M  V30 1535 C 142.808 -0.318461 -2.32428 0
M  V30 1536 C 143.824 0.568496 -1.64451 0
M  V30 1537 O 145 0.46666 -1.95919 0
M  V30 1538 C 142.065 0.476355 -3.43412 0
M  V30 1539 C 141.126 -0.43784 -4.27061 0
M  V30 1540 C 140.359 0.319138 -5.32745 0
M  V30 1541 O 140.582 1.54799 -5.48993 0
M  V30 1542 O 139.516 -0.319861 -6.01049 0
M  V30 1543 H 143.342 -1.15229 -2.80991 0
M  V30 1544 H 140.927 -0.627103 -1.35602 0
M  V30 1545 H 142.809 0.927156 -4.11074 0
M  V30 1546 H 141.484 1.28683 -2.97022 0
M  V30 1547 H 140.391 -0.937013 -3.62175 0
M  V30 1548 H 141.724 -1.21375 -4.77 0
M  V30 1549 N 143.376 1.44774 -0.622745 0
M  V30 1550 C 144.623 2.02121 -0.1239 0
M  V30 1551 C 144.951 1.48915 1.25118 0
M  V30 1552 O 144.206 0.660045 1.84233 0
M  V30 1553 C 144.505 3.57364 -0.0508323 0
M  V30 1554 C 144.171 4.29787 -1.36358 0
M  V30 1555 C 142.833 4.4929 -1.72314 0
M  V30 1556 C 145.185 4.71062 -2.23048 0
M  V30 1557 C 142.513 5.07325 -2.94682 0
M  V30 1558 C 144.865 5.30452 -3.44679 0
M  V30 1559 C 143.529 5.48175 -3.80868 0
M  V30 1560 H 142.799 0.739612 -0.0453381 0
M  V30 1561 H 145.446 1.73648 -0.807389 0
M  V30 1562 H 143.751 3.85202 0.715991 0
M  V30 1563 H 145.448 3.99456 0.351533 0
M  V30 1564 H 142.038 4.14932 -1.07375 0
M  V30 1565 H 146.222 4.55715 -1.96565 0
M  V30 1566 H 141.478 5.19235 -3.22809 0
M  V30 1567 H 145.652 5.61385 -4.12092 0
M  V30 1568 H 143.279 5.92912 -4.75773 0
M  V30 1569 N 144.854 0.36279 1.53368 0
M  V30 1570 C 146.265 -0.117022 1.86333 0
M  V30 1571 C 146.616 -1.48397 1.28347 0
M  V30 1572 O 145.741 -2.07787 0.604428 0
M  V30 1573 C 146.336 -0.21912 3.38091 0
M  V30 1574 C 144.895 -0.643184 3.70864 0
M  V30 1575 C 144.042 0.211318 2.76494 0
M  V30 1576 H 146.993 0.581687 1.47655 0
M  V30 1577 H 147.014 -1.04319 3.6592 0
M  V30 1578 H 146.526 0.775902 3.80265 0
M  V30 1579 H 144.627 -1.64654 3.34245 0
M  V30 1580 H 144.74 -0.41973 4.77258 0
M  V30 1581 H 143.104 -0.319367 2.5269 0
M  V30 1582 H 143.887 1.20383 3.21501 0
M  V30 1583 N 146.332 -1.57332 0.0918853 0
M  V30 1584 C 147.572 -1.96117 -0.575988 0
M  V30 1585 C 147.936 -0.972499 -1.65549 0
M  V30 1586 O 149.137 -1.24872 -2.38034 0
M  V30 1587 C 147.408 -3.39407 -1.11973 0
M  V30 1588 S 148.967 -4.00185 -1.79992 0
M  V30 1589 H 145.785 -0.685682 -0.188045 0
M  V30 1590 H 148.387 -1.94755 0.170525 0
M  V30 1591 H 147.091 -4.09131 -0.322504 0
M  V30 1592 H 146.622 -3.44358 -1.90214 0
M  V30 1593 H 148.637 -3.88728 -3.08391 0
M  V30 1594 N 147.81 0.181792 -1.56548 0
M  V30 1595 C 149.04 0.914618 -1.85252 0
M  V30 1596 C 149.448 1.76791 -0.673914 0
M  V30 1597 O 148.791 1.80009 0.366416 0
M  V30 1598 C 148.853 1.85019 -3.08234 0
M  V30 1599 C 148.517 1.17754 -4.41569 0
M  V30 1600 C 149.514 0.548035 -5.17003 0
M  V30 1601 C 147.199 1.17742 -4.88305 0
M  V30 1602 C 149.193 -0.0726128 -6.37359 0
M  V30 1603 C 146.88 0.552946 -6.08593 0
M  V30 1604 C 147.878 -0.070978 -6.82963 0
M  V30 1605 O 147.566 -0.685635 -8.00971 0
M  V30 1606 H 147.298 0.271695 -0.618998 0
M  V30 1607 H 149.852 0.189944 -2.0452 0
M  V30 1608 H 148.082 2.61491 -2.84885 0
M  V30 1609 H 149.771 2.45195 -3.23472 0
M  V30 1610 H 150.537 0.540174 -4.81982 0
M  V30 1611 H 146.416 1.65246 -4.30366 0
M  V30 1612 H 149.96 -0.560213 -6.95347 0
M  V30 1613 H 145.857 0.558354 -6.43081 0
M  V30 1614 H 146.625 -0.58385 -8.16415 0
M  V30 1615 N 149.288 1.51039 0.449983 0
M  V30 1616 C 150.704 1.38934 0.785462 0
M  V30 1617 C 150.904 0.461817 1.96136 0
M  V30 1618 O 149.96 -0.0877389 2.52348 0
M  V30 1619 C 151.273 2.80724 1.0777 0
M  V30 1620 C 152.821 2.89787 1.1829 0
M  V30 1621 C 153.296 4.32457 1.50815 0
M  V30 1622 N 154.787 4.35505 1.57764 0
M  V30 1623 C 155.522 5.42914 1.84477 0
M  V30 1624 N 155.018 6.60502 2.09068 0
M  V30 1625 N 156.811 5.3038 1.86155 0
M  V30 1626 H 148.962 2.09904 -0.324647 0
M  V30 1627 H 151.225 0.944378 -0.0827957 0
M  V30 1628 H 150.931 3.50531 0.286498 0
M  V30 1629 H 150.805 3.19273 2.00859 0
M  V30 1630 H 153.192 2.20186 1.96474 0
M  V30 1631 H 153.273 2.54752 0.231314 0
M  V30 1632 H 152.917 5.02603 0.731622 0
M  V30 1633 H 152.847 4.64995 2.47158 0
M  V30 1634 H 155.338 3.50724 1.40715 0
M  V30 1635 H 155.651 7.38158 2.28785 0
M  V30 1636 H 153.996 6.63639 2.06416 0
M  V30 1637 H 157.187 4.37505 1.66454 0
M  V30 1638 H 157.36 6.1417 2.06637 0
M  V30 1639 N 150.766 -0.704594 1.40972 0
M  V30 1640 C 152.012 -1.46546 1.41053 0
M  V30 1641 C 152.367 -1.92393 0.0159714 0
M  V30 1642 O 151.66 -1.66017 -0.956506 0
M  V30 1643 C 151.854 -2.698 2.34399 0
M  V30 1644 C 151.683 -2.36008 3.82793 0
M  V30 1645 C 150.453 -2.26812 4.51536 0
M  V30 1646 C 152.651 -1.99565 4.74003 0
M  V30 1647 N 150.633 -1.8581 5.85105 0
M  V30 1648 C 152.004 -1.69251 5.96451 0
M  V30 1649 C 154.059 -1.86296 4.61734 0
M  V30 1650 C 152.762 -1.27003 7.07999 0
M  V30 1651 C 154.788 -1.45452 5.73234 0
M  V30 1652 C 154.15 -1.16043 6.94776 0
M  V30 1653 H 150.249 -0.533896 0.571383 0
M  V30 1654 H 152.833 -0.816061 1.76773 0
M  V30 1655 H 151.004 -3.32473 2.00789 0
M  V30 1656 H 152.736 -3.36214 2.25261 0
M  V30 1657 H 149.491 -2.44913 4.05357 0
M  V30 1658 H 149.915 -1.67817 6.55871 0
M  V30 1659 H 154.557 -2.0769 3.68273 0
M  V30 1660 H 152.275 -1.04353 8.01334 0
M  V30 1661 H 155.861 -1.35748 5.65742 0
M  V30 1662 H 154.741 -0.84915 7.79589 0
M  V30 1663 N 152.244 -1.26651 -0.937939 0
M  V30 1664 C 153.493 -1.11775 -1.67897 0
M  V30 1665 C 153.806 0.33794 -1.92659 0
M  V30 1666 O 155.012 0.607434 -2.64618 0
M  V30 1667 C 153.468 -1.9523 -3.02346 0
M  V30 1668 C 153.076 -3.45393 -2.8532 0
M  V30 1669 C 154.82 -1.88972 -3.80118 0
M  V30 1670 C 152.727 -4.21083 -4.15263 0
M  V30 1671 H 151.657 -0.414696 -0.629717 0
M  V30 1672 H 154.308 -1.50988 -1.04283 0
M  V30 1673 H 152.69 -1.48853 -3.66959 0
M  V30 1674 H 153.864 -3.99561 -2.29537 0
M  V30 1675 H 152.179 -3.52921 -2.20988 0
M  V30 1676 H 154.776 -2.42805 -4.76392 0
M  V30 1677 H 155.119 -0.86113 -4.07296 0
M  V30 1678 H 155.652 -2.33189 -3.22285 0
M  V30 1679 H 152.391 -5.24425 -3.93267 0
M  V30 1680 H 151.911 -3.71695 -4.70747 0
M  V30 1681 H 153.59 -4.29706 -4.83696 0
M  V30 1682 N 153.722 1.14298 -1.08507 0
M  V30 1683 C 154.95 1.89219 -0.836876 0
M  V30 1684 C 155.365 1.78638 0.611054 0
M  V30 1685 O 154.722 1.14643 1.41998 0
M  V30 1686 C 154.773 3.39158 -1.25116 0
M  V30 1687 O 154.494 3.49449 -2.64229 0
M  V30 1688 C 155.995 4.31073 -1.03398 0
M  V30 1689 H 153.215 0.599328 -0.301739 0
M  V30 1690 H 155.759 1.44746 -1.44461 0
M  V30 1691 H 153.914 3.81251 -0.687514 0
M  V30 1692 H 154.328 4.42589 -2.81452 0
M  V30 1693 H 155.802 5.34646 -1.37323 0
M  V30 1694 H 156.279 4.3919 0.0289259 0
M  V30 1695 H 156.885 3.94738 -1.58311 0
M  V30 1696 N 155.201 0.870884 1.31352 0
M  V30 1697 C 156.449 0.48132 1.96285 0
M  V30 1698 C 156.77 -0.969813 1.69173 0
M  V30 1699 O 156.04 -1.67998 1.00764 0
M  V30 1700 H 154.62 0.175002 0.726212 0
M  V30 1701 H 157.282 1.11087 1.60143 0
M  V30 1702 H 156.378 0.639825 3.05471 0
M  V30 1703 N 156.679 -1.44442 0.630414 0
M  V30 1704 C 157.956 -1.9549 0.0655657 0
M  V30 1705 C 158.336 -1.5724 -1.40851 0
M  V30 1706 O 157.684 -0.846116 -2.12257 0
M  V30 1707 C 157.894 -3.47812 0.287691 0
M  V30 1708 C 159.242 -4.24216 0.180513 0
M  V30 1709 O 160.266 -3.55526 0.219019 0
M  V30 1710 O 159.125 -5.46434 0.0848493 0
M  V30 1711 H 156.219 -0.826688 -0.0227177 0
M  V30 1712 H 158.765 -1.54496 0.702068 0
M  V30 1713 H 157.537 -3.687 1.31056 0
M  V30 1714 H 157.16 -3.95751 -0.382984 0
M  V30 1715 N 158.157 -0.370918 -1.53173 0
M  V30 1716 C 159.403 0.217423 -2.01631 0
M  V30 1717 C 159.736 1.47983 -1.25756 0
M  V30 1718 O 159.011 1.91274 -0.352764 0
M  V30 1719 C 159.294 0.503982 -3.56556 0
M  V30 1720 C 159.147 -0.77243 -4.43118 0
M  V30 1721 C 160.466 1.30234 -4.20389 0
M  V30 1722 H 157.585 0.0775486 -0.732909 0
M  V30 1723 H 160.227 -0.496863 -1.83388 0
M  V30 1724 H 158.377 1.11248 -3.72231 0
M  V30 1725 H 160.049 -1.4098 -4.39229 0
M  V30 1726 H 158.292 -1.39167 -4.10871 0
M  V30 1727 H 158.963 -0.526815 -5.4948 0
M  V30 1728 H 161.439 0.787546 -4.08579 0
M  V30 1729 H 160.315 1.47158 -5.28806 0
M  V30 1730 H 160.576 2.31237 -3.76805 0
M  V30 1731 N 159.635 1.57281 -0.100228 0
M  V30 1732 C 160.545 2.17833 0.870965 0
M  V30 1733 C 161.561 1.14921 1.30649 0
M  V30 1734 O 162.737 1.47313 1.37335 0
M  V30 1735 C 159.802 2.75085 2.1102 0
M  V30 1736 C 158.863 3.9297 1.72838 0
M  V30 1737 C 158.096 4.47482 2.90854 0
M  V30 1738 O 158.319 4.00922 4.05731 0
M  V30 1739 O 157.253 5.38433 2.69023 0
M  V30 1740 H 161.079 3.0124 0.38575 0
M  V30 1741 H 158.664 1.48881 0.124397 0
M  V30 1742 H 160.546 3.11656 2.83634 0
M  V30 1743 H 159.221 1.94721 2.58584 0
M  V30 1744 H 158.128 3.61201 0.973883 0
M  V30 1745 H 159.461 4.74713 1.30033 0
M  V30 1746 N 161.113 -0.173488 1.56642 0
M  V30 1747 C 162.359 -0.891784 1.8214 0
M  V30 1748 C 162.692 -1.8199 0.677736 0
M  V30 1749 O 161.967 -1.91842 -0.320446 0
M  V30 1750 C 162.25 -1.68933 3.18015 0
M  V30 1751 C 162.103 -0.784487 4.42906 0
M  V30 1752 C 163.422 -2.65748 3.50808 0
M  V30 1753 H 160.541 -0.322761 0.662567 0
M  V30 1754 H 163.183 -0.158095 1.89341 0
M  V30 1755 H 161.333 -2.31482 3.12007 0
M  V30 1756 H 163.005 -0.172046 4.60979 0
M  V30 1757 H 161.248 -0.0924117 4.33702 0
M  V30 1758 H 161.919 -1.37799 5.34524 0
M  V30 1759 H 164.395 -2.13327 3.57255 0
M  V30 1760 H 163.271 -3.18619 4.4696 0
M  V30 1761 H 163.532 -3.45842 2.75401 0
M  V30 1762 N 162.591 -1.51276 -0.441967 0
M  V30 1763 C 163.837 -1.63958 -1.19355 0
M  V30 1764 C 164.17 -0.352543 -1.90973 0
M  V30 1765 O 163.445 0.647627 -1.83401 0
M  V30 1766 C 163.728 -2.83979 -2.21422 0
M  V30 1767 C 163.581 -4.22646 -1.53918 0
M  V30 1768 C 164.9 -2.99521 -3.22451 0
M  V30 1769 H 162.019 -0.596709 -0.432559 0
M  V30 1770 H 164.661 -1.83748 -0.483398 0
M  V30 1771 H 162.811 -2.67237 -2.81987 0
M  V30 1772 H 164.483 -4.51045 -0.967256 0
M  V30 1773 H 162.726 -4.25558 -0.841615 0
M  V30 1774 H 163.397 -5.02609 -2.28229 0
M  V30 1775 H 165.873 -3.14944 -2.71937 0
M  V30 1776 H 164.749 -3.85072 -3.91166 0
M  V30 1777 H 165.01 -2.11391 -3.88287 0
M  V30 1778 N 164.069 0.697108 -1.41344 0
M  V30 1779 C 164.999 1.82353 -1.45841 0
M  V30 1780 C 165.98 1.67115 -0.317247 0
M  V30 1781 O 167.165 1.86871 -0.528474 0
M  V30 1782 C 164.295 3.20476 -1.33838 0
M  V30 1783 C 163.249 3.50415 -2.4575 0
M  V30 1784 C 162.575 4.87878 -2.18813 0
M  V30 1785 C 163.875 3.49546 -3.88091 0
M  V30 1786 H 165.569 1.78846 -2.40113 0
M  V30 1787 H 163.115 0.859028 -1.15571 0
M  V30 1788 H 165.068 3.98988 -1.35596 0
M  V30 1789 H 163.792 3.24604 -0.360498 0
M  V30 1790 H 162.451 2.74253 -2.43271 0
M  V30 1791 H 162.099 4.8863 -1.19371 0
M  V30 1792 H 161.799 5.08875 -2.93803 0
M  V30 1793 H 163.323 5.68702 -2.22284 0
M  V30 1794 H 164.737 4.18066 -3.92293 0
M  V30 1795 H 163.134 3.82075 -4.62751 0
M  V30 1796 H 164.204 2.48552 -4.16353 0
M  V30 1797 N 165.547 1.27147 0.931209 0
M  V30 1798 C 166.963 1.04475 1.20653 0
M  V30 1799 C 167.163 -0.223885 2.00252 0
M  V30 1800 O 166.219 -0.930332 2.34736 0
M  V30 1801 C 167.532 2.28209 1.95809 0
M  V30 1802 C 169.08 2.33211 2.08762 0
M  V30 1803 C 169.555 3.56665 2.87323 0
M  V30 1804 N 171.046 3.57201 2.94892 0
M  V30 1805 C 171.781 4.49395 3.56134 0
M  V30 1806 N 171.277 5.51889 4.18796 0
M  V30 1807 N 173.07 4.37026 3.53504 0
M  V30 1808 H 165.221 2.08612 0.399333 0
M  V30 1809 H 167.484 0.917312 0.239253 0
M  V30 1810 H 167.19 3.20538 1.44736 0
M  V30 1811 H 167.064 2.33247 2.96438 0
M  V30 1812 H 169.451 1.41391 2.59023 0
M  V30 1813 H 169.532 2.32178 1.07364 0
M  V30 1814 H 169.176 4.4882 2.37746 0
M  V30 1815 H 169.106 3.54948 3.88998 0
M  V30 1816 H 171.597 2.83074 2.50354 0
M  V30 1817 H 171.91 6.18409 4.63454 0
M  V30 1818 H 170.255 5.55735 4.17353 0
M  V30 1819 H 173.446 3.56166 3.03749 0
M  V30 1820 H 173.619 5.09067 4.00942 0
M  V30 1821 N 167.025 -1.13721 1.09112 0
M  V30 1822 C 168.302 -1.81155 0.737706 0
M  V30 1823 C 168.682 -1.96253 -0.777683 0
M  V30 1824 O 168.03 -1.52807 -1.69889 0
M  V30 1825 C 168.24 -3.16392 1.47299 0
M  V30 1826 C 169.588 -3.91787 1.63671 0
M  V30 1827 O 170.612 -3.26005 1.43524 0
M  V30 1828 O 169.471 -5.0977 1.96969 0
M  V30 1829 H 166.565 -0.783518 0.26463 0
M  V30 1830 H 169.111 -1.20676 1.19312 0
M  V30 1831 H 167.883 -3.0061 2.50498 0
M  V30 1832 H 167.506 -3.8457 1.00953 0
M  V30 1833 N 168.503 -0.877838 -1.30888 0
M  V30 1834 C 169.751 -0.491723 -1.96027 0
M  V30 1835 C 170.072 0.960827 -1.69685 0
M  V30 1836 O 169.342 1.67462 -1.01654 0
M  V30 1837 H 167.922 -0.17885 -0.725273 0
M  V30 1838 H 170.584 -1.11935 -1.59551 0
M  V30 1839 H 169.68 -0.656016 -3.05128 0
M  V30 1840 N 169.982 1.44106 -0.638065 0
M  V30 1841 C 171.398 1.56672 -0.304286 0
M  V30 1842 C 171.598 1.6244 1.19228 0
M  V30 1843 O 170.654 1.57121 1.9766 0
M  V30 1844 C 171.967 2.83503 -1.00231 0
M  V30 1845 C 173.515 2.97226 -0.981116 0
M  V30 1846 C 173.99 4.26868 -1.65974 0
M  V30 1847 N 175.481 4.33698 -1.62666 0
M  V30 1848 C 176.216 5.32745 -2.12063 0
M  V30 1849 N 175.712 6.38157 -2.6968 0
M  V30 1850 N 177.505 5.24299 -2.02651 0
M  V30 1851 H 169.656 1.38605 -1.60942 0
M  V30 1852 H 171.919 0.664661 -0.675965 0
M  V30 1853 H 171.625 2.85251 -2.0573 0
M  V30 1854 H 171.499 3.73251 -0.54439 0
M  V30 1855 H 173.886 2.95027 0.0654188 0
M  V30 1856 H 173.967 2.08808 -1.47759 0
M  V30 1857 H 173.611 4.29826 -2.70576 0
M  V30 1858 H 173.541 5.14156 -1.13804 0
M  V30 1859 H 176.032 3.58138 -1.20606 0
M  V30 1860 H 176.345 7.10029 -3.05087 0
M  V30 1861 H 174.69 6.38823 -2.73734 0
M  V30 1862 H 177.881 4.4086 -1.57353 0
M  V30 1863 H 178.054 6.01334 -2.41457 0
M  V30 1864 N 171.46 0.379036 1.52974 0
M  V30 1865 C 172.423 -0.448865 2.24762 0
M  V30 1866 C 173.423 -0.998689 1.26027 0
M  V30 1867 O 174.613 -0.882313 1.50203 0
M  V30 1868 C 171.745 -1.62872 2.99476 0
M  V30 1869 H 172.938 0.179491 2.99362 0
M  V30 1870 H 170.491 0.13096 1.5575 0
M  V30 1871 H 171.226 -2.29479 2.29151 0
M  V30 1872 H 171.011 -1.24128 3.71934 0
M  V30 1873 H 172.501 -2.2151 3.5401 0
M  V30 1874 N 172.938 -1.57226 0.108567 0
M  V30 1875 C 173.885 -2.14756 -0.845481 0
M  V30 1876 C 174.855 -1.06971 -1.27068 0
M  V30 1877 O 176.04 -1.34827 -1.35005 0
M  V30 1878 C 173.18 -2.74298 -2.09415 0
M  V30 1879 C 172.293 -3.96358 -1.71826 0
M  V30 1880 C 171.428 -4.44021 -2.9158 0
M  V30 1881 C 170.467 -5.58637 -2.50181 0
M  V30 1882 N 169.604 -6.01091 -3.62814 0
M  V30 1883 H 174.444 -2.95961 -0.348035 0
M  V30 1884 H 171.981 -1.46226 -0.160106 0
M  V30 1885 H 173.939 -3.06945 -2.82561 0
M  V30 1886 H 172.569 -1.95801 -2.56636 0
M  V30 1887 H 171.621 -3.69939 -0.885947 0
M  V30 1888 H 172.933 -4.79504 -1.37394 0
M  V30 1889 H 172.087 -4.78522 -3.72963 0
M  V30 1890 H 170.826 -3.59803 -3.29231 0
M  V30 1891 H 169.831 -5.23751 -1.67228 0
M  V30 1892 H 171.056 -6.44613 -2.13659 0
M  V30 1893 H 169.002 -5.19817 -4.00158 0
M  V30 1894 H 168.919 -6.79066 -3.32273 0
M  V30 1895 H 170.187 -6.40227 -4.44668 0
M  V30 1896 N 174.416 0.165178 -1.56732 0
M  V30 1897 C 175.346 1.20651 -1.99914 0
M  V30 1898 C 176.327 1.45827 -0.875705 0
M  V30 1899 O 177.512 1.57057 -1.14223 0
M  V30 1900 C 174.642 2.54401 -2.36427 0
M  V30 1901 C 173.596 2.43782 -3.51787 0
M  V30 1902 C 172.922 3.82078 -3.7406 0
M  V30 1903 C 174.222 1.93732 -4.85041 0
M  V30 1904 H 175.916 0.847534 -2.87154 0
M  V30 1905 H 173.462 0.40625 -1.38151 0
M  V30 1906 H 175.415 3.27458 -2.65234 0
M  V30 1907 H 174.139 2.92098 -1.46103 0
M  V30 1908 H 172.798 1.73178 -3.23117 0
M  V30 1909 H 172.446 4.17179 -2.81017 0
M  V30 1910 H 172.146 3.7584 -4.51684 0
M  V30 1911 H 173.67 4.56712 -4.05274 0
M  V30 1912 H 175.084 2.56569 -5.12684 0
M  V30 1913 H 173.481 1.98428 -5.66345 0
M  V30 1914 H 174.551 0.891962 -4.76626 0
M  V30 1915 N 175.894 1.51508 0.433938 0
M  V30 1916 C 176.857 1.72473 1.50949 0
M  V30 1917 C 177.857 0.594725 1.49398 0
M  V30 1918 O 179.047 0.862315 1.5136 0
M  V30 1919 C 176.179 1.78431 2.90474 0
M  V30 1920 H 177.372 2.68467 1.33662 0
M  V30 1921 H 174.925 1.41549 0.662836 0
M  V30 1922 H 175.66 0.842645 3.13161 0
M  V30 1923 H 175.445 2.60558 2.93005 0
M  V30 1924 H 176.935 1.96479 3.68491 0
M  V30 1925 N 177.372 -0.689602 1.41712 0
M  V30 1926 C 178.788 -1.00093 1.24312 0
M  V30 1927 C 178.988 -2.01036 0.136729 0
M  V30 1928 O 178.044 -2.47562 -0.496918 0
M  V30 1929 C 179.357 -1.51985 2.59463 0
M  V30 1930 C 180.905 -1.63838 2.66695 0
M  V30 1931 C 181.38 -2.1913 4.02177 0
M  V30 1932 N 182.871 -2.26483 4.04054 0
M  V30 1933 C 183.606 -2.70306 5.0569 0
M  V30 1934 N 183.102 -3.13691 6.17713 0
M  V30 1935 N 184.895 -2.69923 4.9305 0
M  V30 1936 H 177.046 -0.0210029 2.1239 0
M  V30 1937 H 179.309 -0.0718733 0.945272 0
M  V30 1938 H 179.015 -0.85269 3.41207 0
M  V30 1939 H 178.889 -2.50103 2.82362 0
M  V30 1940 H 181.276 -2.29664 1.85306 0
M  V30 1941 H 181.357 -0.642492 2.476 0
M  V30 1942 H 181.001 -1.53918 4.84016 0
M  V30 1943 H 180.931 -3.19482 4.18615 0
M  V30 1944 H 183.422 -1.95874 3.23174 0
M  V30 1945 H 183.735 -3.45773 6.9113 0
M  V30 1946 H 182.08 -3.11585 6.21241 0
M  V30 1947 H 185.271 -2.35382 4.04614 0
M  V30 1948 H 185.444 -3.03758 5.72394 0
M  V30 1949 N 178.85 -1.27639 -0.924453 0
M  V30 1950 C 180.127 -1.04887 -1.651 0
M  V30 1951 C 180.507 0.415327 -2.06974 0
M  V30 1952 O 179.855 1.39923 -1.80648 0
M  V30 1953 C 180.065 -2.01348 -2.85061 0
M  V30 1954 C 181.413 -2.30899 -3.56329 0
M  V30 1955 O 182.437 -1.99348 -2.95193 0
M  V30 1956 O 181.296 -2.84699 -4.66485 0
M  V30 1957 H 178.39 -0.400083 -0.723784 0
M  V30 1958 H 180.936 -1.38916 -0.974703 0
M  V30 1959 H 179.708 -3.0008 -2.51133 0
M  V30 1960 H 179.331 -1.679 -3.6041 0
M  V30 1961 N 180.328 1.1314 -1.09713 0
M  V30 1962 C 181.605 1.80762 -0.747302 0
M  V30 1963 C 181.985 1.96663 0.767265 0
M  V30 1964 O 181.333 1.53706 1.69076 0
M  V30 1965 C 181.543 3.15606 -1.48975 0
M  V30 1966 C 182.891 3.90914 -1.65746 0
M  V30 1967 O 183.915 3.25239 -1.45251 0
M  V30 1968 O 182.774 5.08718 -1.9967 0
M  V30 1969 H 179.868 0.782103 -0.268782 0
M  V30 1970 H 182.414 1.20041 -1.19951 0
M  V30 1971 H 181.186 2.99278 -2.52088 0
M  V30 1972 H 180.809 3.84029 -1.02991 0
M  V30 1973 N 181.806 0.884767 1.30421 0
M  V30 1974 C 182.738 0.308655 2.27112 0
M  V30 1975 C 183.751 -0.536655 1.53701 0
M  V30 1976 O 184.94 -0.35624 1.74909 0
M  V30 1977 C 182.04 -0.579782 3.33904 0
M  V30 1978 C 181.213 0.236417 4.36761 0
M  V30 1979 C 180.272 -0.582482 5.22966 0
M  V30 1980 O 179.298 -0.00525502 5.692 0
M  V30 1981 N 180.5 -1.89163 5.48815 0
M  V30 1982 H 183.265 1.13964 2.77186 0
M  V30 1983 H 180.826 0.747731 1.43599 0
M  V30 1984 H 182.818 -1.13366 3.88497 0
M  V30 1985 H 181.388 -1.31144 2.83761 0
M  V30 1986 H 180.608 0.97174 3.82035 0
M  V30 1987 H 181.896 0.795924 5.02536 0
M  V30 1988 H 181.294 -2.38352 5.13035 0
M  V30 1989 H 179.851 -2.39296 6.06284 0
M  V30 1990 N 183.284 -1.43765 0.645699 0
M  V30 1991 C 184.533 -2.01116 0.153412 0
M  V30 1992 C 184.846 -1.51493 -1.23731 0
M  V30 1993 O 186.052 -2.01067 -1.8244 0
M  V30 1994 C 184.508 -3.59206 0.223473 0
M  V30 1995 C 184.116 -4.17823 1.61642 0
M  V30 1996 C 185.86 -4.23972 -0.211597 0
M  V30 1997 C 183.767 -5.68183 1.64081 0
M  V30 1998 H 182.697 -0.752093 0.0535891 0
M  V30 1999 H 185.348 -1.6482 0.806633 0
M  V30 2000 H 183.73 -3.92867 -0.497118 0
M  V30 2001 H 184.904 -3.95674 2.36176 0
M  V30 2002 H 183.219 -3.65399 1.99681 0
M  V30 2003 H 185.816 -5.34275 -0.213112 0
M  V30 2004 H 186.159 -3.97352 -1.24165 0
M  V30 2005 H 186.692 -3.95166 0.456988 0
M  V30 2006 H 183.431 -5.99559 2.64971 0
M  V30 2007 H 182.951 -5.9241 0.938611 0
M  V30 2008 H 184.63 -6.32085 1.3812 0
M  V30 2009 N 184.763 -0.387143 -1.52771 0
M  V30 2010 C 185.713 0.465942 -2.23188 0
M  V30 2011 C 186.697 1.03138 -1.23496 0
M  V30 2012 O 187.889 0.957845 -1.48843 0
M  V30 2013 C 185.018 1.59384 -3.04059 0
M  V30 2014 C 184.104 1.04024 -4.11144 0
M  V30 2015 N 184.495 0.211416 -5.05358 0
M  V30 2016 C 182.793 1.31295 -4.26237 0
M  V30 2017 C 183.494 -0.0941698 -5.81624 0
M  V30 2018 N 182.47 0.509207 -5.4121 0
M  V30 2019 H 186.272 -0.173856 -2.93385 0
M  V30 2020 H 183.786 -0.19633 -1.61209 0
M  V30 2021 H 185.783 2.21738 -3.53041 0
M  V30 2022 H 184.443 2.23648 -2.35397 0
M  V30 2023 H 185.454 -0.151151 -5.17679 0
M  V30 2024 H 182.131 1.95679 -3.68803 0
M  V30 2025 H 183.521 -0.765572 -6.67524 0
M  V30 2026 N 186.241 1.57166 -0.116904 0
M  V30 2027 C 187.49 1.94298 0.541407 0
M  V30 2028 C 187.803 1.00236 1.67964 0
M  V30 2029 O 189.009 1.26826 2.40057 0
M  V30 2030 C 187.465 3.45306 1.01449 0
M  V30 2031 C 187.073 4.47899 -0.0951738 0
M  V30 2032 C 188.817 3.91361 1.6443 0
M  V30 2033 C 186.724 5.90083 0.394491 0
M  V30 2034 H 185.654 0.725308 0.206019 0
M  V30 2035 H 188.305 1.82446 -0.196419 0
M  V30 2036 H 186.687 3.52385 1.80667 0
M  V30 2037 H 187.861 4.52486 -0.871374 0
M  V30 2038 H 186.176 4.11583 -0.631505 0
M  V30 2039 H 188.773 4.95004 2.02176 0
M  V30 2040 H 189.116 3.3122 2.52189 0
M  V30 2041 H 189.649 3.87073 0.917559 0
M  V30 2042 H 186.388 6.53974 -0.447004 0
M  V30 2043 H 185.908 5.88921 1.13722 0
M  V30 2044 H 187.587 6.41307 0.856399 0
M  V30 2045 N 187.719 -0.156864 1.56817 0
M  V30 2046 C 188.649 -1.19589 2.00551 0
M  V30 2047 C 189.63 -1.4536 0.883426 0
M  V30 2048 O 190.815 -1.56449 1.15054 0
M  V30 2049 C 187.945 -2.53143 2.37773 0
M  V30 2050 C 186.899 -2.41913 3.53075 0
M  V30 2051 C 186.225 -3.80088 3.76081 0
M  V30 2052 C 187.525 -1.91157 4.86062 0
M  V30 2053 H 189.219 -0.832293 2.87599 0
M  V30 2054 H 186.765 -0.398918 1.38364 0
M  V30 2055 H 188.718 -3.26047 2.66967 0
M  V30 2056 H 187.442 -2.91319 1.4765 0
M  V30 2057 H 186.101 -1.71462 3.24031 0
M  V30 2058 H 185.749 -4.15683 2.83225 0
M  V30 2059 H 185.449 -3.73439 4.53671 0
M  V30 2060 H 186.973 -4.54556 4.0769 0
M  V30 2061 H 188.387 -2.53846 5.14038 0
M  V30 2062 H 186.784 -1.95422 5.67389 0
M  V30 2063 H 187.854 -0.866673 4.77092 0
M  V30 2064 N 189.197 -1.51736 -0.425897 0
M  V30 2065 C 190.144 -1.73875 -1.51776 0
M  V30 2066 C 191.114 -0.580702 -1.55618 0
M  V30 2067 O 192.299 -0.81641 -1.72451 0
M  V30 2068 C 189.439 -1.88012 -2.89388 0
M  V30 2069 C 188.552 -3.15606 -2.94986 0
M  V30 2070 C 187.687 -3.20271 -4.23793 0
M  V30 2071 C 186.726 -4.42134 -4.23302 0
M  V30 2072 N 185.863 -4.44284 -5.43651 0
M  V30 2073 H 190.703 -2.67071 -1.32201 0
M  V30 2074 H 188.24 -1.32351 -0.642008 0
M  V30 2075 H 190.198 -1.9419 -3.69251 0
M  V30 2076 H 188.828 -0.98213 -3.07496 0
M  V30 2077 H 187.88 -3.18681 -2.07717 0
M  V30 2078 H 189.192 -4.05486 -2.90486 0
M  V30 2079 H 188.346 -3.25428 -5.12036 0
M  V30 2080 H 187.085 -2.28299 -4.30965 0
M  V30 2081 H 186.09 -4.3714 -3.3345 0
M  V30 2082 H 187.315 -5.35382 -4.17783 0
M  V30 2083 H 185.261 -3.55188 -5.51523 0
M  V30 2084 H 185.178 -5.27988 -5.41078 0
M  V30 2085 H 186.446 -4.53649 -6.33895 0
M  V30 2086 N 190.675 0.682077 -1.42076 0
M  V30 2087 C 191.607 1.80755 -1.40926 0
M  V30 2088 C 192.62 1.59833 -0.309398 0
M  V30 2089 O 193.809 1.69087 -0.572014 0
M  V30 2090 C 190.909 3.17744 -1.17865 0
M  V30 2091 C 190.082 3.65578 -2.40149 0
M  V30 2092 C 189.141 4.81277 -2.12742 0
M  V30 2093 O 188.167 4.92197 -2.85887 0
M  V30 2094 N 189.369 5.69474 -1.12602 0
M  V30 2095 H 192.134 1.82229 -2.37935 0
M  V30 2096 H 189.695 0.864903 -1.36861 0
M  V30 2097 H 191.687 3.9279 -0.9746 0
M  V30 2098 H 190.257 3.11214 -0.294068 0
M  V30 2099 H 189.477 2.81291 -2.76169 0
M  V30 2100 H 190.765 3.94278 -3.21593 0
M  V30 2101 H 190.163 5.63297 -0.520899 0
M  V30 2102 H 188.72 6.44363 -0.981842 0
M  V30 2103 N 192.153 1.28127 0.917671 0
M  V30 2104 C 193.103 1.08361 2.00604 0
M  V30 2105 C 194.087 0.00847518 1.60898 0
M  V30 2106 O 195.279 0.228167 1.75523 0
M  V30 2107 C 192.408 0.743376 3.35155 0
M  V30 2108 C 191.494 1.85716 3.81275 0
M  V30 2109 N 191.885 3.09822 3.99805 0
M  V30 2110 C 190.183 1.74612 4.10398 0
M  V30 2111 C 190.884 3.82368 4.38372 0
M  V30 2112 N 189.86 3.10192 4.4641 0
M  V30 2113 H 193.662 2.02531 2.12975 0
M  V30 2114 H 191.176 1.18989 1.10523 0
M  V30 2115 H 193.173 0.582859 4.12805 0
M  V30 2116 H 191.833 -0.190595 3.2414 0
M  V30 2117 H 192.844 3.45475 3.85833 0
M  V30 2118 H 189.521 0.883657 4.08041 0
M  V30 2119 H 190.911 4.89082 4.60704 0
M  V30 2120 N 193.631 -1.12557 1.10312 0
M  V30 2121 C 195.047 -1.36036 0.834649 0
M  V30 2122 C 195.247 -1.93946 -0.546539 0
M  V30 2123 O 194.303 -2.16484 -1.29966 0
M  V30 2124 C 195.616 -2.30312 1.9333 0
M  V30 2125 C 197.164 -2.43906 1.9616 0
M  V30 2126 C 197.639 -3.41496 3.05195 0
M  V30 2127 N 199.13 -3.49053 3.04494 0
M  V30 2128 C 199.865 -4.24471 3.85502 0
M  V30 2129 N 199.361 -5.02966 4.76442 0
M  V30 2130 N 201.154 -4.19864 3.73725 0
M  V30 2131 H 193.305 -0.733246 1.99342 0
M  V30 2132 H 195.568 -0.385234 0.866198 0
M  V30 2133 H 195.274 -1.94933 2.92735 0
M  V30 2134 H 195.148 -3.30421 1.81939 0
M  V30 2135 H 197.535 -2.78567 0.973886 0
M  V30 2136 H 197.616 -1.4369 2.11629 0
M  V30 2137 H 197.26 -3.07565 4.04186 0
M  V30 2138 H 197.19 -4.41539 2.86968 0
M  V30 2139 H 199.681 -2.93053 2.38596 0
M  V30 2140 H 199.994 -5.57846 5.34815 0
M  V30 2141 H 198.339 -5.02167 4.80472 0
M  V30 2142 H 201.53 -3.57623 3.02032 0
M  V30 2143 H 201.703 -4.78386 4.37093 0
M  V30 2144 N 195.109 -0.891671 -1.2995 0
M  V30 2145 C 196.525 -0.58662 -1.48428 0
M  V30 2146 C 196.725 0.873951 -1.81561 0
M  V30 2147 O 195.781 1.65471 -1.90724 0
M  V30 2148 C 197.094 -1.50553 -2.60296 0
M  V30 2149 C 198.642 -1.50988 -2.74175 0
M  V30 2150 C 199.117 -2.41488 -3.89163 0
M  V30 2151 N 200.608 -2.39489 -3.96483 0
M  V30 2152 C 201.343 -3.06223 -4.84784 0
M  V30 2153 N 200.839 -3.82206 -5.77833 0
M  V30 2154 N 202.632 -2.95421 -4.78208 0
M  V30 2155 H 194.783 -1.83644 -1.06718 0
M  V30 2156 H 197.046 -0.786455 -0.529332 0
M  V30 2157 H 196.752 -2.54581 -2.42654 0
M  V30 2158 H 196.626 -1.22008 -3.56923 0
M  V30 2159 H 199.013 -0.47708 -2.91218 0
M  V30 2160 H 199.094 -1.83567 -1.78148 0
M  V30 2161 H 198.738 -3.44857 -3.72876 0
M  V30 2162 H 198.668 -2.06222 -4.84541 0
M  V30 2163 H 201.159 -1.84278 -3.29924 0
M  V30 2164 H 201.472 -4.302 -6.41988 0
M  V30 2165 H 199.817 -3.86313 -5.77743 0
M  V30 2166 H 203.008 -2.35581 -4.04499 0
M  V30 2167 H 203.181 -3.47704 -5.46814 0
M  V30 2168 N 196.587 1.43421 -0.653314 0
M  V30 2169 C 197.534 2.30768 0.0382271 0
M  V30 2170 C 198.504 1.44755 0.814576 0
M  V30 2171 O 199.689 1.73624 0.791162 0
M  V30 2172 C 196.829 3.30336 0.998599 0
M  V30 2173 C 195.942 4.31448 0.218342 0
M  V30 2174 C 195.077 5.18098 1.17252 0
M  V30 2175 C 194.116 6.10902 0.382702 0
M  V30 2176 N 193.253 6.90176 1.28848 0
M  V30 2177 H 198.093 2.89357 -0.712511 0
M  V30 2178 H 195.63 1.42548 -0.363128 0
M  V30 2179 H 197.588 3.86572 1.56901 0
M  V30 2180 H 196.218 2.73397 1.71621 0
M  V30 2181 H 195.27 3.77506 -0.46836 0
M  V30 2182 H 196.582 4.97227 -0.395812 0
M  V30 2183 H 195.736 5.7896 1.81356 0
M  V30 2184 H 194.475 4.52444 1.82058 0
M  V30 2185 H 193.48 5.49128 -0.27169 0
M  V30 2186 H 194.705 6.78598 -0.260957 0
M  V30 2187 H 192.651 6.27171 1.92334 0
M  V30 2188 H 192.568 7.52478 0.728887 0
M  V30 2189 H 193.836 7.55543 1.91766 0
M  V30 2190 N 198.065 0.39524 1.52563 0
M  V30 2191 C 198.975 -0.444232 2.30356 0
M  V30 2192 C 199.991 -1.06615 1.37511 0
M  V30 2193 O 201.167 -1.07067 1.70583 0
M  V30 2194 C 198.232 -1.55315 3.09964 0
M  V30 2195 C 197.293 -0.955734 4.18526 0
M  V30 2196 C 196.526 -2.01181 4.9433 0
M  V30 2197 O 196.749 -3.22781 4.70285 0
M  V30 2198 O 195.683 -1.62579 5.79527 0
M  V30 2199 H 199.509 0.189667 3.03107 0
M  V30 2200 H 197.094 0.1588 1.48554 0
M  V30 2201 H 198.976 -2.19724 3.59582 0
M  V30 2202 H 197.651 -2.17191 2.4002 0
M  V30 2203 H 196.558 -0.274743 3.7309 0
M  V30 2204 H 197.891 -0.381109 4.90722 0
M  V30 2205 N 199.544 -1.57102 0.125237 0
M  V30 2206 C 200.474 -2.18659 -0.819174 0
M  V30 2207 C 201.455 -1.12843 -1.27281 0
M  V30 2208 O 202.64 -1.41104 -1.33429 0
M  V30 2209 C 199.77 -2.79096 -2.06695 0
M  V30 2210 C 198.724 -3.90548 -1.75088 0
M  V30 2211 C 198.05 -4.37821 -3.06948 0
M  V30 2212 C 199.35 -5.12356 -1.01435 0
M  V30 2213 H 201.044 -2.9783 -0.306202 0
M  V30 2214 H 198.59 -1.4326 -0.145839 0
M  V30 2215 H 200.543 -3.2082 -2.73226 0
M  V30 2216 H 199.267 -1.97223 -2.60328 0
M  V30 2217 H 197.926 -3.49409 -1.10944 0
M  V30 2218 H 197.574 -3.52799 -3.58527 0
M  V30 2219 H 197.274 -5.12982 -2.86571 0
M  V30 2220 H 198.798 -4.822 -3.74587 0
M  V30 2221 H 200.212 -5.5106 -1.58132 0
M  V30 2222 H 198.609 -5.9314 -0.911319 0
M  V30 2223 H 199.679 -4.849 -0.00218681 0
M  V30 2224 N 201.022 0.148545 -1.56898 0
M  V30 2225 C 201.932 1.20293 -2.01412 0
M  V30 2226 C 202.948 1.47107 -0.929273 0
M  V30 2227 O 204.124 1.58807 -1.23863 0
M  V30 2228 C 201.189 2.51682 -2.38447 0
M  V30 2229 C 200.25 2.32529 -3.60872 0
M  V30 2230 C 199.483 3.57653 -3.96132 0
M  V30 2231 O 199.706 4.63771 -3.32073 0
M  V30 2232 O 198.64 3.50408 -4.89385 0
M  V30 2233 H 202.466 0.855025 -2.91416 0
M  V30 2234 H 200.051 0.357151 -1.45068 0
M  V30 2235 H 201.933 3.29147 -2.63135 0
M  V30 2236 H 200.608 2.86006 -1.51599 0
M  V30 2237 H 199.515 1.53019 -3.41373 0
M  V30 2238 H 200.848 2.03121 -4.48333 0
M  V30 2239 N 202.5 1.5196 0.417844 0
M  V30 2240 C 203.728 1.69426 1.18753 0
M  V30 2241 C 204.143 0.399955 1.84515 0
M  V30 2242 O 203.5 -0.623288 1.71527 0
M  V30 2243 C 203.551 2.82375 2.25714 0
M  V30 2244 O 203.272 4.06793 1.62638 0
M  V30 2245 C 204.773 3.11277 3.15628 0
M  V30 2246 H 201.993 0.568031 0.357186 0
M  V30 2247 H 204.537 1.98475 0.49273 0
M  V30 2248 H 202.692 2.5587 2.90877 0
M  V30 2249 H 203.106 4.69667 2.3348 0
M  V30 2250 H 204.58 3.93843 3.86771 0
M  V30 2251 H 205.057 2.24473 3.77503 0
M  V30 2252 H 205.663 3.39515 2.56144 0
M  V30 2253 N 203.978 -0.674533 1.42435 0
M  V30 2254 C 205.394 -0.98769 1.25367 0
M  V30 2255 C 205.594 -2.00879 0.158044 0
M  V30 2256 O 204.65 -2.48075 -0.470633 0
M  V30 2257 C 205.963 -1.49224 2.6106 0
M  V30 2258 C 207.511 -1.61 2.68417 0
M  V30 2259 C 207.986 -2.14852 4.04478 0
M  V30 2260 N 209.477 -2.22185 4.06434 0
M  V30 2261 C 210.212 -2.64928 5.08528 0
M  V30 2262 N 209.708 -3.07121 6.21006 0
M  V30 2263 N 211.501 -2.64679 4.95885 0
M  V30 2264 H 203.652 0.00152503 2.124 0
M  V30 2265 H 205.915 -0.0618434 0.945981 0
M  V30 2266 H 205.621 -0.816453 3.42092 0
M  V30 2267 H 205.495 -2.47094 2.84999 0
M  V30 2268 H 207.882 -2.27686 1.87732 0
M  V30 2269 H 207.963 -0.616195 2.48267 0
M  V30 2270 H 207.607 -1.48775 4.85622 0
M  V30 2271 H 207.537 -3.15024 4.2198 0
M  V30 2272 H 210.028 -1.92435 3.25234 0
M  V30 2273 H 210.341 -3.38423 6.94759 0
M  V30 2274 H 208.686 -3.04978 6.24511 0
M  V30 2275 H 211.877 -2.31078 4.07088 0
M  V30 2276 H 212.05 -2.9767 5.75584 0
M  V30 2277 N 205.456 -1.28612 -0.910864 0
M  V30 2278 C 206.388 -1.08589 -2.01844 0
M  V30 2279 C 207.401 -0.0367419 -1.62759 0
M  V30 2280 O 208.59 -0.280101 -1.76289 0
M  V30 2281 C 205.69 -0.628626 -3.33019 0
M  V30 2282 C 204.863 -1.75382 -4.00699 0
M  V30 2283 C 203.922 -1.28945 -5.10156 0
M  V30 2284 O 202.948 -1.9922 -5.33198 0
M  V30 2285 N 204.15 -0.154224 -5.80295 0
M  V30 2286 H 206.915 -2.03973 -2.19579 0
M  V30 2287 H 204.476 -1.20403 -1.08234 0
M  V30 2288 H 206.468 -0.301508 -4.03575 0
M  V30 2289 H 205.038 0.232451 -3.11735 0
M  V30 2290 H 204.258 -2.25039 -3.23653 0
M  V30 2291 H 205.546 -2.50854 -4.42662 0
M  V30 2292 H 204.944 0.43194 -5.64049 0
M  V30 2293 H 203.501 0.113599 -6.51701 0
M  V30 2294 N 206.934 1.1197 -1.10907 0
M  V30 2295 C 207.881 2.17846 -0.762345 0
M  V30 2296 C 208.851 1.63995 0.263599 0
M  V30 2297 O 210.036 1.90273 0.141773 0
M  V30 2298 C 207.176 3.44487 -0.205651 0
M  V30 2299 C 206.289 4.12369 -1.28748 0
M  V30 2300 C 205.424 5.26674 -0.691919 0
M  V30 2301 C 204.463 5.86431 -1.75399 0
M  V30 2302 N 203.6 6.92142 -1.17833 0
M  V30 2303 H 208.44 2.46851 -1.6694 0
M  V30 2304 H 205.977 1.21188 -0.833776 0
M  V30 2305 H 207.935 4.16981 0.135037 0
M  V30 2306 H 206.565 3.15884 0.664613 0
M  V30 2307 H 205.617 3.38003 -1.74522 0
M  V30 2308 H 206.929 4.52844 -2.09125 0
M  V30 2309 H 206.083 6.05953 -0.300963 0
M  V30 2310 H 204.822 4.8749 0.143232 0
M  V30 2311 H 203.827 5.05835 -2.15432 0
M  V30 2312 H 205.052 6.27685 -2.59208 0
M  V30 2313 H 202.998 6.54985 -0.364725 0
M  V30 2314 H 202.915 7.31242 -1.91887 0
M  V30 2315 H 204.183 7.75237 -0.81408 0
M  V30 2316 N 208.412 0.89855 1.29475 0
M  V30 2317 C 209.344 0.332726 2.26772 0
M  V30 2318 C 210.357 -0.520323 1.54261 0
M  V30 2319 O 211.546 -0.337668 1.75277 0
M  V30 2320 C 208.646 -0.544334 3.345 0
M  V30 2321 C 207.819 0.282728 4.36485 0
M  V30 2322 C 206.878 -0.526982 5.23555 0
M  V30 2323 O 205.904 0.0551165 5.69173 0
M  V30 2324 N 207.106 -1.83331 5.5079 0
M  V30 2325 H 209.871 1.16897 2.75962 0
M  V30 2326 H 207.432 0.762919 1.42798 0
M  V30 2327 H 209.424 -1.09239 3.89678 0
M  V30 2328 H 207.994 -1.28127 2.85136 0
M  V30 2329 H 207.214 1.01221 3.80983 0
M  V30 2330 H 208.502 0.84918 5.01664 0
M  V30 2331 H 207.9 -2.32898 5.15534 0
M  V30 2332 H 206.457 -2.32852 6.08788 0
M  V30 2333 N 209.89 -1.43072 0.660911 0
M  V30 2334 C 211.12 -2.05769 0.185153 0
M  V30 2335 C 211.528 -1.49668 -1.15742 0
M  V30 2336 O 210.871 -0.625649 -1.72717 0
M  V30 2337 C 210.933 -3.59489 0.0278237 0
M  V30 2338 C 210.597 -4.38212 1.2969 0
M  V30 2339 C 211.594 -4.69772 2.22734 0
M  V30 2340 C 209.279 -4.7809 1.54063 0
M  V30 2341 C 211.273 -5.40129 3.38437 0
M  V30 2342 C 208.96 -5.4819 2.70058 0
M  V30 2343 C 209.958 -5.79132 3.62071 0
M  V30 2344 O 209.646 -6.47798 4.76039 0
M  V30 2345 H 209.378 -0.669873 0.0908086 0
M  V30 2346 H 211.932 -1.84436 0.90402 0
M  V30 2347 H 210.162 -3.79426 -0.746489 0
M  V30 2348 H 211.851 -4.03862 -0.406275 0
M  V30 2349 H 212.617 -4.39476 2.05149 0
M  V30 2350 H 208.496 -4.53408 0.833215 0
M  V30 2351 H 212.04 -5.64198 4.10277 0
M  V30 2352 H 207.937 -5.77902 2.87574 0
M  V30 2353 H 208.705 -6.66283 4.75404 0
M  V30 2354 N 211.368 -0.403325 -1.52352 0
M  V30 2355 C 212.784 -0.0539281 -1.59509 0
M  V30 2356 C 212.984 1.43307 -1.41652 0
M  V30 2357 O 212.04 2.19924 -1.24056 0
M  V30 2358 C 213.353 -0.543654 -2.95745 0
M  V30 2359 C 214.901 -0.501125 -3.08962 0
M  V30 2360 C 215.376 -0.967267 -4.47669 0
M  V30 2361 N 216.867 -0.923849 -4.53893 0
M  V30 2362 C 217.602 -1.25578 -5.5948 0
M  V30 2363 N 217.098 -1.65889 -6.72646 0
M  V30 2364 N 218.891 -1.17613 -5.49658 0
M  V30 2365 H 211.042 -1.37123 -1.62206 0
M  V30 2366 H 213.305 -0.56294 -0.76276 0
M  V30 2367 H 213.011 -1.58275 -3.14073 0
M  V30 2368 H 212.885 0.0498042 -3.77167 0
M  V30 2369 H 215.272 0.528909 -2.90321 0
M  V30 2370 H 215.353 -1.13056 -2.2946 0
M  V30 2371 H 214.997 -1.9956 -4.67053 0
M  V30 2372 H 214.927 -0.314698 -5.25659 0
M  V30 2373 H 217.418 -0.627403 -3.72655 0
M  V30 2374 H 217.731 -1.89543 -7.49195 0
M  V30 2375 H 216.076 -1.69787 -6.73942 0
M  V30 2376 H 219.267 -0.860115 -4.6013 0
M  V30 2377 H 219.44 -1.43812 -6.3184 0
M  V30 2378 N 212.846 1.57033 -0.133567 0
M  V30 2379 C 214.092 1.96764 0.515326 0
M  V30 2380 C 214.447 1.01653 1.63353 0
M  V30 2381 O 213.74 0.0491374 1.91537 0
M  V30 2382 C 213.934 3.40674 1.08057 0
M  V30 2383 C 213.763 4.49696 0.0186522 0
M  V30 2384 C 212.533 5.03567 -0.418174 0
M  V30 2385 C 214.731 5.08536 -0.767809 0
M  V30 2386 N 212.713 5.9618 -1.46434 0
M  V30 2387 C 214.084 5.97231 -1.6648 0
M  V30 2388 C 216.139 4.9115 -0.817087 0
M  V30 2389 C 214.842 6.70401 -2.60681 0
M  V30 2390 C 216.868 5.65012 -1.74687 0
M  V30 2391 C 216.23 6.53403 -2.63141 0
M  V30 2392 H 212.329 0.765919 0.157771 0
M  V30 2393 H 214.913 1.93395 -0.22506 0
M  V30 2394 H 213.084 3.44662 1.79061 0
M  V30 2395 H 214.816 3.67495 1.69497 0
M  V30 2396 H 211.571 4.73594 -0.0229803 0
M  V30 2397 H 211.995 6.47191 -1.98678 0
M  V30 2398 H 216.637 4.22543 -0.147326 0
M  V30 2399 H 214.355 7.38245 -3.28664 0
M  V30 2400 H 217.941 5.53559 -1.79063 0
M  V30 2401 H 216.821 7.09556 -3.33917 0
M  V30 2402 N 214.325 -0.140222 1.56975 0
M  V30 2403 C 215.258 -1.20266 1.93936 0
M  V30 2404 C 216.236 -1.41212 0.806099 0
M  V30 2405 O 217.42 -1.55713 1.06234 0
M  V30 2406 C 214.547 -2.56037 2.21726 0
M  V30 2407 C 213.593 -2.51646 3.44349 0
M  V30 2408 S 214.426 -1.97678 4.97678 0
M  V30 2409 C 215.582 -3.35165 5.28597 0
M  V30 2410 H 215.815 -0.887358 2.83749 0
M  V30 2411 H 213.348 -0.346119 1.50471 0
M  V30 2412 H 215.306 -3.34167 2.38416 0
M  V30 2413 H 213.967 -2.84755 1.32566 0
M  V30 2414 H 213.16 -3.51608 3.61092 0
M  V30 2415 H 212.762 -1.81628 3.26936 0
M  V30 2416 H 215.054 -4.31302 5.2248 0
M  V30 2417 H 215.997 -3.23269 6.30002 0
M  V30 2418 H 216.405 -3.32614 4.56101 0
M  V30 2419 N 215.803 -1.52179 -0.40978 0
M  V30 2420 C 216.713 -1.78364 -1.52392 0
M  V30 2421 C 217.729 -0.669183 -1.60617 0
M  V30 2422 O 218.905 -0.954518 -1.77344 0
M  V30 2423 C 215.97 -1.92822 -2.88133 0
M  V30 2424 C 215.031 -3.16725 -2.898 0
M  V30 2425 C 214.264 -3.30483 -4.19067 0
M  V30 2426 O 214.487 -2.49522 -5.12928 0
M  V30 2427 O 213.421 -4.2363 -4.27576 0
M  V30 2428 H 217.247 -2.72931 -1.33201 0
M  V30 2429 H 214.832 -1.37016 -0.59557 0
M  V30 2430 H 216.714 -2.04157 -3.68643 0
M  V30 2431 H 215.389 -1.01444 -3.07393 0
M  V30 2432 H 214.296 -3.10848 -2.08146 0
M  V30 2433 H 215.629 -4.07881 -2.75489 0
M  V30 2434 N 217.281 0.66697 -1.42791 0
M  V30 2435 C 218.527 1.42754 -1.44889 0
M  V30 2436 C 218.882 1.92283 -0.0669755 0
M  V30 2437 O 218.175 1.68494 0.912154 0
M  V30 2438 C 218.369 2.6349 -2.4147 0
M  V30 2439 C 218.198 2.25776 -3.88915 0
M  V30 2440 C 216.968 2.1476 -4.57391 0
M  V30 2441 C 219.166 1.86927 -4.79127 0
M  V30 2442 N 217.148 1.70232 -5.89826 0
M  V30 2443 C 218.519 1.53378 -6.00729 0
M  V30 2444 C 220.574 1.73989 -4.66511 0
M  V30 2445 C 219.277 1.08187 -7.11117 0
M  V30 2446 C 221.303 1.30203 -5.76889 0
M  V30 2447 C 220.665 0.975818 -6.97608 0
M  V30 2448 H 216.764 0.518559 -0.585338 0
M  V30 2449 H 219.348 0.768906 -1.78874 0
M  V30 2450 H 217.519 3.27033 -2.09533 0
M  V30 2451 H 219.251 3.30123 -2.34096 0
M  V30 2452 H 216.006 2.3408 -4.11708 0
M  V30 2453 H 216.43 1.50369 -6.6009 0
M  V30 2454 H 221.072 1.97853 -3.7365 0
M  V30 2455 H 218.79 0.830701 -8.03819 0
M  V30 2456 H 222.376 1.20701 -5.69142 0
M  V30 2457 H 221.256 0.642157 -7.81566 0
M  V30 2458 N 218.759 1.29093 0.90403 0
M  V30 2459 C 219.707 1.13727 2.02901 0
M  V30 2460 C 220.701 0.0539853 1.69314 0
M  V30 2461 O 221.907 0.213469 1.7873 0
M  V30 2462 H 218.282 0.35117 0.664969 0
M  V30 2463 H 220.253 2.08982 2.13001 0
M  V30 2464 C 219.002 0.826066 3.37745 0
M  V30 2465 H 218.325 1.65164 3.64089 0
M  V30 2466 H 219.765 0.758559 4.17159 0
M  V30 2467 C 218.224 -0.470541 3.33598 0
M  V30 2468 O 218.754 -1.49792 3.72727 0
M  V30 2469 N 216.96 -0.474812 2.86695 0
M  V30 2470 H 216.507 0.361692 2.55048 0
M  V30 2471 H 216.465 -1.34236 2.84303 0
M  V30 2472 N 220.237 -1.11381 1.11499 0
M  V30 2473 C 221.648 -1.6465 0.880191 0
M  V30 2474 C 221.999 -1.87199 -0.587434 0
M  V30 2475 O 221.124 -1.60667 -1.44966 0
M  V30 2476 C 221.719 -2.99105 1.59128 0
M  V30 2477 C 220.278 -3.49279 1.40289 0
M  V30 2478 C 219.425 -2.24077 1.63354 0
M  V30 2479 H 222.376 -0.950123 1.27116 0
M  V30 2480 H 222.397 -3.66107 1.03664 0
M  V30 2481 H 221.909 -2.82661 2.65941 0
M  V30 2482 H 220.01 -3.70887 0.356888 0
M  V30 2483 H 220.123 -4.2803 2.15238 0
M  V30 2484 H 218.487 -2.31733 1.05698 0
M  V30 2485 H 219.27 -2.10175 2.71443 0
M  V30 2486 N 221.715 -0.905404 -1.28997 0
M  V30 2487 C 222.963 -0.533192 -1.9494 0
M  V30 2488 C 223.284 0.924618 -1.71685 0
M  V30 2489 O 222.554 1.65268 -1.05183 0
M  V30 2490 H 221.134 -0.194194 -0.721317 0
M  V30 2491 H 223.796 -1.15294 -1.57141 0
M  V30 2492 H 222.892 -0.72059 -3.03667 0
M  V30 2493 N 223.193 1.4272 -0.668489 0
M  V30 2494 C 224.44 2.01624 -0.18814 0
M  V30 2495 C 224.768 1.5282 1.20317 0
M  V30 2496 O 224.023 0.718323 1.8204 0
M  V30 2497 C 224.322 3.57021 -0.164499 0
M  V30 2498 C 223.988 4.25232 -1.49962 0
M  V30 2499 C 222.65 4.4358 -1.8652 0
M  V30 2500 C 225.002 4.63727 -2.37921 0
M  V30 2501 C 222.33 4.97694 -3.10674 0
M  V30 2502 C 224.682 5.19218 -3.6138 0
M  V30 2503 C 223.346 5.3578 -3.98115 0
M  V30 2504 H 222.616 0.737795 -0.0688454 0
M  V30 2505 H 225.263 1.70991 -0.862225 0
M  V30 2506 H 223.568 3.87285 0.593079 0
M  V30 2507 H 225.265 4.00372 0.224271 0
M  V30 2508 H 221.855 4.11306 -1.20522 0
M  V30 2509 H 226.039 4.4923 -2.10964 0
M  V30 2510 H 221.295 5.08702 -3.39164 0
M  V30 2511 H 225.469 5.4799 -4.29743 0
M  V30 2512 H 223.096 5.77475 -4.94395 0
M  V30 2513 N 224.671 0.411399 1.52136 0
M  V30 2514 C 226.082 -0.0576826 1.86611 0
M  V30 2515 C 226.433 -1.44238 1.33003 0
M  V30 2516 O 225.558 -2.05759 0.670228 0
M  V30 2517 C 226.153 -0.111448 3.38617 0
M  V30 2518 C 224.712 -0.52487 3.72723 0
M  V30 2519 C 223.859 0.299176 2.75681 0
M  V30 2520 H 226.81 0.628368 1.4573 0
M  V30 2521 H 226.831 -0.926252 3.69054 0
M  V30 2522 H 226.343 0.896488 3.77604 0
M  V30 2523 H 224.444 -1.53936 3.39315 0
M  V30 2524 H 224.557 -0.267681 4.78352 0
M  V30 2525 H 222.921 -0.238814 2.53578 0
M  V30 2526 H 223.704 1.3055 3.17508 0
M  V30 2527 N 226.149 -1.5696 0.141893 0
M  V30 2528 C 227.079 -2.19516 -0.795936 0
M  V30 2529 C 228.06 -1.14187 -1.26077 0
M  V30 2530 O 229.245 -1.42511 -1.31925 0
M  V30 2531 C 226.375 -2.81272 -2.03723 0
M  V30 2532 C 225.329 -3.92384 -1.70936 0
M  V30 2533 C 224.655 -4.41052 -3.02287 0
M  V30 2534 C 225.955 -5.13403 -0.959954 0
M  V30 2535 H 227.649 -2.98138 -0.274596 0
M  V30 2536 H 225.195 -1.43406 -0.130636 0
M  V30 2537 H 227.148 -3.237 -2.69808 0
M  V30 2538 H 225.872 -1.99973 -2.58221 0
M  V30 2539 H 224.531 -3.50566 -1.07232 0
M  V30 2540 H 224.179 -3.56582 -3.54765 0
M  V30 2541 H 223.879 -5.15993 -2.81114 0
M  V30 2542 H 225.403 -4.86146 -3.69451 0
M  V30 2543 H 226.817 -5.52706 -1.52279 0
M  V30 2544 H 225.214 -5.94073 -0.848357 0
M  V30 2545 H 226.284 -4.84875 0.0492434 0
M  V30 2546 N 227.627 0.131896 -1.57047 0
M  V30 2547 C 228.852 0.860418 -1.8871 0
M  V30 2548 C 229.277 1.73251 -0.73251 0
M  V30 2549 O 228.635 1.785 0.317429 0
M  V30 2550 C 228.683 1.68047 -3.19049 0
M  V30 2551 O 227.787 2.7862 -3.04047 0
M  V30 2552 H 227.128 0.238743 -0.619595 0
M  V30 2553 H 229.658 0.118169 -2.04258 0
M  V30 2554 H 229.668 2.07238 -3.51449 0
M  V30 2555 H 228.343 1.04018 -4.02682 0
M  V30 2556 H 226.92 2.42726 -2.83088 0
M  V30 2557 N 229.106 1.52395 0.401703 0
M  V30 2558 C 230.355 1.66044 1.14509 0
M  V30 2559 C 230.668 0.400216 1.91462 0
M  V30 2560 O 231.874 0.416632 2.68284 0
M  V30 2561 C 230.33 2.93388 2.0845 0
M  V30 2562 C 229.938 4.26545 1.36978 0
M  V30 2563 C 231.682 3.16402 2.83001 0
M  V30 2564 C 229.589 5.45007 2.29611 0
M  V30 2565 H 228.519 0.618562 0.431158 0
M  V30 2566 H 231.17 1.78886 0.40892 0
M  V30 2567 H 229.552 2.74263 2.8565 0
M  V30 2568 H 230.726 4.56179 0.650916 0
M  V30 2569 H 229.041 4.09692 0.74438 0
M  V30 2570 H 231.638 4.02085 3.52465 0
M  V30 2571 H 231.981 2.30943 3.46368 0
M  V30 2572 H 232.514 3.36034 2.12898 0
M  V30 2573 H 229.253 6.32835 1.70879 0
M  V30 2574 H 228.773 5.19702 2.9945 0
M  V30 2575 H 230.452 5.7838 2.89974 0
M  V30 2576 N 230.584 -0.659388 1.43143 0
M  V30 2577 C 231.861 -1.41627 1.34912 0
M  V30 2578 C 232.241 -2.11099 -0.00607785 0
M  V30 2579 O 231.589 -2.04353 -1.02236 0
M  V30 2580 C 231.799 -2.40604 2.52805 0
M  V30 2581 C 233.147 -3.04789 2.95616 0
M  V30 2582 O 234.171 -2.50932 2.52807 0
M  V30 2583 O 233.03 -4.02421 3.69756 0
M  V30 2584 H 230.124 -0.63246 0.532844 0
M  V30 2585 H 232.67 -0.686814 1.5518 0
M  V30 2586 H 231.442 -1.88174 3.43083 0
M  V30 2587 H 231.065 -3.21009 2.34604 0
M  V30 2588 N 232.062 -1.29571 -0.897171 0
M  V30 2589 C 233.025 -1.14913 -1.98312 0
M  V30 2590 C 234.025 -0.0838629 -1.60581 0
M  V30 2591 O 235.215 -0.331006 -1.71026 0
M  V30 2592 C 232.347 -0.757835 -3.3237 0
M  V30 2593 H 233.54 -2.11377 -2.12743 0
M  V30 2594 H 231.093 -1.12793 -1.08201 0
M  V30 2595 H 231.828 0.206837 -3.2364 0
M  V30 2596 H 231.613 -1.52755 -3.61121 0
M  V30 2597 H 233.103 -0.678408 -4.12053 0
M  V30 2598 N 233.54 1.10788 -1.12088 0
M  V30 2599 C 234.487 2.17025 -0.785407 0
M  V30 2600 C 235.457 1.64265 0.246191 0
M  V30 2601 O 236.642 1.90412 0.121584 0
M  V30 2602 C 233.782 3.44249 -0.242177 0
M  V30 2603 C 232.895 4.1098 -1.33115 0
M  V30 2604 C 232.03 5.25911 -0.747741 0
M  V30 2605 C 231.069 5.84538 -1.81609 0
M  V30 2606 N 230.206 6.90853 -1.25167 0
M  V30 2607 H 235.046 2.45066 -1.69548 0
M  V30 2608 H 232.583 1.20297 -0.846582 0
M  V30 2609 H 234.541 4.17101 0.0908026 0
M  V30 2610 H 233.171 3.16571 0.631072 0
M  V30 2611 H 232.223 3.36133 -1.78097 0
M  V30 2612 H 233.535 4.50601 -2.13917 0
M  V30 2613 H 232.689 6.056 -0.365216 0
M  V30 2614 H 231.428 4.87614 0.0915188 0
M  V30 2615 H 230.433 5.03522 -2.20785 0
M  V30 2616 H 231.658 6.249 -2.6585 0
M  V30 2617 H 229.604 6.54562 -0.434174 0
M  V30 2618 H 229.521 7.29166 -1.99633 0
M  V30 2619 H 230.789 7.7433 -0.896259 0
M  V30 2620 N 235.018 0.912232 1.28515 0
M  V30 2621 C 236.258 0.551677 1.96814 0
M  V30 2622 C 236.622 -0.887825 1.7024 0
M  V30 2623 O 237.823 -1.35588 2.32098 0
M  V30 2624 C 236.094 0.850555 3.47132 0
M  V30 2625 S 237.653 0.59619 4.34731 0
M  V30 2626 H 234.471 0.204191 0.681049 0
M  V30 2627 H 237.073 1.17736 1.56072 0
M  V30 2628 H 235.777 1.8962 3.63968 0
M  V30 2629 H 235.308 0.213471 3.9282 0
M  V30 2630 H 237.323 -0.553154 4.93107 0
M  V30 2631 N 236.496 -1.42363 0.676048 0
M  V30 2632 C 237.446 -2.27987 -0.0242903 0
M  V30 2633 C 238.43 -1.41153 -0.772319 0
M  V30 2634 O 239.622 -1.64592 -0.651025 0
M  V30 2635 C 236.751 -3.29195 -0.973953 0
M  V30 2636 C 235.837 -4.23512 -0.223202 0
M  V30 2637 N 236.228 -4.99865 0.772589 0
M  V30 2638 C 234.526 -4.43606 -0.461469 0
M  V30 2639 C 235.227 -5.68757 1.22027 0
M  V30 2640 N 234.203 -5.40811 0.549975 0
M  V30 2641 H 238.005 -2.84445 0.73949 0
M  V30 2642 H 235.519 -1.54341 0.50522 0
M  V30 2643 H 237.516 -3.89339 -1.49067 0
M  V30 2644 H 236.176 -2.74298 -1.73755 0
M  V30 2645 H 237.187 -5.04921 1.15217 0
M  V30 2646 H 233.864 -3.99749 -1.20446 0
M  V30 2647 H 235.254 -6.40007 2.0455 0
M  V30 2648 N 237.974 -0.419461 -1.51915 0
M  V30 2649 C 238.921 0.400927 -2.27291 0
M  V30 2650 C 239.891 1.03224 -1.30131 0
M  V30 2651 O 241.076 1.05455 -1.59009 0
M  V30 2652 C 238.216 1.50603 -3.10504 0
M  V30 2653 C 237.329 0.89462 -4.22635 0
M  V30 2654 C 236.464 1.97328 -4.93189 0
M  V30 2655 C 235.503 1.33935 -5.97267 0
M  V30 2656 N 234.64 2.3586 -6.61298 0
M  V30 2657 H 239.48 -0.248251 -2.96964 0
M  V30 2658 H 237.017 -0.134266 -1.46486 0
M  V30 2659 H 238.975 2.15783 -3.57062 0
M  V30 2660 H 237.605 2.12509 -2.42981 0
M  V30 2661 H 236.657 0.131583 -3.80172 0
M  V30 2662 H 237.969 0.391641 -4.9726 0
M  V30 2663 H 237.123 2.70211 -5.43204 0
M  V30 2664 H 235.862 2.50994 -4.18155 0
M  V30 2665 H 234.867 0.595896 -5.46561 0
M  V30 2666 H 236.092 0.810252 -6.74249 0
M  V30 2667 H 234.038 2.88639 -5.89087 0
M  V30 2668 H 233.955 1.90403 -7.3163 0
M  V30 2669 H 235.223 3.08282 -7.15949 0
M  V30 2670 N 239.452 1.56882 -0.150215 0
M  V30 2671 C 240.729 1.87844 0.545327 0
M  V30 2672 C 241.109 1.0567 1.82749 0
M  V30 2673 O 240.457 0.144442 2.28043 0
M  V30 2674 C 240.667 3.39526 0.80767 0
M  V30 2675 C 242.015 4.08814 1.14703 0
M  V30 2676 O 243.039 3.44723 0.896917 0
M  V30 2677 O 241.898 5.22004 1.61784 0
M  V30 2678 H 238.992 0.778677 0.278553 0
M  V30 2679 H 241.538 1.68666 -0.187068 0
M  V30 2680 H 240.31 3.91173 -0.0996096 0
M  V30 2681 H 239.933 3.64243 1.59413 0
M  V30 2682 N 240.93 -0.123565 1.57115 0
M  V30 2683 C 241.86 -1.15309 2.03042 0
M  V30 2684 C 242.841 -1.43454 0.914061 0
M  V30 2685 O 244.026 -1.53973 1.18347 0
M  V30 2686 C 241.156 -2.48043 2.43089 0
M  V30 2687 C 240.11 -2.3437 3.58127 0
M  V30 2688 C 239.436 -3.72026 3.84059 0
M  V30 2689 C 240.736 -1.80804 4.90007 0
M  V30 2690 H 242.43 -0.771102 2.893 0
M  V30 2691 H 239.976 -0.369479 1.39179 0
M  V30 2692 H 241.929 -3.20311 2.73823 0
M  V30 2693 H 240.653 -2.88122 1.53796 0
M  V30 2694 H 239.312 -1.64551 3.27595 0
M  V30 2695 H 238.96 -4.09582 2.91979 0
M  V30 2696 H 238.66 -3.63732 4.6149 0
M  V30 2697 H 240.184 -4.45806 4.1724 0
M  V30 2698 H 241.598 -2.42886 5.19307 0
M  V30 2699 H 239.995 -1.83343 5.71407 0
M  V30 2700 H 241.065 -0.76528 4.78823 0
M  V30 2701 N 242.408 -1.52605 -0.393616 0
M  V30 2702 C 243.819 -1.59417 -0.971761 0
M  V30 2703 C 244.17 -0.444173 -1.91106 0
M  V30 2704 O 243.295 0.433382 -2.12016 0
M  V30 2705 C 243.89 -2.88936 -1.76921 0
M  V30 2706 C 242.449 -2.98175 -2.29714 0
M  V30 2707 C 241.596 -2.54491 -1.10135 0
M  V30 2708 H 244.547 -1.57751 -0.173317 0
M  V30 2709 H 244.568 -2.75163 -2.62804 0
M  V30 2710 H 244.08 -3.72616 -1.08532 0
M  V30 2711 H 242.181 -2.19024 -3.01429 0
M  V30 2712 H 242.294 -4.02726 -2.59517 0
M  V30 2713 H 240.658 -2.08702 -1.45999 0
M  V30 2714 H 241.441 -3.4056 -0.432874 0
M  V30 2715 N 243.887 0.651787 -1.4349 0
M  V30 2716 C 245.303 0.96762 -1.26922 0
M  V30 2717 C 245.503 2.00602 -0.189982 0
M  V30 2718 O 244.559 2.48793 0.431107 0
M  V30 2719 C 245.872 1.45052 -2.63401 0
M  V30 2720 C 247.42 1.5671 -2.70945 0
M  V30 2721 C 247.895 2.0839 -4.07845 0
M  V30 2722 N 249.386 2.1569 -4.09917 0
M  V30 2723 C 250.121 2.56804 -5.12679 0
M  V30 2724 N 249.617 2.97203 -6.25813 0
M  V30 2725 N 251.41 2.56756 -5.00033 0
M  V30 2726 H 243.561 -0.0353158 -2.12371 0
M  V30 2727 H 245.824 0.0467858 -0.946845 0
M  V30 2728 H 245.53 0.761926 -3.43348 0
M  V30 2729 H 245.404 2.42529 -2.88894 0
M  V30 2730 H 247.791 2.2467 -1.9133 0
M  V30 2731 H 247.872 0.57662 -2.49216 0
M  V30 2732 H 247.516 1.41031 -4.87927 0
M  V30 2733 H 247.446 3.08271 -4.26938 0
M  V30 2734 H 249.937 1.87237 -3.28254 0
M  V30 2735 H 250.25 3.27328 -7.00055 0
M  V30 2736 H 248.595 2.95004 -6.29283 0
M  V30 2737 H 251.786 2.24572 -4.10713 0
M  V30 2738 H 251.959 2.88475 -5.80247 0
M  V30 2739 N 245.365 1.30045 0.890287 0
M  V30 2740 C 246.642 1.09227 1.62262 0
M  V30 2741 C 247.022 -0.360305 2.08002 0
M  V30 2742 O 246.37 -1.35084 1.84295 0
M  V30 2743 C 246.58 2.08835 2.79623 0
M  V30 2744 C 247.928 2.40266 3.50082 0
M  V30 2745 O 248.952 2.07104 2.89804 0
M  V30 2746 O 247.811 2.96967 4.58773 0
M  V30 2747 H 244.905 0.419132 0.712922 0
M  V30 2748 H 247.451 1.41451 0.937529 0
M  V30 2749 H 246.223 3.06633 2.43089 0
M  V30 2750 H 245.846 1.77397 3.55832 0
M  V30 2751 N 246.843 -1.10192 1.12674 0
M  V30 2752 C 248.092 -1.81573 0.8783 0
M  V30 2753 C 248.405 -1.86249 -0.597557 0
M  V30 2754 O 249.611 -2.5386 -0.962681 0
M  V30 2755 C 248.067 -3.26149 1.52167 0
M  V30 2756 C 247.675 -3.29763 3.03249 0
M  V30 2757 C 249.419 -4.0234 1.3536 0
M  V30 2758 C 247.326 -4.68815 3.60508 0
M  V30 2759 H 246.256 -0.680394 0.324931 0
M  V30 2760 H 248.907 -1.23902 1.35353 0
M  V30 2761 H 247.289 -3.83832 0.974104 0
M  V30 2762 H 248.463 -2.8189 3.6452 0
M  V30 2763 H 246.778 -2.67059 3.19481 0
M  V30 2764 H 249.375 -5.05058 1.75559 0
M  V30 2765 H 249.718 -4.15235 0.297554 0
M  V30 2766 H 250.251 -3.51079 1.87052 0
M  V30 2767 H 246.99 -4.61121 4.65884 0
M  V30 2768 H 246.51 -5.17045 3.04014 0
M  V30 2769 H 248.189 -5.37785 3.59717 0
M  V30 2770 N 248.321 -0.919034 -1.28029 0
M  V30 2771 C 249.253 -0.368762 -2.26214 0
M  V30 2772 C 250.266 0.495716 -1.55069 0
M  V30 2773 O 251.455 0.30974 -1.75792 0
M  V30 2774 C 248.555 0.491049 -3.35324 0
M  V30 2775 C 247.728 -0.352133 -4.3598 0
M  V30 2776 C 246.787 0.443622 -5.24327 0
M  V30 2777 O 245.813 -0.14566 -5.69014 0
M  V30 2778 N 247.015 1.74545 -5.53637 0
M  V30 2779 H 249.78 -1.21273 -2.74068 0
M  V30 2780 H 247.341 -0.785541 -1.41566 0
M  V30 2781 H 249.333 1.03026 -3.91366 0
M  V30 2782 H 247.903 1.23574 -2.87138 0
M  V30 2783 H 247.123 -1.07269 -3.79324 0
M  V30 2784 H 248.411 -0.928883 -5.00249 0
M  V30 2785 H 247.809 2.24666 -5.19174 0
M  V30 2786 H 246.366 2.23138 -6.12416 0
M  V30 2787 N 249.799 1.42003 -0.683588 0
M  V30 2788 C 251.046 2.01413 -0.209514 0
M  V30 2789 C 251.374 1.54088 1.1869 0
M  V30 2790 O 250.629 0.737591 1.81268 0
M  V30 2791 C 250.928 3.56827 -0.202357 0
M  V30 2792 C 250.594 4.23617 -1.54464 0
M  V30 2793 C 249.256 4.41577 -1.91215 0
M  V30 2794 C 251.608 4.61178 -2.42826 0
M  V30 2795 C 248.936 4.9437 -3.15935 0
M  V30 2796 C 251.288 5.15355 -3.66867 0
M  V30 2797 C 249.952 5.31528 -4.03776 0
M  V30 2798 H 249.222 0.737023 -0.0766668 0
M  V30 2799 H 251.869 1.70067 -0.880312 0
M  V30 2800 H 250.174 3.87892 0.551969 0
M  V30 2801 H 251.871 4.00588 0.181793 0
M  V30 2802 H 248.461 4.10004 -1.24877 0
M  V30 2803 H 252.645 4.46968 -2.15717 0
M  V30 2804 H 247.901 5.05076 -3.44541 0
M  V30 2805 H 252.075 5.43402 -4.35531 0
M  V30 2806 H 249.702 5.72199 -5.00492 0
M  V30 2807 N 251.277 0.427512 1.51691 0
M  V30 2808 C 252.554 -0.201684 1.94557 0
M  V30 2809 C 252.934 -1.60981 1.36559 0
M  V30 2810 O 252.282 -2.21814 0.548702 0
M  V30 2811 C 252.492 -0.189394 3.48486 0
M  V30 2812 C 253.84 -0.39978 4.22714 0
M  V30 2813 O 254.864 -0.267945 3.55191 0
M  V30 2814 O 253.723 -0.661249 5.42485 0
M  V30 2815 H 250.817 -0.135261 0.815864 0
M  V30 2816 H 253.363 0.484782 1.62628 0
M  V30 2817 H 252.135 0.795431 3.8313 0
M  V30 2818 H 251.758 -0.919187 3.86829 0
M  V30 2819 N 252.755 -1.56801 0.158532 0
M  V30 2820 C 253.98 -2.01295 -0.499516 0
M  V30 2821 C 254.405 -1.03799 -1.56867 0
M  V30 2822 O 253.763 -0.0155162 -1.81293 0
M  V30 2823 C 253.811 -3.44469 -1.06647 0
M  V30 2824 O 252.915 -3.50012 -2.18095 0
M  V30 2825 H 252.256 -0.652884 -0.12099 0
M  V30 2826 H 254.786 -2.02958 0.258661 0
M  V30 2827 H 254.796 -3.8351 -1.39227 0
M  V30 2828 H 253.471 -4.14932 -0.283581 0
M  V30 2829 H 252.048 -3.22822 -1.86656 0
M  V30 2830 N 254.233 0.115231 -1.57178 0
M  V30 2831 C 255.143 1.15994 -2.03918 0
M  V30 2832 C 256.159 1.45103 -0.960268 0
M  V30 2833 O 257.335 1.56144 -1.27204 0
M  V30 2834 C 254.4 2.46568 -2.43732 0
M  V30 2835 C 253.461 2.24822 -3.65723 0
M  V30 2836 C 252.694 3.4917 -4.03629 0
M  V30 2837 O 252.917 4.56623 -3.41835 0
M  V30 2838 O 251.851 3.39949 -4.96708 0
M  V30 2839 H 255.677 0.793019 -2.93164 0
M  V30 2840 H 253.262 0.3263 -1.45793 0
M  V30 2841 H 255.144 3.23492 -2.70057 0
M  V30 2842 H 253.819 2.82726 -1.57631 0
M  V30 2843 H 252.726 1.45744 -3.44542 0
M  V30 2844 H 254.059 1.93566 -4.52541 0
M  V30 2845 N 255.711 1.52812 0.385517 0
M  V30 2846 C 256.658 1.77838 1.47113 0
M  V30 2847 C 257.628 0.621757 1.54024 0
M  V30 2848 O 258.813 0.861846 1.70226 0
M  V30 2849 C 255.953 1.95618 2.84302 0
M  V30 2850 C 255.066 3.23316 2.86515 0
M  V30 2851 C 254.201 3.31394 4.15152 0
M  V30 2852 C 253.24 4.53201 4.1143 0
M  V30 2853 N 252.377 4.58542 5.3168 0
M  V30 2854 H 257.217 2.70482 1.25073 0
M  V30 2855 H 254.754 1.34006 0.606692 0
M  V30 2856 H 256.712 2.03912 3.63972 0
M  V30 2857 H 255.342 1.06331 3.04784 0
M  V30 2858 H 254.394 3.24076 1.99195 0
M  V30 2859 H 255.706 4.13045 2.79634 0
M  V30 2860 H 254.86 3.3889 5.03228 0
M  V30 2861 H 253.599 2.39645 4.24761 0
M  V30 2862 H 252.604 4.45827 3.21742 0
M  V30 2863 H 253.829 5.46271 4.03442 0
M  V30 2864 H 251.775 3.69686 5.41912 0
M  V30 2865 H 251.692 5.42148 5.26889 0
M  V30 2866 H 252.96 4.70296 6.21644 0
M  V30 2867 N 257.189 -0.644168 1.43834 0
M  V30 2868 C 258.437 -1.40117 1.45642 0
M  V30 2869 C 258.758 -1.94814 0.0852413 0
M  V30 2870 O 258.028 -1.74988 -0.880688 0
M  V30 2871 H 256.608 -0.52005 0.536243 0
M  V30 2872 H 259.27 -0.7591 1.7951 0
M  V30 2873 H 258.366 -2.23902 2.17427 0
M  V30 2874 N 258.668 -1.30515 -0.883378 0
M  V30 2875 C 259.914 -1.19607 -1.63774 0
M  V30 2876 C 260.247 0.248314 -1.92606 0
M  V30 2877 O 259.522 1.17742 -1.54813 0
M  V30 2878 C 259.805 -2.02669 -2.97653 0
M  V30 2879 C 259.658 -3.55335 -2.75784 0
M  V30 2880 C 260.977 -1.86573 -3.98596 0
M  V30 2881 H 258.096 -0.435856 -0.594305 0
M  V30 2882 H 260.738 -1.60165 -1.02212 0
M  V30 2883 H 258.888 -1.68208 -3.50197 0
M  V30 2884 H 260.56 -3.99863 -2.30016 0
M  V30 2885 H 258.803 -3.79438 -2.1026 0
M  V30 2886 H 259.474 -4.08745 -3.70988 0
M  V30 2887 H 261.95 -2.16703 -3.55217 0
M  V30 2888 H 260.826 -2.47014 -4.90179 0
M  V30 2889 H 261.087 -0.825321 -4.34328 0
M  V30 2890 N 260.146 1.09593 -1.13257 0
M  V30 2891 C 261.423 1.78293 -0.804432 0
M  V30 2892 C 261.803 1.99004 0.70431 0
M  V30 2893 O 261.151 1.59007 1.641 0
M  V30 2894 C 261.361 3.10707 -1.5894 0
M  V30 2895 C 262.709 3.85443 -1.78099 0
M  V30 2896 O 263.733 3.20454 -1.55525 0
M  V30 2897 O 262.592 5.02108 -2.15753 0
M  V30 2898 H 259.686 0.773156 -0.293528 0
M  V30 2899 H 262.232 1.16164 -1.23709 0
M  V30 2900 H 261.004 2.91106 -2.61482 0
M  V30 2901 H 260.627 3.80558 -1.15157 0
M  V30 2902 N 261.624 0.925811 1.2754 0
M  V30 2903 C 262.871 0.565255 1.94451 0
M  V30 2904 C 263.199 -0.89316 1.7278 0
M  V30 2905 O 262.454 -1.65213 1.04895 0
M  V30 2906 C 262.753 0.835296 3.47502 0
M  V30 2907 C 262.419 2.27515 3.89291 0
M  V30 2908 C 261.081 2.66879 4.00411 0
M  V30 2909 C 263.433 3.21158 4.10496 0
M  V30 2910 C 260.761 3.99014 4.30122 0
M  V30 2911 C 263.113 4.52871 4.4169 0
M  V30 2912 C 261.777 4.92072 4.51023 0
M  V30 2913 H 261.047 0.206841 0.711546 0
M  V30 2914 H 263.694 1.16942 1.51647 0
M  V30 2915 H 261.999 0.148442 3.91519 0
M  V30 2916 H 263.696 0.535322 3.97411 0
M  V30 2917 H 260.286 1.95976 3.81171 0
M  V30 2918 H 264.47 2.9195 4.01346 0
M  V30 2919 H 259.726 4.2907 4.35556 0
M  V30 2920 H 263.9 5.25436 4.57045 0
M  V30 2921 H 261.527 5.9449 4.738 0
M  V30 2922 N 263.102 -1.41638 0.69111 0
M  V30 2923 C 264.348 -2.01598 0.220519 0
M  V30 2924 C 264.681 -1.54594 -1.17535 0
M  V30 2925 O 263.956 -0.755177 -1.79241 0
M  V30 2926 C 264.239 -3.59062 0.273243 0
M  V30 2927 C 264.092 -4.16203 1.70573 0
M  V30 2928 C 265.411 -4.38546 -0.369457 0
M  V30 2929 H 262.53 -0.732468 0.0816045 0
M  V30 2930 H 265.172 -1.68445 0.878986 0
M  V30 2931 H 263.322 -3.87435 -0.287411 0
M  V30 2932 H 264.994 -3.98722 2.31989 0
M  V30 2933 H 263.237 -3.71414 2.2413 0
M  V30 2934 H 263.908 -5.25358 1.69419 0
M  V30 2935 H 266.384 -4.1596 0.107977 0
M  V30 2936 H 265.26 -5.48069 -0.302002 0
M  V30 2937 H 265.521 -4.17662 -1.44951 0
M  V30 2938 N 264.58 -0.43555 -1.51462 0
M  V30 2939 C 265.51 0.367376 -2.30592 0
M  V30 2940 C 266.491 1.02263 -1.35928 0
M  V30 2941 O 267.676 1.02661 -1.64847 0
M  V30 2942 C 264.806 1.46983 -3.14664 0
M  V30 2943 C 263.76 0.938161 -4.17591 0
M  V30 2944 C 263.086 2.13622 -4.90173 0
M  V30 2945 C 264.386 -0.0261621 -5.22293 0
M  V30 2946 H 266.08 -0.292969 -2.97963 0
M  V30 2947 H 263.626 -0.14234 -1.43295 0
M  V30 2948 H 265.579 2.03873 -3.688 0
M  V30 2949 H 264.303 2.15843 -2.4511 0
M  V30 2950 H 262.962 0.391481 -3.64504 0
M  V30 2951 H 262.61 2.81098 -4.17124 0
M  V30 2952 H 262.31 1.78688 -5.59772 0
M  V30 2953 H 263.834 2.7107 -5.47132 0
M  V30 2954 H 265.248 0.452384 -5.71512 0
M  V30 2955 H 263.645 -0.287992 -5.99409 0
M  V30 2956 H 264.715 -0.963391 -4.75233 0
M  V30 2957 N 266.058 1.56714 -0.166846 0
M  V30 2958 C 267.006 2.19056 0.782123 0
M  V30 2959 C 268 1.15328 1.24079 0
M  V30 2960 O 269.206 1.33537 1.20697 0
M  V30 2961 H 265.581 0.70167 0.270486 0
M  V30 2962 H 267.552 2.97494 0.232322 0
M  V30 2963 C 266.301 2.84206 2.00306 0
M  V30 2964 H 265.624 3.63748 1.65914 0
M  V30 2965 H 267.064 3.31302 2.64604 0
M  V30 2966 C 265.523 1.83744 2.82382 0
M  V30 2967 O 266.053 1.32014 3.79388 0
M  V30 2968 N 264.259 1.52601 2.47308 0
M  V30 2969 H 263.806 1.9486 1.68485 0
M  V30 2970 H 263.764 0.856351 3.02513 0
M  V30 2971 N 267.536 -0.106894 1.57237 0
M  V30 2972 C 268.766 -0.825191 1.89405 0
M  V30 2973 C 269.174 -1.73374 0.757496 0
M  V30 2974 O 268.517 -1.81552 -0.280115 0
M  V30 2975 C 268.579 -1.70102 3.1671 0
M  V30 2976 C 268.243 -0.965523 4.46684 0
M  V30 2977 C 269.24 -0.300741 5.19029 0
M  V30 2978 C 266.925 -0.943105 4.93367 0
M  V30 2979 C 268.919 0.376622 6.36286 0
M  V30 2980 C 266.606 -0.261949 6.10538 0
M  V30 2981 C 267.604 0.396748 6.81847 0
M  V30 2982 O 267.292 1.06701 7.96787 0
M  V30 2983 H 267.024 -0.241852 0.631255 0
M  V30 2984 H 269.578 -0.0921491 2.05193 0
M  V30 2985 H 267.808 -2.47601 2.97036 0
M  V30 2986 H 269.497 -2.29483 3.34802 0
M  V30 2987 H 270.263 -0.309599 4.84011 0
M  V30 2988 H 266.142 -1.44524 4.3776 0
M  V30 2989 H 269.686 0.891334 6.91882 0
M  V30 2990 H 265.583 -0.250896 6.45012 0
M  V30 2991 H 266.351 0.972707 8.127 0
M  V30 2992 N 269.014 -1.53014 -0.377408 0
M  V30 2993 C 270.239 -1.72818 -1.14668 0
M  V30 2994 C 270.664 -0.450725 -1.8262 0
M  V30 2995 O 270.022 0.59439 -1.7128 0
M  V30 2996 C 270.07 -2.88627 -2.16164 0
M  V30 2997 O 269.174 -2.56409 -3.22998 0
M  V30 2998 H 268.515 -0.574301 -0.333278 0
M  V30 2999 H 271.045 -1.99853 -0.438152 0
M  V30 3000 H 271.055 -3.14455 -2.59966 0
M  V30 3001 H 269.73 -3.81294 -1.66095 0
M  V30 3002 H 268.307 -2.4136 -2.84253 0
M  V30 3003 N 270.492 0.636531 -1.44174 0
M  V30 3004 C 271.439 1.74875 -1.50624 0
M  V30 3005 C 272.409 1.62275 -0.35442 0
M  V30 3006 O 273.594 1.82276 -0.563908 0
M  V30 3007 C 270.734 3.13102 -1.45125 0
M  V30 3008 C 269.847 3.36717 -2.7064 0
M  V30 3009 C 268.982 4.64885 -2.57013 0
M  V30 3010 C 268.021 4.8166 -3.77717 0
M  V30 3011 N 267.158 6.01101 -3.62798 0
M  V30 3012 H 271.998 1.68697 -2.45653 0
M  V30 3013 H 269.535 0.823004 -1.21922 0
M  V30 3014 H 271.493 3.93034 -1.39929 0
M  V30 3015 H 270.123 3.18308 -0.536671 0
M  V30 3016 H 269.175 2.50763 -2.86046 0
M  V30 3017 H 270.487 3.44993 -3.60252 0
M  V30 3018 H 269.641 5.52969 -2.49619 0
M  V30 3019 H 268.38 4.58957 -1.64953 0
M  V30 3020 H 267.385 3.92007 -3.85501 0
M  V30 3021 H 268.61 4.89406 -4.70807 0
M  V30 3022 H 266.556 5.96273 -2.73486 0
M  V30 3023 H 266.473 6.10409 -4.46023 0
M  V30 3024 H 267.741 6.91761 -3.59286 0
M  V30 3025 N 271.97 1.30982 0.876444 0
M  V30 3026 C 272.933 1.18054 1.96459 0
M  V30 3027 C 273.933 0.109399 1.60427 0
M  V30 3028 O 275.123 0.358173 1.70478 0
M  V30 3029 C 272.255 0.810616 3.31122 0
M  V30 3030 H 273.448 2.14735 2.09354 0
M  V30 3031 H 271.001 1.145 1.06392 0
M  V30 3032 H 271.736 -0.155322 3.23928 0
M  V30 3033 H 271.521 1.58481 3.58645 0
M  V30 3034 H 273.011 0.743876 4.10921 0
M  V30 3035 N 273.449 -1.08991 1.13837 0
M  V30 3036 C 274.382 -2.15049 0.763477 0
M  V30 3037 C 275.36 -1.60629 -0.252398 0
M  V30 3038 O 276.544 -1.87958 -0.142853 0
M  V30 3039 C 273.671 -3.38441 0.132545 0
M  V30 3040 C 272.717 -4.11596 1.11763 0
M  V30 3041 S 273.55 -4.6521 2.65216 0
M  V30 3042 C 274.706 -5.91896 2.03495 0
M  V30 3043 H 274.939 -2.46518 1.66182 0
M  V30 3044 H 272.472 -1.21008 0.958976 0
M  V30 3045 H 274.43 -4.09883 -0.225074 0
M  V30 3046 H 273.091 -3.05182 -0.743135 0
M  V30 3047 H 272.284 -5.00121 0.624076 0
M  V30 3048 H 271.886 -3.46038 1.41894 0
M  V30 3049 H 274.178 -6.63156 1.38675 0
M  V30 3050 H 275.121 -6.45938 2.9012 0
M  V30 3051 H 275.529 -5.44625 1.48471 0
M  V30 3052 N 274.927 -0.932562 -1.27047 0
M  V30 3053 C 275.837 -0.441219 -2.30414 0
M  V30 3054 C 276.853 0.480525 -1.67233 0
M  V30 3055 O 278.029 0.362151 -1.98117 0
M  V30 3056 C 275.094 0.293651 -3.45454 0
M  V30 3057 C 274.155 -0.663601 -4.2414 0
M  V30 3058 C 273.388 0.0362932 -5.33688 0
M  V30 3059 O 273.611 1.2548 -5.56427 0
M  V30 3060 O 272.545 -0.638015 -5.98509 0
M  V30 3061 H 276.371 -1.29962 -2.74488 0
M  V30 3062 H 273.956 -0.6981 -1.32087 0
M  V30 3063 H 275.838 0.707951 -4.15411 0
M  V30 3064 H 274.513 1.12758 -3.03426 0
M  V30 3065 H 273.42 -1.12768 -3.56699 0
M  V30 3066 H 274.753 -1.46489 -4.69896 0
M  V30 3067 N 276.405 1.4127 -0.698611 0
M  V30 3068 C 277.353 2.32588 -0.023855 0
M  V30 3069 C 278.347 1.51128 0.765292 0
M  V30 3070 O 279.553 1.67043 0.670571 0
M  V30 3071 H 275.928 0.751918 0.0110871 0
M  V30 3072 H 277.899 2.87167 -0.811031 0
M  V30 3073 C 276.648 3.35947 0.896369 0
M  V30 3074 H 275.971 3.98684 0.298548 0
M  V30 3075 H 277.411 4.02376 1.33676 0
M  V30 3076 C 275.87 2.70076 2.01396 0
M  V30 3077 O 276.4 2.55093 3.10307 0
M  V30 3078 N 274.606 2.28724 1.79259 0
M  V30 3079 H 274.153 2.4111 0.906841 0
M  V30 3080 H 274.111 1.84986 2.54219 0
M  V30 3081 N 277.883 0.443576 1.51229 0
M  V30 3082 C 278.813 -0.355142 2.30783 0
M  V30 3083 C 279.794 -1.0154 1.36468 0
M  V30 3084 O 280.979 -1.01785 1.65389 0
M  V30 3085 C 278.109 -1.45312 3.15439 0
M  V30 3086 C 277.063 -0.916002 4.18083 0
M  V30 3087 C 276.389 -2.1102 4.91299 0
M  V30 3088 C 277.689 0.0538602 5.22272 0
M  V30 3089 H 279.383 0.308767 2.97804 0
M  V30 3090 H 276.929 0.149937 1.43217 0
M  V30 3091 H 278.882 -2.01914 3.69876 0
M  V30 3092 H 277.606 -2.14541 2.46252 0
M  V30 3093 H 276.265 -0.372145 3.64706 0
M  V30 3094 H 275.913 -2.78882 4.18609 0
M  V30 3095 H 275.613 -1.75717 5.60712 0
M  V30 3096 H 277.137 -2.68164 5.48562 0
M  V30 3097 H 278.551 -0.422069 5.71744 0
M  V30 3098 H 276.948 0.319776 5.99247 0
M  V30 3099 H 278.018 0.98858 4.74716 0
M  V30 3100 N 279.361 -1.56624 0.175154 0
M  V30 3101 C 280.608 -1.96999 -0.468811 0
M  V30 3102 C 280.936 -1.06129 -1.62994 0
M  V30 3103 O 280.191 -0.0961771 -1.95464 0
M  V30 3104 C 280.49 -3.43419 -0.989864 0
M  V30 3105 C 280.156 -4.50866 0.0557687 0
M  V30 3106 C 278.818 -4.79975 0.343134 0
M  V30 3107 C 281.17 -5.15551 0.765308 0
M  V30 3108 C 278.498 -5.71066 1.34536 0
M  V30 3109 C 280.85 -6.07724 1.75654 0
M  V30 3110 C 279.514 -6.35199 2.05132 0
M  V30 3111 H 278.784 -0.720869 -0.17155 0
M  V30 3112 H 281.431 -1.89616 0.267924 0
M  V30 3113 H 279.736 -3.47772 -1.80449 0
M  V30 3114 H 281.433 -3.72002 -1.49719 0
M  V30 3115 H 278.023 -4.28229 -0.178381 0
M  V30 3116 H 282.207 -4.9317 0.556513 0
M  V30 3117 H 277.463 -5.90635 1.57988 0
M  V30 3118 H 281.637 -6.56912 2.31169 0
M  V30 3119 H 279.264 -7.05584 2.8294 0
M  V30 3120 N 280.839 0.0985539 -1.57292 0
M  V30 3121 C 282.088 0.801358 -1.85098 0
M  V30 3122 C 282.401 1.80066 -0.763902 0
M  V30 3123 O 283.607 2.55112 -0.928981 0
M  V30 3124 C 282.063 1.47599 -3.28242 0
M  V30 3125 C 281.671 0.516624 -4.45011 0
M  V30 3126 C 283.415 2.16272 -3.65276 0
M  V30 3127 C 281.322 1.19564 -5.79188 0
M  V30 3128 H 280.252 0.303022 -0.69043 0
M  V30 3129 H 282.903 0.0542623 -1.8342 0
M  V30 3130 H 281.285 2.27042 -3.2445 0
M  V30 3131 H 282.459 -0.246065 -4.60143 0
M  V30 3132 H 280.774 -0.064227 -4.1635 0
M  V30 3133 H 283.371 2.67802 -4.62803 0
M  V30 3134 H 283.714 2.95009 -2.93727 0
M  V30 3135 H 284.247 1.43693 -3.70941 0
M  V30 3136 H 280.986 0.449157 -6.53959 0
M  V30 3137 H 280.506 1.92984 -5.67906 0
M  V30 3138 H 282.185 1.7231 -6.23633 0
M  V30 3139 N 282.317 1.53212 0.369288 0
M  V30 3140 C 283.265 1.80054 1.47253 0
M  V30 3141 C 284.259 0.669456 1.55611 0
M  V30 3142 O 285.465 0.852328 1.58541 0
M  V30 3143 H 281.84 0.570034 0.490475 0
M  V30 3144 H 283.811 2.72403 1.21817 0
M  V30 3145 C 282.56 2.00403 2.84137 0
M  V30 3146 H 281.883 2.86876 2.78464 0
M  V30 3147 H 283.323 2.23164 3.60519 0
M  V30 3148 C 281.782 0.782081 3.27697 0
M  V30 3149 O 282.312 -0.0310205 4.01688 0
M  V30 3150 N 280.518 0.606573 2.84199 0
M  V30 3151 H 280.065 1.26939 2.24152 0
M  V30 3152 H 280.023 -0.20962 3.137 0
M  V30 3153 N 283.795 -0.628877 1.44509 0
M  V30 3154 C 285.211 -0.947305 1.28446 0
M  V30 3155 C 285.411 -2.00275 0.221872 0
M  V30 3156 O 284.467 -2.49447 -0.391471 0
M  V30 3157 C 285.78 -1.40843 2.65676 0
M  V30 3158 C 287.328 -1.52379 2.73404 0
M  V30 3159 C 287.803 -2.01875 4.11109 0
M  V30 3160 N 289.294 -2.09142 4.13296 0
M  V30 3161 C 290.029 -2.48615 5.16699 0
M  V30 3162 N 289.525 -2.87209 6.30462 0
M  V30 3163 N 291.318 -2.48768 5.04054 0
M  V30 3164 H 283.469 0.0690977 2.12288 0
M  V30 3165 H 285.732 -0.0317164 0.947469 0
M  V30 3166 H 285.438 -0.707206 3.44516 0
M  V30 3167 H 285.312 -2.37902 2.92716 0
M  V30 3168 H 287.699 -2.21598 1.9488 0
M  V30 3169 H 287.78 -0.536898 2.50102 0
M  V30 3170 H 287.424 -1.3325 4.90109 0
M  V30 3171 H 287.354 -3.0144 4.31789 0
M  V30 3172 H 289.845 -1.81991 3.31191 0
M  V30 3173 H 290.158 -3.16149 7.05174 0
M  V30 3174 H 288.503 -2.84955 6.33897 0
M  V30 3175 H 291.694 -2.18009 4.14234 0
M  V30 3176 H 291.867 -2.79207 5.84763 0
M  V30 3177 N 285.273 -1.31445 -0.869486 0
M  V30 3178 C 286.52 -1.21158 -1.62256 0
M  V30 3179 C 286.848 0.230155 -1.93133 0
M  V30 3180 O 286.103 1.17906 -1.56194 0
M  V30 3181 C 286.402 -2.00145 -2.96102 0
M  V30 3182 C 286.068 -3.4964 -2.84715 0
M  V30 3183 C 284.73 -3.90403 -2.81317 0
M  V30 3184 C 287.082 -4.44769 -2.71716 0
M  V30 3185 C 284.41 -5.24561 -2.62778 0
M  V30 3186 C 286.762 -5.79054 -2.54714 0
M  V30 3187 C 285.426 -6.19037 -2.49699 0
M  V30 3188 H 284.696 -0.443348 -0.593737 0
M  V30 3189 H 287.343 -1.62715 -1.00976 0
M  V30 3190 H 285.648 -1.5127 -3.6142 0
M  V30 3191 H 287.345 -1.89566 -3.53363 0
M  V30 3192 H 283.935 -3.17256 -2.88178 0
M  V30 3193 H 288.119 -4.14208 -2.73397 0
M  V30 3194 H 283.375 -5.54613 -2.57321 0
M  V30 3195 H 287.549 -6.52393 -2.43632 0
M  V30 3196 H 285.176 -7.22935 -2.35093 0
M  V30 3197 N 286.751 1.08385 -1.14413 0
M  V30 3198 C 287.684 2.14642 -0.774871 0
M  V30 3199 C 288.662 1.60761 0.243876 0
M  V30 3200 O 289.846 1.88031 0.132883 0
M  V30 3201 C 286.973 3.38366 -0.150491 0
M  V30 3202 C 286.019 4.10997 -1.13945 0
M  V30 3203 S 286.852 4.63797 -2.67679 0
M  V30 3204 C 288.008 5.90808 -2.06631 0
M  V30 3205 H 288.241 2.45633 -1.67487 0
M  V30 3206 H 285.774 1.20498 -0.96538 0
M  V30 3207 H 287.732 4.09996 0.203334 0
M  V30 3208 H 286.393 3.05572 0.72694 0
M  V30 3209 H 285.586 4.99783 -0.65059 0
M  V30 3210 H 285.188 3.4528 -1.43727 0
M  V30 3211 H 287.48 6.62411 -1.4219 0
M  V30 3212 H 288.423 6.4439 -2.93542 0
M  V30 3213 H 288.831 5.4383 -1.51357 0
M  V30 3214 N 288.23 0.939286 1.26551 0
M  V30 3215 C 289.18 0.418284 2.2413 0
M  V30 3216 C 290.164 -0.483935 1.5345 0
M  V30 3217 O 291.356 -0.319489 1.74093 0
M  V30 3218 C 288.485 -0.31709 3.41832 0
M  V30 3219 C 287.571 0.602311 4.19801 0
M  V30 3220 N 287.962 1.72726 4.75394 0
M  V30 3221 C 286.26 0.407534 4.44134 0
M  V30 3222 C 286.961 2.30004 5.34297 0
M  V30 3223 N 285.937 1.58828 5.1988 0
M  V30 3224 H 289.739 1.27705 2.64705 0
M  V30 3225 H 287.253 0.794929 1.41614 0
M  V30 3226 H 289.25 -0.707364 4.10855 0
M  V30 3227 H 287.91 -1.17264 3.02786 0
M  V30 3228 H 288.921 2.10944 4.72994 0
M  V30 3229 H 285.598 -0.406406 4.15517 0
M  V30 3230 H 286.988 3.24778 5.88191 0
M  V30 3231 N 289.708 -1.40897 0.706093 0
M  V30 3232 C 290.641 -2.282 -0.00328781 0
M  V30 3233 C 291.619 -1.42816 -0.77732 0
M  V30 3234 O 292.803 -1.72237 -0.765944 0
M  V30 3235 C 289.93 -3.23226 -1.01205 0
M  V30 3236 C 288.976 -4.25222 -0.329955 0
M  V30 3237 S 289.809 -5.27269 0.935298 0
M  V30 3238 C 290.965 -6.25859 -0.0716061 0
M  V30 3239 H 291.198 -2.88016 0.737143 0
M  V30 3240 H 288.731 -1.46191 0.496756 0
M  V30 3241 H 290.689 -3.78503 -1.58888 0
M  V30 3242 H 289.35 -2.62485 -1.72513 0
M  V30 3243 H 288.543 -4.92023 -1.09221 0
M  V30 3244 H 288.145 -3.73595 0.174069 0
M  V30 3245 H 290.437 -6.71204 -0.921521 0
M  V30 3246 H 291.38 -7.0586 0.562765 0
M  V30 3247 H 291.788 -5.62852 -0.431088 0
M  V30 3248 N 291.186 -0.45159 -1.50991 0
M  V30 3249 C 292.433 0.110074 -2.02201 0
M  V30 3250 C 292.761 1.4146 -1.33489 0
M  V30 3251 O 292.016 1.90617 -0.443125 0
M  V30 3252 C 292.315 0.361728 -3.55565 0
M  V30 3253 C 291.981 -0.858717 -4.42648 0
M  V30 3254 C 290.643 -1.19338 -4.66167 0
M  V30 3255 C 292.995 -1.67221 -4.93646 0
M  V30 3256 C 290.323 -2.34195 -5.37931 0
M  V30 3257 C 292.675 -2.8119 -5.6667 0
M  V30 3258 C 291.339 -3.15094 -5.88449 0
M  V30 3259 H 290.609 0.040279 -0.739904 0
M  V30 3260 H 293.256 -0.601696 -1.81802 0
M  V30 3261 H 291.561 1.15554 -3.74372 0
M  V30 3262 H 293.258 0.80996 -3.92735 0
M  V30 3263 H 289.848 -0.58796 -4.24548 0
M  V30 3264 H 294.032 -1.42686 -4.75347 0
M  V30 3265 H 289.288 -2.6076 -5.53005 0
M  V30 3266 H 293.462 -3.44585 -6.05173 0
M  V30 3267 H 291.089 -4.04204 -6.43835 0
M  V30 3268 N 292.664 1.56529 -0.183458 0
M  V30 3269 C 293.596 2.15747 0.773697 0
M  V30 3270 C 294.609 1.1162 1.1851 0
M  V30 3271 O 295.798 1.3876 1.12285 0
M  V30 3272 C 292.898 2.6952 2.05456 0
M  V30 3273 C 292.071 3.98429 1.8048 0
M  V30 3274 C 291.13 4.37145 2.92901 0
M  V30 3275 O 290.156 5.04791 2.6301 0
M  V30 3276 N 291.358 3.99695 4.2098 0
M  V30 3277 H 294.123 2.98505 0.26736 0
M  V30 3278 H 291.684 1.619 -0.0010878 0
M  V30 3279 H 293.676 2.92412 2.79781 0
M  V30 3280 H 292.246 1.91282 2.47245 0
M  V30 3281 H 291.466 3.8379 0.899947 0
M  V30 3282 H 292.754 4.82597 1.61175 0
M  V30 3283 H 292.152 3.4526 4.48121 0
M  V30 3284 H 290.709 4.27562 4.9197 0
M  V30 3285 N 294.142 -0.090211 1.57342 0
M  V30 3286 C 295.367 -0.810082 1.90925 0
M  V30 3287 C 295.792 -1.71248 0.778187 0
M  V30 3288 O 295.15 -1.79278 -0.269991 0
M  V30 3289 C 295.198 -1.59529 3.23393 0
M  V30 3290 O 294.302 -2.70461 3.11327 0
M  V30 3291 H 293.643 -0.222231 0.625707 0
M  V30 3292 H 296.173 -0.0639716 2.045 0
M  V30 3293 H 296.183 -1.97847 3.5682 0
M  V30 3294 H 294.858 -0.933055 4.05299 0
M  V30 3295 H 293.435 -2.35135 2.89423 0
M  V30 3296 N 295.62 -1.53406 -0.361157 0
M  V30 3297 C 296.845 -1.74024 -1.12829 0
M  V30 3298 C 297.27 -0.470069 -1.82132 0
M  V30 3299 O 296.628 0.57619 -1.719 0
M  V30 3300 C 296.676 -2.90903 -2.13091 0
M  V30 3301 O 295.78 -2.59821 -3.20261 0
M  V30 3302 H 295.121 -0.577804 -0.327168 0
M  V30 3303 H 297.651 -2.00307 -0.41693 0
M  V30 3304 H 297.661 -3.17194 -2.56616 0
M  V30 3305 H 296.336 -3.83034 -1.62042 0
M  V30 3306 H 294.913 -2.44362 -2.81677 0
M  V30 3307 N 297.098 0.621204 -1.44841 0
M  V30 3308 C 298.344 1.38073 -1.49357 0
M  V30 3309 C 298.699 1.91973 -0.128115 0
M  V30 3310 O 297.992 1.71311 0.858087 0
M  V30 3311 C 298.186 2.55675 -2.4973 0
M  V30 3312 C 298.015 2.13289 -3.95901 0
M  V30 3313 C 296.785 2.001 -4.63991 0
M  V30 3314 C 298.983 1.7159 -4.84831 0
M  V30 3315 N 296.965 1.51381 -5.94943 0
M  V30 3316 C 298.336 1.34188 -6.05304 0
M  V30 3317 C 300.391 1.59059 -4.7181 0
M  V30 3318 C 299.094 0.855085 -7.14199 0
M  V30 3319 C 301.12 1.11784 -5.8074 0
M  V30 3320 C 300.482 0.753385 -7.0036 0
M  V30 3321 H 296.581 0.499675 -0.601539 0
M  V30 3322 H 299.165 0.711609 -1.8123 0
M  V30 3323 H 297.336 3.20201 -2.19832 0
M  V30 3324 H 299.068 3.22509 -2.4448 0
M  V30 3325 H 295.823 2.20863 -4.18947 0
M  V30 3326 H 296.247 1.29293 -6.64539 0
M  V30 3327 H 300.889 1.85865 -3.79755 0
M  V30 3328 H 298.607 0.574552 -8.06055 0
M  V30 3329 H 302.193 1.02533 -5.72694 0
M  V30 3330 H 301.073 0.393183 -7.83214 0
M  V30 3331 N 298.576 1.31904 0.862503 0
M  V30 3332 C 299.524 1.20125 1.9918 0
M  V30 3333 C 300.518 0.107824 1.69056 0
M  V30 3334 O 301.724 0.270223 1.7796 0
M  V30 3335 H 298.099 0.372148 0.65346 0
M  V30 3336 H 300.07 2.15652 2.06244 0
M  V30 3337 C 298.819 0.933099 3.34946 0
M  V30 3338 H 298.142 1.76664 3.5865 0
M  V30 3339 H 299.582 0.890892 4.14535 0
M  V30 3340 C 298.041 -0.364172 3.34926 0
M  V30 3341 O 298.571 -1.37858 3.77304 0
M  V30 3342 N 296.777 -0.383362 2.8806 0
M  V30 3343 H 296.324 0.442651 2.53768 0
M  V30 3344 H 296.282 -1.25123 2.8843 0
M  V30 3345 N 300.054 -1.07777 1.14986 0
M  V30 3346 C 301.331 -1.7699 0.832695 0
M  V30 3347 C 301.711 -2.001 -0.672561 0
M  V30 3348 O 301.059 -1.61598 -1.6155 0
M  V30 3349 C 301.269 -3.08139 1.63863 0
M  V30 3350 C 302.617 -3.8256 1.84208 0
M  V30 3351 O 303.641 -3.17939 1.60603 0
M  V30 3352 O 302.5 -4.98612 2.23714 0
M  V30 3353 H 299.594 -0.768389 0.305791 0
M  V30 3354 H 302.14 -1.14182 1.25541 0
M  V30 3355 H 300.912 -2.86909 2.6608 0
M  V30 3356 H 300.535 -3.78678 1.21197 0
M  V30 3357 N 301.532 -0.945985 -1.26051 0
M  V30 3358 C 302.779 -0.596118 -1.93527 0
M  V30 3359 C 303.107 0.865559 -1.74179 0
M  V30 3360 O 302.362 1.63524 -1.0751 0
M  V30 3361 C 302.661 -0.890475 -3.46129 0
M  V30 3362 C 302.327 -2.3368 -3.85622 0
M  V30 3363 C 300.989 -2.73216 -3.96114 0
M  V30 3364 C 303.341 -3.27648 -4.05334 0
M  V30 3365 C 300.669 -4.05806 -4.2372 0
M  V30 3366 C 303.021 -4.59841 -4.3443 0
M  V30 3367 C 301.685 -4.99185 -4.43137 0
M  V30 3368 H 300.955 -0.218135 -0.708165 0
M  V30 3369 H 303.602 -1.1934 -1.49768 0
M  V30 3370 H 301.907 -0.210711 -3.91233 0
M  V30 3371 H 303.604 -0.598478 -3.96509 0
M  V30 3372 H 300.194 -2.02015 -3.78005 0
M  V30 3373 H 304.378 -2.98298 -3.96651 0
M  V30 3374 H 299.634 -4.35945 -4.28675 0
M  V30 3375 H 303.808 -5.32641 -4.48628 0
M  V30 3376 H 301.435 -6.01952 -4.64282 0
M  V30 3377 N 303.011 1.40521 -0.713556 0
M  V30 3378 C 303.974 2.29098 -0.0684347 0
M  V30 3379 C 304.974 1.45268 0.689472 0
M  V30 3380 O 306.164 1.66205 0.521677 0
M  V30 3381 C 303.296 3.28446 0.913024 0
M  V30 3382 H 304.489 2.87645 -0.84855 0
M  V30 3383 H 302.042 1.48809 -0.47809 0
M  V30 3384 H 302.777 2.74913 1.72027 0
M  V30 3385 H 302.562 3.90327 0.372472 0
M  V30 3386 H 304.052 3.94777 1.36165 0
M  V30 3387 N 304.489 0.459591 1.5075 0
M  V30 3388 C 305.766 -0.160371 1.94941 0
M  V30 3389 C 306.146 -1.58048 1.39943 0
M  V30 3390 O 305.494 -2.206 0.595629 0
M  V30 3391 C 305.704 -0.115432 3.48809 0
M  V30 3392 C 307.052 -0.310026 4.23467 0
M  V30 3393 O 308.076 -0.192543 3.55679 0
M  V30 3394 O 306.935 -0.546031 5.43765 0
M  V30 3395 H 304.029 -0.117925 0.818549 0
M  V30 3396 H 306.575 0.519169 1.61563 0
M  V30 3397 H 305.347 0.87652 3.81357 0
M  V30 3398 H 304.97 -0.836928 3.88692 0
M  V30 3399 N 305.967 -1.56429 0.191757 0
M  V30 3400 C 307.214 -1.97485 -0.447891 0
M  V30 3401 C 307.542 -1.07852 -1.61859 0
M  V30 3402 O 306.797 -0.116903 -1.95351 0
M  V30 3403 C 307.096 -3.44449 -0.953384 0
M  V30 3404 C 306.762 -4.50781 0.103586 0
M  V30 3405 C 305.424 -4.79584 0.394023 0
M  V30 3406 C 307.776 -5.1471 0.819946 0
M  V30 3407 C 305.104 -5.69607 1.40585 0
M  V30 3408 C 307.456 -6.05827 1.8209 0
M  V30 3409 C 306.12 -6.32987 2.11857 0
M  V30 3410 H 305.39 -0.722648 -0.163895 0
M  V30 3411 H 308.037 -1.89322 0.28802 0
M  V30 3412 H 306.342 -3.49666 -1.76751 0
M  V30 3413 H 308.039 -3.73569 -1.45765 0
M  V30 3414 H 304.629 -4.28394 -0.132951 0
M  V30 3415 H 308.813 -4.92552 0.608789 0
M  V30 3416 H 304.069 -5.88926 1.64243 0
M  V30 3417 H 308.243 -6.54424 2.38123 0
M  V30 3418 H 305.87 -7.02544 2.90407 0
M  V30 3419 N 307.445 0.0818655 -1.57387 0
M  V30 3420 C 308.355 1.11642 -2.06333 0
M  V30 3421 C 309.371 1.43033 -0.99083 0
M  V30 3422 O 310.547 1.53411 -1.30488 0
M  V30 3423 C 307.612 2.41342 -2.48907 0
M  V30 3424 C 306.673 2.17014 -3.7041 0
M  V30 3425 C 305.906 3.4053 -4.10944 0
M  V30 3426 O 306.129 4.4927 -3.51444 0
M  V30 3427 O 305.063 3.29336 -5.03807 0
M  V30 3428 H 308.889 0.730657 -2.9478 0
M  V30 3429 H 306.474 0.295301 -1.46452 0
M  V30 3430 H 308.356 3.17691 -2.76858 0
M  V30 3431 H 307.031 2.79319 -1.63593 0
M  V30 3432 H 305.938 1.38403 -3.47556 0
M  V30 3433 H 307.271 1.83923 -4.56545 0
M  V30 3434 N 308.923 1.53595 0.353017 0
M  V30 3435 C 309.87 1.80919 1.43308 0
M  V30 3436 C 310.84 0.654288 1.5267 0
M  V30 3437 O 312.025 0.897759 1.6836 0
M  V30 3438 C 309.165 2.01605 2.80089 0
M  V30 3439 C 308.278 3.29321 2.79593 0
M  V30 3440 C 307.413 3.40125 4.0803 0
M  V30 3441 C 306.452 4.61826 4.01725 0
M  V30 3442 N 305.589 4.69716 5.21834 0
M  V30 3443 H 310.429 2.73074 1.19308 0
M  V30 3444 H 307.966 1.35263 0.578131 0
M  V30 3445 H 309.924 2.11586 3.59565 0
M  V30 3446 H 308.554 1.12772 3.0246 0
M  V30 3447 H 307.606 3.28229 1.92276 0
M  V30 3448 H 308.918 4.18884 2.70809 0
M  V30 3449 H 308.072 3.49488 4.95927 0
M  V30 3450 H 306.811 2.48601 4.19582 0
M  V30 3451 H 305.816 4.52552 3.12213 0
M  V30 3452 H 307.041 5.54705 3.91764 0
M  V30 3453 H 304.987 3.81097 5.33948 0
M  V30 3454 H 304.904 5.53202 5.1527 0
M  V30 3455 H 306.172 4.83376 6.11529 0
M  V30 3456 N 310.401 -0.613514 1.45168 0
M  V30 3457 C 311.65 -1.36874 1.4815 0
M  V30 3458 C 311.963 -1.952 0.124982 0
M  V30 3459 O 313.169 -2.71481 0.0324176 0
M  V30 3460 C 311.625 -2.47905 2.60904 0
M  V30 3461 C 311.233 -1.96016 4.02842 0
M  V30 3462 C 312.977 -3.24965 2.73126 0
M  V30 3463 C 310.884 -3.04494 5.06988 0
M  V30 3464 H 309.814 -0.514428 0.551253 0
M  V30 3465 H 312.465 -0.658182 1.7129 0
M  V30 3466 H 310.847 -3.21618 2.31037 0
M  V30 3467 H 312.021 -1.29051 4.4236 0
M  V30 3468 H 310.336 -1.31719 3.95018 0
M  V30 3469 H 312.933 -4.05865 3.48106 0
M  V30 3470 H 313.276 -3.75588 1.79553 0
M  V30 3471 H 313.809 -2.5835 3.0249 0
M  V30 3472 H 310.548 -2.58795 6.0225 0
M  V30 3473 H 310.068 -3.70044 4.72046 0
M  V30 3474 H 311.747 -3.68976 5.31475 0
M  V30 3475 N 311.879 -1.3236 -0.855495 0
M  V30 3476 C 313.126 -1.22872 -1.60962 0
M  V30 3477 C 313.454 0.209658 -1.93367 0
M  V30 3478 O 312.709 1.16243 -1.57436 0
M  V30 3479 C 313.008 -2.03275 -2.93963 0
M  V30 3480 C 312.674 -3.5264 -2.80991 0
M  V30 3481 C 311.336 -3.93364 -2.7716 0
M  V30 3482 C 313.688 -4.47626 -2.66983 0
M  V30 3483 C 311.016 -5.27319 -2.572 0
M  V30 3484 C 313.368 -5.81723 -2.48558 0
M  V30 3485 C 312.032 -6.2165 -2.4312 0
M  V30 3486 H 311.302 -0.44962 -0.589001 0
M  V30 3487 H 313.949 -1.63777 -0.992442 0
M  V30 3488 H 312.254 -1.55095 -3.59795 0
M  V30 3489 H 313.951 -1.93303 -3.51333 0
M  V30 3490 H 310.541 -3.20295 -2.84797 0
M  V30 3491 H 314.725 -4.17084 -2.68988 0
M  V30 3492 H 309.981 -5.57311 -2.51424 0
M  V30 3493 H 314.155 -6.5494 -2.36699 0
M  V30 3494 H 311.782 -7.25388 -2.27412 0
M  V30 3495 N 313.357 1.07166 -1.15556 0
M  V30 3496 C 314.603 1.80065 -0.932984 0
M  V30 3497 C 314.936 1.86586 0.53845 0
M  V30 3498 O 314.211 1.35098 1.39924 0
M  V30 3499 C 314.494 3.25022 -1.55025 0
M  V30 3500 C 314.347 3.26634 -3.09242 0
M  V30 3501 C 315.666 4.22341 -1.2376 0
M  V30 3502 H 312.785 0.653697 -0.340366 0
M  V30 3503 H 315.427 1.25389 -1.4275 0
M  V30 3504 H 313.577 3.71712 -1.12972 0
M  V30 3505 H 315.249 2.88173 -3.60214 0
M  V30 3506 H 313.492 2.65539 -3.43033 0
M  V30 3507 H 314.163 4.28854 -3.47546 0
M  V30 3508 H 316.639 3.8405 -1.60139 0
M  V30 3509 H 315.515 5.22053 -1.69564 0
M  V30 3510 H 315.776 4.41828 -0.154938 0
M  V30 3511 N 314.835 0.952656 1.25548 0
M  V30 3512 C 315.782 0.47008 2.25962 0
M  V30 3513 C 316.752 -0.476384 1.59122 0
M  V30 3514 O 317.937 -0.39007 1.8677 0
M  V30 3515 C 315.077 -0.247881 3.44209 0
M  V30 3516 C 314.19 0.735591 4.25691 0
M  V30 3517 C 313.325 -0.0047306 5.312 0
M  V30 3518 C 312.364 0.969805 6.04368 0
M  V30 3519 N 311.501 0.260486 7.01617 0
M  V30 3520 H 316.341 1.33126 2.66611 0
M  V30 3521 H 313.878 0.66765 1.31076 0
M  V30 3522 H 315.836 -0.680695 4.1161 0
M  V30 3523 H 314.466 -1.07312 3.0444 0
M  V30 3524 H 313.518 1.28689 3.57971 0
M  V30 3525 H 314.83 1.47934 4.76358 0
M  V30 3526 H 313.984 -0.496275 6.04667 0
M  V30 3527 H 312.723 -0.781282 4.81401 0
M  V30 3528 H 311.728 1.47237 5.29718 0
M  V30 3529 H 312.953 1.74655 6.56256 0
M  V30 3530 H 310.899 -0.497364 6.54112 0
M  V30 3531 H 310.816 0.943362 7.50091 0
M  V30 3532 H 312.084 -0.209587 7.79218 0
M  V30 3533 N 316.313 -1.40141 0.720998 0
M  V30 3534 C 317.562 -2.0002 0.259804 0
M  V30 3535 C 317.875 -1.57839 -1.15526 0
M  V30 3536 O 319.081 -2.10455 -1.71525 0
M  V30 3537 C 317.537 -3.57516 0.413566 0
M  V30 3538 C 317.145 -4.08667 1.83562 0
M  V30 3539 C 318.889 -4.24498 0.0134387 0
M  V30 3540 C 316.796 -5.58686 1.93968 0
M  V30 3541 H 315.726 -0.748195 0.0933806 0
M  V30 3542 H 318.377 -1.60313 0.892866 0
M  V30 3543 H 316.759 -3.9495 -0.288169 0
M  V30 3544 H 317.933 -3.82598 2.56817 0
M  V30 3545 H 316.248 -3.543 2.1877 0
M  V30 3546 H 318.845 -5.34654 0.0703954 0
M  V30 3547 H 319.188 -4.03375 -1.02927 0
M  V30 3548 H 319.721 -3.92188 0.665815 0
M  V30 3549 H 316.46 -5.8467 2.96379 0
M  V30 3550 H 315.98 -5.86602 1.25131 0
M  V30 3551 H 317.659 -6.23875 1.71431 0
M  V30 3552 N 317.792 -0.46758 -1.50504 0
M  V30 3553 C 319.017 0.0886943 -2.0721 0
M  V30 3554 C 319.442 1.33057 -1.32956 0
M  V30 3555 O 318.8 1.77354 -0.376197 0
M  V30 3556 C 318.848 0.359202 -3.58806 0
M  V30 3557 O 317.952 1.44034 -3.8643 0
M  V30 3558 H 317.293 -0.0114349 -0.663902 0
M  V30 3559 H 319.823 -0.657613 -1.93744 0
M  V30 3560 H 319.833 0.600742 -4.03553 0
M  V30 3561 H 318.508 -0.548311 -4.1227 0
M  V30 3562 H 317.085 1.18638 -3.53524 0
M  V30 3563 N 319.27 1.56325 -0.20005 0
M  V30 3564 C 320.218 2.20666 0.735482 0
M  V30 3565 C 321.212 1.17934 1.21605 0
M  V30 3566 O 322.418 1.36068 1.17837 0
M  V30 3567 H 318.793 0.70725 0.255542 0
M  V30 3568 H 320.764 2.9792 0.169166 0
M  V30 3569 C 319.513 2.88391 1.94232 0
M  V30 3570 H 318.836 3.67185 1.58161 0
M  V30 3571 H 320.276 3.3684 2.57517 0
M  V30 3572 C 318.735 1.89692 2.78421 0
M  V30 3573 O 319.265 1.40032 3.76502 0
M  V30 3574 N 317.471 1.57813 2.44015 0
M  V30 3575 H 317.018 1.9839 1.64314 0
M  V30 3576 H 316.976 0.920325 3.00628 0
M  V30 3577 N 320.748 -0.0735177 1.57428 0
M  V30 3578 C 321.976 -0.785969 1.9139 0
M  V30 3579 C 322.391 -1.71207 0.795847 0
M  V30 3580 O 321.748 -1.81033 -0.230915 0
M  V30 3581 C 321.799 -1.58107 3.25091 0
M  V30 3582 O 321.52 -0.6922 4.32597 0
M  V30 3583 C 323.021 -2.39467 3.73055 0
M  V30 3584 H 320.241 -0.223558 0.632663 0
M  V30 3585 H 322.785 -0.044302 2.04452 0
M  V30 3586 H 320.94 -2.27503 3.13562 0
M  V30 3587 H 321.354 -1.24504 5.09508 0
M  V30 3588 H 322.828 -2.90716 4.69242 0
M  V30 3589 H 323.305 -3.18913 3.01979 0
M  V30 3590 H 323.911 -1.7523 3.87523 0
M  V30 3591 N 322.226 -1.5378 -0.344866 0
M  V30 3592 C 323.475 -1.7018 -1.08267 0
M  V30 3593 C 323.788 -0.471 -1.89845 0
M  V30 3594 O 324.994 -0.515917 -2.66553 0
M  V30 3595 C 323.45 -3.00923 -1.97417 0
M  V30 3596 C 323.058 -4.31335 -1.21053 0
M  V30 3597 C 324.802 -3.26688 -2.71063 0
M  V30 3598 C 322.709 -5.53153 -2.09225 0
M  V30 3599 H 321.639 -0.634138 -0.407903 0
M  V30 3600 H 324.29 -1.8028 -0.342246 0
M  V30 3601 H 322.672 -2.84676 -2.75274 0
M  V30 3602 H 323.846 -4.58281 -0.481159 0
M  V30 3603 H 322.161 -4.12173 -0.591813 0
M  V30 3604 H 324.758 -4.1489 -3.37299 0
M  V30 3605 H 325.101 -2.43639 -3.37558 0
M  V30 3606 H 325.634 -3.43705 -2.0028 0
M  V30 3607 H 322.373 -6.38741 -1.47274 0
M  V30 3608 H 321.893 -5.30458 -2.79955 0
M  V30 3609 H 323.572 -5.88744 -2.68308 0
M  V30 3610 N 323.704 0.605807 -1.45491 0
M  V30 3611 C 324.929 1.39625 -1.53361 0
M  V30 3612 C 325.354 1.87351 -0.167645 0
M  V30 3613 O 324.712 1.60243 0.848051 0
M  V30 3614 C 324.76 2.57559 -2.5238 0
M  V30 3615 O 323.864 3.58248 -2.04285 0
M  V30 3616 H 323.205 0.416771 -0.516912 0
M  V30 3617 H 325.735 0.737103 -1.90861 0
M  V30 3618 H 325.745 3.0478 -2.71244 0
M  V30 3619 H 324.42 2.22171 -3.51586 0
M  V30 3620 H 322.997 3.17664 -1.95305 0
M  V30 3621 N 325.182 1.32811 0.848464 0
M  V30 3622 C 326.092 1.24278 1.98978 0
M  V30 3623 C 327.108 0.155176 1.73307 0
M  V30 3624 O 328.284 0.376999 1.9784 0
M  V30 3625 C 325.349 0.972444 3.32783 0
M  V30 3626 C 324.41 2.14911 3.71634 0
M  V30 3627 C 323.643 1.89157 4.99054 0
M  V30 3628 O 323.866 0.837165 5.64223 0
M  V30 3629 O 322.8 2.75433 5.35183 0
M  V30 3630 H 326.626 2.20238 2.09115 0
M  V30 3631 H 324.211 1.12762 0.980052 0
M  V30 3632 H 326.093 0.838432 4.12975 0
M  V30 3633 H 324.768 0.043051 3.23671 0
M  V30 3634 H 323.675 2.33862 2.91992 0
M  V30 3635 H 325.008 3.06151 3.85399 0
M  V30 3636 N 326.66 -1.06551 1.16123 0
M  V30 3637 C 328.076 -1.3142 0.905585 0
M  V30 3638 C 328.276 -1.96571 -0.442964 0
M  V30 3639 O 327.332 -2.23068 -1.18308 0
M  V30 3640 C 328.645 -2.19741 2.05267 0
M  V30 3641 C 330.193 -2.33165 2.08813 0
M  V30 3642 C 330.668 -3.24838 3.22868 0
M  V30 3643 N 332.159 -3.32421 3.22568 0
M  V30 3644 C 332.894 -4.0344 4.0746 0
M  V30 3645 N 332.39 -4.77003 5.02434 0
M  V30 3646 N 334.183 -3.99464 3.95456 0
M  V30 3647 H 326.334 -0.626548 2.02949 0
M  V30 3648 H 328.597 -0.338777 0.8854 0
M  V30 3649 H 328.303 -1.79142 3.02657 0
M  V30 3650 H 328.177 -3.20313 1.99198 0
M  V30 3651 H 330.564 -2.73013 1.12018 0
M  V30 3652 H 330.645 -1.3227 2.18948 0
M  V30 3653 H 330.289 -2.85708 4.19921 0
M  V30 3654 H 330.219 -4.25707 3.0997 0
M  V30 3655 H 332.71 -2.79994 2.53795 0
M  V30 3656 H 333.023 -5.28712 5.63634 0
M  V30 3657 H 331.368 -4.75992 5.06415 0
M  V30 3658 H 334.559 -3.4111 3.20564 0
M  V30 3659 H 334.732 -4.54544 4.61837 0
M  V30 3660 N 328.138 -0.959301 -1.25041 0
M  V30 3661 C 329.384 -0.617525 -1.9317 0
M  V30 3662 C 329.717 0.843981 -1.74902 0
M  V30 3663 O 328.992 1.60615 -1.09696 0
M  V30 3664 C 329.275 -0.982736 -3.46431 0
M  V30 3665 C 329.128 -2.50032 -3.73904 0
M  V30 3666 C 330.447 -0.511176 -4.37121 0
M  V30 3667 H 327.566 -0.22582 -0.701552 0
M  V30 3668 H 330.208 -1.19679 -1.4757 0
M  V30 3669 H 328.358 -0.489806 -3.854 0
M  V30 3670 H 330.03 -3.06737 -3.44544 0
M  V30 3671 H 328.273 -2.93598 -3.19348 0
M  V30 3672 H 328.944 -2.70635 -4.81103 0
M  V30 3673 H 331.42 -0.934075 -4.0548 0
M  V30 3674 H 330.296 -0.795361 -5.43107 0
M  V30 3675 H 330.557 0.588834 -4.38161 0
M  V30 3676 N 329.616 1.39756 -0.72842 0
M  V30 3677 C 330.549 2.28176 -0.0330172 0
M  V30 3678 C 331.527 1.44035 0.754501 0
M  V30 3679 O 332.711 1.73434 0.738445 0
M  V30 3680 C 329.838 3.24795 0.960504 0
M  V30 3681 C 328.884 4.25693 0.262264 0
M  V30 3682 S 329.717 5.25714 -1.01906 0
M  V30 3683 C 330.873 6.25894 -0.0279717 0
M  V30 3684 H 331.106 2.86807 -0.78287 0
M  V30 3685 H 328.639 1.45382 -0.519951 0
M  V30 3686 H 330.597 3.80983 1.52846 0
M  V30 3687 H 329.258 2.65196 1.68315 0
M  V30 3688 H 328.451 4.93699 1.01379 0
M  V30 3689 H 328.053 3.7327 -0.233482 0
M  V30 3690 H 330.345 6.72585 0.814621 0
M  V30 3691 H 331.288 7.04876 -0.67499 0
M  V30 3692 H 331.696 5.63466 0.341489 0
M  V30 3693 N 331.094 0.475555 1.50254 0
M  V30 3694 C 332.042 -0.330276 2.30243 0
M  V30 3695 C 333.036 -0.986306 1.37726 0
M  V30 3696 O 334.242 -0.9169 1.54897 0
M  V30 3697 H 330.617 -0.125353 0.741479 0
M  V30 3698 H 332.588 0.364702 2.96163 0
M  V30 3699 C 331.337 -1.39704 3.18399 0
M  V30 3700 H 330.66 -0.901621 3.89501 0
M  V30 3701 H 332.1 -1.93336 3.77355 0
M  V30 3702 C 330.559 -2.4014 2.36293 0
M  V30 3703 O 331.089 -3.45504 2.04914 0
M  V30 3704 N 329.295 -2.1197 1.98789 0
M  V30 3705 H 328.842 -1.2631 2.24507 0
M  V30 3706 H 328.8 -2.79403 1.44157 0
M  V30 3707 N 332.573 -1.56217 0.208337 0
M  V30 3708 C 333.523 -2.16324 -0.720281 0
M  V30 3709 C 334.507 -1.10775 -1.16695 0
M  V30 3710 O 335.699 -1.36801 -1.12314 0
M  V30 3711 C 332.828 -2.83644 -1.93393 0
M  V30 3712 C 331.914 -3.96401 -1.50755 0
M  V30 3713 N 332.305 -4.99546 -0.792937 0
M  V30 3714 C 330.603 -4.08246 -1.79585 0
M  V30 3715 C 331.304 -5.78828 -0.577364 0
M  V30 3716 N 330.28 -5.31723 -1.1301 0
M  V30 3717 H 334.082 -2.93432 -0.165725 0
M  V30 3718 H 331.596 -1.62397 0.00906463 0
M  V30 3719 H 333.593 -3.25107 -2.60981 0
M  V30 3720 H 332.253 -2.08027 -2.49308 0
M  V30 3721 H 333.264 -5.15967 -0.447004 0
M  V30 3722 H 329.941 -3.4377 -2.36915 0
M  V30 3723 H 331.331 -6.71899 -0.00952956 0
M  V30 3724 N 334.051 0.0651679 -1.57465 0
M  V30 3725 C 335.297 0.758912 -1.88712 0
M  V30 3726 C 335.652 1.7485 -0.802819 0
M  V30 3727 O 334.945 1.90632 0.192359 0
M  V30 3728 C 335.139 1.50081 -3.24362 0
M  V30 3729 C 334.968 0.584579 -4.45884 0
M  V30 3730 C 333.738 0.219039 -5.04825 0
M  V30 3731 C 335.936 -0.121559 -5.14156 0
M  V30 3732 N 333.918 -0.702222 -6.09871 0
M  V30 3733 C 335.289 -0.899767 -6.13436 0
M  V30 3734 C 337.344 -0.192331 -4.97528 0
M  V30 3735 C 336.047 -1.74218 -6.97883 0
M  V30 3736 C 338.073 -1.02174 -5.82507 0
M  V30 3737 C 337.435 -1.78798 -6.8133 0
M  V30 3738 H 333.534 0.25293 -0.739967 0
M  V30 3739 H 336.118 0.0201744 -1.9469 0
M  V30 3740 H 334.289 2.21023 -3.1938 0
M  V30 3741 H 336.021 2.14409 -3.43236 0
M  V30 3742 H 332.776 0.57336 -4.70117 0
M  V30 3743 H 333.2 -1.15629 -6.67052 0
M  V30 3744 H 337.842 0.385741 -4.21037 0
M  V30 3745 H 335.56 -2.3312 -7.73745 0
M  V30 3746 H 339.146 -1.07957 -5.71696 0
M  V30 3747 H 338.026 -2.41942 -7.45945 0
M  V30 3748 N 335.529 1.53961 0.336706 0
M  V30 3749 C 336.461 1.78751 1.4346 0
M  V30 3750 C 337.474 0.669019 1.48418 0
M  V30 3751 O 338.663 0.945884 1.51378 0
M  V30 3752 C 335.763 1.87844 2.82078 0
M  V30 3753 C 334.936 3.17854 3.00479 0
M  V30 3754 C 333.995 3.17816 4.19379 0
M  V30 3755 O 333.021 3.91511 4.13168 0
M  V30 3756 N 334.223 2.40669 5.2826 0
M  V30 3757 H 336.988 2.73493 1.22563 0
M  V30 3758 H 334.549 1.53096 0.526625 0
M  V30 3759 H 336.541 1.85261 3.59806 0
M  V30 3760 H 335.111 1.00257 2.96086 0
M  V30 3761 H 334.331 3.33504 2.10163 0
M  V30 3762 H 335.619 4.03718 3.0966 0
M  V30 3763 H 335.017 1.8036 5.36178 0
M  V30 3764 H 333.574 2.43877 6.04456 0
M  V30 3765 N 337.007 -0.598083 1.45811 0
M  V30 3766 C 337.917 -1.73632 1.57763 0
M  V30 3767 C 338.933 -1.67763 0.461676 0
M  V30 3768 O 340.109 -1.87949 0.723685 0
M  V30 3769 C 337.174 -3.10114 1.55018 0
M  V30 3770 C 336.235 -3.27364 2.77726 0
M  V30 3771 C 335.468 -4.57334 2.75102 0
M  V30 3772 O 335.691 -5.40258 1.8297 0
M  V30 3773 O 334.625 -4.77502 3.66437 0
M  V30 3774 H 338.451 -1.66498 2.53992 0
M  V30 3775 H 336.036 -0.763308 1.28429 0
M  V30 3776 H 337.918 -3.9141 1.56129 0
M  V30 3777 H 336.593 -3.17718 0.619431 0
M  V30 3778 H 335.5 -2.45619 2.82174 0
M  V30 3779 H 336.833 -3.24641 3.69958 0
M  V30 3780 N 338.485 -1.33259 -0.841409 0
M  V30 3781 C 339.762 -1.15174 -1.58096 0
M  V30 3782 C 340.142 0.282858 -2.09196 0
M  V30 3783 O 339.49 1.28151 -1.89181 0
M  V30 3784 C 339.7 -2.1907 -2.71679 0
M  V30 3785 C 341.048 -2.53093 -3.40924 0
M  V30 3786 O 342.072 -2.17717 -2.81918 0
M  V30 3787 O 340.931 -3.1379 -4.47435 0
M  V30 3788 H 338.025 -0.445303 -0.696875 0
M  V30 3789 H 340.571 -1.44833 -0.884385 0
M  V30 3790 H 339.343 -3.15443 -2.31541 0
M  V30 3791 H 338.966 -1.90481 -3.49002 0
M  V30 3792 N 339.963 1.05934 -1.16686 0
M  V30 3793 C 340.893 2.1546 -0.899949 0
M  V30 3794 C 341.874 1.69391 0.155154 0
M  V30 3795 O 343.059 1.94199 0.00648693 0
M  V30 3796 C 340.189 3.44939 -0.404241 0
M  V30 3797 C 339.143 4.04536 -1.39767 0
M  V30 3798 C 338.469 5.29268 -0.760216 0
M  V30 3799 C 339.769 4.42893 -2.76845 0
M  V30 3800 H 341.463 2.38046 -1.81588 0
M  V30 3801 H 339.009 1.14404 -0.874514 0
M  V30 3802 H 340.962 4.20901 -0.204971 0
M  V30 3803 H 339.686 3.21983 0.547206 0
M  V30 3804 H 338.345 3.30635 -1.58355 0
M  V30 3805 H 337.993 5.02611 0.197831 0
M  V30 3806 H 337.693 5.70101 -1.42332 0
M  V30 3807 H 339.217 6.07924 -0.57105 0
M  V30 3808 H 340.631 5.09921 -2.62019 0
M  V30 3809 H 339.028 4.94721 -3.39663 0
M  V30 3810 H 340.098 3.53584 -3.31823 0
M  V30 3811 N 341.441 0.965919 1.2453 0
M  V30 3812 C 342.374 0.4393 2.23932 0
M  V30 3813 C 343.352 -0.485615 1.55179 0
M  V30 3814 O 344.536 -0.417402 1.83821 0
M  V30 3815 C 341.663 -0.366042 3.36716 0
M  V30 3816 C 340.709 0.5009 4.23548 0
M  V30 3817 S 341.542 1.94002 4.99123 0
M  V30 3818 C 342.698 1.14342 6.15367 0
M  V30 3819 H 342.931 1.28167 2.68254 0
M  V30 3820 H 340.464 0.770819 1.33782 0
M  V30 3821 H 342.422 -0.824724 4.0213 0
M  V30 3822 H 341.083 -1.18337 2.90956 0
M  V30 3823 H 340.276 -0.117341 5.03863 0
M  V30 3824 H 339.878 0.89524 3.63127 0
M  V30 3825 H 342.17 0.397572 6.76332 0
M  V30 3826 H 343.113 1.92089 6.81548 0
M  V30 3827 H 343.521 0.668579 5.60527 0
M  V30 3828 N 342.919 -1.39368 0.735821 0
M  V30 3829 C 344.166 -2.00497 0.284123 0
M  V30 3830 C 344.494 -1.58387 -1.12889 0
M  V30 3831 O 343.749 -0.804359 -1.78406 0
M  V30 3832 C 344.048 -3.5583 0.334651 0
M  V30 3833 C 343.714 -4.17593 1.7008 0
M  V30 3834 C 342.376 -4.34176 2.07472 0
M  V30 3835 C 344.728 -4.51848 2.59775 0
M  V30 3836 C 342.056 -4.82304 3.34065 0
M  V30 3837 C 344.408 -5.01384 3.85741 0
M  V30 3838 C 343.072 -5.16175 4.23225 0
M  V30 3839 H 342.342 -0.73367 0.103968 0
M  V30 3840 H 344.989 -1.66683 0.942825 0
M  V30 3841 H 343.294 -3.89674 -0.407625 0
M  V30 3842 H 344.991 -4.00986 -0.0329927 0
M  V30 3843 H 341.581 -4.05087 1.40008 0
M  V30 3844 H 345.765 -4.38653 2.32157 0
M  V30 3845 H 341.021 -4.91941 3.63049 0
M  V30 3846 H 345.195 -5.26863 4.55399 0
M  V30 3847 H 342.822 -5.5323 5.21384 0
M  V30 3848 N 344.397 -0.483516 -1.5 0
M  V30 3849 C 345.645 0.067027 -2.01989 0
M  V30 3850 C 345.966 1.3909 -1.36671 0
M  V30 3851 O 345.236 1.88978 -0.516152 0
M  V30 3852 H 343.816 0.0277606 -0.746484 0
M  V30 3853 H 346.478 -0.636773 -1.84204 0
M  V30 3854 H 345.574 0.209484 -3.11396 0
M  V30 3855 N 345.875 1.56104 -0.216619 0
M  V30 3856 C 347.105 2.02269 0.420802 0
M  V30 3857 C 347.513 1.09575 1.5424 0
M  V30 3858 O 346.856 0.0967308 1.83445 0
M  V30 3859 C 346.918 3.44784 1.01806 0
M  V30 3860 C 346.582 4.56988 0.0325154 0
M  V30 3861 C 347.579 5.14225 -0.766055 0
M  V30 3862 C 345.264 5.02228 -0.0848092 0
M  V30 3863 C 347.258 6.15169 -1.6687 0
M  V30 3864 C 344.945 6.03011 -0.990994 0
M  V30 3865 C 345.943 6.59357 -1.78149 0
M  V30 3866 O 345.631 7.58179 -2.67245 0
M  V30 3867 H 345.363 0.667353 0.107776 0
M  V30 3868 H 347.917 2.02747 -0.329034 0
M  V30 3869 H 346.147 3.41359 1.81689 0
M  V30 3870 H 347.836 3.74626 1.56237 0
M  V30 3871 H 348.602 4.80126 -0.685836 0
M  V30 3872 H 344.481 4.58054 0.520349 0
M  V30 3873 H 348.025 6.59076 -2.28615 0
M  V30 3874 H 343.922 6.36532 -1.07225 0
M  V30 3875 H 344.69 7.75682 -2.61265 0
M  V30 3876 N 347.353 -0.0568162 1.57498 0
M  V30 3877 C 348.285 -1.09292 2.01464 0
M  V30 3878 C 349.298 -1.34112 0.922913 0
M  V30 3879 O 350.487 -1.32089 1.20062 0
M  V30 3880 C 347.587 -2.44068 2.35125 0
M  V30 3881 C 346.76 -2.38995 3.66333 0
M  V30 3882 C 345.819 -3.55997 3.87495 0
M  V30 3883 O 344.845 -3.36746 4.58901 0
M  V30 3884 N 346.047 -4.76888 3.30996 0
M  V30 3885 H 348.812 -0.718386 2.90963 0
M  V30 3886 H 346.373 -0.245235 1.60032 0
M  V30 3887 H 348.365 -3.21011 2.46443 0
M  V30 3888 H 346.935 -2.73468 1.5144 0
M  V30 3889 H 346.155 -1.47336 3.65631 0
M  V30 3890 H 347.443 -2.3272 4.52458 0
M  V30 3891 H 346.841 -4.95431 2.73065 0
M  V30 3892 H 345.398 -5.51291 3.47738 0
M  V30 3893 N 348.832 -1.54138 -0.328536 0
M  V30 3894 C 350.079 -1.72105 -1.06706 0
M  V30 3895 C 350.407 -0.492111 -1.88171 0
M  V30 3896 O 349.662 0.526153 -1.88494 0
M  V30 3897 C 349.961 -2.9457 -2.02393 0
M  V30 3898 C 349.627 -4.29544 -1.37122 0
M  V30 3899 C 348.289 -4.6624 -1.19052 0
M  V30 3900 C 350.641 -5.1333 -0.902331 0
M  V30 3901 C 347.969 -5.84325 -0.527331 0
M  V30 3902 C 350.321 -6.32094 -0.252988 0
M  V30 3903 C 348.985 -6.67473 -0.0600901 0
M  V30 3904 H 348.255 -0.629775 -0.390466 0
M  V30 3905 H 350.902 -1.88372 -0.34473 0
M  V30 3906 H 349.207 -2.72969 -2.81061 0
M  V30 3907 H 350.904 -3.05665 -2.59557 0
M  V30 3908 H 347.494 -4.0067 -1.52188 0
M  V30 3909 H 351.678 -4.855 -1.02974 0
M  V30 3910 H 346.934 -6.103 -0.366634 0
M  V30 3911 H 351.108 -6.96299 0.118366 0
M  V30 3912 H 348.735 -7.58832 0.455828 0
M  V30 3913 N 350.31 0.590341 -1.46126 0
M  V30 3914 C 351.24 1.71032 -1.58966 0
M  V30 3915 C 352.221 1.64302 -0.440335 0
M  V30 3916 O 353.406 1.82436 -0.665634 0
M  V30 3917 C 350.536 3.09665 -1.57241 0
M  V30 3918 C 349.49 3.31221 -2.71066 0
M  V30 3919 C 348.816 4.70303 -2.54399 0
M  V30 3920 C 350.116 3.19796 -4.1295 0
M  V30 3921 H 351.81 1.60543 -2.52718 0
M  V30 3922 H 349.356 0.770933 -1.21625 0
M  V30 3923 H 351.309 3.87831 -1.64819 0
M  V30 3924 H 350.033 3.21036 -0.600289 0
M  V30 3925 H 348.692 2.55452 -2.62944 0
M  V30 3926 H 348.34 4.78429 -1.55288 0
M  V30 3927 H 348.04 4.85679 -3.30741 0
M  V30 3928 H 349.564 5.50647 -2.63857 0
M  V30 3929 H 350.978 3.87815 -4.22223 0
M  V30 3930 H 349.375 3.46696 -4.89818 0
M  V30 3931 H 350.445 2.16983 -4.33643 0
M  V30 3932 N 351.788 1.33704 0.83433 0
M  V30 3933 C 352.736 1.24323 1.96587 0
M  V30 3934 C 353.73 0.143659 1.6879 0
M  V30 3935 O 354.936 0.30791 1.77347 0
M  V30 3936 H 351.311 0.385925 0.645419 0
M  V30 3937 H 353.282 2.19978 2.01624 0
M  V30 3938 C 352.031 1.00394 3.32891 0
M  V30 3939 H 351.354 1.84231 3.54822 0
M  V30 3940 H 352.794 0.97862 4.12552 0
M  V30 3941 C 351.253 -0.293047 3.35623 0
M  V30 3942 O 351.783 -1.29823 3.80143 0
M  V30 3943 N 349.989 -0.322174 2.88809 0
M  V30 3944 H 349.536 0.496379 2.52772 0
M  V30 3945 H 349.494 -1.18977 2.91019 0
M  V30 3946 N 353.266 -1.05314 1.17247 0
M  V30 3947 C 354.514 -1.77941 0.958194 0
M  V30 3948 C 354.835 -1.88089 -0.514556 0
M  V30 3949 O 354.105 -1.39676 -1.37359 0
M  V30 3950 H 352.685 -0.659116 0.351533 0
M  V30 3951 H 355.347 -1.27166 1.47699 0
M  V30 3952 H 354.443 -2.79663 1.38546 0
M  V30 3953 N 354.744 -0.972509 -1.24016 0
M  V30 3954 C 355.984 -0.644951 -1.93958 0
M  V30 3955 C 356.348 0.80559 -1.74282 0
M  V30 3956 O 357.549 1.2436 -2.38302 0
M  V30 3957 C 355.82 -1.01521 -3.42678 0
M  V30 3958 S 357.379 -0.802927 -4.31391 0
M  V30 3959 H 354.197 -0.236452 -0.670531 0
M  V30 3960 H 356.799 -1.25048 -1.50277 0
M  V30 3961 H 355.503 -2.06769 -3.54506 0
M  V30 3962 H 355.034 -0.400648 -3.91355 0
M  V30 3963 H 357.049 0.317256 -4.95185 0
M  V30 3964 N 356.222 1.38976 -0.743202 0
M  V30 3965 C 357.17 2.32394 -0.0978389 0
M  V30 3966 C 358.164 1.53486 0.716824 0
M  V30 3967 O 359.37 1.69092 0.617088 0
M  V30 3968 H 355.745 0.75189 -0.0128402 0
M  V30 3969 H 357.716 2.84441 -0.901981 0
M  V30 3970 C 356.465 3.38629 0.789036 0
M  V30 3971 H 355.788 3.99432 0.171559 0
M  V30 3972 H 357.228 4.06426 1.20807 0
M  V30 3973 C 355.687 2.76347 1.92702 0
M  V30 3974 O 356.217 2.64836 3.02034 0
M  V30 3975 N 354.423 2.34311 1.71891 0
M  V30 3976 H 353.97 2.43873 0.829675 0
M  V30 3977 H 353.928 1.9298 2.48205 0
M  V30 3978 N 357.7 0.491464 1.49741 0
M  V30 3979 C 359.111 0.0413169 1.86654 0
M  V30 3980 C 359.462 -1.36985 1.40462 0
M  V30 3981 O 358.587 -2.01917 0.778354 0
M  V30 3982 C 359.182 0.0682023 3.38731 0
M  V30 3983 C 357.741 -0.32656 3.74981 0
M  V30 3984 C 356.888 0.444888 2.73708 0
M  V30 3985 H 359.839 0.704733 1.42194 0
M  V30 3986 H 359.86 -0.729322 3.73445 0
M  V30 3987 H 359.372 1.09539 3.72321 0
M  V30 3988 H 357.473 -1.35734 3.46997 0
M  V30 3989 H 357.586 -0.013741 4.79098 0
M  V30 3990 H 355.95 -0.104062 2.54487 0
M  V30 3991 H 356.733 1.47197 3.10142 0
M  V30 3992 N 359.178 -1.55987 0.224894 0
M  V30 3993 C 360.424 -1.98684 -0.406502 0
M  V30 3994 C 360.757 -1.11248 -1.59177 0
M  V30 3995 O 360.032 -0.170909 -1.93748 0
M  V30 3996 C 360.315 -3.50218 -0.837808 0
M  V30 3997 C 360.168 -4.48426 0.351332 0
M  V30 3998 C 361.487 -4.06243 -1.69278 0
M  V30 3999 H 358.606 -0.722337 -0.146283 0
M  V30 4000 H 361.248 -1.87255 0.321799 0
M  V30 4001 H 359.398 -3.60089 -1.45837 0
M  V30 4002 H 361.07 -4.50562 0.989526 0
M  V30 4003 H 359.313 -4.22159 0.998207 0
M  V30 4004 H 359.984 -5.52 0.00655905 0
M  V30 4005 H 362.46 -3.99337 -1.16914 0
M  V30 4006 H 361.336 -5.12581 -1.96346 0
M  V30 4007 H 361.597 -3.53332 -2.65723 0
M  V30 4008 N 360.656 0.0484629 -1.57525 0
M  V30 4009 C 361.586 1.0549 -2.08313 0
M  V30 4010 C 362.567 1.38929 -0.981463 0
M  V30 4011 O 363.752 1.48151 -1.25558 0
M  V30 4012 C 360.882 2.36162 -2.54646 0
M  V30 4013 C 359.836 2.17016 -3.68901 0
M  V30 4014 C 359.162 3.53278 -4.01371 0
M  V30 4015 C 360.462 1.57219 -4.98076 0
M  V30 4016 H 362.156 0.632195 -2.92649 0
M  V30 4017 H 359.702 0.302654 -1.40784 0
M  V30 4018 H 361.655 3.06882 -2.88793 0
M  V30 4019 H 360.379 2.80456 -1.67368 0
M  V30 4020 H 359.038 1.48733 -3.35073 0
M  V30 4021 H 358.686 3.95185 -3.11188 0
M  V30 4022 H 358.386 3.41299 -4.78318 0
M  V30 4023 H 359.91 4.25391 -4.38035 0
M  V30 4024 H 361.324 2.17832 -5.30304 0
M  V30 4025 H 359.721 1.55871 -5.79503 0
M  V30 4026 H 360.791 0.535956 -4.81929 0
M  V30 4027 N 362.134 1.5431 0.320358 0
M  V30 4028 C 363.383 1.7188 1.05546 0
M  V30 4029 C 363.696 0.501143 1.89071 0
M  V30 4030 O 364.902 0.558258 2.65699 0
M  V30 4031 C 363.358 3.04025 1.92605 0
M  V30 4032 C 362.966 4.33207 1.14176 0
M  V30 4033 C 364.71 3.30959 2.65832 0
M  V30 4034 C 362.617 5.56412 2.00399 0
M  V30 4035 H 361.547 0.640547 0.397763 0
M  V30 4036 H 364.198 1.80802 0.313522 0
M  V30 4037 H 362.58 2.89019 2.7071 0
M  V30 4038 H 363.754 4.58989 0.40819 0
M  V30 4039 H 362.069 4.13062 0.526165 0
M  V30 4040 H 364.666 4.20203 3.30656 0
M  V30 4041 H 365.009 2.48979 3.33639 0
M  V30 4042 H 365.542 3.46847 1.94787 0
M  V30 4043 H 362.281 6.41004 1.37094 0
M  V30 4044 H 361.801 5.34844 2.7148 0
M  V30 4045 H 363.48 5.92938 2.58908 0
M  V30 4046 N 363.613 -0.582584 1.46437 0
M  V30 4047 C 365.029 -0.905962 1.31394 0
M  V30 4048 C 365.229 -1.99468 0.285476 0
M  V30 4049 O 364.285 -2.50566 -0.311914 0
M  V30 4050 C 365.598 -1.3232 2.70022 0
M  V30 4051 C 367.146 -1.43604 2.78113 0
M  V30 4052 C 367.621 -1.88694 4.17323 0
M  V30 4053 N 369.112 -1.95887 4.19741 0
M  V30 4054 C 369.847 -2.32051 5.24347 0
M  V30 4055 N 369.343 -2.67006 6.39281 0
M  V30 4056 N 371.136 -2.32606 5.11713 0
M  V30 4057 H 363.287 0.1366 2.1196 0
M  V30 4058 H 365.55 -0.00155736 0.947999 0
M  V30 4059 H 365.256 -0.597242 3.46592 0
M  V30 4060 H 365.13 -2.28469 3.00136 0
M  V30 4061 H 367.517 -2.15286 2.01832 0
M  V30 4062 H 367.598 -0.457059 2.51684 0
M  V30 4063 H 367.242 -1.1759 4.941 0
M  V30 4064 H 367.172 -2.8755 4.4116 0
M  V30 4065 H 369.663 -1.71362 3.36814 0
M  V30 4066 H 369.976 -2.93554 7.14875 0
M  V30 4067 H 368.321 -2.64644 6.42642 0
M  V30 4068 H 371.512 -2.04721 4.2096 0
M  V30 4069 H 371.685 -2.60462 5.93349 0
M  V30 4070 N 365.091 -1.34144 -0.827227 0
M  V30 4071 C 366.507 -1.13732 -1.11969 0
M  V30 4072 C 366.707 0.0640463 -2.01398 0
M  V30 4073 O 365.763 0.740856 -2.41387 0
M  V30 4074 C 367.076 -2.43047 -1.77055 0
M  V30 4075 C 368.624 -2.49063 -1.89569 0
M  V30 4076 C 369.099 -3.78369 -2.58072 0
M  V30 4077 N 370.59 -3.79505 -2.65575 0
M  V30 4078 C 371.325 -4.76274 -3.19297 0
M  V30 4079 N 370.821 -5.83424 -3.73616 0
M  V30 4080 N 372.614 -4.63735 -3.17658 0
M  V30 4081 H 364.765 -2.11126 -0.232296 0
M  V30 4082 H 367.028 -0.933424 -0.165602 0
M  V30 4083 H 366.734 -3.31025 -1.18807 0
M  V30 4084 H 366.608 -2.56066 -2.76966 0
M  V30 4085 H 368.995 -1.61527 -2.46968 0
M  V30 4086 H 369.076 -2.39975 -0.885745 0
M  V30 4087 H 368.72 -4.66293 -2.01329 0
M  V30 4088 H 368.65 -3.84737 -3.59562 0
M  V30 4089 H 371.141 -3.02074 -2.27068 0
M  V30 4090 H 371.454 -6.53282 -4.12846 0
M  V30 4091 H 369.799 -5.87143 -3.71871 0
M  V30 4092 H 372.99 -3.79177 -2.74486 0
M  V30 4093 H 373.163 -5.39318 -3.59221 0
M  V30 4094 N 366.569 1.04691 -1.17803 0
M  V30 4095 C 367.809 1.79352 -0.980423 0
M  V30 4096 C 368.173 1.85853 0.481958 0
M  V30 4097 O 369.374 2.56656 0.798809 0
M  V30 4098 C 367.645 3.19088 -1.6099 0
M  V30 4099 S 369.204 4.10164 -1.55918 0
M  V30 4100 H 366.022 0.617631 -0.352211 0
M  V30 4101 H 368.624 1.25575 -1.49837 0
M  V30 4102 H 367.328 3.11962 -2.66661 0
M  V30 4103 H 366.859 3.77941 -1.09197 0
M  V30 4104 H 368.874 4.92907 -0.570685 0
M  V30 4105 N 368.047 0.979072 1.23499 0
M  V30 4106 C 369.275 0.665202 1.95915 0
M  V30 4107 C 369.69 -0.767571 1.72493 0
M  V30 4108 O 369.047 -1.51635 1.01554 0
M  V30 4109 C 369.098 0.944438 3.48945 0
M  V30 4110 O 368.819 2.3209 3.71572 0
M  V30 4111 C 370.32 0.646336 4.38563 0
M  V30 4112 H 367.54 0.247218 0.623798 0
M  V30 4113 H 370.084 1.31009 1.57025 0
M  V30 4114 H 368.239 0.345575 3.85856 0
M  V30 4115 H 368.653 2.40957 4.65876 0
M  V30 4116 H 370.127 0.892091 5.44744 0
M  V30 4117 H 370.604 -0.419575 4.37191 0
M  V30 4118 H 371.21 1.22562 4.07258 0
M  V30 4119 N 369.525 -1.3858 0.750561 0
M  V30 4120 C 370.435 -2.34278 0.122825 0
M  V30 4121 C 371.451 -1.59116 -0.704131 0
M  V30 4122 O 372.627 -1.91326 -0.628987 0
M  V30 4123 C 369.692 -3.38221 -0.762086 0
M  V30 4124 C 368.753 -4.29227 0.078896 0
M  V30 4125 C 367.986 -5.28205 -0.763874 0
M  V30 4126 O 368.209 -5.34112 -2.00201 0
M  V30 4127 O 367.143 -6.01618 -0.18428 0
M  V30 4128 H 370.969 -2.89649 0.913088 0
M  V30 4129 H 368.554 -1.40374 0.511417 0
M  V30 4130 H 370.436 -4.01872 -1.26793 0
M  V30 4131 H 369.111 -2.85211 -1.5309 0
M  V30 4132 H 368.018 -3.68747 0.630621 0
M  V30 4133 H 369.351 -4.85484 0.810289 0
M  V30 4134 N 371.003 -0.499398 -1.49478 0
M  V30 4135 C 371.933 0.269244 -2.31943 0
M  V30 4136 C 372.914 0.964054 -1.40143 0
M  V30 4137 O 374.099 0.955767 -1.69052 0
M  V30 4138 C 371.229 1.33504 -3.20615 0
M  V30 4139 C 370.183 0.760202 -4.21195 0
M  V30 4140 C 369.509 1.9264 -4.98792 0
M  V30 4141 C 370.809 -0.247661 -5.21712 0
M  V30 4142 H 372.503 -0.419082 -2.96452 0
M  V30 4143 H 370.049 -0.202988 -1.42562 0
M  V30 4144 H 372.002 1.88048 -3.77115 0
M  V30 4145 H 370.726 2.05253 -2.54045 0
M  V30 4146 H 369.385 0.23653 -3.65836 0
M  V30 4147 H 369.033 2.63154 -4.28671 0
M  V30 4148 H 368.733 1.54785 -5.66847 0
M  V30 4149 H 370.257 2.4762 -5.58137 0
M  V30 4150 H 371.671 0.209579 -5.72917 0
M  V30 4151 H 370.068 -0.541962 -5.97648 0
M  V30 4152 H 371.138 -1.16409 -4.7072 0
M  V30 4153 N 372.481 1.55866 -0.233164 0
M  V30 4154 C 373.892 1.847 0.272554 0
M  V30 4155 C 374.243 1.15477 1.58617 0
M  V30 4156 O 373.368 0.42841 2.12117 0
M  V30 4157 C 373.963 3.35071 0.501299 0
M  V30 4158 C 372.522 3.6418 0.951304 0
M  V30 4159 C 371.669 2.77292 0.0208209 0
M  V30 4160 H 374.62 1.52005 -0.456074 0
M  V30 4161 H 374.641 3.55906 1.34577 0
M  V30 4162 H 374.153 3.85424 -0.454936 0
M  V30 4163 H 372.254 3.19293 1.92049 0
M  V30 4164 H 372.367 4.72071 0.817675 0
M  V30 4165 H 370.731 2.49131 0.529723 0
M  V30 4166 H 371.514 3.30448 -0.93054 0
M  V30 4167 N 373.959 -0.0401083 1.57549 0
M  V30 4168 C 374.869 -1.06133 2.0922 0
M  V30 4169 C 375.885 -1.40356 1.0284 0
M  V30 4170 O 377.061 -1.49897 1.34509 0
M  V30 4171 C 374.126 -2.34658 2.55218 0
M  V30 4172 C 373.187 -2.07117 3.76033 0
M  V30 4173 C 372.42 -3.29514 4.19829 0
M  V30 4174 O 372.643 -4.39794 3.63232 0
M  V30 4175 O 371.577 -3.15863 5.12362 0
M  V30 4176 H 375.403 -0.652244 2.96613 0
M  V30 4177 H 372.988 -0.256368 1.47184 0
M  V30 4178 H 374.87 -3.10239 2.85184 0
M  V30 4179 H 373.545 -2.74883 1.70941 0
M  V30 4180 H 372.452 -1.29139 3.51104 0
M  V30 4181 H 373.785 -1.71754 4.61261 0
M  V30 4182 N 375.437 -1.54477 -0.31217 0
M  V30 4183 C 376.384 -1.84655 -1.38461 0
M  V30 4184 C 377.354 -0.694536 -1.50882 0
M  V30 4185 O 378.539 -0.942081 -1.6592 0
M  V30 4186 C 375.679 -2.0896 -2.74645 0
M  V30 4187 C 374.792 -3.36618 -2.70763 0
M  V30 4188 C 373.927 -3.50824 -3.98868 0
M  V30 4189 C 372.966 -4.72315 -3.89339 0
M  V30 4190 N 372.103 -4.83387 -5.09197 0
M  V30 4191 H 376.943 -2.76142 -1.12026 0
M  V30 4192 H 374.48 -1.36748 -0.542065 0
M  V30 4193 H 376.438 -2.21045 -3.53829 0
M  V30 4194 H 375.068 -1.20752 -2.99364 0
M  V30 4195 H 374.12 -3.33211 -1.83506 0
M  V30 4196 H 375.432 -4.25917 -2.59608 0
M  V30 4197 H 374.586 -3.62513 -4.86486 0
M  V30 4198 H 373.325 -2.59638 -4.12843 0
M  V30 4199 H 372.33 -4.6067 -3.00105 0
M  V30 4200 H 373.555 -5.64897 -3.76919 0
M  V30 4201 H 371.501 -3.9512 -5.23657 0
M  V30 4202 H 371.418 -5.66669 -5.00422 0
M  V30 4203 H 372.686 -4.9942 -5.98498 0
M  V30 4204 N 376.915 0.57481 -1.46744 0
M  V30 4205 C 377.845 1.69337 -1.60771 0
M  V30 4206 C 378.826 1.63825 -0.457736 0
M  V30 4207 O 380.011 1.8172 -0.684947 0
M  V30 4208 C 377.141 3.0798 -1.60517 0
M  V30 4209 C 376.095 3.28327 -2.74564 0
M  V30 4210 C 375.421 4.67578 -2.59373 0
M  V30 4211 C 376.721 3.15398 -4.16319 0
M  V30 4212 H 378.415 1.57853 -2.54407 0
M  V30 4213 H 375.961 0.75799 -1.22436 0
M  V30 4214 H 377.914 3.86061 -1.68923 0
M  V30 4215 H 376.638 3.20381 -0.634305 0
M  V30 4216 H 375.297 2.52649 -2.65639 0
M  V30 4217 H 374.945 4.76755 -1.60353 0
M  V30 4218 H 374.645 4.82144 -3.35873 0
M  V30 4219 H 376.169 5.47817 -2.69682 0
M  V30 4220 H 377.583 3.83315 -4.26313 0
M  V30 4221 H 375.98 3.41482 -4.93468 0
M  V30 4222 H 377.05 2.12372 -4.3592 0
M  V30 4223 N 378.394 1.34581 0.820102 0
M  V30 4224 C 379.805 1.24298 1.39309 0
M  V30 4225 C 380.156 -0.130351 1.95767 0
M  V30 4226 O 379.281 -1.0308 1.90272 0
M  V30 4227 C 379.876 2.25054 2.53251 0
M  V30 4228 C 378.435 2.18552 3.0645 0
M  V30 4229 C 377.582 2.11503 1.79337 0
M  V30 4230 H 380.533 1.45906 0.624262 0
M  V30 4231 H 380.554 1.86917 3.31425 0
M  V30 4232 H 380.066 3.24996 2.1213 0
M  V30 4233 H 378.167 1.21976 3.52069 0
M  V30 4234 H 378.28 3.0993 3.65349 0
M  V30 4235 H 376.644 1.57268 2.00347 0
M  V30 4236 H 377.427 3.13284 1.40386 0
M  V30 4237 N 379.872 -1.04064 1.18357 0
M  V30 4238 C 381.118 -1.77528 0.980397 0
M  V30 4239 C 381.451 -1.87948 -0.48879 0
M  V30 4240 O 380.726 -1.3876 -1.36293 0
M  V30 4241 C 381.009 -3.20797 1.63588 0
M  V30 4242 C 380.862 -3.1832 3.17793 0
M  V30 4243 C 382.181 -4.18911 1.34914 0
M  V30 4244 H 379.3 -0.644443 0.357578 0
M  V30 4245 H 381.942 -1.2156 1.46024 0
M  V30 4246 H 380.092 -3.68586 1.22788 0
M  V30 4247 H 381.764 -2.78521 3.67728 0
M  V30 4248 H 380.007 -2.56351 3.49952 0
M  V30 4249 H 380.678 -4.19489 3.58794 0
M  V30 4250 H 383.154 -3.7967 1.70265 0
M  V30 4251 H 382.03 -5.17374 1.83346 0
M  V30 4252 H 382.291 -4.41262 0.272027 0
M  V30 4253 N 381.35 -0.985608 -1.22978 0
M  V30 4254 C 382.578 -0.675582 -1.95559 0
M  V30 4255 C 382.993 0.758413 -1.72897 0
M  V30 4256 O 382.35 1.51094 -1.02357 0
M  V30 4257 C 382.401 -0.96293 -3.48439 0
M  V30 4258 O 382.122 -2.34057 -3.70336 0
M  V30 4259 C 383.623 -0.669585 -4.38214 0
M  V30 4260 H 380.843 -0.250523 -0.622478 0
M  V30 4261 H 383.387 -1.3184 -1.56328 0
M  V30 4262 H 381.542 -0.366033 -3.85667 0
M  V30 4263 H 381.956 -2.43424 -4.64591 0
M  V30 4264 H 383.43 -0.920967 -5.44263 0
M  V30 4265 H 383.907 0.396383 -4.37408 0
M  V30 4266 H 384.513 -1.2472 -4.06602 0
M  V30 4267 N 382.828 1.3818 -0.7579 0
M  V30 4268 C 384.056 2.04301 -0.326937 0
M  V30 4269 C 384.471 1.57163 1.0462 0
M  V30 4270 O 383.828 0.746626 1.66529 0
M  V30 4271 C 383.879 3.59846 -0.345363 0
M  V30 4272 O 383.6 4.05256 -1.66432 0
M  V30 4273 C 385.101 4.4319 0.098927 0
M  V30 4274 H 382.321 0.656443 -0.139012 0
M  V30 4275 H 384.865 1.76786 -1.02796 0
M  V30 4276 H 383.02 3.86182 0.306955 0
M  V30 4277 H 383.434 4.99709 -1.59345 0
M  V30 4278 H 384.908 5.51989 0.0348745 0
M  V30 4279 H 385.385 4.23947 1.14741 0
M  V30 4280 H 385.991 4.22051 -0.52468 0
M  V30 4281 N 384.306 0.507319 1.49211 0
M  V30 4282 C 385.216 -0.272136 2.33016 0
M  V30 4283 C 386.232 -0.961206 1.45041 0
M  V30 4284 O 387.408 -0.941191 1.78055 0
M  V30 4285 C 384.473 -1.31895 3.20631 0
M  V30 4286 C 383.534 -0.642648 4.24463 0
M  V30 4287 C 382.767 -1.63959 5.07891 0
M  V30 4288 O 382.99 -2.87007 4.92933 0
M  V30 4289 O 381.924 -1.19143 5.8999 0
M  V30 4290 H 385.75 0.413982 3.00865 0
M  V30 4291 H 383.335 0.268556 1.46966 0
M  V30 4292 H 385.217 -1.92446 3.7489 0
M  V30 4293 H 383.892 -1.98788 2.5547 0
M  V30 4294 H 382.799 0.00276252 3.741 0
M  V30 4295 H 384.132 -0.0160534 4.92197 0
M  V30 4296 N 385.784 -1.5574 0.241426 0
M  V30 4297 C 386.717 -2.17168 -0.700935 0
M  V30 4298 C 387.695 -1.12206 -1.1768 0
M  V30 4299 O 388.879 -1.40565 -1.25593 0
M  V30 4300 C 386.006 -2.76796 -1.95196 0
M  V30 4301 C 385.052 -3.94764 -1.61442 0
M  V30 4302 S 385.885 -5.30613 -0.72182 0
M  V30 4303 C 387.041 -5.93691 -1.98197 0
M  V30 4304 H 387.274 -2.96761 -0.178882 0
M  V30 4305 H 384.807 -1.54378 0.0259299 0
M  V30 4306 H 386.765 -3.11787 -2.67019 0
M  V30 4307 H 385.426 -1.9716 -2.44514 0
M  V30 4308 H 384.619 -4.35057 -2.54443 0
M  V30 4309 H 384.221 -3.61022 -0.976672 0
M  V30 4310 H 386.513 -6.10874 -2.92983 0
M  V30 4311 H 387.456 -6.89258 -1.62262 0
M  V30 4312 H 387.864 -5.22709 -2.13156 0
M  V30 4313 N 387.262 0.0317525 -1.57568 0
M  V30 4314 C 388.508 0.724175 -1.8943 0
M  V30 4315 C 388.841 1.75149 -0.838836 0
M  V30 4316 O 388.116 1.93948 0.146422 0
M  V30 4317 C 388.399 1.39615 -3.31933 0
M  V30 4318 C 388.252 0.382537 -4.4817 0
M  V30 4319 C 389.571 2.33084 -3.73309 0
M  V30 4320 H 386.69 0.261797 -0.688935 0
M  V30 4321 H 389.332 -0.013017 -1.89996 0
M  V30 4322 H 387.482 2.02451 -3.31581 0
M  V30 4323 H 389.154 -0.243689 -4.60656 0
M  V30 4324 H 387.397 -0.29844 -4.32772 0
M  V30 4325 H 388.068 0.891145 -5.44759 0
M  V30 4326 H 390.544 1.80295 -3.7501 0
M  V30 4327 H 389.42 2.77084 -4.73831 0
M  V30 4328 H 389.681 3.19643 -3.05419 0
M  V30 4329 N 388.74 1.54641 0.303973 0
M  V30 4330 C 389.65 1.88439 1.39743 0
M  V30 4331 C 390.666 0.778239 1.55626 0
M  V30 4332 O 391.842 1.07442 1.70347 0
M  V30 4333 C 388.907 2.12212 2.74166 0
M  V30 4334 C 387.968 3.35936 2.67293 0
M  V30 4335 C 387.201 3.58566 3.95305 0
M  V30 4336 O 387.424 2.84263 4.9452 0
M  V30 4337 O 386.358 4.52078 3.97378 0
M  V30 4338 H 390.184 2.81458 1.14083 0
M  V30 4339 H 387.769 1.40793 0.499768 0
M  V30 4340 H 389.651 2.29067 3.53704 0
M  V30 4341 H 388.326 1.22379 2.99675 0
M  V30 4342 H 387.233 3.24448 1.86237 0
M  V30 4343 H 388.566 4.2589 2.46736 0
M  V30 4344 N 390.218 -0.567019 1.47046 0
M  V30 4345 C 391.458 -1.3355 1.54738 0
M  V30 4346 C 391.822 -1.90947 0.200772 0
M  V30 4347 O 393.023 -2.68367 0.152489 0
M  V30 4348 C 391.294 -2.42317 2.62712 0
M  V30 4349 S 392.853 -3.29383 2.89918 0
M  V30 4350 H 389.671 -0.454788 0.546525 0
M  V30 4351 H 392.273 -0.650191 1.84371 0
M  V30 4352 H 390.977 -1.98568 3.59164 0
M  V30 4353 H 390.508 -3.15601 2.34861 0
M  V30 4354 H 392.523 -4.41548 2.26384 0
M  V30 4355 N 391.696 -1.35014 -0.812953 0
M  V30 4356 C 392.921 -1.31187 -1.60639 0
M  V30 4357 C 393.346 0.109382 -1.87782 0
M  V30 4358 O 392.704 1.07424 -1.46047 0
M  V30 4359 C 392.752 -2.11809 -2.91838 0
M  V30 4360 O 391.856 -1.49444 -3.8437 0
M  V30 4361 H 391.197 -0.450084 -0.488181 0
M  V30 4362 H 393.727 -1.77963 -1.00947 0
M  V30 4363 H 393.737 -2.23531 -3.41318 0
M  V30 4364 H 392.412 -3.15137 -2.71407 0
M  V30 4365 H 390.989 -1.46524 -3.42907 0
M  V30 4366 N 393.175 1.03435 -1.18907 0
M  V30 4367 C 394.105 2.13503 -0.945448 0
M  V30 4368 C 395.086 1.69682 0.119189 0
M  V30 4369 O 396.271 1.94169 -0.034707 0
M  V30 4370 C 393.401 3.44004 -0.477316 0
M  V30 4371 C 392.355 4.0148 -1.48316 0
M  V30 4372 C 391.681 5.27537 -0.872311 0
M  V30 4373 C 392.981 4.36921 -2.86177 0
M  V30 4374 H 394.675 2.34141 -1.86597 0
M  V30 4375 H 392.221 1.12523 -0.898584 0
M  V30 4376 H 394.174 4.20372 -0.294204 0
M  V30 4377 H 392.898 3.23072 0.478786 0
M  V30 4378 H 391.557 3.27201 -1.65332 0
M  V30 4379 H 391.205 5.02917 0.0911752 0
M  V30 4380 H 390.905 5.66954 -1.54393 0
M  V30 4381 H 392.429 6.06576 -0.699871 0
M  V30 4382 H 393.843 5.04248 -2.72776 0
M  V30 4383 H 392.24 4.87405 -3.50081 0
M  V30 4384 H 393.31 3.46466 -3.39248 0
M  V30 4385 N 394.653 0.992116 1.22453 0
M  V30 4386 C 395.563 0.55065 2.28046 0
M  V30 4387 C 396.579 -0.400189 1.69335 0
M  V30 4388 O 397.755 -0.267215 1.99619 0
M  V30 4389 C 394.82 -0.128496 3.46462 0
M  V30 4390 C 393.881 0.865208 4.20491 0
M  V30 4391 C 393.114 0.218377 5.33253 0
M  V30 4392 O 393.337 -0.987894 5.6178 0
M  V30 4393 O 392.271 0.922845 5.94783 0
M  V30 4394 H 396.097 1.4291 2.67975 0
M  V30 4395 H 393.682 0.760326 1.28606 0
M  V30 4396 H 395.564 -0.508947 4.18315 0
M  V30 4397 H 394.239 -0.981526 3.0846 0
M  V30 4398 H 393.146 1.29658 3.50913 0
M  V30 4399 H 394.479 1.68741 4.62371 0
M  V30 4400 N 396.131 -1.37776 0.765217 0
M  V30 4401 C 397.547 -1.53297 0.444108 0
M  V30 4402 C 397.747 -1.72515 -1.04119 0
M  V30 4403 O 396.803 -1.74278 -1.82711 0
M  V30 4404 C 398.116 -2.73328 1.25349 0
M  V30 4405 C 399.664 -2.87185 1.24473 0
M  V30 4406 C 400.139 -4.10191 2.03733 0
M  V30 4407 N 401.63 -4.17291 2.01053 0
M  V30 4408 C 402.365 -5.11488 2.59166 0
M  V30 4409 N 401.861 -6.11285 3.26041 0
M  V30 4410 N 403.654 -5.03924 2.49032 0
M  V30 4411 H 395.805 -1.23552 1.72768 0
M  V30 4412 H 398.068 -0.601103 0.733062 0
M  V30 4413 H 397.774 -2.6557 2.30577 0
M  V30 4414 H 397.648 -3.66834 0.87823 0
M  V30 4415 H 400.035 -2.94418 0.20047 0
M  V30 4416 H 400.116 -1.94657 1.65959 0
M  V30 4417 H 399.76 -4.0372 3.08176 0
M  V30 4418 H 399.69 -5.01821 1.59633 0
M  V30 4419 H 402.181 -3.45825 1.5236 0
M  V30 4420 H 402.494 -6.79678 3.67774 0
M  V30 4421 H 400.839 -6.11583 3.30138 0
M  V30 4422 H 404.03 -4.24902 1.96407 0
M  V30 4423 H 404.203 -5.77152 2.94617 0
M  V30 4424 N 397.609 -0.515225 -1.4894 0
M  V30 4425 C 398.541 0.292481 -2.27326 0
M  V30 4426 C 399.554 0.917838 -1.3446 0
M  V30 4427 O 400.743 0.798772 -1.5963 0
M  V30 4428 C 397.843 1.42803 -3.07344 0
M  V30 4429 C 397.016 0.907347 -4.27885 0
M  V30 4430 C 396.075 1.92222 -4.89834 0
M  V30 4431 O 395.101 1.48506 -5.49486 0
M  V30 4432 N 396.303 3.25355 -4.80754 0
M  V30 4433 H 399.068 -0.379721 -2.97285 0
M  V30 4434 H 396.629 -0.348638 -1.58102 0
M  V30 4435 H 398.621 2.10481 -3.45658 0
M  V30 4436 H 397.191 2.00414 -2.39902 0
M  V30 4437 H 396.411 0.0550218 -3.94162 0
M  V30 4438 H 397.699 0.538108 -5.05946 0
M  V30 4439 H 397.097 3.6355 -4.33414 0
M  V30 4440 H 395.654 3.88707 -5.23211 0
M  V30 4441 N 399.087 1.5561 -0.249682 0
M  V30 4442 C 400.017 2.24477 0.642826 0
M  V30 4443 C 400.998 1.22601 1.17911 0
M  V30 4444 O 402.183 1.5126 1.21795 0
M  V30 4445 C 399.313 2.94638 1.83863 0
M  V30 4446 C 398.267 4.03227 1.435 0
M  V30 4447 C 397.593 4.60828 2.71186 0
M  V30 4448 C 398.893 5.18796 0.604002 0
M  V30 4449 H 400.587 2.99321 0.0685625 0
M  V30 4450 H 398.133 1.43965 0.0315363 0
M  V30 4451 H 400.086 3.41517 2.46868 0
M  V30 4452 H 398.81 2.17287 2.43832 0
M  V30 4453 H 397.469 3.57121 0.828275 0
M  V30 4454 H 397.117 3.80174 3.29358 0
M  V30 4455 H 396.817 5.34132 2.44901 0
M  V30 4456 H 398.341 5.10442 3.35084 0
M  V30 4457 H 399.755 5.61883 1.13842 0
M  V30 4458 H 398.152 5.98506 0.437097 0
M  V30 4459 H 399.222 4.83384 -0.383147 0
M  V30 4460 N 400.565 -0.0233959 1.57583 0
M  V30 4461 C 401.79 -0.728376 1.94189 0
M  V30 4462 C 402.215 -1.67793 0.850119 0
M  V30 4463 O 401.573 -1.80262 -0.19371 0
M  V30 4464 C 401.621 -1.45669 3.29868 0
M  V30 4465 O 400.725 -2.57013 3.22518 0
M  V30 4466 H 400.066 -0.195493 0.63457 0
M  V30 4467 H 402.596 0.0228214 2.04587 0
M  V30 4468 H 402.606 -1.82535 3.6489 0
M  V30 4469 H 401.281 -0.760314 4.08891 0
M  V30 4470 H 399.858 -2.22648 2.99136 0
M  V30 4471 N 402.043 -1.548 -0.295768 0
M  V30 4472 C 402.973 -1.89115 -1.36959 0
M  V30 4473 C 403.954 -0.75059 -1.52644 0
M  V30 4474 O 405.139 -1.00678 -1.66065 0
M  V30 4475 C 402.269 -2.14307 -2.73295 0
M  V30 4476 C 401.223 -3.30151 -2.72368 0
M  V30 4477 C 400.549 -3.40772 -4.12042 0
M  V30 4478 C 401.849 -4.67126 -2.33646 0
M  V30 4479 H 403.543 -2.79053 -1.08488 0
M  V30 4480 H 401.089 -1.34266 -0.520443 0
M  V30 4481 H 403.042 -2.36898 -3.48507 0
M  V30 4482 H 401.766 -1.21145 -3.03301 0
M  V30 4483 H 400.425 -3.0749 -1.99613 0
M  V30 4484 H 400.073 -2.45117 -4.39234 0
M  V30 4485 H 399.773 -4.18645 -4.12322 0
M  V30 4486 H 401.297 -3.6563 -4.89027 0
M  V30 4487 H 402.711 -4.89414 -2.98575 0
M  V30 4488 H 401.108 -5.47751 -2.45129 0
M  V30 4489 H 402.178 -4.67489 -1.28772 0
M  V30 4490 N 403.521 0.559213 -1.47345 0
M  V30 4491 C 404.431 1.69388 -1.62311 0
M  V30 4492 C 405.447 1.6648 -0.505993 0
M  V30 4493 O 406.623 1.85964 -0.773262 0
M  V30 4494 C 403.688 3.05894 -1.63185 0
M  V30 4495 C 402.749 3.19885 -2.86307 0
M  V30 4496 C 401.982 4.49879 -2.87131 0
M  V30 4497 O 402.205 5.35217 -1.97229 0
M  V30 4498 O 401.139 4.67618 -3.78968 0
M  V30 4499 H 404.965 1.59706 -2.58317 0
M  V30 4500 H 402.55 0.728989 -1.30407 0
M  V30 4501 H 404.432 3.87133 -1.66451 0
M  V30 4502 H 403.107 3.15964 -0.70345 0
M  V30 4503 H 402.014 2.38052 -2.88587 0
M  V30 4504 H 403.347 3.14718 -3.78435 0
M  V30 4505 N 404.999 1.35443 0.805782 0
M  V30 4506 C 405.931 1.24285 1.92577 0
M  V30 4507 C 406.944 0.165962 1.61952 0
M  V30 4508 O 408.133 0.419303 1.73505 0
M  V30 4509 C 405.233 0.891272 3.2697 0
M  V30 4510 C 404.406 2.06669 3.85495 0
M  V30 4511 C 403.465 1.69077 4.98297 0
M  V30 4512 O 402.491 2.4096 5.15681 0
M  V30 4513 N 403.693 0.614869 5.77234 0
M  V30 4514 H 406.458 2.20777 2.02676 0
M  V30 4515 H 404.019 1.28623 0.983243 0
M  V30 4516 H 406.011 0.621256 3.99903 0
M  V30 4517 H 404.581 0.016004 3.12596 0
M  V30 4518 H 403.801 2.50046 3.04747 0
M  V30 4519 H 405.089 2.85237 4.21328 0
M  V30 4520 H 404.487 0.017648 5.65697 0
M  V30 4521 H 403.044 0.404636 6.50543 0
M  V30 4522 N 406.477 -1.02803 1.19454 0
M  V30 4523 C 407.387 -2.14575 0.948408 0
M  V30 4524 C 408.403 -1.73757 -0.091871 0
M  V30 4525 O 409.579 -2.01185 0.0929654 0
M  V30 4526 C 406.644 -3.43202 0.491265 0
M  V30 4527 C 405.705 -3.98328 1.60103 0
M  V30 4528 C 404.938 -5.20816 1.16561 0
M  V30 4529 O 405.161 -5.70392 0.0295238 0
M  V30 4530 O 404.095 -5.68801 1.96849 0
M  V30 4531 H 407.921 -2.38202 1.88397 0
M  V30 4532 H 405.506 -1.12989 0.977433 0
M  V30 4533 H 407.388 -4.20687 0.245015 0
M  V30 4534 H 406.063 -3.21018 -0.415851 0
M  V30 4535 H 404.97 -3.22174 1.90144 0
M  V30 4536 H 406.303 -4.24879 2.48473 0
M  V30 4537 N 407.956 -0.998596 -1.21925 0
M  V30 4538 C 409.202 -0.678667 -1.91107 0
M  V30 4539 C 409.535 0.78791 -1.77498 0
M  V30 4540 O 408.81 1.57043 -1.1475 0
M  V30 4541 C 409.093 -1.09245 -3.43129 0
M  V30 4542 C 408.946 -2.61801 -3.6576 0
M  V30 4543 C 410.265 -0.649984 -4.35274 0
M  V30 4544 H 407.384 -0.248025 -0.694012 0
M  V30 4545 H 410.026 -1.24314 -1.43688 0
M  V30 4546 H 408.176 -0.612171 -3.83647 0
M  V30 4547 H 409.848 -3.17543 -3.34611 0
M  V30 4548 H 408.091 -3.03609 -3.09845 0
M  V30 4549 H 408.762 -2.85804 -4.7225 0
M  V30 4550 H 411.238 -1.0626 -4.02303 0
M  V30 4551 H 410.114 -0.967743 -5.40302 0
M  V30 4552 H 410.375 0.449139 -4.39813 0
M  V30 4553 N 409.434 1.37368 -0.772513 0
M  V30 4554 C 410.366 2.28899 -0.117502 0
M  V30 4555 C 411.379 1.4867 0.663405 0
M  V30 4556 O 412.568 1.71314 0.501372 0
M  V30 4557 C 409.668 3.2788 0.857192 0
M  V30 4558 C 408.841 4.37207 0.129938 0
M  V30 4559 C 407.9 5.16257 1.01811 0
M  V30 4560 O 406.926 5.67159 0.481601 0
M  V30 4561 N 408.128 5.31058 2.3443 0
M  V30 4562 H 410.893 2.85752 -0.903662 0
M  V30 4563 H 408.454 1.49353 -0.62493 0
M  V30 4564 H 410.446 3.77647 1.45482 0
M  V30 4565 H 409.016 2.7179 1.54432 0
M  V30 4566 H 408.236 3.88827 -0.648605 0
M  V30 4567 H 409.524 5.07434 -0.372559 0
M  V30 4568 H 408.922 4.91287 2.80452 0
M  V30 4569 H 407.479 5.84131 2.89197 0
M  V30 4570 N 410.912 0.523116 1.48665 0
M  V30 4571 C 411.844 -0.280421 2.27478 0
M  V30 4572 C 412.857 -0.910694 1.34945 0
M  V30 4573 O 414.046 -0.790295 1.60052 0
M  V30 4574 C 411.146 -1.41171 3.08097 0
M  V30 4575 C 410.319 -0.884642 4.28361 0
M  V30 4576 C 409.378 -1.89622 4.90846 0
M  V30 4577 O 408.404 -1.4559 5.50265 0
M  V30 4578 N 409.606 -3.22801 4.82472 0
M  V30 4579 H 412.371 0.395481 2.97079 0
M  V30 4580 H 409.932 0.357018 1.57915 0
M  V30 4581 H 411.924 -2.08645 3.4677 0
M  V30 4582 H 410.494 -1.99139 2.40961 0
M  V30 4583 H 409.714 -0.0341177 3.94185 0
M  V30 4584 H 411.002 -0.511268 5.06225 0
M  V30 4585 H 410.4 -3.61246 4.35336 0
M  V30 4586 H 408.957 -3.85927 5.25265 0
M  V30 4587 N 412.39 -1.55475 0.257931 0
M  V30 4588 C 413.638 -1.98813 -0.363009 0
M  V30 4589 C 413.959 -1.14757 -1.57657 0
M  V30 4590 O 413.229 -0.232956 -1.9451 0
M  V30 4591 H 411.809 -0.734308 -0.137113 0
M  V30 4592 H 414.471 -1.9156 0.359281 0
M  V30 4593 H 413.567 -3.04941 -0.664634 0
M  V30 4594 N 413.868 0.0150385 -1.57593 0
M  V30 4595 C 414.816 1.02958 -2.08572 0
M  V30 4596 C 415.81 1.36554 -1.00246 0
M  V30 4597 O 417.016 1.35295 -1.18724 0
M  V30 4598 H 413.391 0.349619 -0.665786 0
M  V30 4599 H 415.362 0.573932 -2.92829 0
M  V30 4600 C 414.111 2.31752 -2.59203 0
M  V30 4601 H 413.434 2.06765 -3.42182 0
M  V30 4602 H 414.874 3.01053 -2.98568 0
M  V30 4603 C 413.333 3.01692 -1.49945 0
M  V30 4604 O 413.863 3.92083 -0.873704 0
M  V30 4605 N 412.069 2.6326 -1.23056 0
M  V30 4606 H 411.616 1.89838 -1.74125 0
M  V30 4607 H 411.574 3.10372 -0.501685 0
M  V30 4608 N 415.346 1.54954 0.287554 0
M  V30 4609 C 416.595 1.74081 1.01877 0
M  V30 4610 C 416.908 0.541135 1.87966 0
M  V30 4611 O 418.114 0.614491 2.64455 0
M  V30 4612 C 416.57 3.08042 1.86113 0
M  V30 4613 C 416.178 4.35531 1.04961 0
M  V30 4614 C 417.922 3.36523 2.58752 0
M  V30 4615 C 415.829 5.60538 1.88551 0
M  V30 4616 H 414.759 0.64884 0.384087 0
M  V30 4617 H 417.41 1.81426 0.275101 0
M  V30 4618 H 415.792 2.94696 2.64519 0
M  V30 4619 H 416.966 4.59751 0.31074 0
M  V30 4620 H 415.281 4.14085 0.43843 0
M  V30 4621 H 417.878 4.27122 3.21668 0
M  V30 4622 H 418.221 2.56 3.28283 0
M  V30 4623 H 418.754 3.50901 1.87386 0
M  V30 4624 H 415.493 6.43767 1.23466 0
M  V30 4625 H 415.013 5.40483 2.60074 0
M  V30 4626 H 416.692 5.98297 2.46273 0
M  V30 4627 N 416.824 -0.551391 1.4764 0
M  V30 4628 C 418.071 -1.3083 1.54563 0
M  V30 4629 C 418.399 -1.93359 0.210361 0
M  V30 4630 O 417.654 -1.78721 -0.797332 0
M  V30 4631 C 417.953 -2.43469 2.61644 0
M  V30 4632 C 417.619 -1.98732 4.04742 0
M  V30 4633 C 416.281 -1.86248 4.43695 0
M  V30 4634 C 418.633 -1.64659 4.94507 0
M  V30 4635 C 415.961 -1.37995 5.70241 0
M  V30 4636 C 418.313 -1.17875 6.21521 0
M  V30 4637 C 416.977 -1.03992 6.5935 0
M  V30 4638 H 416.247 -0.478741 0.565587 0
M  V30 4639 H 418.894 -0.617697 1.81264 0
M  V30 4640 H 417.199 -3.18109 2.28722 0
M  V30 4641 H 418.896 -3.01642 2.64222 0
M  V30 4642 H 415.486 -2.09393 3.73968 0
M  V30 4643 H 419.67 -1.73174 4.65107 0
M  V30 4644 H 414.926 -1.25915 5.98294 0
M  V30 4645 H 419.1 -0.905739 6.90485 0
M  V30 4646 H 416.727 -0.663794 7.57296 0
M  V30 4647 N 418.302 -1.35869 -0.798587 0
M  V30 4648 C 419.551 -1.28921 -1.5512 0
M  V30 4649 C 419.864 0.13208 -1.95154 0
M  V30 4650 O 421.07 0.323879 -2.69561 0
M  V30 4651 C 419.526 -2.26141 -2.79979 0
M  V30 4652 C 419.134 -3.73658 -2.47151 0
M  V30 4653 C 420.878 -2.28152 -3.57976 0
M  V30 4654 C 418.785 -4.62679 -3.6835 0
M  V30 4655 H 417.715 -0.479031 -0.582276 0
M  V30 4656 H 420.366 -1.61179 -0.877125 0
M  V30 4657 H 418.748 -1.86865 -3.49138 0
M  V30 4658 H 419.922 -4.21616 -1.85947 0
M  V30 4659 H 418.237 -3.74333 -1.82383 0
M  V30 4660 H 420.834 -2.91875 -4.4801 0
M  V30 4661 H 421.177 -1.28748 -3.95891 0
M  V30 4662 H 421.71 -2.65998 -2.95787 0
M  V30 4663 H 418.449 -5.63111 -3.35538 0
M  V30 4664 H 417.969 -4.19442 -4.28752 0
M  V30 4665 H 419.648 -4.78498 -4.35487 0
M  V30 4666 N 419.78 1.02168 -1.19998 0
M  V30 4667 C 421.026 1.75945 -1.00852 0
M  V30 4668 C 421.359 1.88702 0.458828 0
M  V30 4669 O 420.634 1.40911 1.34069 0
M  V30 4670 C 420.917 3.18154 -1.68671 0
M  V30 4671 C 420.77 3.13224 -3.22817 0
M  V30 4672 C 422.089 4.16711 -1.41561 0
M  V30 4673 H 419.208 0.638673 -0.367785 0
M  V30 4674 H 421.85 1.19222 -1.4794 0
M  V30 4675 H 420 3.66586 -1.28636 0
M  V30 4676 H 421.672 2.72635 -3.72112 0
M  V30 4677 H 419.915 2.50751 -3.53986 0
M  V30 4678 H 420.586 4.13728 -3.65422 0
M  V30 4679 H 423.062 3.76913 -1.76284 0
M  V30 4680 H 421.938 5.14391 -1.91553 0
M  V30 4681 H 422.199 4.40774 -0.342193 0
M  V30 4682 N 421.258 1.00505 1.21394 0
M  V30 4683 C 422.535 0.603277 1.86064 0
M  V30 4684 C 422.915 -0.919095 1.90042 0
M  V30 4685 O 422.263 -1.80607 1.39977 0
M  V30 4686 C 422.473 1.23772 3.26315 0
M  V30 4687 C 423.821 1.34586 4.02705 0
M  V30 4688 O 424.845 1.19304 3.35626 0
M  V30 4689 O 423.704 1.59169 5.22807 0
M  V30 4690 H 420.798 0.206634 0.800769 0
M  V30 4691 H 423.344 1.1017 1.29076 0
M  V30 4692 H 422.116 2.27848 3.18121 0
M  V30 4693 H 421.739 0.725648 3.90922 0
M  V30 4694 N 422.737 -1.36956 0.779787 0
M  V30 4695 C 423.984 -1.99491 0.347766 0
M  V30 4696 C 424.312 -1.61898 -1.07793 0
M  V30 4697 O 423.567 -0.86071 -1.75756 0
M  V30 4698 C 423.866 -3.54585 0.447686 0
M  V30 4699 C 423.532 -4.1197 1.83279 0
M  V30 4700 C 422.194 -4.27356 2.2118 0
M  V30 4701 C 424.546 -4.43354 2.74019 0
M  V30 4702 C 421.874 -4.71432 3.4924 0
M  V30 4703 C 424.226 -4.88858 4.01497 0
M  V30 4704 C 422.89 -5.0245 4.39432 0
M  V30 4705 H 422.16 -0.729991 0.127257 0
M  V30 4706 H 424.807 -1.63599 0.995376 0
M  V30 4707 H 423.112 -3.90773 -0.283447 0
M  V30 4708 H 424.809 -4.00888 0.0945948 0
M  V30 4709 H 421.399 -4.00428 1.52825 0
M  V30 4710 H 425.583 -4.31045 2.45995 0
M  V30 4711 H 420.839 -4.80141 3.78516 0
M  V30 4712 H 425.013 -5.12108 4.71931 0
M  V30 4713 H 422.64 -5.36362 5.38721 0
M  V30 4714 N 424.215 -0.530993 -1.48385 0
M  V30 4715 C 425.125 0.23503 -2.3342 0
M  V30 4716 C 426.141 0.93801 -1.46552 0
M  V30 4717 O 427.317 0.912745 -1.7953 0
M  V30 4718 C 424.382 1.26778 -3.22689 0
M  V30 4719 C 423.443 0.575038 -4.25431 0
M  V30 4720 C 422.676 1.55858 -5.10435 0
M  V30 4721 O 422.899 2.79129 -4.97437 0
M  V30 4722 O 421.833 1.09742 -5.91811 0
M  V30 4723 H 425.659 -0.461794 -3.00169 0
M  V30 4724 H 423.244 -0.291903 -1.46521 0
M  V30 4725 H 425.126 1.86457 -3.77904 0
M  V30 4726 H 423.801 1.94699 -2.586 0
M  V30 4727 H 422.708 -0.0622782 -3.74048 0
M  V30 4728 H 424.041 -0.062253 -4.92161 0
M  V30 4729 N 425.693 1.55336 -0.266172 0
M  V30 4730 C 426.623 2.25146 0.618981 0
M  V30 4731 C 427.604 1.23845 1.16604 0
M  V30 4732 O 428.789 1.52544 1.20183 0
M  V30 4733 C 425.919 2.96572 1.80728 0
M  V30 4734 C 424.873 4.04726 1.39215 0
M  V30 4735 C 424.199 4.63678 2.66283 0
M  V30 4736 C 425.499 5.19407 0.548942 0
M  V30 4737 H 427.193 2.99377 0.0368116 0
M  V30 4738 H 424.739 1.43991 0.0162651 0
M  V30 4739 H 426.692 3.44116 2.43232 0
M  V30 4740 H 425.416 2.19861 2.41514 0
M  V30 4741 H 424.075 3.57979 0.790351 0
M  V30 4742 H 423.723 3.83646 3.25308 0
M  V30 4743 H 423.423 5.367 2.39222 0
M  V30 4744 H 424.947 5.13967 3.29651 0
M  V30 4745 H 426.361 5.63059 1.07876 0
M  V30 4746 H 424.758 5.98936 0.373593 0
M  V30 4747 H 425.828 4.8295 -0.434394 0
M  V30 4748 N 427.171 -0.0066808 1.57599 0
M  V30 4749 C 428.101 -0.999296 2.11036 0
M  V30 4750 C 429.082 -1.36278 1.01795 0
M  V30 4751 O 430.267 -1.4477 1.29442 0
M  V30 4752 C 427.397 -2.29328 2.60818 0
M  V30 4753 C 426.351 -2.07159 3.74525 0
M  V30 4754 C 425.677 -3.42512 4.10596 0
M  V30 4755 C 426.977 -1.43959 5.02069 0
M  V30 4756 H 428.671 -0.554382 2.94223 0
M  V30 4757 H 426.217 -0.265221 1.41536 0
M  V30 4758 H 428.17 -2.99117 2.96828 0
M  V30 4759 H 426.894 -2.7592 1.74745 0
M  V30 4760 H 425.553 -1.39797 3.38899 0
M  V30 4761 H 425.201 -3.86795 3.21556 0
M  V30 4762 H 424.901 -3.28498 4.87199 0
M  V30 4763 H 426.425 -4.13628 4.4916 0
M  V30 4764 H 427.839 -2.03696 5.35893 0
M  V30 4765 H 426.236 -1.40452 5.83432 0
M  V30 4766 H 427.306 -0.407992 4.83181 0
M  V30 4767 N 428.649 -1.55105 -0.279332 0
M  V30 4768 C 429.926 -1.66119 -1.03267 0
M  V30 4769 C 430.306 -0.523525 -2.04505 0
M  V30 4770 O 429.654 0.477194 -2.23462 0
M  V30 4771 C 429.864 -3.05067 -1.69515 0
M  V30 4772 C 431.212 -3.62606 -2.20912 0
M  V30 4773 O 432.236 -3.07659 -1.79512 0
M  V30 4774 O 431.095 -4.58861 -2.96831 0
M  V30 4775 H 428.189 -0.674429 -0.478618 0
M  V30 4776 H 430.735 -1.67446 -0.275694 0
M  V30 4777 H 429.507 -3.79311 -0.9612 0
M  V30 4778 H 429.13 -3.07611 -2.51915 0
M  V30 4779 N 430.127 0.543554 -1.4793 0
M  V30 4780 C 431.375 1.29752 -1.54948 0
M  V30 4781 C 431.696 1.93764 -0.219242 0
M  V30 4782 O 430.966 1.80639 0.75805 0
M  V30 4783 H 429.546 0.481874 -0.570795 0
M  V30 4784 H 432.208 0.633636 -1.84312 0
M  V30 4785 H 431.304 2.08392 -2.32334 0
M  V30 4786 N 431.605 1.3629 0.791371 0
M  V30 4787 C 432.854 1.29742 1.54434 0
M  V30 4788 C 433.167 -0.121729 1.95221 0
M  V30 4789 O 434.373 -0.309579 2.69729 0
M  V30 4790 C 432.829 2.27623 2.78776 0
M  V30 4791 C 432.437 3.74963 2.45166 0
M  V30 4792 C 434.181 2.30047 3.56761 0
M  V30 4793 C 432.088 4.64626 3.65891 0
M  V30 4794 H 431.018 0.482113 0.579727 0
M  V30 4795 H 433.669 1.61642 0.868565 0
M  V30 4796 H 432.051 1.88714 3.48142 0
M  V30 4797 H 433.225 4.22596 1.83709 0
M  V30 4798 H 431.54 3.75295 1.80396 0
M  V30 4799 H 434.137 2.94247 4.46456 0
M  V30 4800 H 434.48 1.30846 3.95203 0
M  V30 4801 H 435.013 2.67563 2.94372 0
M  V30 4802 H 431.752 5.64883 3.32547 0
M  V30 4803 H 431.272 4.2171 4.26521 0
M  V30 4804 H 432.951 4.80801 4.32943 0
M  V30 4805 N 433.083 -1.0153 1.20538 0
M  V30 4806 C 434.36 -1.72327 0.925343 0
M  V30 4807 C 434.74 -2.03383 -0.565547 0
M  V30 4808 O 434.088 -1.69934 -1.52757 0
M  V30 4809 C 434.298 -2.9902 1.79967 0
M  V30 4810 C 435.646 -3.72258 2.04228 0
M  V30 4811 O 436.67 -3.08979 1.77231 0
M  V30 4812 O 435.529 -4.86053 2.4983 0
M  V30 4813 H 432.623 -0.751099 0.346092 0
M  V30 4814 H 435.169 -1.07366 1.31417 0
M  V30 4815 H 433.941 -2.72402 2.80915 0
M  V30 4816 H 433.564 -3.71721 1.41099 0
M  V30 4817 N 434.561 -1.01147 -1.20859 0
M  V30 4818 C 435.524 -0.582224 -2.21682 0
M  V30 4819 C 436.524 0.344887 -1.57058 0
M  V30 4820 O 437.714 0.134281 -1.73682 0
M  V30 4821 C 434.846 0.150496 -3.40568 0
M  V30 4822 H 436.039 -1.47408 -2.61172 0
M  V30 4823 H 433.592 -0.800695 -1.34233 0
M  V30 4824 H 434.327 1.0575 -3.06574 0
M  V30 4825 H 434.112 -0.515444 -3.88697 0
M  V30 4826 H 435.602 0.438344 -4.15293 0
M  V30 4827 N 436.039 1.36541 -0.78704 0
M  V30 4828 C 436.987 2.31965 -0.171724 0
M  V30 4829 C 437.981 1.55689 0.667631 0
M  V30 4830 O 439.187 1.70969 0.562981 0
M  V30 4831 H 435.562 0.751101 -0.0367545 0
M  V30 4832 H 437.533 2.81428 -0.992017 0
M  V30 4833 C 436.282 3.40968 0.680904 0
M  V30 4834 H 435.605 3.99775 0.0443961 0
M  V30 4835 H 437.045 4.10063 1.07815 0
M  V30 4836 C 435.504 2.82338 1.83813 0
M  V30 4837 O 436.034 2.74311 2.93456 0
M  V30 4838 N 434.24 2.39661 1.6435 0
M  V30 4839 H 433.787 2.46389 0.751668 0
M  V30 4840 H 433.745 2.00779 2.4194 0
M  V30 4841 N 437.518 0.538854 1.48102 0
M  V30 4842 C 438.465 -0.219042 2.29758 0
M  V30 4843 C 439.435 -0.925562 1.37922 0
M  V30 4844 O 440.62 -0.924855 1.66886 0
M  V30 4845 C 437.76 -1.25452 3.2149 0
M  V30 4846 C 436.873 -0.555943 4.28408 0
M  V30 4847 C 436.008 -1.57512 5.0731 0
M  V30 4848 C 435.047 -0.860498 6.06021 0
M  V30 4849 N 434.184 -1.82564 6.77949 0
M  V30 4850 H 439.024 0.483449 2.94052 0
M  V30 4851 H 436.561 0.250247 1.44956 0
M  V30 4852 H 438.519 -1.86727 3.7308 0
M  V30 4853 H 437.149 -1.92528 2.591 0
M  V30 4854 H 436.201 0.170938 3.80016 0
M  V30 4855 H 437.513 0.00474616 4.988 0
M  V30 4856 H 436.667 -2.26191 5.62959 0
M  V30 4857 H 435.406 -2.16972 4.36778 0
M  V30 4858 H 434.411 -0.159686 5.49568 0
M  V30 4859 H 435.636 -0.271897 6.78555 0
M  V30 4860 H 433.582 -2.40915 6.10161 0
M  V30 4861 H 433.499 -1.31662 7.44447 0
M  V30 4862 H 434.767 -2.50414 7.38182 0
M  V30 4863 N 438.996 -1.55193 0.274407 0
M  V30 4864 C 440.224 -2.03987 -0.345943 0
M  V30 4865 C 440.639 -1.15279 -1.4952 0
M  V30 4866 O 439.996 -0.172759 -1.8168 0
M  V30 4867 C 440.047 -3.51898 -0.827631 0
M  V30 4868 O 439.768 -4.37231 0.275855 0
M  V30 4869 C 441.269 -4.16577 -1.51587 0
M  V30 4870 H 438.489 -0.666335 -0.0789892 0
M  V30 4871 H 441.033 -2.00423 0.406294 0
M  V30 4872 H 439.188 -3.55909 -1.52996 0
M  V30 4873 H 439.602 -5.24415 -0.0943638 0
M  V30 4874 H 441.076 -5.21678 -1.80433 0
M  V30 4875 H 441.553 -3.64707 -2.44716 0
M  V30 4876 H 442.159 -4.16568 -0.857409 0
M  V30 4877 N 440.474 -0.00167713 -1.576 0
M  V30 4878 C 441.751 0.719951 -1.81868 0
M  V30 4879 C 442.131 1.91895 -0.879747 0
M  V30 4880 O 441.479 2.28389 0.0711423 0
M  V30 4881 C 441.689 1.12409 -3.30402 0
M  V30 4882 C 443.037 1.52724 -3.96182 0
M  V30 4883 O 444.061 1.21784 -3.34734 0
M  V30 4884 O 442.92 2.10265 -5.04431 0
M  V30 4885 H 440.014 0.350707 -0.748955 0
M  V30 4886 H 442.56 -0.0272597 -1.69678 0
M  V30 4887 H 441.332 0.269532 -3.90371 0
M  V30 4888 H 440.955 1.93035 -3.47596 0
M  V30 4889 N 441.952 1.55251 0.271103 0
M  V30 4890 C 443.363 1.66635 0.842007 0
M  V30 4891 C 443.714 0.594631 1.86972 0
M  V30 4892 O 442.839 -0.263532 2.14789 0
M  V30 4893 C 443.434 3.02082 1.53401 0
M  V30 4894 C 441.993 3.15487 2.05293 0
M  V30 4895 C 441.14 2.62438 0.895631 0
M  V30 4896 H 444.091 1.58629 0.0474117 0
M  V30 4897 H 444.112 2.95176 2.40107 0
M  V30 4898 H 443.624 3.80062 0.785786 0
M  V30 4899 H 441.725 2.42284 2.83071 0
M  V30 4900 H 441.838 4.22075 2.26693 0
M  V30 4901 H 440.202 2.19644 1.28953 0
M  V30 4902 H 440.985 3.42923 0.160878 0
M  V30 4903 N 443.43 -0.535701 1.48216 0
M  V30 4904 C 444.67 -1.30238 1.57536 0
M  V30 4905 C 445.034 -1.90479 0.241229 0
M  V30 4906 O 446.235 -2.67983 0.20938 0
M  V30 4907 C 444.506 -2.3669 2.67792 0
M  V30 4908 S 446.065 -3.23159 2.9684 0
M  V30 4909 H 442.883 -0.443093 0.556048 0
M  V30 4910 H 445.485 -0.610937 1.85709 0
M  V30 4911 H 444.189 -1.90905 3.63296 0
M  V30 4912 H 443.72 -3.10548 2.41502 0
M  V30 4913 H 445.735 -4.36647 2.35699 0
M  V30 4914 N 444.908 -1.36708 -0.784132 0
M  V30 4915 C 446.136 -1.34398 -1.57305 0
M  V30 4916 C 446.551 0.0735577 -1.88657 0
M  V30 4917 O 445.908 1.03193 -1.50524 0
M  V30 4918 C 445.959 -2.17053 -2.89085 0
M  V30 4919 O 445.68 -3.53281 -2.59083 0
M  V30 4920 C 447.181 -2.22583 -3.83369 0
M  V30 4921 H 444.401 -0.460819 -0.487736 0
M  V30 4922 H 446.945 -1.79879 -0.972819 0
M  V30 4923 H 445.1 -1.75113 -3.45564 0
M  V30 4924 H 445.514 -3.9647 -3.43383 0
M  V30 4925 H 446.988 -2.84763 -4.72878 0
M  V30 4926 H 447.465 -1.23075 -4.21603 0
M  V30 4927 H 448.071 -2.64781 -3.32823 0
M  V30 4928 N 446.386 1.0089 -1.21074 0
M  V30 4929 C 447.316 2.1145 -0.990523 0
M  V30 4930 C 448.297 1.69897 0.0831699 0
M  V30 4931 O 449.482 1.94052 -0.0758853 0
M  V30 4932 C 446.612 3.42914 -0.550177 0
M  V30 4933 C 445.566 3.98244 -1.56799 0
M  V30 4934 C 444.892 5.25568 -0.984013 0
M  V30 4935 C 446.192 4.30752 -2.95381 0
M  V30 4936 H 447.886 2.3013 -1.91521 0
M  V30 4937 H 445.432 1.10592 -0.92225 0
M  V30 4938 H 447.385 4.19653 -0.383305 0
M  V30 4939 H 446.109 3.24014 0.41015 0
M  V30 4940 H 444.768 3.23621 -1.72236 0
M  V30 4941 H 444.416 5.02998 -0.0155216 0
M  V30 4942 H 444.116 5.63551 -1.66384 0
M  V30 4943 H 445.64 6.04955 -0.828378 0
M  V30 4944 H 447.054 4.98349 -2.8341 0
M  V30 4945 H 445.451 4.79869 -3.60341 0
M  V30 4946 H 446.521 3.39192 -3.46521 0
M  V30 4947 N 447.864 1.01787 1.20321 0
M  V30 4948 C 448.796 0.547357 2.22568 0
M  V30 4949 C 449.809 -0.370922 1.58518 0
M  V30 4950 O 450.998 -0.169067 1.77698 0
M  V30 4951 C 448.098 -0.223031 3.38165 0
M  V30 4952 C 447.271 0.697472 4.31803 0
M  V30 4953 C 446.33 -0.025562 5.26194 0
M  V30 4954 O 445.356 0.597367 5.66057 0
M  V30 4955 N 446.558 -1.29999 5.65757 0
M  V30 4956 H 449.323 1.42668 2.63564 0
M  V30 4957 H 446.884 0.895552 1.34876 0
M  V30 4958 H 448.876 -0.716002 3.98316 0
M  V30 4959 H 447.446 -1.00366 2.9605 0
M  V30 4960 H 446.666 1.37073 3.69601 0
M  V30 4961 H 447.954 1.32347 4.91286 0
M  V30 4962 H 447.352 -1.827 5.35385 0
M  V30 4963 H 445.909 -1.73766 6.28211 0
M  V30 4964 N 449.342 -1.36122 0.79427 0
M  V30 4965 C 450.589 -1.99111 0.368905 0
M  V30 4966 C 450.917 -1.63032 -1.0607 0
M  V30 4967 O 450.172 -0.879303 -1.74833 0
M  V30 4968 C 450.471 -3.5409 0.48527 0
M  V30 4969 C 450.137 -4.10003 1.87638 0
M  V30 4970 C 448.799 -4.24986 2.257 0
M  V30 4971 C 451.151 -4.40423 2.78706 0
M  V30 4972 C 448.479 -4.67701 3.54221 0
M  V30 4973 C 450.831 -4.84573 4.0666 0
M  V30 4974 C 449.495 -4.97761 4.44737 0
M  V30 4975 H 448.765 -0.7286 0.134992 0
M  V30 4976 H 451.412 -1.62534 1.01267 0
M  V30 4977 H 449.717 -3.91052 -0.241984 0
M  V30 4978 H 451.414 -4.00766 0.137109 0
M  V30 4979 H 448.004 -3.98784 1.57064 0
M  V30 4980 H 452.188 -4.28412 2.50553 0
M  V30 4981 H 447.444 -4.761 3.83587 0
M  V30 4982 H 451.618 -5.07074 4.77336 0
M  V30 4983 H 449.245 -5.30618 5.44379 0
M  V30 4984 N 450.82 -0.546701 -1.47814 0
M  V30 4985 C 451.75 0.195317 -2.32682 0
M  V30 4986 C 452.731 0.918981 -1.43139 0
M  V30 4987 O 453.916 0.901501 -1.72008 0
M  V30 4988 C 451.046 1.23237 -3.247 0
M  V30 4989 C 450 0.625818 -4.234 0
M  V30 4990 C 449.326 1.76674 -5.04669 0
M  V30 4991 C 450.626 -0.413515 -5.2066 0
M  V30 4992 H 452.32 -0.513184 -2.94969 0
M  V30 4993 H 449.866 -0.248241 -1.41844 0
M  V30 4994 H 451.819 1.75955 -3.82907 0
M  V30 4995 H 450.543 1.97067 -2.60446 0
M  V30 4996 H 449.202 0.120023 -3.66403 0
M  V30 4997 H 448.85 2.49383 -4.36826 0
M  V30 4998 H 448.55 1.36673 -5.71484 0
M  V30 4999 H 450.074 2.29738 -5.65732 0
M  V30 5000 H 451.488 0.0272042 -5.73294 0
M  V30 5001 H 449.885 -0.731825 -5.95621 0
M  V30 5002 H 450.955 -1.31325 -4.66778 0
M  V30 5003 N 452.299 1.55045 -0.282633 0
M  V30 5004 C 453.262 2.21515 0.588539 0
M  V30 5005 C 454.262 1.19535 1.07554 0
M  V30 5006 O 455.452 1.44391 0.974514 0
M  V30 5007 C 452.584 2.88704 1.8128 0
M  V30 5008 H 453.777 2.99899 0.00806397 0
M  V30 5009 H 451.33 1.56265 -0.0333067 0
M  V30 5010 H 452.065 2.14352 2.43359 0
M  V30 5011 H 451.85 3.63443 1.47144 0
M  V30 5012 H 453.34 3.39465 2.43214 0
M  V30 5013 N 453.777 0.010035 1.57597 0
M  V30 5014 C 454.74 -0.963029 2.07986 0
M  V30 5015 C 455.74 -1.26619 0.991173 0
M  V30 5016 O 456.93 -1.2097 1.25347 0
M  V30 5017 C 454.062 -2.2851 2.52974 0
M  V30 5018 H 455.255 -0.526971 2.95234 0
M  V30 5019 H 452.808 -0.237639 1.54483 0
M  V30 5020 H 453.543 -2.76784 1.69 0
M  V30 5021 H 453.328 -2.07824 3.32493 0
M  V30 5022 H 454.818 -2.98294 2.9225 0
M  V30 5023 N 455.255 -1.55392 -0.262866 0
M  V30 5024 C 456.666 -1.67079 -0.833158 0
M  V30 5025 C 457.017 -0.604539 -1.86654 0
M  V30 5026 O 456.142 0.252138 -2.14926 0
M  V30 5027 C 456.737 -3.02891 -1.51797 0
M  V30 5028 C 455.296 -3.16571 -2.03617 0
M  V30 5029 C 454.443 -2.62909 -0.881701 0
M  V30 5030 H 457.394 -1.58652 -0.0389986 0
M  V30 5031 H 457.415 -2.96445 -2.38538 0
M  V30 5032 H 456.927 -3.80473 -0.765619 0
M  V30 5033 H 455.028 -2.43782 -2.81782 0
M  V30 5034 H 455.141 -4.23271 -2.24452 0
M  V30 5035 H 453.505 -2.20324 -1.27786 0
M  V30 5036 H 454.288 -3.43003 -0.14269 0
M  V30 5037 N 456.733 0.527833 -1.48498 0
M  V30 5038 C 457.982 1.28003 -1.55878 0
M  V30 5039 C 458.295 1.9414 -0.238577 0
M  V30 5040 O 459.501 2.7083 -0.190643 0
M  V30 5041 C 457.957 2.32272 -2.74914 0
M  V30 5042 C 457.565 1.72196 -4.13585 0
M  V30 5043 C 459.309 3.08488 -2.91608 0
M  V30 5044 C 457.216 2.74417 -5.23879 0
M  V30 5045 H 456.146 0.481413 -0.580308 0
M  V30 5046 H 458.797 0.557195 -1.74836 0
M  V30 5047 H 457.179 3.07601 -2.49395 0
M  V30 5048 H 458.353 1.03041 -4.49132 0
M  V30 5049 H 456.668 1.08464 -4.02025 0
M  V30 5050 H 459.265 3.84879 -3.71177 0
M  V30 5051 H 459.608 3.64481 -2.01145 0
M  V30 5052 H 460.141 2.40274 -3.17038 0
M  V30 5053 H 456.88 2.23242 -6.16314 0
M  V30 5054 H 456.4 3.41893 -4.92818 0
M  V30 5055 H 458.079 3.37362 -5.52083 0
M  V30 5056 N 458.211 1.37122 0.776871 0
M  V30 5057 C 459.451 1.33441 1.54831 0
M  V30 5058 C 459.815 -0.0818963 1.91825 0
M  V30 5059 O 461.016 -0.24338 2.67696 0
M  V30 5060 C 459.287 2.24267 2.78279 0
M  V30 5061 S 460.846 2.38389 3.68397 0
M  V30 5062 H 457.664 0.473791 0.530135 0
M  V30 5063 H 460.266 1.7282 0.913968 0
M  V30 5064 H 458.97 3.261 2.49173 0
M  V30 5065 H 458.501 1.85953 3.46677 0
M  V30 5066 H 460.516 1.59068 4.70013 0
M  V30 5067 N 459.689 -1.00246 1.21608 0
M  V30 5068 C 460.619 -2.10921 1.00172 0
M  V30 5069 C 461.6 -1.69938 -0.0741587 0
M  V30 5070 O 462.785 -1.94009 0.0861753 0
M  V30 5071 C 459.915 -3.42618 0.568355 0
M  V30 5072 C 458.869 -3.97407 1.58909 0
M  V30 5073 C 458.195 -5.25038 1.01187 0
M  V30 5074 C 459.495 -4.2918 2.97661 0
M  V30 5075 H 461.189 -2.29112 1.92739 0
M  V30 5076 H 458.735 -1.10101 0.928102 0
M  V30 5077 H 460.688 -4.19444 0.405555 0
M  V30 5078 H 459.412 -3.24227 -0.392961 0
M  V30 5079 H 458.071 -3.22703 1.73949 0
M  V30 5080 H 457.719 -5.02982 0.0421965 0
M  V30 5081 H 457.419 -5.62661 1.6937 0
M  V30 5082 H 458.943 -6.04507 0.860448 0
M  V30 5083 H 460.357 -4.96839 2.86049 0
M  V30 5084 H 458.754 -4.77952 3.6288 0
M  V30 5085 H 459.824 -3.3735 3.48315 0
M  V30 5086 N 461.167 -1.02423 -1.1978 0
M  V30 5087 C 462.097 -0.62157 -2.25075 0
M  V30 5088 C 463.078 0.367148 -1.6609 0
M  V30 5089 O 464.263 0.250892 -1.92573 0
M  V30 5090 C 461.393 0.0331826 -3.47284 0
M  V30 5091 C 460.347 -0.877323 -4.18912 0
M  V30 5092 C 459.673 -0.0879296 -5.34628 0
M  V30 5093 C 460.973 -2.18892 -4.74219 0
M  V30 5094 H 462.667 -1.50179 -2.59011 0
M  V30 5095 H 460.213 -0.723547 -1.24502 0
M  V30 5096 H 462.166 0.326488 -4.20133 0
M  V30 5097 H 460.89 0.948164 -3.12534 0
M  V30 5098 H 459.549 -1.15475 -3.47938 0
M  V30 5099 H 459.197 0.828941 -4.96123 0
M  V30 5100 H 458.897 -0.694359 -5.83483 0
M  V30 5101 H 460.421 0.198743 -6.10276 0
M  V30 5102 H 461.835 -1.95746 -5.38847 0
M  V30 5103 H 460.232 -2.74686 -5.33542 0
M  V30 5104 H 461.302 -2.84674 -3.92541 0
M  V30 5105 N 462.645 1.35699 -0.801477 0
M  V30 5106 C 463.875 2.02862 -0.3912 0
M  V30 5107 C 464.283 1.60552 1.00099 0
M  V30 5108 O 463.626 0.796215 1.65548 0
M  V30 5109 C 463.688 3.57386 -0.389299 0
M  V30 5110 C 463.352 4.22943 -1.73113 0
M  V30 5111 C 464.349 4.44984 -2.68859 0
M  V30 5112 C 462.034 4.60167 -2.01373 0
M  V30 5113 C 464.028 5.03345 -3.91053 0
M  V30 5114 C 461.715 5.18243 -3.23832 0
M  V30 5115 C 462.713 5.39773 -4.1849 0
M  V30 5116 O 462.401 5.96626 -5.38788 0
M  V30 5117 H 462.133 0.657341 -0.157732 0
M  V30 5118 H 464.687 1.74407 -1.08496 0
M  V30 5119 H 462.917 3.85011 0.361031 0
M  V30 5120 H 464.606 4.059 -0.0020365 0
M  V30 5121 H 465.372 4.1661 -2.48316 0
M  V30 5122 H 461.251 4.42726 -1.28508 0
M  V30 5123 H 464.795 5.20065 -4.64949 0
M  V30 5124 H 460.692 5.46044 -3.44248 0
M  V30 5125 H 461.46 6.15082 -5.40015 0
M  V30 5126 N 464.123 0.554532 1.47522 0
M  V30 5127 C 465.07 -0.19466 2.29978 0
M  V30 5128 C 466.04 -0.910882 1.38896 0
M  V30 5129 O 467.225 -0.907102 1.67858 0
M  V30 5130 C 464.365 -1.22035 3.22802 0
M  V30 5131 C 463.478 -0.510474 4.28973 0
M  V30 5132 C 462.613 -1.52123 5.08952 0
M  V30 5133 C 461.652 -0.796173 6.069 0
M  V30 5134 N 460.789 -1.75363 6.79847 0
M  V30 5135 H 465.629 0.51461 2.93523 0
M  V30 5136 H 463.166 0.265607 1.44682 0
M  V30 5137 H 465.124 -1.8276 3.7504 0
M  V30 5138 H 463.754 -1.89769 2.61127 0
M  V30 5139 H 462.806 0.211234 3.79813 0
M  V30 5140 H 464.118 0.0576503 4.98767 0
M  V30 5141 H 463.272 -2.20207 5.65326 0
M  V30 5142 H 462.011 -2.12327 4.39054 0
M  V30 5143 H 461.016 -0.101388 5.49707 0
M  V30 5144 H 462.241 -0.199911 6.78806 0
M  V30 5145 H 460.187 -2.3443 6.12682 0
M  V30 5146 H 460.104 -1.23759 7.45801 0
M  V30 5147 H 461.372 -2.4257 7.40797 0
M  V30 5148 N 465.601 -1.54893 0.290851 0
M  V30 5149 C 466.549 -2.24579 -0.605576 0
M  V30 5150 C 467.543 -1.24824 -1.14522 0
M  V30 5151 O 468.749 -1.42706 -1.09704 0
M  V30 5152 H 465.124 -0.720946 -0.213872 0
M  V30 5153 H 467.095 -2.984 0.0048173 0
M  V30 5154 C 465.844 -2.99224 -1.77088 0
M  V30 5155 H 465.167 -3.75782 -1.36484 0
M  V30 5156 H 466.607 -3.51281 -2.3744 0
M  V30 5157 C 465.066 -2.05602 -2.66888 0
M  V30 5158 O 465.596 -1.61745 -3.67698 0
M  V30 5159 N 463.802 -1.71771 -2.34399 0
M  V30 5160 H 463.349 -2.07633 -1.52468 0
M  V30 5161 H 463.307 -1.09403 -2.94751 0
M  V30 5162 N 467.08 -0.0183926 -1.57589 0
M  V30 5163 C 468.01 0.965596 -2.12599 0
M  V30 5164 C 468.991 1.34641 -1.0395 0
M  V30 5165 O 470.176 1.42693 -1.31729 0
M  V30 5166 C 467.306 2.25149 -2.64434 0
M  V30 5167 C 466.26 2.01175 -3.77773 0
M  V30 5168 C 465.586 3.35937 -4.15994 0
M  V30 5169 C 466.886 1.35953 -5.04296 0
M  V30 5170 H 468.58 0.507504 -2.95067 0
M  V30 5171 H 466.126 0.242671 -1.41941 0
M  V30 5172 H 468.079 2.94357 -3.01549 0
M  V30 5173 H 466.803 2.73105 -1.79112 0
M  V30 5174 H 465.462 1.34388 -3.4108 0
M  V30 5175 H 465.11 3.81631 -3.27669 0
M  V30 5176 H 464.81 3.20705 -4.92364 0
M  V30 5177 H 466.334 4.0643 -4.55683 0
M  V30 5178 H 467.748 1.95144 -5.39065 0
M  V30 5179 H 466.145 1.31152 -5.85593 0
M  V30 5180 H 467.215 0.331071 -4.83768 0
M  V30 5181 N 468.558 1.5553 0.254621 0
M  V30 5182 C 469.521 1.88872 1.29846 0
M  V30 5183 C 470.521 0.764591 1.41459 0
M  V30 5184 O 471.711 1.03265 1.40293 0
M  V30 5185 C 468.843 2.11032 2.67728 0
M  V30 5186 H 470.036 2.82201 1.01502 0
M  V30 5187 H 467.589 1.48303 0.493556 0
M  V30 5188 H 468.324 1.20146 3.01223 0
M  V30 5189 H 468.109 2.92895 2.60682 0
M  V30 5190 H 469.599 2.38038 3.43115 0
M  V30 5191 N 470.036 -0.519951 1.48776 0
M  V30 5192 C 470.984 -1.64443 1.64503 0
M  V30 5193 C 471.978 -1.61501 0.511248 0
M  V30 5194 O 473.184 -1.66238 0.690294 0
M  V30 5195 H 469.559 -0.544776 0.518385 0
M  V30 5196 H 471.53 -1.48325 2.58925 0
M  V30 5197 C 470.279 -3.02673 1.71127 0
M  V30 5198 H 469.602 -3.05635 2.57735 0
M  V30 5199 H 471.042 -3.80941 1.86172 0
M  V30 5200 C 469.501 -3.33854 0.452032 0
M  V30 5201 O 470.031 -3.99385 -0.430678 0
M  V30 5202 N 468.237 -2.88825 0.32069 0
M  V30 5203 H 467.784 -2.35674 1.03998 0
M  V30 5204 H 467.742 -3.10056 -0.520814 0
M  V30 5205 N 471.514 -1.37532 -0.769588 0
M  V30 5206 C 472.461 -1.3347 -1.88293 0
M  V30 5207 C 473.431 -0.199891 -1.64893 0
M  V30 5208 O 474.616 -0.389594 -1.8678 0
M  V30 5209 C 471.756 -1.14968 -3.25387 0
M  V30 5210 C 470.869 -2.37698 -3.60727 0
M  V30 5211 C 470.004 -2.12051 -4.8704 0
M  V30 5212 C 469.043 -3.30636 -5.15117 0
M  V30 5213 N 468.18 -3.04527 -6.3262 0
M  V30 5214 H 473.02 -2.28658 -1.911 0
M  V30 5215 H 470.557 -1.13622 -0.934257 0
M  V30 5216 H 472.515 -1.02261 -4.04473 0
M  V30 5217 H 471.145 -0.234263 -3.21949 0
M  V30 5218 H 470.197 -2.61137 -2.76608 0
M  V30 5219 H 471.509 -3.26131 -3.77413 0
M  V30 5220 H 470.663 -1.96388 -5.74035 0
M  V30 5221 H 469.402 -1.20959 -4.72462 0
M  V30 5222 H 468.407 -3.46836 -4.26597 0
M  V30 5223 H 469.632 -4.22582 -5.31603 0
M  V30 5224 H 467.578 -2.16067 -6.19396 0
M  V30 5225 H 467.495 -3.86503 -6.49732 0
M  V30 5226 H 468.763 -2.92485 -7.22546 0
M  V30 5227 N 472.992 0.995999 -1.22138 0
M  V30 5228 C 474.241 1.72928 -1.03821 0
M  V30 5229 C 474.554 1.90872 0.427444 0
M  V30 5230 O 475.76 2.61496 0.730212 0
M  V30 5231 C 474.216 3.11124 -1.80913 0
M  V30 5232 C 473.824 3.01122 -3.31707 0
M  V30 5233 C 475.568 3.8852 -1.71035 0
M  V30 5234 C 473.475 4.34453 -4.01253 0
M  V30 5235 H 472.405 0.648376 -0.384869 0
M  V30 5236 H 475.056 1.11213 -1.45959 0
M  V30 5237 H 473.438 3.73503 -1.31573 0
M  V30 5238 H 474.612 2.47926 -3.88419 0
M  V30 5239 H 472.927 2.3721 -3.42228 0
M  V30 5240 H 475.524 4.872 -2.20318 0
M  V30 5241 H 475.867 4.1087 -0.670196 0
M  V30 5242 H 476.4 3.32812 -2.17902 0
M  V30 5243 H 473.139 4.17303 -5.05508 0
M  V30 5244 H 472.659 4.87574 -3.49331 0
M  V30 5245 H 474.338 5.03215 -4.06674 0
M  V30 5246 N 474.47 1.03057 1.19235 0
M  V30 5247 C 475.716 0.729098 1.89241 0
M  V30 5248 C 476.049 -0.740573 1.79525 0
M  V30 5249 O 475.324 -1.53946 1.18874 0
M  V30 5250 C 475.607 1.18304 3.40112 0
M  V30 5251 C 475.46 2.71406 3.5869 0
M  V30 5252 C 476.779 0.765161 4.33397 0
M  V30 5253 H 473.898 0.266338 0.687192 0
M  V30 5254 H 476.54 1.28079 1.40341 0
M  V30 5255 H 474.69 0.713672 3.81889 0
M  V30 5256 H 476.362 3.26303 3.26074 0
M  V30 5257 H 474.605 3.11717 3.01687 0
M  V30 5258 H 475.276 2.98225 4.64506 0
M  V30 5259 H 477.752 1.16889 3.99345 0
M  V30 5260 H 476.628 1.11065 5.37546 0
M  V30 5261 H 476.889 -0.332372 4.40849 0
M  V30 5262 N 475.948 -1.35272 0.808662 0
M  V30 5263 C 477.359 -1.81179 0.450688 0
M  V30 5264 C 477.71 -1.67143 -1.02751 0
M  V30 5265 O 476.835 -1.20325 -1.79864 0
M  V30 5266 C 477.43 -3.28943 0.811275 0
M  V30 5267 C 475.989 -3.72985 0.505871 0
M  V30 5268 C 475.136 -2.57229 1.03578 0
M  V30 5269 H 478.087 -1.2322 1.00012 0
M  V30 5270 H 478.108 -3.80342 0.109588 0
M  V30 5271 H 477.62 -3.39127 1.88718 0
M  V30 5272 H 475.721 -3.68349 -0.561209 0
M  V30 5273 H 475.834 -4.67677 1.03995 0
M  V30 5274 H 474.198 -2.50548 0.458005 0
M  V30 5275 H 474.981 -2.7019 2.11784 0
M  V30 5276 N 477.426 -0.562348 -1.47226 0
M  V30 5277 C 478.675 -0.038041 -2.01664 0
M  V30 5278 C 478.988 1.32199 -1.44162 0
M  V30 5279 O 480.194 1.9365 -1.90294 0
M  V30 5280 C 478.65 -0.0174958 -3.59896 0
M  V30 5281 C 478.258 -1.3746 -4.2639 0
M  V30 5282 C 480.002 0.453934 -4.22066 0
M  V30 5283 C 477.909 -1.31289 -5.76643 0
M  V30 5284 H 476.839 -0.0104511 -0.753928 0
M  V30 5285 H 479.49 -0.710966 -1.69167 0
M  V30 5286 H 477.872 0.721182 -3.89378 0
M  V30 5287 H 479.046 -2.1314 -4.08544 0
M  V30 5288 H 477.361 -1.78438 -3.7623 0
M  V30 5289 H 479.958 0.518584 -5.32179 0
M  V30 5290 H 480.301 1.46706 -3.89594 0
M  V30 5291 H 480.834 -0.230044 -3.97134 0
M  V30 5292 H 477.573 -2.30217 -6.13743 0
M  V30 5293 H 477.093 -0.597973 -5.96812 0
M  V30 5294 H 478.772 -1.01713 -6.38955 0
M  V30 5295 N 478.904 1.54736 -0.299062 0
M  V30 5296 C 479.867 2.22127 0.565012 0
M  V30 5297 C 480.867 1.20669 1.06281 0
M  V30 5298 O 482.057 1.45417 0.959145 0
M  V30 5299 C 479.189 2.90611 1.78208 0
M  V30 5300 H 480.382 2.99891 -0.0237448 0
M  V30 5301 H 477.935 1.5622 -0.0498788 0
M  V30 5302 H 478.67 2.16921 2.41072 0
M  V30 5303 H 478.455 3.64984 1.43281 0
M  V30 5304 H 479.945 3.42026 2.396 0
M  V30 5305 N 480.382 0.0267497 1.57577 0
M  V30 5306 C 481.631 -0.651736 1.9088 0
M  V30 5307 C 481.944 -1.73427 0.904576 0
M  V30 5308 O 483.15 -2.46923 1.12877 0
M  V30 5309 C 481.606 -1.21048 3.38933 0
M  V30 5310 C 481.214 -0.161362 4.47709 0
M  V30 5311 C 482.958 -1.86562 3.81307 0
M  V30 5312 C 480.865 -0.731611 5.86857 0
M  V30 5313 H 479.795 -0.247198 0.712326 0
M  V30 5314 H 482.446 0.0916641 1.83271 0
M  V30 5315 H 480.828 -2.00542 3.41466 0
M  V30 5316 H 482.002 0.61094 4.56732 0
M  V30 5317 H 480.317 0.394877 4.14523 0
M  V30 5318 H 482.914 -2.30178 4.8262 0
M  V30 5319 H 483.257 -2.70735 3.16241 0
M  V30 5320 H 483.79 -1.13762 3.81186 0
M  V30 5321 H 480.529 0.0719329 6.55461 0
M  V30 5322 H 480.049 -1.47245 5.81445 0
M  V30 5323 H 481.728 -1.22208 6.35354 0
M  V30 5324 N 481.861 -1.55662 -0.24637 0
M  V30 5325 C 482.793 -1.86811 -1.32794 0
M  V30 5326 C 483.806 -0.754413 -1.44265 0
M  V30 5327 O 484.995 -1.03253 -1.45606 0
M  V30 5328 C 482.095 -2.0397 -2.70646 0
M  V30 5329 C 481.268 -3.34832 -2.81436 0
M  V30 5330 C 480.327 -3.41727 -4.00136 0
M  V30 5331 O 479.353 -4.14934 -3.89639 0
M  V30 5332 N 480.555 -2.71058 -5.1333 0
M  V30 5333 H 483.32 -2.80174 -1.06409 0
M  V30 5334 H 480.881 -1.55906 -0.43647 0
M  V30 5335 H 482.873 -2.05924 -3.48393 0
M  V30 5336 H 481.443 -1.1735 -2.89738 0
M  V30 5337 H 480.663 -3.4519 -1.90361 0
M  V30 5338 H 481.951 -4.21085 -2.85595 0
M  V30 5339 H 481.349 -2.11314 -5.2475 0
M  V30 5340 H 479.906 -2.78704 -5.89209 0
M  V30 5341 N 483.339 0.512053 -1.4905 0
M  V30 5342 C 484.269 1.62365 -1.67809 0
M  V30 5343 C 485.25 1.61737 -0.526809 0
M  V30 5344 O 486.435 1.78651 -0.761404 0
M  V30 5345 C 483.565 3.00895 -1.73435 0
M  V30 5346 C 482.519 3.16387 -2.88242 0
M  V30 5347 C 481.845 4.56157 -2.78971 0
M  V30 5348 C 483.145 2.97457 -4.29321 0
M  V30 5349 H 484.839 1.46921 -2.60873 0
M  V30 5350 H 482.385 0.705379 -1.2554 0
M  V30 5351 H 484.338 3.78549 -1.85145 0
M  V30 5352 H 483.062 3.17403 -0.769619 0
M  V30 5353 H 481.721 2.41155 -2.76116 0
M  V30 5354 H 481.369 4.69525 -1.8043 0
M  V30 5355 H 481.069 4.67465 -3.5602 0
M  V30 5356 H 482.593 5.35886 -2.92675 0
M  V30 5357 H 484.007 3.64888 -4.42187 0
M  V30 5358 H 482.404 3.20245 -5.07507 0
M  V30 5359 H 483.474 1.93692 -4.44535 0
M  V30 5360 N 484.817 1.37938 0.762283 0
M  V30 5361 C 485.765 1.34569 1.89721 0
M  V30 5362 C 486.759 0.232929 1.67791 0
M  V30 5363 O 487.965 0.401485 1.75465 0
M  V30 5364 H 484.34 0.419594 0.624055 0
M  V30 5365 H 486.311 2.30357 1.8968 0
M  V30 5366 C 485.06 1.17898 3.27101 0
M  V30 5367 H 484.383 2.02781 3.44558 0
M  V30 5368 H 485.823 1.19593 4.06784 0
M  V30 5369 C 484.282 -0.114728 3.36705 0
M  V30 5370 O 484.812 -1.0949 3.8649 0
M  V30 5371 N 483.018 -0.16863 2.9011 0
M  V30 5372 H 482.565 0.62967 2.49786 0
M  V30 5373 H 482.523 -1.03383 2.96916 0
M  V30 5374 N 486.295 -0.989507 1.22664 0
M  V30 5375 C 487.227 -2.0824 0.957542 0
M  V30 5376 C 488.24 -1.6267 -0.0651098 0
M  V30 5377 O 489.429 -1.77695 0.169312 0
M  V30 5378 C 486.529 -3.36298 0.419145 0
M  V30 5379 C 485.702 -4.10882 1.49982 0
M  V30 5380 C 484.761 -5.17221 0.967904 0
M  V30 5381 O 483.787 -5.44613 1.65487 0
M  V30 5382 N 484.989 -5.80124 -0.20896 0
M  V30 5383 H 487.754 -2.31904 1.89843 0
M  V30 5384 H 485.315 -1.15552 1.13399 0
M  V30 5385 H 487.307 -4.04671 0.0485451 0
M  V30 5386 H 485.877 -3.09671 -0.426937 0
M  V30 5387 H 485.097 -3.37092 2.04359 0
M  V30 5388 H 486.385 -4.57482 2.22682 0
M  V30 5389 H 485.783 -5.60244 -0.783818 0
M  V30 5390 H 484.34 -6.49715 -0.520913 0
M  V30 5391 N 487.773 -1.03688 -1.18687 0
M  V30 5392 C 489.022 -0.733235 -1.879 0
M  V30 5393 C 489.335 0.741745 -1.8099 0
M  V30 5394 O 490.541 1.15875 -2.4553 0
M  V30 5395 C 488.997 -1.26127 -3.37076 0
M  V30 5396 C 488.605 -2.76461 -3.52524 0
M  V30 5397 C 490.349 -1.03398 -4.11715 0
M  V30 5398 C 488.256 -3.22642 -4.95637 0
M  V30 5399 H 487.186 -0.270584 -0.703776 0
M  V30 5400 H 489.837 -1.25222 -1.34133 0
M  V30 5401 H 488.219 -0.670165 -3.90288 0
M  V30 5402 H 489.393 -3.41296 -3.09602 0
M  V30 5403 H 487.708 -2.97559 -2.91286 0
M  V30 5404 H 490.305 -1.3542 -5.17267 0
M  V30 5405 H 490.648 0.0289246 -4.1629 0
M  V30 5406 H 491.181 -1.5895 -3.64664 0
M  V30 5407 H 487.92 -4.28296 -4.96228 0
M  V30 5408 H 487.44 -2.62539 -5.39289 0
M  V30 5409 H 489.119 -3.16444 -5.64333 0
M  V30 5410 N 489.251 1.34841 -0.815825 0
M  V30 5411 C 490.662 1.80937 -0.46029 0
M  V30 5412 C 491.013 1.67685 1.01863 0
M  V30 5413 O 490.138 1.21277 1.79223 0
M  V30 5414 C 490.733 3.28509 -0.828708 0
M  V30 5415 C 489.292 3.72712 -0.525644 0
M  V30 5416 C 488.439 2.56676 -1.04941 0
M  V30 5417 H 491.39 1.22688 -1.00664 0
M  V30 5418 H 491.411 3.80279 -0.129757 0
M  V30 5419 H 490.923 3.38122 -1.90513 0
M  V30 5420 H 489.024 3.68642 0.541666 0
M  V30 5421 H 489.137 4.67119 -1.06474 0
M  V30 5422 H 487.501 2.50302 -0.471286 0
M  V30 5423 H 488.284 2.69063 -2.13214 0
M  V30 5424 N 490.729 0.570148 1.46925 0
M  V30 5425 C 491.977 0.0508523 2.02036 0
M  V30 5426 C 492.298 -1.30885 1.44548 0
M  V30 5427 O 491.568 -1.85647 0.625453 0
M  V30 5428 H 490.148 0.0158088 0.746833 0
M  V30 5429 H 492.81 0.743086 1.80178 0
M  V30 5430 H 491.906 -0.027575 3.12088 0
M  V30 5431 N 492.207 -1.54576 0.307264 0
M  V30 5432 C 493.484 -1.92377 -0.353605 0
M  V30 5433 C 493.864 -1.23517 -1.71192 0
M  V30 5434 O 493.212 -0.373101 -2.25433 0
M  V30 5435 C 493.422 -3.45928 -0.462039 0
M  V30 5436 C 494.77 -4.18278 -0.729975 0
M  V30 5437 O 495.794 -3.51997 -0.545605 0
M  V30 5438 O 494.653 -5.3563 -1.08454 0
M  V30 5439 H 491.747 -0.802747 -0.198812 0
M  V30 5440 H 494.293 -1.65929 0.355783 0
M  V30 5441 H 493.065 -3.88187 0.492592 0
M  V30 5442 H 492.688 -3.78431 -1.21965 0
M  V30 5443 N 493.685 -0.035106 -1.57561 0
M  V30 5444 C 494.595 0.960295 -2.14046 0
M  V30 5445 C 495.611 1.3529 -1.0942 0
M  V30 5446 O 496.787 1.43309 -1.41508 0
M  V30 5447 C 493.852 2.22214 -2.66124 0
M  V30 5448 C 492.913 1.8894 -3.85487 0
M  V30 5449 C 492.146 3.09109 -4.35072 0
M  V30 5450 O 492.369 4.21963 -3.83802 0
M  V30 5451 O 491.303 2.91058 -5.26848 0
M  V30 5452 H 495.129 0.509983 -2.99387 0
M  V30 5453 H 492.714 0.185853 -1.48239 0
M  V30 5454 H 494.596 2.96279 -2.99661 0
M  V30 5455 H 493.271 2.66414 -1.83862 0
M  V30 5456 H 492.178 1.12241 -3.56865 0
M  V30 5457 H 493.511 1.49551 -4.6893 0
M  V30 5458 N 495.163 1.55791 0.238111 0
M  V30 5459 C 496.111 1.91885 1.31464 0
M  V30 5460 C 497.105 0.798929 1.49377 0
M  V30 5461 O 498.311 0.983626 1.50747 0
M  V30 5462 H 494.686 0.609551 0.440399 0
M  V30 5463 H 496.657 2.81747 0.982925 0
M  V30 5464 C 495.406 2.23763 2.6613 0
M  V30 5465 H 494.729 3.09444 2.53149 0
M  V30 5466 H 496.169 2.52915 3.40309 0
M  V30 5467 C 494.628 1.05699 3.1989 0
M  V30 5468 O 495.158 0.309524 4.00506 0
M  V30 5469 N 493.364 0.845251 2.78036 0
M  V30 5470 H 492.911 1.4548 2.12588 0
M  V30 5471 H 492.869 0.0569973 3.14348 0
M  V30 5472 N 496.642 -0.504142 1.49319 0
M  V30 5473 C 498.053 -1.08572 1.51885 0
M  V30 5474 C 498.404 -1.93842 0.303255 0
M  V30 5475 O 497.529 -2.0828 -0.58724 0
M  V30 5476 C 498.124 -1.97574 2.75227 0
M  V30 5477 C 496.683 -2.509 2.80581 0
M  V30 5478 C 495.83 -1.28447 2.45757 0
M  V30 5479 H 498.781 -0.288194 1.56061 0
M  V30 5480 H 498.802 -2.82219 2.55211 0
M  V30 5481 H 498.314 -1.35486 3.63683 0
M  V30 5482 H 496.415 -3.16636 1.96398 0
M  V30 5483 H 496.528 -2.88268 3.82673 0
M  V30 5484 H 494.892 -1.60868 1.97468 0
M  V30 5485 H 495.675 -0.68072 3.36483 0
M  V30 5486 N 498.12 -1.38341 -0.754957 0
M  V30 5487 C 499.369 -1.33791 -1.5094 0
M  V30 5488 C 499.682 0.0699267 -1.95475 0
M  V30 5489 O 500.888 0.237956 -2.70455 0
M  V30 5490 C 499.344 -2.34934 -2.72643 0
M  V30 5491 C 498.952 -3.81332 -2.35138 0
M  V30 5492 C 500.696 -2.39425 -3.50536 0
M  V30 5493 C 498.603 -4.74164 -3.53444 0
M  V30 5494 H 497.533 -0.497314 -0.566741 0
M  V30 5495 H 500.184 -1.63888 -0.825403 0
M  V30 5496 H 498.566 -1.97878 -3.43017 0
M  V30 5497 H 499.74 -4.27319 -1.7244 0
M  V30 5498 H 498.055 -3.79946 -1.70382 0
M  V30 5499 H 500.652 -3.0598 -4.38498 0
M  V30 5500 H 500.995 -1.41278 -3.91594 0
M  V30 5501 H 501.528 -2.75274 -2.87174 0
M  V30 5502 H 498.267 -5.73501 -3.17453 0
M  V30 5503 H 497.787 -4.3287 -4.15191 0
M  V30 5504 H 499.466 -4.92111 -4.20043 0
M  V30 5505 N 499.598 0.982988 -1.23187 0
M  V30 5506 C 500.845 1.72392 -1.06241 0
M  V30 5507 C 501.173 1.9032 0.40108 0
M  V30 5508 O 500.428 1.45084 1.31336 0
M  V30 5509 C 500.727 3.12736 -1.73006 0
M  V30 5510 C 500.393 3.14695 -3.22921 0
M  V30 5511 C 499.055 3.14937 -3.63824 0
M  V30 5512 C 501.407 3.10211 -4.1883 0
M  V30 5513 C 498.735 3.08408 -4.99101 0
M  V30 5514 C 501.087 3.05224 -5.54095 0
M  V30 5515 C 499.751 3.03787 -5.94365 0
M  V30 5516 H 499.021 0.630829 -0.388762 0
M  V30 5517 H 501.668 1.15053 -1.53085 0
M  V30 5518 H 499.973 3.73446 -1.18514 0
M  V30 5519 H 501.67 3.68828 -1.57374 0
M  V30 5520 H 498.26 3.15262 -2.90358 0
M  V30 5521 H 502.444 3.09166 -3.8824 0
M  V30 5522 H 497.7 3.05646 -5.29519 0
M  V30 5523 H 501.874 3.00712 -6.28128 0
M  V30 5524 H 499.501 2.98483 -6.99151 0
M  V30 5525 N 501.076 1.04316 1.18135 0
M  V30 5526 C 502.006 0.657299 2.24058 0
M  V30 5527 C 502.987 -0.340678 1.66654 0
M  V30 5528 O 504.172 -0.220223 1.92947 0
M  V30 5529 C 501.302 0.0220715 3.47293 0
M  V30 5530 C 500.256 0.943857 4.17463 0
M  V30 5531 C 499.582 0.172973 5.3442 0
M  V30 5532 C 500.882 2.26409 4.70677 0
M  V30 5533 H 502.576 1.5428 2.56589 0
M  V30 5534 H 500.122 0.743263 1.23335 0
M  V30 5535 H 502.075 -0.259607 4.206 0
M  V30 5536 H 500.799 -0.898323 3.14003 0
M  V30 5537 H 499.458 1.20996 3.46057 0
M  V30 5538 H 499.106 -0.749907 4.97379 0
M  V30 5539 H 498.806 0.787098 5.82304 0
M  V30 5540 H 500.33 -0.101628 6.10515 0
M  V30 5541 H 501.744 2.04294 5.35665 0
M  V30 5542 H 500.141 2.8314 5.29105 0
M  V30 5543 H 501.211 2.90883 3.87962 0
M  V30 5544 N 502.554 -1.34406 0.822964 0
M  V30 5545 C 503.965 -1.8069 0.469879 0
M  V30 5546 C 504.316 -1.68223 -1.00972 0
M  V30 5547 O 503.441 -1.22226 -1.78577 0
M  V30 5548 C 504.036 -3.28064 0.846118 0
M  V30 5549 C 502.595 -3.72428 0.545402 0
M  V30 5550 C 501.742 -2.56116 1.06301 0
M  V30 5551 H 504.693 -1.22153 1.01313 0
M  V30 5552 H 504.714 -3.80205 0.149922 0
M  V30 5553 H 504.226 -3.37107 1.92304 0
M  V30 5554 H 502.327 -3.68924 -0.522109 0
M  V30 5555 H 502.44 -4.66548 1.0895 0
M  V30 5556 H 500.804 -2.50048 0.484554 0
M  V30 5557 H 501.587 -2.67928 2.14638 0
M  V30 5558 N 504.032 -0.577932 -1.46621 0
M  V30 5559 C 505.257 -0.0652536 -2.07297 0
M  V30 5560 C 505.682 1.22828 -1.4246 0
M  V30 5561 O 505.04 1.74075 -0.506718 0
M  V30 5562 C 505.088 0.0920589 -3.60482 0
M  V30 5563 O 504.192 1.14972 -3.96049 0
M  V30 5564 H 503.533 -0.06065 -0.661224 0
M  V30 5565 H 506.063 -0.799515 -1.88332 0
M  V30 5566 H 506.073 0.299741 -4.06897 0
M  V30 5567 H 504.748 -0.852612 -4.07067 0
M  V30 5568 H 503.325 0.920879 -3.61351 0
M  V30 5569 N 505.51 1.54411 -0.315457 0
M  V30 5570 C 506.787 1.92562 0.343398 0
M  V30 5571 C 507.167 1.24423 1.70535 0
M  V30 5572 O 506.515 0.385051 2.25232 0
M  V30 5573 C 506.725 3.46168 0.443687 0
M  V30 5574 C 508.073 4.18659 0.707783 0
M  V30 5575 O 509.097 3.52281 0.52693 0
M  V30 5576 O 507.956 5.36198 1.05612 0
M  V30 5577 H 505.05 0.80379 0.194552 0
M  V30 5578 H 507.596 1.65738 -0.364577 0
M  V30 5579 H 506.368 3.8792 -0.513172 0
M  V30 5580 H 505.991 3.79073 1.19956 0
M  V30 5581 N 506.988 0.0434614 1.5754 0
M  V30 5582 C 507.951 -0.918696 2.09982 0
M  V30 5583 C 508.951 -1.24488 1.01781 0
M  V30 5584 O 510.141 -1.18284 1.27885 0
M  V30 5585 C 507.273 -2.23093 2.57764 0
M  V30 5586 H 508.466 -0.464229 2.96285 0
M  V30 5587 H 506.019 -0.204818 1.54952 0
M  V30 5588 H 506.754 -2.73137 1.74832 0
M  V30 5589 H 506.539 -2.00724 3.36827 0
M  V30 5590 H 508.029 -2.92028 2.98512 0
M  V30 5591 N 508.466 -1.55915 -0.229846 0
M  V30 5592 C 509.413 -1.91734 -1.28478 0
M  V30 5593 C 510.383 -0.773539 -1.46988 0
M  V30 5594 O 511.568 -1.02871 -1.60693 0
M  V30 5595 C 508.708 -2.23224 -2.63182 0
M  V30 5596 C 507.821 -3.50497 -2.52539 0
M  V30 5597 C 506.956 -3.71474 -3.79711 0
M  V30 5598 C 505.995 -4.92289 -3.63755 0
M  V30 5599 N 505.132 -5.09698 -4.82858 0
M  V30 5600 H 509.972 -2.81692 -0.972308 0
M  V30 5601 H 507.509 -1.39429 -0.468815 0
M  V30 5602 H 509.467 -2.3949 -3.41614 0
M  V30 5603 H 508.097 -1.36451 -2.92542 0
M  V30 5604 H 507.149 -3.4247 -1.65585 0
M  V30 5605 H 508.461 -4.39079 -2.36666 0
M  V30 5606 H 507.615 -3.87791 -4.66586 0
M  V30 5607 H 506.354 -2.81157 -3.985 0
M  V30 5608 H 505.359 -4.7593 -2.75264 0
M  V30 5609 H 506.584 -5.84083 -3.46445 0
M  V30 5610 H 504.53 -4.22322 -5.01976 0
M  V30 5611 H 504.447 -5.92399 -4.69681 0
M  V30 5612 H 505.715 -5.30443 -5.71183 0
M  V30 5613 N 509.944 0.496216 -1.49584 0
M  V30 5614 C 511.174 1.27209 -1.62793 0
M  V30 5615 C 511.582 1.86799 -0.300476 0
M  V30 5616 O 510.925 1.68802 0.724674 0
M  V30 5617 C 510.987 2.43812 -2.64189 0
M  V30 5618 C 510.651 2.05055 -4.08414 0
M  V30 5619 C 511.648 1.58752 -4.9507 0
M  V30 5620 C 509.333 2.14543 -4.54177 0
M  V30 5621 C 511.327 1.22448 -6.25528 0
M  V30 5622 C 509.014 1.77851 -5.84647 0
M  V30 5623 C 510.012 1.31878 -6.70147 0
M  V30 5624 O 509.7 0.956834 -7.98185 0
M  V30 5625 H 509.432 0.391848 -0.550846 0
M  V30 5626 H 511.986 0.601712 -1.96389 0
M  V30 5627 H 510.216 3.13941 -2.25783 0
M  V30 5628 H 511.905 3.05829 -2.66877 0
M  V30 5629 H 512.671 1.50863 -4.60939 0
M  V30 5630 H 508.55 2.49277 -3.87791 0
M  V30 5631 H 512.094 0.864933 -6.92217 0
M  V30 5632 H 507.991 1.8539 -6.18305 0
M  V30 5633 H 508.759 1.08789 -8.11238 0
M  V30 5634 N 511.423 1.38739 0.74761 0
M  V30 5635 C 512.7 1.25791 1.49786 0
M  V30 5636 C 513.08 -0.138075 2.10648 0
M  V30 5637 O 512.428 -1.14815 1.9756 0
M  V30 5638 C 512.638 2.37265 2.55942 0
M  V30 5639 C 513.986 2.75978 3.22679 0
M  V30 5640 O 515.01 2.36621 2.6625 0
M  V30 5641 O 513.869 3.43867 4.24756 0
M  V30 5642 H 510.963 0.492251 0.664543 0
M  V30 5643 H 513.509 1.50582 0.782511 0
M  V30 5644 H 512.281 3.30644 2.0926 0
M  V30 5645 H 511.904 2.14071 3.35051 0
M  V30 5646 N 512.901 -0.976442 1.23707 0
M  V30 5647 C 514.147 -1.72158 1.08319 0
M  V30 5648 C 514.502 -1.88701 -0.375445 0
M  V30 5649 O 513.795 -1.43107 -1.274 0
M  V30 5650 C 513.989 -3.11814 1.74662 0
M  V30 5651 C 513.818 -3.08892 3.26827 0
M  V30 5652 C 512.588 -3.13861 3.96004 0
M  V30 5653 C 514.786 -2.9175 4.2354 0
M  V30 5654 N 512.768 -3.00867 5.35119 0
M  V30 5655 C 514.139 -2.8696 5.49595 0
M  V30 5656 C 516.194 -2.76265 4.14225 0
M  V30 5657 C 514.897 -2.68268 6.67401 0
M  V30 5658 C 516.923 -2.58938 5.317 0
M  V30 5659 C 516.285 -2.54849 6.56682 0
M  V30 5660 H 512.384 -0.638896 0.450927 0
M  V30 5661 H 514.968 -1.15835 1.56494 0
M  V30 5662 H 513.139 -3.66347 1.29014 0
M  V30 5663 H 514.871 -3.74984 1.52215 0
M  V30 5664 H 511.626 -3.22198 3.4711 0
M  V30 5665 H 512.05 -2.97634 6.08065 0
M  V30 5666 H 516.692 -2.78213 3.18366 0
M  V30 5667 H 514.41 -2.65063 7.63392 0
M  V30 5668 H 517.996 -2.47914 5.26336 0
M  V30 5669 H 516.876 -2.41611 7.46052 0
M  V30 5670 N 514.379 -1.04941 -1.1758 0
M  V30 5671 C 515.309 -0.669172 -2.23706 0
M  V30 5672 C 516.29 0.331835 -1.66832 0
M  V30 5673 O 517.475 0.209988 -1.93061 0
M  V30 5674 C 514.605 -0.0404889 -3.47276 0
M  V30 5675 C 513.559 -0.965983 -4.16957 0
M  V30 5676 C 512.885 -0.201312 -5.34321 0
M  V30 5677 C 514.185 -2.28902 -4.69469 0
M  V30 5678 H 515.879 -1.55639 -2.55767 0
M  V30 5679 H 513.425 -0.749793 -1.22939 0
M  V30 5680 H 515.378 0.237298 -4.20731 0
M  V30 5681 H 514.102 0.881658 -3.14475 0
M  V30 5682 H 512.761 -1.22829 -3.45411 0
M  V30 5683 H 512.409 0.723519 -4.97769 0
M  V30 5684 H 512.109 -0.817968 -5.81879 0
M  V30 5685 H 513.633 0.0692499 -6.10561 0
M  V30 5686 H 515.047 -2.07132 -5.34574 0
M  V30 5687 H 513.444 -2.85942 -5.27596 0
M  V30 5688 H 514.514 -2.92937 -3.86414 0
M  V30 5689 N 515.857 1.33968 -0.830081 0
M  V30 5690 C 516.787 2.31911 -0.271911 0
M  V30 5691 C 517.768 1.58571 0.61556 0
M  V30 5692 O 518.953 1.86514 0.540946 0
M  V30 5693 C 516.083 3.42737 0.561146 0
M  V30 5694 C 515.037 4.27383 -0.229789 0
M  V30 5695 C 514.363 5.29742 0.726463 0
M  V30 5696 C 515.663 5.02 -1.44197 0
M  V30 5697 H 517.357 2.78844 -1.09025 0
M  V30 5698 H 514.903 1.34061 -0.52571 0
M  V30 5699 H 516.856 4.10276 0.961867 0
M  V30 5700 H 515.58 2.94471 1.41261 0
M  V30 5701 H 514.239 3.61456 -0.611964 0
M  V30 5702 H 513.887 4.77736 1.57408 0
M  V30 5703 H 513.587 5.87255 0.20142 0
M  V30 5704 H 515.111 6.00149 1.12489 0
M  V30 5705 H 516.525 5.62355 -1.11488 0
M  V30 5706 H 514.922 5.69122 -1.90317 0
M  V30 5707 H 515.992 4.31281 -2.2164 0
M  V30 5708 N 517.335 0.585699 1.46312 0
M  V30 5709 C 518.298 -0.135673 2.28798 0
M  V30 5710 C 519.298 -0.815988 1.38558 0
M  V30 5711 O 520.488 -0.667487 1.60904 0
M  V30 5712 C 517.62 -1.20163 3.1902 0
M  V30 5713 H 518.813 0.589257 2.94054 0
M  V30 5714 H 516.366 0.343794 1.52472 0
M  V30 5715 H 517.101 -1.95804 2.58517 0
M  V30 5716 H 516.886 -0.718282 3.85465 0
M  V30 5717 H 518.376 -1.70749 3.81096 0
M  V30 5718 N 518.813 -1.54241 0.323641 0
M  V30 5719 C 519.76 -2.24339 -0.542277 0
M  V30 5720 C 520.73 -1.23421 -1.11159 0
M  V30 5721 O 521.915 -1.52104 -1.15192 0
M  V30 5722 C 519.055 -3.00479 -1.69725 0
M  V30 5723 C 518.168 -4.16214 -1.15716 0
M  V30 5724 C 517.303 -4.79884 -2.27783 0
M  V30 5725 C 516.342 -5.87722 -1.71023 0
M  V30 5726 N 515.479 -6.45254 -2.76752 0
M  V30 5727 H 520.319 -2.97935 0.0620613 0
M  V30 5728 H 517.856 -1.47039 0.0423993 0
M  V30 5729 H 519.814 -3.42869 -2.3769 0
M  V30 5730 H 518.444 -2.29217 -2.27288 0
M  V30 5731 H 517.496 -3.78605 -0.369063 0
M  V30 5732 H 518.808 -4.93838 -0.701832 0
M  V30 5733 H 517.962 -5.25243 -3.03651 0
M  V30 5734 H 516.701 -4.01641 -2.76652 0
M  V30 5735 H 515.706 -5.41765 -0.936518 0
M  V30 5736 H 516.931 -6.67863 -1.2303 0
M  V30 5737 H 514.877 -5.69884 -3.24912 0
M  V30 5738 H 514.794 -7.18292 -2.35782 0
M  V30 5739 H 516.062 -6.95269 -3.5245 0
M  V30 5740 N 520.291 -0.0518155 -1.57515 0
M  V30 5741 C 521.54 0.621286 -1.91893 0
M  V30 5742 C 521.853 1.71966 -0.932052 0
M  V30 5743 O 523.059 2.45096 -1.16791 0
M  V30 5744 C 521.515 1.15641 -3.40816 0
M  V30 5745 C 521.123 0.0901146 -4.47909 0
M  V30 5746 C 522.867 1.80472 -3.84227 0
M  V30 5747 C 520.774 0.638154 -5.87947 0
M  V30 5748 H 519.704 0.235835 -0.716169 0
M  V30 5749 H 522.355 -0.120809 -1.83102 0
M  V30 5750 H 520.737 1.95084 -3.44613 0
M  V30 5751 H 521.911 -0.683525 -4.55702 0
M  V30 5752 H 520.226 -0.460774 -4.13843 0
M  V30 5753 H 522.823 2.22471 -4.86221 0
M  V30 5754 H 523.166 2.65669 -3.20508 0
M  V30 5755 H 523.699 1.07683 -3.82948 0
M  V30 5756 H 520.438 -0.176202 -6.55263 0
M  V30 5757 H 519.958 1.37976 -5.83714 0
M  V30 5758 H 521.637 1.12085 -6.37217 0
M  V30 5759 N 521.769 1.56035 0.221574 0
M  V30 5760 C 523.015 1.80221 0.942973 0
M  V30 5761 C 523.37 0.624799 1.81973 0
M  V30 5762 O 522.663 -0.381145 1.87771 0
M  V30 5763 C 522.857 3.07813 1.8162 0
M  V30 5764 C 522.686 4.37852 1.02548 0
M  V30 5765 C 521.456 5.00138 0.720418 0
M  V30 5766 C 523.654 5.12813 0.390799 0
M  V30 5767 N 521.636 6.13831 -0.0917139 0
M  V30 5768 C 523.007 6.19346 -0.284728 0
M  V30 5769 C 525.062 4.96972 0.303828 0
M  V30 5770 C 523.765 7.11758 -1.03891 0
M  V30 5771 C 525.791 5.89784 -0.436883 0
M  V30 5772 C 525.153 6.95743 -1.10095 0
M  V30 5773 H 521.252 0.711117 0.325325 0
M  V30 5774 H 523.836 1.93522 0.213854 0
M  V30 5775 H 522.007 2.95795 2.51714 0
M  V30 5776 H 523.739 3.20191 2.47508 0
M  V30 5777 H 520.494 4.62075 1.03843 0
M  V30 5778 H 520.918 6.75249 -0.486615 0
M  V30 5779 H 525.56 4.15107 0.802896 0
M  V30 5780 H 523.278 7.93105 -1.54949 0
M  V30 5781 H 526.864 5.79603 -0.505181 0
M  V30 5782 H 525.744 7.66322 -1.66495 0
M  V30 5783 N 523.247 -0.488276 1.49845 0
M  V30 5784 C 524.493 -1.24341 1.6021 0
M  V30 5785 C 524.826 -1.91967 0.293651 0
M  V30 5786 O 524.101 -1.81323 -0.703718 0
M  V30 5787 C 524.384 -2.3005 2.77036 0
M  V30 5788 C 524.237 -1.66842 4.17713 0
M  V30 5789 C 525.556 -3.31509 2.89464 0
M  V30 5790 H 522.675 -0.450704 0.583125 0
M  V30 5791 H 525.317 -0.539673 1.82174 0
M  V30 5792 H 523.467 -2.90071 2.58439 0
M  V30 5793 H 525.139 -1.1055 4.47858 0
M  V30 5794 H 523.382 -0.972079 4.22768 0
M  V30 5795 H 524.053 -2.43576 4.95353 0
M  V30 5796 H 526.529 -2.81493 3.06433 0
M  V30 5797 H 525.405 -4.02822 3.72861 0
M  V30 5798 H 525.666 -3.94603 1.99351 0
M  V30 5799 N 524.725 -1.39134 -0.740242 0
M  V30 5800 C 526.141 -1.20623 -1.0451 0
M  V30 5801 C 526.341 -0.0641651 -2.01398 0
M  V30 5802 O 525.397 0.585843 -2.4561 0
M  V30 5803 C 526.71 -2.53815 -1.6124 0
M  V30 5804 C 528.258 -2.60615 -1.73346 0
M  V30 5805 C 528.733 -3.94015 -2.33486 0
M  V30 5806 N 530.224 -3.95627 -2.40902 0
M  V30 5807 C 530.959 -4.95616 -2.88361 0
M  V30 5808 N 530.455 -6.06003 -3.35756 0
M  V30 5809 N 532.248 -4.82998 -2.87523 0
M  V30 5810 H 524.399 -2.12176 -0.0975576 0
M  V30 5811 H 526.662 -0.942066 -0.105904 0
M  V30 5812 H 526.368 -3.37911 -0.975144 0
M  V30 5813 H 526.242 -2.73162 -2.6012 0
M  V30 5814 H 528.629 -1.76906 -2.36195 0
M  V30 5815 H 528.71 -2.45123 -0.731336 0
M  V30 5816 H 528.354 -4.78153 -1.71267 0
M  V30 5817 H 528.284 -4.06825 -3.34366 0
M  V30 5818 H 530.775 -3.15903 -2.07398 0
M  V30 5819 H 531.088 -6.78215 -3.70464 0
M  V30 5820 H 529.433 -6.09604 -3.33778 0
M  V30 5821 H 532.624 -3.95866 -2.49816 0
M  V30 5822 H 532.797 -5.61072 -3.24196 0
M  V30 5823 N 526.204 0.969867 -1.24223 0
M  V30 5824 C 527.429 1.75289 -1.10853 0
M  V30 5825 C 527.854 1.85091 0.335079 0
M  V30 5826 O 527.212 1.32024 1.24255 0
M  V30 5827 C 527.26 3.15255 -1.75062 0
M  V30 5828 O 526.364 3.99589 -1.01992 0
M  V30 5829 H 525.705 0.538904 -0.387915 0
M  V30 5830 H 528.235 1.21675 -1.64488 0
M  V30 5831 H 528.245 3.65787 -1.80731 0
M  V30 5832 H 526.92 3.07436 -2.801 0
M  V30 5833 H 525.497 3.58077 -1.04094 0
M  V30 5834 N 527.682 1.05563 1.17022 0
M  V30 5835 C 528.907 0.788437 1.91829 0
M  V30 5836 C 529.332 -0.650356 1.76499 0
M  V30 5837 O 528.69 -1.45229 1.08527 0
M  V30 5838 C 528.738 1.1786 3.40795 0
M  V30 5839 O 527.842 0.312965 4.11211 0
M  V30 5840 H 527.183 0.288794 0.597908 0
M  V30 5841 H 529.713 1.40948 1.48307 0
M  V30 5842 H 529.723 1.14697 3.91546 0
M  V30 5843 H 528.398 2.22666 3.51273 0
M  V30 5844 H 526.975 0.405515 3.70689 0
M  V30 5845 N 529.16 -1.33526 0.837174 0
M  V30 5846 C 530.437 -1.92369 0.354065 0
M  V30 5847 C 530.817 -1.76348 -1.16038 0
M  V30 5848 O 530.165 -1.15083 -1.97403 0
M  V30 5849 C 530.375 -3.39728 0.799101 0
M  V30 5850 C 531.723 -4.16877 0.806139 0
M  V30 5851 O 532.747 -3.48373 0.742597 0
M  V30 5852 O 531.606 -5.39166 0.892345 0
M  V30 5853 H 528.7 -0.820952 0.0998378 0
M  V30 5854 H 531.246 -1.42409 0.922913 0
M  V30 5855 H 530.018 -3.45254 1.84162 0
M  V30 5856 H 529.641 -3.97062 0.206731 0
M  V30 5857 N 530.638 -0.59345 -1.46 0
M  V30 5858 C 531.885 -0.0831523 -2.02329 0
M  V30 5859 C 532.213 1.28093 -1.46364 0
M  V30 5860 O 531.468 1.85526 -0.622793 0
M  V30 5861 C 531.767 0.021178 -3.57394 0
M  V30 5862 C 531.433 -1.27671 -4.32448 0
M  V30 5863 C 530.095 -1.63227 -4.5267 0
M  V30 5864 C 532.447 -2.13511 -4.7546 0
M  V30 5865 C 529.775 -2.84401 -5.1316 0
M  V30 5866 C 532.127 -3.33922 -5.37289 0
M  V30 5867 C 530.791 -3.69747 -5.55737 0
M  V30 5868 H 530.061 -0.0304276 -0.740375 0
M  V30 5869 H 532.708 -0.772239 -1.75239 0
M  V30 5870 H 531.013 0.793454 -3.83682 0
M  V30 5871 H 532.71 0.431942 -3.98667 0
M  V30 5872 H 529.3 -0.989937 -4.17011 0
M  V30 5873 H 533.484 -1.87344 -4.59582 0
M  V30 5874 H 528.74 -3.12282 -5.25633 0
M  V30 5875 H 532.914 -4.00698 -5.69574 0
M  V30 5876 H 530.541 -4.6373 -6.02377 0
M  V30 5877 N 532.116 1.54067 -0.331816 0
M  V30 5878 C 533.066 2.21363 0.546101 0
M  V30 5879 C 534.05 1.19698 1.07523 0
M  V30 5880 O 535.242 1.45293 1.01088 0
M  V30 5881 C 532.371 2.98115 1.70242 0
M  V30 5882 C 531.457 4.07127 1.18779 0
M  V30 5883 N 531.848 5.04267 0.393465 0
M  V30 5884 C 530.146 4.21226 1.46576 0
M  V30 5885 C 530.847 5.81585 0.115572 0
M  V30 5886 N 529.823 5.39022 0.703987 0
M  V30 5887 H 533.625 2.93821 -0.0679751 0
M  V30 5888 H 531.139 1.61812 -0.138085 0
M  V30 5889 H 533.136 3.44818 2.34321 0
M  V30 5890 H 531.796 2.27181 2.31989 0
M  V30 5891 H 532.807 5.17888 0.0355757 0
M  V30 5892 H 529.484 3.61509 2.08848 0
M  V30 5893 H 530.874 6.6985 -0.524426 0
M  V30 5894 N 533.594 0.0601682 1.57485 0
M  V30 5895 C 534.84 -0.612501 1.93329 0
M  V30 5896 C 535.173 -1.6996 0.939526 0
M  V30 5897 O 534.448 -1.94472 -0.0330957 0
M  V30 5898 C 534.731 -1.20025 3.39508 0
M  V30 5899 C 534.584 -0.12059 4.49638 0
M  V30 5900 C 535.903 -2.10923 3.86264 0
M  V30 5901 H 533.022 -0.221185 0.703027 0
M  V30 5902 H 535.664 0.123768 1.89596 0
M  V30 5903 H 533.814 -1.82774 3.42821 0
M  V30 5904 H 535.486 0.51185 4.58452 0
M  V30 5905 H 533.729 0.550251 4.30296 0
M  V30 5906 H 534.4 -0.572019 5.49028 0
M  V30 5907 H 536.876 -1.58124 3.84884 0
M  V30 5908 H 535.752 -2.48987 4.8918 0
M  V30 5909 H 536.013 -3.01292 3.23536 0
M  V30 5910 N 535.072 -1.5615 -0.213296 0
M  V30 5911 C 536.022 -1.89485 -1.26804 0
M  V30 5912 C 537.006 -0.758713 -1.41889 0
M  V30 5913 O 538.198 -1.02127 -1.44565 0
M  V30 5914 C 535.327 -2.22219 -2.61675 0
M  V30 5915 C 534.413 -3.42245 -2.50458 0
M  V30 5916 N 534.804 -4.60645 -2.089 0
M  V30 5917 C 533.102 -3.46023 -2.81397 0
M  V30 5918 C 533.803 -5.42805 -2.09135 0
M  V30 5919 N 532.779 -4.82732 -2.49941 0
M  V30 5920 H 536.581 -2.78537 -0.937771 0
M  V30 5921 H 534.095 -1.56826 -0.421824 0
M  V30 5922 H 536.092 -2.44278 -3.37837 0
M  V30 5923 H 534.752 -1.34484 -2.95541 0
M  V30 5924 H 535.763 -4.85651 -1.79899 0
M  V30 5925 H 532.44 -2.68654 -3.1958 0
M  V30 5926 H 533.83 -6.47601 -1.79059 0
M  V30 5927 N 536.55 0.480323 -1.50102 0
M  V30 5928 C 537.482 1.59669 -1.64433 0
M  V30 5929 C 538.495 1.54063 -0.52615 0
M  V30 5930 O 539.684 1.59619 -0.798992 0
M  V30 5931 C 536.784 2.98527 -1.6042 0
M  V30 5932 C 535.957 3.291 -2.88117 0
M  V30 5933 C 535.016 4.47468 -2.76873 0
M  V30 5934 O 534.042 4.4823 -3.50825 0
M  V30 5935 N 535.244 5.48593 -1.89806 0
M  V30 5936 H 538.009 1.47795 -2.60723 0
M  V30 5937 H 535.57 0.66858 -1.4745 0
M  V30 5938 H 537.562 3.75666 -1.50523 0
M  V30 5939 H 536.132 3.04218 -0.719036 0
M  V30 5940 H 535.352 2.40662 -3.12211 0
M  V30 5941 H 536.64 3.46334 -3.72734 0
M  V30 5942 H 536.038 5.50791 -1.2902 0
M  V30 5943 H 534.595 6.24752 -1.85819 0
M  V30 5944 N 538.028 1.39524 0.732853 0
M  V30 5945 C 539.256 1.40143 1.52209 0
M  V30 5946 C 539.671 -0.00348836 1.888 0
M  V30 5947 O 539.028 -0.975357 1.5425 0
M  V30 5948 C 539.079 2.27632 2.8083 0
M  V30 5949 O 538.8 3.62654 2.45792 0
M  V30 5950 C 540.301 2.36658 3.74844 0
M  V30 5951 H 537.521 0.478604 0.470297 0
M  V30 5952 H 540.065 1.83366 0.905388 0
M  V30 5953 H 538.22 1.87818 3.38826 0
M  V30 5954 H 538.634 4.08941 3.28431 0
M  V30 5955 H 540.108 3.02118 4.61984 0
M  V30 5956 H 540.585 1.38638 4.16745 0
M  V30 5957 H 541.191 2.76951 3.22766 0
M  V30 5958 N 539.506 -0.963266 1.24736 0
M  V30 5959 C 540.755 -1.70115 1.08369 0
M  V30 5960 C 541.068 -1.91939 -0.376688 0
M  V30 5961 O 542.274 -2.6334 -0.660624 0
M  V30 5962 C 540.73 -3.06218 1.89099 0
M  V30 5963 C 540.338 -2.92221 3.39574 0
M  V30 5964 C 542.082 -3.83848 1.81275 0
M  V30 5965 C 539.989 -4.23662 4.12631 0
M  V30 5966 H 538.919 -0.637944 0.401924 0
M  V30 5967 H 541.57 -1.07304 1.48856 0
M  V30 5968 H 539.952 -3.69884 1.41429 0
M  V30 5969 H 541.126 -2.37541 3.94856 0
M  V30 5970 H 539.441 -2.28054 3.48397 0
M  V30 5971 H 542.038 -4.81188 2.33158 0
M  V30 5972 H 542.381 -4.08949 0.778895 0
M  V30 5973 H 542.914 -3.26918 2.26649 0
M  V30 5974 H 539.653 -4.03753 5.16395 0
M  V30 5975 H 539.173 -4.78141 3.62135 0
M  V30 5976 H 540.852 -4.92256 4.19873 0
M  V30 5977 N 540.985 -1.06182 -1.16461 0
M  V30 5978 C 542.213 -0.798583 -1.90867 0
M  V30 5979 C 542.628 0.646921 -1.77371 0
M  V30 5980 O 541.985 1.44279 -1.11758 0
M  V30 5981 C 542.036 -1.18258 -3.4161 0
M  V30 5982 O 541.757 -2.57135 -3.54701 0
M  V30 5983 C 543.258 -0.946917 -4.33069 0
M  V30 5984 H 540.478 -0.289603 -0.605286 0
M  V30 5985 H 543.022 -1.41515 -1.47627 0
M  V30 5986 H 541.177 -0.610562 -3.82558 0
M  V30 5987 H 541.591 -2.72477 -4.4817 0
M  V30 5988 H 543.065 -1.26523 -5.37304 0
M  V30 5989 H 543.542 0.117406 -4.39043 0
M  V30 5990 H 544.148 -1.50326 -3.97847 0
M  V30 5991 N 542.463 1.3308 -0.844243 0
M  V30 5992 C 543.413 2.26589 -0.253289 0
M  V30 5993 C 544.397 1.49501 0.594836 0
M  V30 5994 O 545.589 1.71291 0.445924 0
M  V30 5995 C 542.718 3.38599 0.566176 0
M  V30 5996 C 541.804 4.23081 -0.293756 0
M  V30 5997 N 542.195 4.86751 -1.37505 0
M  V30 5998 C 540.493 4.45925 -0.0817086 0
M  V30 5999 C 541.194 5.49684 -1.90323 0
M  V30 6000 N 540.17 5.30101 -1.20391 0
M  V30 6001 H 543.972 2.73334 -1.08009 0
M  V30 6002 H 541.486 1.47048 -0.689258 0
M  V30 6003 H 543.483 4.04584 1.00587 0
M  V30 6004 H 542.143 2.93401 1.39089 0
M  V30 6005 H 543.154 4.87151 -1.75796 0
M  V30 6006 H 539.831 4.11434 0.709129 0
M  V30 6007 H 541.221 6.10363 -2.80902 0
M  V30 6008 N 543.941 0.601185 1.45683 0
M  V30 6009 C 544.871 -0.108824 2.33246 0
M  V30 6010 C 545.852 -0.865223 1.46451 0
M  V30 6011 O 547.037 -0.83704 1.75235 0
M  V30 6012 C 544.167 -1.11101 3.2905 0
M  V30 6013 C 543.121 -0.468244 4.25431 0
M  V30 6014 C 542.447 -1.57822 5.10878 0
M  V30 6015 C 543.747 0.606469 5.18767 0
M  V30 6016 H 545.441 0.622306 2.92861 0
M  V30 6017 H 542.987 0.300714 1.40825 0
M  V30 6018 H 544.94 -1.61622 3.89174 0
M  V30 6019 H 543.664 -1.87265 2.67581 0
M  V30 6020 H 542.323 0.0160484 3.66596 0
M  V30 6021 H 541.971 -2.32998 4.45781 0
M  V30 6022 H 541.671 -1.15369 5.76163 0
M  V30 6023 H 543.195 -2.08583 5.73869 0
M  V30 6024 H 544.609 0.185589 5.73 0
M  V30 6025 H 543.006 0.952381 5.92494 0
M  V30 6026 H 544.076 1.48559 4.61582 0
M  V30 6027 N 545.419 -1.53889 0.339982 0
M  V30 6028 C 546.349 -2.27843 -0.510856 0
M  V30 6029 C 547.33 -1.29267 -1.10563 0
M  V30 6030 O 548.515 -1.58104 -1.12768 0
M  V30 6031 C 545.645 -3.04857 -1.66372 0
M  V30 6032 C 544.599 -4.10907 -1.19746 0
M  V30 6033 C 543.925 -4.75855 -2.43857 0
M  V30 6034 C 545.225 -5.21435 -0.300501 0
M  V30 6035 H 546.919 -2.99212 0.106067 0
M  V30 6036 H 544.465 -1.43904 0.0524533 0
M  V30 6037 H 546.418 -3.5533 -2.26537 0
M  V30 6038 H 545.142 -2.31133 -2.30749 0
M  V30 6039 H 543.801 -3.61342 -0.618654 0
M  V30 6040 H 543.449 -3.9873 -3.06633 0
M  V30 6041 H 543.149 -5.47502 -2.13343 0
M  V30 6042 H 544.673 -5.2911 -3.04754 0
M  V30 6043 H 546.087 -5.67565 -0.80889 0
M  V30 6044 H 544.484 -6.00036 -0.0874076 0
M  V30 6045 H 545.554 -4.80328 0.664321 0
M  V30 6046 N 546.897 -0.0685191 -1.57451 0
M  V30 6047 C 548.313 0.288101 -1.56978 0
M  V30 6048 C 548.513 1.70262 -1.07765 0
M  V30 6049 O 547.569 2.4135 -0.742054 0
M  V30 6050 C 548.882 0.100745 -3.00531 0
M  V30 6051 C 550.43 0.170531 -3.12535 0
M  V30 6052 C 550.905 0.0114944 -4.57999 0
M  V30 6053 N 552.396 0.0672065 -4.63151 0
M  V30 6054 C 553.131 -0.0314813 -5.73391 0
M  V30 6055 N 552.627 -0.183503 -6.92557 0
M  V30 6056 N 554.42 0.0253489 -5.62094 0
M  V30 6057 H 546.571 -0.993026 -1.87757 0
M  V30 6058 H 548.834 -0.386981 -0.865419 0
M  V30 6059 H 548.54 -0.875197 -3.40636 0
M  V30 6060 H 548.414 0.854457 -3.67395 0
M  V30 6061 H 550.801 1.13696 -2.72318 0
M  V30 6062 H 550.882 -0.614229 -2.48316 0
M  V30 6063 H 550.526 -0.951684 -4.98904 0
M  V30 6064 H 550.456 0.815617 -5.20245 0
M  V30 6065 H 552.947 0.183246 -3.77455 0
M  V30 6066 H 553.26 -0.251041 -7.72392 0
M  V30 6067 H 551.605 -0.218822 -6.94655 0
M  V30 6068 H 554.796 0.142794 -4.67882 0
M  V30 6069 H 554.969 -0.0550166 -6.47977 0
M  V30 6070 N 548.375 1.56261 0.205012 0
M  V30 6071 C 549.603 1.84141 0.943386 0
M  V30 6072 C 550.018 0.649772 1.77266 0
M  V30 6073 O 549.375 -0.381612 1.78466 0
M  V30 6074 C 549.426 3.10719 1.84759 0
M  V30 6075 O 549.147 4.25286 1.05181 0
M  V30 6076 C 550.648 3.51706 2.69848 0
M  V30 6077 H 547.868 0.611734 0.275721 0
M  V30 6078 H 550.412 2.03364 0.215253 0
M  V30 6079 H 548.567 2.93422 2.52947 0
M  V30 6080 H 548.981 4.97301 1.66709 0
M  V30 6081 H 550.455 4.43266 3.28967 0
M  V30 6082 H 550.932 2.7423 3.43067 0
M  V30 6083 H 551.538 3.71499 2.07047 0
M  V30 6084 N 549.853 -0.472356 1.50355 0
M  V30 6085 C 550.803 -1.56809 1.65514 0
M  V30 6086 C 551.787 -1.5261 0.509801 0
M  V30 6087 O 552.979 -1.59655 0.764145 0
M  V30 6088 C 550.108 -2.9526 1.75146 0
M  V30 6089 C 549.194 -3.04348 2.95353 0
M  V30 6090 N 549.585 -2.83253 4.19048 0
M  V30 6091 C 547.883 -3.35482 2.93884 0
M  V30 6092 C 548.584 -2.97273 5.00003 0
M  V30 6093 N 547.56 -3.27418 4.33934 0
M  V30 6094 H 551.362 -1.39197 2.58846 0
M  V30 6095 H 548.876 -0.67906 1.47521 0
M  V30 6096 H 550.873 -3.74044 1.8411 0
M  V30 6097 H 549.533 -3.1392 0.829717 0
M  V30 6098 H 550.544 -2.5886 4.48567 0
M  V30 6099 H 547.221 -3.60138 2.11204 0
M  V30 6100 H 548.611 -2.85214 6.08361 0
M  V30 6101 N 551.331 -1.39911 -0.725443 0
M  V30 6102 C 552.261 -1.42138 -1.85254 0
M  V30 6103 C 553.242 -0.283513 -1.67721 0
M  V30 6104 O 554.427 -0.490717 -1.87898 0
M  V30 6105 C 551.557 -1.27354 -3.23107 0
M  V30 6106 C 550.511 -2.3864 -3.55296 0
M  V30 6107 C 549.837 -2.08939 -4.92188 0
M  V30 6108 C 551.137 -3.8097 -3.57295 0
M  V30 6109 H 552.831 -2.36461 -1.83648 0
M  V30 6110 H 550.377 -1.13817 -0.882138 0
M  V30 6111 H 552.33 -1.2753 -4.01639 0
M  V30 6112 H 551.054 -0.295025 -3.25265 0
M  V30 6113 H 549.713 -2.37696 -2.79099 0
M  V30 6114 H 549.361 -1.09502 -4.90936 0
M  V30 6115 H 549.061 -2.83491 -5.14691 0
M  V30 6116 H 550.585 -2.10781 -5.73065 0
M  V30 6117 H 551.999 -3.8379 -4.25885 0
M  V30 6118 H 550.396 -4.5496 -3.9132 0
M  V30 6119 H 551.466 -4.11261 -2.5689 0
M  V30 6120 N 552.809 0.956637 -1.25245 0
M  V30 6121 C 554.055 1.70352 -1.10036 0
M  V30 6122 C 554.388 1.90869 0.358156 0
M  V30 6123 O 553.663 1.47819 1.26411 0
M  V30 6124 C 553.946 3.08766 -1.85298 0
M  V30 6125 C 553.799 2.95672 -3.38966 0
M  V30 6126 C 555.118 4.08622 -1.63451 0
M  V30 6127 H 552.237 0.618279 -0.401123 0
M  V30 6128 H 554.879 1.11212 -1.54051 0
M  V30 6129 H 553.029 3.59252 -1.47887 0
M  V30 6130 H 554.701 2.52527 -3.86041 0
M  V30 6131 H 552.944 2.31634 -3.6678 0
M  V30 6132 H 553.615 3.93776 -3.86839 0
M  V30 6133 H 556.091 3.67038 -1.96015 0
M  V30 6134 H 554.967 5.03514 -2.18551 0
M  V30 6135 H 555.228 4.3834 -0.575357 0
M  V30 6136 N 554.287 1.06798 1.15896 0
M  V30 6137 C 555.512 0.808739 1.90982 0
M  V30 6138 C 555.937 -0.6316 1.77179 0
M  V30 6139 O 555.295 -1.4407 1.10061 0
M  V30 6140 C 555.343 1.21468 3.39526 0
M  V30 6141 O 554.447 0.356562 4.10856 0
M  V30 6142 H 553.788 0.29512 0.594811 0
M  V30 6143 H 556.318 1.42513 1.46804 0
M  V30 6144 H 556.328 1.18844 3.90308 0
M  V30 6145 H 555.003 2.26379 3.48891 0
M  V30 6146 H 553.58 0.444808 3.70238 0
M  V30 6147 N 555.766 -1.3263 0.851289 0
M  V30 6148 C 556.676 -2.32722 0.296268 0
M  V30 6149 C 557.692 -1.63901 -0.584162 0
M  V30 6150 O 558.868 -1.95465 -0.485334 0
M  V30 6151 C 555.933 -3.42942 -0.509103 0
M  V30 6152 C 554.994 -4.2746 0.397069 0
M  V30 6153 C 554.227 -5.32416 -0.36996 0
M  V30 6154 O 554.45 -5.47491 -1.6003 0
M  V30 6155 O 553.384 -6.01327 0.262493 0
M  V30 6156 H 557.21 -2.82078 1.12543 0
M  V30 6157 H 554.795 -1.36194 0.614135 0
M  V30 6158 H 556.677 -4.1017 -0.96634 0
M  V30 6159 H 555.352 -2.95781 -1.31512 0
M  V30 6160 H 554.259 -3.63053 0.902411 0
M  V30 6161 H 555.592 -4.78136 1.16818 0
M  V30 6162 N 557.244 -0.608902 -1.45362 0
M  V30 6163 C 558.49 -0.104762 -2.02529 0
M  V30 6164 C 558.823 1.26191 -1.47613 0
M  V30 6165 O 558.098 1.8327 -0.65134 0
M  V30 6166 C 558.381 -0.0672661 -3.60037 0
M  V30 6167 C 558.234 -1.4647 -4.25284 0
M  V30 6168 C 559.553 0.619877 -4.35713 0
M  V30 6169 H 556.672 -0.0395438 -0.735938 0
M  V30 6170 H 559.314 -0.781126 -1.73201 0
M  V30 6171 H 557.464 0.50871 -3.85155 0
M  V30 6172 H 559.136 -2.08785 -4.11347 0
M  V30 6173 H 557.379 -2.02502 -3.83634 0
M  V30 6174 H 558.05 -1.39069 -5.34195 0
M  V30 6175 H 560.526 0.130297 -4.15896 0
M  V30 6176 H 559.402 0.615224 -5.45441 0
M  V30 6177 H 559.663 1.68621 -4.0868 0
M  V30 6178 N 558.722 1.53707 -0.348139 0
M  V30 6179 C 559.969 2.00988 0.246966 0
M  V30 6180 C 560.297 1.23586 1.50189 0
M  V30 6181 O 559.552 0.312817 1.93184 0
M  V30 6182 C 559.851 3.52292 0.602061 0
M  V30 6183 C 559.517 4.47453 -0.556509 0
M  V30 6184 C 558.179 4.73188 -0.874446 0
M  V30 6185 C 560.531 5.03851 -1.33354 0
M  V30 6186 C 557.859 5.52577 -1.9717 0
M  V30 6187 C 560.211 5.84437 -2.42108 0
M  V30 6188 C 558.875 6.08465 -2.74456 0
M  V30 6189 H 558.145 0.735469 0.0903712 0
M  V30 6190 H 560.792 1.85464 -0.477001 0
M  V30 6191 H 559.097 3.65672 1.40681 0
M  V30 6192 H 560.794 3.86337 1.07447 0
M  V30 6193 H 557.384 4.27558 -0.298652 0
M  V30 6194 H 561.568 4.8393 -1.10117 0
M  V30 6195 H 556.824 5.69418 -2.22651 0
M  V30 6196 H 560.998 6.27151 -3.02745 0
M  V30 6197 H 558.625 6.69768 -3.59604 0
M  V30 6198 N 560.2 0.0768682 1.57412 0
M  V30 6199 C 561.448 -0.589918 1.93299 0
M  V30 6200 C 561.769 -1.69842 0.958049 0
M  V30 6201 O 561.039 -1.95899 0.00703261 0
M  V30 6202 H 559.619 -0.220901 0.713591 0
M  V30 6203 H 562.281 0.135917 1.94425 0
M  V30 6204 H 561.377 -1.01195 2.95239 0
M  V30 6205 N 561.678 -1.56367 -0.196722 0
M  V30 6206 C 562.927 -1.79724 -0.915539 0
M  V30 6207 C 563.24 -0.649804 -1.84491 0
M  V30 6208 O 564.446 -0.767631 -2.60422 0
M  V30 6209 C 562.902 -3.18369 -1.67836 0
M  V30 6210 C 562.51 -4.4091 -0.793897 0
M  V30 6211 C 564.254 -3.51037 -2.38691 0
M  V30 6212 C 562.161 -5.70577 -1.55549 0
M  V30 6213 H 561.091 -0.67013 -0.345604 0
M  V30 6214 H 563.742 -1.82721 -0.168856 0
M  V30 6215 H 562.124 -3.09617 -2.46887 0
M  V30 6216 H 563.298 -4.60781 -0.042163 0
M  V30 6217 H 561.613 -4.15937 -0.19626 0
M  V30 6218 H 564.21 -4.4515 -2.96219 0
M  V30 6219 H 564.553 -2.74704 -3.12799 0
M  V30 6220 H 565.086 -3.61229 -1.66608 0
M  V30 6221 H 561.825 -6.49871 -0.857226 0
M  V30 6222 H 561.345 -5.54726 -2.2812 0
M  V30 6223 H 563.024 -6.11637 -2.10971 0
M  V30 6224 N 563.156 0.464375 -1.50603 0
M  V30 6225 C 564.119 1.54393 -1.69397 0
M  V30 6226 C 565.119 1.50566 -0.564504 0
M  V30 6227 O 566.309 1.53066 -0.831645 0
M  V30 6228 C 563.441 2.9401 -1.72543 0
M  V30 6229 H 564.634 1.39044 -2.65719 0
M  V30 6230 H 562.187 0.69122 -1.40185 0
M  V30 6231 H 562.922 3.14795 -0.77938 0
M  V30 6232 H 562.707 2.98195 -2.54602 0
M  V30 6233 H 564.197 3.72375 -1.89015 0
M  V30 6234 N 564.634 1.40294 0.718013 0
M  V30 6235 C 565.567 1.34767 1.84155 0
M  V30 6236 C 566.545 0.218455 1.61126 0
M  V30 6237 O 567.729 0.401716 1.8417 0
M  V30 6238 C 564.856 1.09676 3.20451 0
M  V30 6239 C 563.902 2.25016 3.62312 0
M  V30 6240 S 564.735 3.87397 3.69707 0
M  V30 6241 C 565.891 3.64565 5.08766 0
M  V30 6242 H 566.124 2.29851 1.88562 0
M  V30 6243 H 563.657 1.2655 0.884555 0
M  V30 6244 H 565.615 0.95885 3.99144 0
M  V30 6245 H 564.276 0.162502 3.13679 0
M  V30 6246 H 563.469 2.03097 4.61268 0
M  V30 6247 H 563.071 2.35098 2.90869 0
M  V30 6248 H 565.363 3.22882 5.95612 0
M  V30 6249 H 566.306 4.63043 5.35721 0
M  V30 6250 H 566.714 2.98303 4.79245 0
M  V30 6251 N 566.112 -0.949982 1.2575 0
M  V30 6252 C 567.342 -1.72721 1.13363 0
M  V30 6253 C 567.75 -1.86562 -0.314842 0
M  V30 6254 O 567.093 -1.36621 -1.22803 0
M  V30 6255 C 567.155 -3.15695 1.7198 0
M  V30 6256 C 566.819 -3.25268 3.21014 0
M  V30 6257 C 567.816 -3.09222 4.17945 0
M  V30 6258 C 565.501 -3.4894 3.61312 0
M  V30 6259 C 567.495 -3.16701 5.53154 0
M  V30 6260 C 565.182 -3.56055 4.96657 0
M  V30 6261 C 566.18 -3.3995 5.92387 0
M  V30 6262 O 565.868 -3.46757 7.25269 0
M  V30 6263 H 565.6 -0.547888 0.395973 0
M  V30 6264 H 568.154 -1.20009 1.66694 0
M  V30 6265 H 566.384 -3.69791 1.13101 0
M  V30 6266 H 568.073 -3.75295 1.54624 0
M  V30 6267 H 568.839 -2.90798 3.88151 0
M  V30 6268 H 564.718 -3.60534 2.87291 0
M  V30 6269 H 568.262 -3.04048 6.27854 0
M  V30 6270 H 564.159 -3.73997 5.26115 0
M  V30 6271 H 564.927 -3.63358 7.33426 0
M  V30 6272 N 567.59 -1.07411 -1.15328 0
M  V30 6273 C 569.006 -0.799759 -1.38116 0
M  V30 6274 C 569.206 0.59572 -1.92493 0
M  V30 6275 O 568.262 1.35433 -2.13106 0
M  V30 6276 C 569.575 -1.87407 -2.35158 0
M  V30 6277 C 571.123 -1.89889 -2.48819 0
M  V30 6278 C 571.598 -2.96406 -3.49153 0
M  V30 6279 N 573.089 -2.95512 -3.56689 0
M  V30 6280 C 573.824 -3.74575 -4.34144 0
M  V30 6281 N 573.32 -4.63488 -5.14928 0
M  V30 6282 N 575.113 -3.62919 -4.29239 0
M  V30 6283 H 567.264 -1.97411 -0.78374 0
M  V30 6284 H 569.527 -0.856113 -0.407154 0
M  V30 6285 H 569.233 -2.8768 -2.0232 0
M  V30 6286 H 569.107 -1.73471 -3.34944 0
M  V30 6287 H 571.494 -0.902677 -2.80955 0
M  V30 6288 H 571.575 -2.07904 -1.49029 0
M  V30 6289 H 571.219 -3.96227 -3.17752 0
M  V30 6290 H 571.149 -2.75638 -4.48699 0
M  V30 6291 H 573.64 -2.31061 -2.99031 0
M  V30 6292 H 573.953 -5.20445 -5.71276 0
M  V30 6293 H 572.298 -4.67537 -5.14232 0
M  V30 6294 H 575.489 -2.92833 -3.65194 0
M  V30 6295 H 575.662 -4.24777 -4.89355 0
M  V30 6296 N 569.068 1.32177 -0.85831 0
M  V30 6297 C 570 2.27688 -0.262835 0
M  V30 6298 C 571.013 1.52588 0.567513 0
M  V30 6299 O 572.202 1.74156 0.391407 0
M  V30 6300 C 569.302 3.32668 0.646937 0
M  V30 6301 C 568.475 4.37148 -0.148372 0
M  V30 6302 C 567.534 5.21686 0.687728 0
M  V30 6303 O 566.56 5.69074 0.119934 0
M  V30 6304 N 567.762 5.44892 2.00182 0
M  V30 6305 H 570.527 2.79426 -1.08356 0
M  V30 6306 H 568.088 1.45076 -0.718647 0
M  V30 6307 H 570.08 3.86134 1.2117 0
M  V30 6308 H 568.65 2.81061 1.36834 0
M  V30 6309 H 567.87 3.83915 -0.894572 0
M  V30 6310 H 569.158 5.04038 -0.694514 0
M  V30 6311 H 568.556 5.08128 2.4864 0
M  V30 6312 H 567.113 6.0134 2.51463 0
M  V30 6313 N 570.547 0.616602 1.45037 0
M  V30 6314 C 571.477 -0.0840787 2.33349 0
M  V30 6315 C 572.458 -0.849641 1.4736 0
M  V30 6316 O 573.643 -0.818407 1.76113 0
M  V30 6317 C 570.773 -1.07604 3.3021 0
M  V30 6318 C 569.727 -0.423096 4.25904 0
M  V30 6319 C 569.053 -1.52394 5.12523 0
M  V30 6320 C 570.353 0.661457 5.18095 0
M  V30 6321 H 572.047 0.653333 2.92185 0
M  V30 6322 H 569.593 0.315634 1.40498 0
M  V30 6323 H 571.546 -1.57485 3.90866 0
M  V30 6324 H 570.27 -1.84416 2.69552 0
M  V30 6325 H 568.929 0.05493 3.66559 0
M  V30 6326 H 568.577 -2.28257 4.48227 0
M  V30 6327 H 568.277 -1.09251 5.77354 0
M  V30 6328 H 569.801 -2.02485 5.76049 0
M  V30 6329 H 571.215 0.246353 5.7277 0
M  V30 6330 H 569.612 1.01517 5.91451 0
M  V30 6331 H 570.682 1.53446 4.59981 0
M  V30 6332 N 572.025 -1.5352 0.356285 0
M  V30 6333 C 573.436 -1.86282 -0.12492 0
M  V30 6334 C 573.787 -1.27717 -1.48939 0
M  V30 6335 O 572.912 -0.595614 -2.08042 0
M  V30 6336 C 573.507 -3.37995 -0.23345 0
M  V30 6337 C 572.066 -3.70588 -0.658899 0
M  V30 6338 C 571.213 -2.76581 0.199596 0
M  V30 6339 H 574.164 -1.47901 0.575423 0
M  V30 6340 H 574.185 -3.65475 -1.0587 0
M  V30 6341 H 573.697 -3.8059 0.759776 0
M  V30 6342 H 571.798 -3.33544 -1.66069 0
M  V30 6343 H 571.911 -4.77076 -0.439957 0
M  V30 6344 H 570.275 -2.52552 -0.330076 0
M  V30 6345 H 571.058 -3.22008 1.19019 0
M  V30 6346 N 573.503 -0.0852151 -1.57369 0
M  V30 6347 C 574.466 0.8627 -2.12344 0
M  V30 6348 C 575.466 1.21746 -1.05046 0
M  V30 6349 O 576.656 1.14852 -1.30976 0
M  V30 6350 C 573.788 2.1618 -2.63589 0
M  V30 6351 H 574.981 0.385511 -2.97412 0
M  V30 6352 H 572.534 0.163663 -1.55441 0
M  V30 6353 H 573.269 2.68406 -1.82013 0
M  V30 6354 H 573.054 1.91723 -3.4203 0
M  V30 6355 H 574.544 2.84011 -3.06149 0
M  V30 6356 N 574.981 1.5647 0.188427 0
M  V30 6357 C 576.227 1.81281 0.909124 0
M  V30 6358 C 576.56 0.66034 1.82628 0
M  V30 6359 O 575.835 -0.338737 1.91528 0
M  V30 6360 C 576.118 3.16388 1.7196 0
M  V30 6361 C 575.971 4.42137 0.826714 0
M  V30 6362 C 577.29 3.48256 2.69083 0
M  V30 6363 H 574.409 0.659457 0.329068 0
M  V30 6364 H 577.051 1.89182 0.176156 0
M  V30 6365 H 575.201 3.09784 2.34448 0
M  V30 6366 H 576.873 4.60794 0.216025 0
M  V30 6367 H 575.116 4.33594 0.133792 0
M  V30 6368 H 575.787 5.33184 1.42893 0
M  V30 6369 H 578.263 3.55203 2.16726 0
M  V30 6370 H 577.139 4.43899 3.2287 0
M  V30 6371 H 577.4 2.72088 3.48455 0
M  V30 6372 N 576.459 -0.456382 1.50847 0
M  V30 6373 C 577.409 -1.55045 1.67168 0
M  V30 6374 C 578.393 -1.52061 0.525958 0
M  V30 6375 O 579.585 -1.58836 0.781036 0
M  V30 6376 C 576.714 -2.93386 1.78268 0
M  V30 6377 C 575.8 -3.01198 2.98564 0
M  V30 6378 N 576.191 -2.78792 4.22029 0
M  V30 6379 C 574.489 -3.32346 2.97426 0
M  V30 6380 C 575.19 -2.91953 5.03128 0
M  V30 6381 N 574.166 -3.22797 4.37382 0
M  V30 6382 H 577.968 -1.36444 2.60308 0
M  V30 6383 H 575.482 -0.663375 1.48233 0
M  V30 6384 H 577.479 -3.72071 1.88067 0
M  V30 6385 H 576.139 -3.13022 0.862965 0
M  V30 6386 H 577.15 -2.54087 4.51287 0
M  V30 6387 H 573.827 -3.57877 2.15012 0
M  V30 6388 H 575.217 -2.78745 6.11351 0
M  V30 6389 N 577.937 -1.40673 -0.710563 0
M  V30 6390 C 579.348 -1.34975 -1.28991 0
M  V30 6391 C 579.699 -0.0256272 -1.96183 0
M  V30 6392 O 578.824 0.876339 -1.97862 0
M  V30 6393 C 579.419 -2.44467 -2.34567 0
M  V30 6394 C 577.978 -2.42213 -2.88114 0
M  V30 6395 C 577.125 -2.25085 -1.61963 0
M  V30 6396 H 580.076 -1.50406 -0.506343 0
M  V30 6397 H 580.097 -2.12663 -3.15523 0
M  V30 6398 H 579.609 -3.40825 -1.85634 0
M  V30 6399 H 577.71 -1.49568 -3.41263 0
M  V30 6400 H 577.823 -3.37983 -3.39565 0
M  V30 6401 H 576.187 -1.72691 -1.87216 0
M  V30 6402 H 576.97 -3.23449 -1.15047 0
M  V30 6403 N 579.415 0.9433 -1.26252 0
M  V30 6404 C 580.664 1.68369 -1.11062 0
M  V30 6405 C 580.977 1.92514 0.346104 0
M  V30 6406 O 582.183 2.64358 0.618646 0
M  V30 6407 C 580.639 3.03171 -1.93946 0
M  V30 6408 C 580.247 2.86782 -3.4418 0
M  V30 6409 C 581.991 3.80916 -1.87359 0
M  V30 6410 C 579.898 4.17044 -4.19319 0
M  V30 6411 H 578.828 0.631469 -0.412023 0
M  V30 6412 H 581.479 1.04922 -1.50544 0
M  V30 6413 H 579.861 3.67587 -1.47296 0
M  V30 6414 H 581.035 2.31229 -3.98585 0
M  V30 6415 H 579.35 2.22482 -3.51981 0
M  V30 6416 H 581.947 4.77417 -2.40784 0
M  V30 6417 H 582.29 4.07658 -0.843857 0
M  V30 6418 H 582.823 3.2327 -2.31821 0
M  V30 6419 H 579.562 3.95487 -5.22753 0
M  V30 6420 H 579.082 4.72319 -3.69696 0
M  V30 6421 H 580.761 4.85513 -4.27651 0
M  V30 6422 N 580.893 1.08022 1.14757 0
M  V30 6423 C 582.14 0.807509 1.85703 0
M  V30 6424 C 582.468 -0.666617 1.8272 0
M  V30 6425 O 581.723 -1.50562 1.25018 0
M  V30 6426 C 582.022 1.26964 3.34088 0
M  V30 6427 C 581.688 2.7509 3.57262 0
M  V30 6428 C 580.35 3.15547 3.63296 0
M  V30 6429 C 582.702 3.70667 3.66409 0
M  V30 6430 C 580.03 4.50384 3.75994 0
M  V30 6431 C 582.382 5.05274 3.80632 0
M  V30 6432 C 581.046 5.45342 3.84913 0
M  V30 6433 H 580.316 0.295488 0.679535 0
M  V30 6434 H 582.963 1.35245 1.35577 0
M  V30 6435 H 581.268 0.644216 3.86467 0
M  V30 6436 H 582.965 1.03544 3.87401 0
M  V30 6437 H 579.555 2.42775 3.53212 0
M  V30 6438 H 583.739 3.40533 3.61041 0
M  V30 6439 H 578.995 4.80886 3.77569 0
M  V30 6440 H 583.169 5.79201 3.86652 0
M  V30 6441 H 580.796 6.49823 3.94505 0
M  V30 6442 N 582.371 -1.3172 0.865308 0
M  V30 6443 C 583.318 -2.2863 0.315736 0
M  V30 6444 C 584.288 -1.55524 -0.583213 0
M  V30 6445 O 585.473 -1.83694 -0.51585 0
M  V30 6446 C 582.613 -3.41735 -0.480773 0
M  V30 6447 C 581.726 -4.297 0.445167 0
M  V30 6448 C 580.861 -5.29944 -0.365012 0
M  V30 6449 C 579.9 -6.09554 0.557651 0
M  V30 6450 N 579.037 -7.01768 -0.215994 0
M  V30 6451 H 583.877 -2.75026 1.14736 0
M  V30 6452 H 581.414 -1.35302 0.577209 0
M  V30 6453 H 583.372 -4.06045 -0.958306 0
M  V30 6454 H 582.002 -2.96461 -1.27714 0
M  V30 6455 H 581.054 -3.65875 1.04113 0
M  V30 6456 H 582.366 -4.85295 1.15284 0
M  V30 6457 H 581.52 -5.99908 -0.905255 0
M  V30 6458 H 580.259 -4.74994 -1.106 0
M  V30 6459 H 579.264 -5.38485 1.10969 0
M  V30 6460 H 580.489 -6.66591 1.29742 0
M  V30 6461 H 578.435 -6.49232 -0.939878 0
M  V30 6462 H 578.352 -7.54762 0.432431 0
M  V30 6463 H 579.62 -7.76002 -0.737618 0
M  V30 6464 N 583.85 -0.624285 -1.44708 0
M  V30 6465 C 584.779 0.0717025 -2.3339 0
M  V30 6466 C 585.76 0.841814 -1.47809 0
M  V30 6467 O 586.946 0.809056 -1.76544 0
M  V30 6468 C 584.076 1.05852 -3.30776 0
M  V30 6469 C 583.029 0.400503 -4.26122 0
M  V30 6470 C 582.356 1.49674 -5.13324 0
M  V30 6471 C 583.656 -0.688924 -5.17737 0
M  V30 6472 H 585.35 -0.668819 -2.91834 0
M  V30 6473 H 582.896 -0.32308 -1.40329 0
M  V30 6474 H 584.849 1.5541 -3.91696 0
M  V30 6475 H 583.572 1.82984 -2.70526 0
M  V30 6476 H 582.231 -0.0743687 -3.66525 0
M  V30 6477 H 581.88 2.25877 -4.49431 0
M  V30 6478 H 581.58 1.06188 -5.77926 0
M  V30 6479 H 583.104 1.99427 -5.77115 0
M  V30 6480 H 584.518 -0.276724 -5.72632 0
M  V30 6481 H 582.915 -1.04652 -5.90904 0
M  V30 6482 H 583.985 -1.55884 -4.5916 0
M  V30 6483 N 585.328 1.53329 -0.364422 0
M  V30 6484 C 586.258 2.28627 0.474543 0
M  V30 6485 C 587.239 1.31009 1.08492 0
M  V30 6486 O 588.424 1.59878 1.10239 0
M  V30 6487 C 585.554 3.07465 1.61501 0
M  V30 6488 C 584.508 4.1276 1.13194 0
M  V30 6489 C 583.834 4.79674 2.36255 0
M  V30 6490 C 585.134 5.21847 0.217507 0
M  V30 6491 H 586.828 2.99005 -0.153656 0
M  V30 6492 H 584.374 1.43803 -0.0753406 0
M  V30 6493 H 586.327 3.58889 2.20855 0
M  V30 6494 H 585.051 2.34775 2.27042 0
M  V30 6495 H 583.71 3.62281 0.56109 0
M  V30 6496 H 583.358 4.03557 3.00251 0
M  V30 6497 H 583.058 5.50827 2.04606 0
M  V30 6498 H 584.582 5.33892 2.96297 0
M  V30 6499 H 585.996 5.6878 0.718493 0
M  V30 6500 H 584.393 6.00099 -0.00806408 0
M  V30 6501 H 585.463 4.7921 -0.740653 0
M  V30 6502 N 586.806 0.0935595 1.57322 0
M  V30 6503 C 588.052 -0.571355 1.94585 0
M  V30 6504 C 588.385 -1.67929 0.975366 0
M  V30 6505 O 587.66 -1.94498 0.00816206 0
M  V30 6506 C 587.943 -1.12797 3.41978 0
M  V30 6507 C 587.796 -0.0251881 4.49793 0
M  V30 6508 C 589.115 -2.02682 3.90651 0
M  V30 6509 H 586.234 -0.206223 0.70756 0
M  V30 6510 H 588.876 0.163956 1.89291 0
M  V30 6511 H 587.026 -1.75461 3.4662 0
M  V30 6512 H 588.698 0.608979 4.57263 0
M  V30 6513 H 586.941 0.641399 4.29032 0
M  V30 6514 H 587.612 -0.455433 5.50118 0
M  V30 6515 H 590.088 -1.49925 3.88152 0
M  V30 6516 H 588.964 -2.38555 4.94351 0
M  V30 6517 H 589.225 -2.94362 3.29854 0
M  V30 6518 N 588.284 -1.56567 -0.180126 0
M  V30 6519 C 589.247 -1.94852 -1.20686 0
M  V30 6520 C 590.247 -0.831212 -1.3765 0
M  V30 6521 O 591.437 -1.09841 -1.35206 0
M  V30 6522 C 588.569 -2.23565 -2.57355 0
M  V30 6523 H 589.762 -2.86722 -0.879225 0
M  V30 6524 H 587.315 -1.50489 -0.422237 0
M  V30 6525 H 588.05 -1.34381 -2.95148 0
M  V30 6526 H 587.835 -3.04999 -2.46411 0
M  V30 6527 H 589.325 -2.54137 -3.31367 0
M  V30 6528 N 589.762 0.448376 -1.51087 0
M  V30 6529 C 590.712 1.54156 -1.67988 0
M  V30 6530 C 591.696 1.5178 -0.534015 0
M  V30 6531 O 592.888 1.58419 -0.789448 0
M  V30 6532 C 590.017 2.92437 -1.79822 0
M  V30 6533 C 589.103 2.99611 -3.00157 0
M  V30 6534 N 589.494 2.7655 -4.23502 0
M  V30 6535 C 587.792 3.30764 -2.99184 0
M  V30 6536 C 588.493 2.89281 -5.0467 0
M  V30 6537 N 587.469 3.20473 -4.39088 0
M  V30 6538 H 591.271 1.35061 -2.61028 0
M  V30 6539 H 588.785 0.655504 -1.48583 0
M  V30 6540 H 590.782 3.71068 -1.90037 0
M  V30 6541 H 589.442 3.1256 -0.879554 0
M  V30 6542 H 590.453 2.5169 -4.52628 0
M  V30 6543 H 587.13 3.56732 -2.16907 0
M  V30 6544 H 588.52 2.75499 -6.12821 0
M  V30 6545 N 591.24 1.41047 0.703093 0
M  V30 6546 C 592.486 1.40207 1.46526 0
M  V30 6547 C 592.819 0.00847763 1.94198 0
M  V30 6548 O 592.094 -0.962437 1.69019 0
M  V30 6549 C 592.377 2.40238 2.6825 0
M  V30 6550 C 592.23 3.88674 2.26391 0
M  V30 6551 C 593.549 2.37627 3.70434 0
M  V30 6552 H 590.668 0.510594 0.531472 0
M  V30 6553 H 593.31 1.72271 0.801422 0
M  V30 6554 H 591.46 2.13026 3.24888 0
M  V30 6555 H 593.132 4.2676 1.75138 0
M  V30 6556 H 591.375 4.03903 1.58255 0
M  V30 6557 H 592.046 4.542 3.13698 0
M  V30 6558 H 594.522 2.61759 3.23452 0
M  V30 6559 H 593.398 3.09645 4.53223 0
M  V30 6560 H 593.659 1.39223 4.19606 0
M  V30 6561 N 592.718 -0.936591 1.26751 0
M  V30 6562 C 594.134 -1.21095 1.03963 0
M  V30 6563 C 594.334 -2.00156 -0.232372 0
M  V30 6564 O 593.39 -2.3434 -0.940274 0
M  V30 6565 C 594.703 -1.96775 2.27377 0
M  V30 6566 C 596.251 -2.09749 2.32324 0
M  V30 6567 C 596.726 -2.88832 3.55443 0
M  V30 6568 N 598.217 -2.96404 3.55948 0
M  V30 6569 C 598.952 -3.58036 4.47881 0
M  V30 6570 N 598.448 -4.21132 5.50109 0
M  V30 6571 N 600.241 -3.55353 4.35523 0
M  V30 6572 H 592.392 -0.408173 2.08441 0
M  V30 6573 H 594.655 -0.243139 0.91629 0
M  V30 6574 H 594.361 -1.46094 3.19921 0
M  V30 6575 H 594.235 -2.97424 2.31989 0
M  V30 6576 H 596.622 -2.5962 1.40291 0
M  V30 6577 H 596.703 -1.08347 2.31721 0
M  V30 6578 H 596.347 -2.39647 4.47808 0
M  V30 6579 H 596.277 -3.90499 3.53296 0
M  V30 6580 H 598.768 -2.51552 2.82011 0
M  V30 6581 H 599.081 -4.66071 6.16439 0
M  V30 6582 H 597.426 -4.19705 5.53961 0
M  V30 6583 H 600.617 -3.05256 3.54875 0
M  V30 6584 H 600.79 -4.03097 5.07363 0
M  V30 6585 N 594.196 -1.08629 -1.14182 0
M  V30 6586 C 595.443 -0.817345 -1.85272 0
M  V30 6587 C 595.771 0.656917 -1.83071 0
M  V30 6588 O 595.026 1.49897 -1.25815 0
M  V30 6589 C 595.325 -1.28734 -3.3341 0
M  V30 6590 C 594.991 -2.76981 -3.55798 0
M  V30 6591 C 593.653 -3.17469 -3.61617 0
M  V30 6592 C 596.005 -3.72605 -3.64438 0
M  V30 6593 C 593.333 -4.52371 -3.736 0
M  V30 6594 C 595.685 -5.07286 -3.77947 0
M  V30 6595 C 594.349 -5.47376 -3.82016 0
M  V30 6596 H 593.619 -0.299088 -0.677958 0
M  V30 6597 H 596.266 -1.35962 -1.34857 0
M  V30 6598 H 594.571 -0.664702 -3.8612 0
M  V30 6599 H 596.268 -1.05598 -3.86846 0
M  V30 6600 H 592.858 -2.44644 -3.51919 0
M  V30 6601 H 597.042 -3.42443 -3.5923 0
M  V30 6602 H 592.298 -4.82882 -3.75013 0
M  V30 6603 H 596.472 -5.81243 -3.83575 0
M  V30 6604 H 594.099 -6.51906 -3.91054 0
M  V30 6605 N 595.674 1.31259 -0.872281 0
M  V30 6606 C 596.902 2.00795 -0.498907 0
M  V30 6607 C 597.317 1.65464 0.909238 0
M  V30 6608 O 596.674 0.885073 1.59602 0
M  V30 6609 C 596.725 3.55625 -0.649092 0
M  V30 6610 O 596.446 3.89692 -2.00179 0
M  V30 6611 C 597.947 4.42434 -0.277034 0
M  V30 6612 H 595.167 0.642299 -0.194145 0
M  V30 6613 H 597.711 1.67438 -1.17408 0
M  V30 6614 H 595.866 3.87394 -0.0214402 0
M  V30 6615 H 596.28 4.84407 -2.01122 0
M  V30 6616 H 597.754 5.50299 -0.433064 0
M  V30 6617 H 598.231 4.32146 0.783989 0
M  V30 6618 H 598.837 4.16086 -0.880483 0
M  V30 6619 N 597.152 0.631951 1.44375 0
M  V30 6620 C 598.401 0.134214 2.01253 0
M  V30 6621 C 598.714 -1.25171 1.50305 0
M  V30 6622 O 599.92 -1.8435 1.99317 0
M  V30 6623 C 598.376 0.189187 3.59402 0
M  V30 6624 C 597.984 1.57647 4.19346 0
M  V30 6625 C 599.728 -0.252044 4.23751 0
M  V30 6626 C 597.635 1.58651 5.69722 0
M  V30 6627 H 596.565 0.0464101 0.75257 0
M  V30 6628 H 599.216 0.790868 1.65582 0
M  V30 6629 H 597.598 -0.534584 3.92375 0
M  V30 6630 H 598.772 2.32389 3.97909 0
M  V30 6631 H 597.087 1.96186 3.67288 0
M  V30 6632 H 599.684 -0.264084 5.34047 0
M  V30 6633 H 600.027 -1.27951 3.96149 0
M  V30 6634 H 600.56 0.41926 3.95584 0
M  V30 6635 H 597.299 2.59237 6.0206 0
M  V30 6636 H 596.819 0.882039 5.93279 0
M  V30 6637 H 598.498 1.32082 6.33375 0
M  V30 6638 N 598.631 -1.53133 0.372548 0
M  V30 6639 C 599.594 -2.24569 -0.458389 0
M  V30 6640 C 600.594 -1.25603 -1.00402 0
M  V30 6641 O 601.784 -1.49827 -0.888672 0
M  V30 6642 C 598.916 -2.98783 -1.6414 0
M  V30 6643 H 600.109 -2.99436 0.166799 0
M  V30 6644 H 597.662 -1.55805 0.124357 0
M  V30 6645 H 598.397 -2.28176 -2.30448 0
M  V30 6646 H 598.182 -3.71404 -1.25704 0
M  V30 6647 H 599.672 -3.53068 -2.23008 0
M  V30 6648 N 600.109 -0.101901 -1.5727 0
M  V30 6649 C 601.358 0.559922 -1.93772 0
M  V30 6650 C 601.671 1.68913 -0.98629 0
M  V30 6651 O 602.877 2.41256 -1.24529 0
M  V30 6652 C 601.333 1.04739 -3.44322 0
M  V30 6653 C 600.941 -0.05243 -4.47969 0
M  V30 6654 C 602.685 1.68157 -3.89774 0
M  V30 6655 C 600.592 0.450781 -5.8968 0
M  V30 6656 H 599.522 0.212931 -0.723309 0
M  V30 6657 H 602.173 -0.179001 -1.82625 0
M  V30 6658 H 600.555 1.84021 -3.50645 0
M  V30 6659 H 601.729 -0.828157 -4.53297 0
M  V30 6660 H 600.044 -0.592202 -4.12167 0
M  V30 6661 H 602.641 2.0689 -4.93052 0
M  V30 6662 H 602.984 2.55338 -3.28798 0
M  V30 6663 H 603.517 0.954453 -3.8618 0
M  V30 6664 H 600.256 -0.38458 -6.54371 0
M  V30 6665 H 599.776 1.19336 -5.87809 0
M  V30 6666 H 601.455 0.917555 -6.40461 0
M  V30 6667 N 601.587 1.56661 0.17182 0
M  V30 6668 C 602.535 1.97289 1.23207 0
M  V30 6669 C 603.529 0.861566 1.45854 0
M  V30 6670 O 604.735 1.04668 1.4644 0
M  V30 6671 H 601.11 0.627681 0.41415 0
M  V30 6672 H 603.081 2.85662 0.862542 0
M  V30 6673 C 601.83 2.34849 2.564 0
M  V30 6674 H 601.153 3.19903 2.39797 0
M  V30 6675 H 602.593 2.67121 3.29276 0
M  V30 6676 C 601.052 1.19172 3.15119 0
M  V30 6677 O 601.582 0.479113 3.98833 0
M  V30 6678 N 599.788 0.962415 2.74201 0
M  V30 6679 H 599.335 1.54365 2.06226 0
M  V30 6680 H 599.293 0.190272 3.13824 0
M  V30 6681 N 603.065 -0.440357 1.51323 0
M  V30 6682 C 604.293 -1.21255 1.67645 0
M  V30 6683 C 604.708 -1.85088 0.37252 0
M  V30 6684 O 604.065 -1.70582 -0.648683 0
M  V30 6685 C 604.116 -2.29881 2.78993 0
M  V30 6686 O 603.837 -1.68659 4.04334 0
M  V30 6687 C 605.338 -3.20214 3.06558 0
M  V30 6688 H 602.558 -0.36558 0.562666 0
M  V30 6689 H 605.102 -0.52214 1.97722 0
M  V30 6690 H 603.257 -2.94643 2.51524 0
M  V30 6691 H 603.671 -2.40426 4.6615 0
M  V30 6692 H 605.145 -3.92575 3.88058 0
M  V30 6693 H 605.622 -3.80794 2.18844 0
M  V30 6694 H 606.228 -2.61156 3.35675 0
M  V30 6695 N 604.543 -1.41418 -0.695603 0
M  V30 6696 C 605.49 -1.43264 -1.80954 0
M  V30 6697 C 606.46 -0.287016 -1.63601 0
M  V30 6698 O 607.645 -0.488054 -1.84452 0
M  V30 6699 C 604.785 -1.32054 -3.18835 0
M  V30 6700 C 603.898 -2.56485 -3.4762 0
M  V30 6701 C 603.033 -2.3757 -4.75115 0
M  V30 6702 C 602.072 -3.57477 -4.96867 0
M  V30 6703 N 601.209 -3.37632 -6.15588 0
M  V30 6704 H 606.049 -2.38467 -1.78711 0
M  V30 6705 H 603.586 -1.18415 -0.872715 0
M  V30 6706 H 605.544 -1.23558 -3.98484 0
M  V30 6707 H 604.174 -0.404592 -3.20254 0
M  V30 6708 H 603.226 -2.75432 -2.62376 0
M  V30 6709 H 604.538 -3.45678 -3.59594 0
M  V30 6710 H 603.692 -2.2654 -5.62818 0
M  V30 6711 H 602.431 -1.45834 -4.65386 0
M  V30 6712 H 601.436 -3.68961 -4.07612 0
M  V30 6713 H 602.661 -4.50167 -5.08455 0
M  V30 6714 H 600.607 -2.48596 -6.07072 0
M  V30 6715 H 600.524 -4.20401 -6.2833 0
M  V30 6716 H 601.792 -3.30375 -7.06026 0
M  V30 6717 N 606.021 0.929856 -1.27246 0
M  V30 6718 C 606.984 2.01172 -1.09829 0
M  V30 6719 C 607.984 1.60743 -0.0429687 0
M  V30 6720 O 609.174 1.71813 -0.287373 0
M  V30 6721 C 606.306 3.34191 -0.673003 0
M  V30 6722 H 607.499 2.18054 -2.05895 0
M  V30 6723 H 605.052 1.11036 -1.10003 0
M  V30 6724 H 605.787 3.23009 0.289134 0
M  V30 6725 H 605.572 3.64892 -1.43515 0
M  V30 6726 H 607.062 4.13646 -0.573323 0
M  V30 6727 N 607.499 1.09233 1.13605 0
M  V30 6728 C 608.915 0.82163 1.36826 0
M  V30 6729 C 609.115 -0.565021 1.93416 0
M  V30 6730 O 608.171 -1.32026 2.15234 0
M  V30 6731 C 609.484 1.91124 2.32147 0
M  V30 6732 C 611.032 1.93824 2.45767 0
M  V30 6733 C 611.507 3.01923 3.44393 0
M  V30 6734 N 612.998 3.01149 3.51942 0
M  V30 6735 C 613.733 3.81434 4.2813 0
M  V30 6736 N 613.229 4.71621 5.07489 0
M  V30 6737 N 615.022 3.69702 4.23411 0
M  V30 6738 H 607.173 1.98633 0.752234 0
M  V30 6739 H 609.436 0.862482 0.393482 0
M  V30 6740 H 609.142 2.90862 1.97717 0
M  V30 6741 H 609.016 1.78777 3.32142 0
M  V30 6742 H 611.403 0.94726 2.79483 0
M  V30 6743 H 611.484 2.10248 1.45703 0
M  V30 6744 H 611.128 4.01232 3.11408 0
M  V30 6745 H 611.058 2.82742 4.44257 0
M  V30 6746 H 613.549 2.35789 2.95317 0
M  V30 6747 H 613.862 5.29468 5.62924 0
M  V30 6748 H 612.207 4.75658 5.06729 0
M  V30 6749 H 615.398 2.98606 3.60489 0
M  V30 6750 H 615.571 4.32509 4.82535 0
M  V30 6751 N 608.977 -1.30795 0.87923 0
M  V30 6752 C 609.887 -2.32041 0.345565 0
M  V30 6753 C 610.903 -1.65103 -0.549265 0
M  V30 6754 O 612.079 -1.9645 -0.443763 0
M  V30 6755 C 609.144 -3.43944 -0.436245 0
M  V30 6756 C 608.205 -4.26521 0.48765 0
M  V30 6757 C 607.438 -5.33081 -0.256943 0
M  V30 6758 O 607.661 -5.50762 -1.48381 0
M  V30 6759 O 606.595 -6.00635 0.389985 0
M  V30 6760 H 610.421 -2.79627 1.18501 0
M  V30 6761 H 608.006 -1.3486 0.642885 0
M  V30 6762 H 609.888 -4.12128 -0.879119 0
M  V30 6763 H 608.563 -2.98504 -1.25208 0
M  V30 6764 H 607.47 -3.61057 0.979216 0
M  V30 6765 H 608.803 -4.75551 1.26933 0
M  V30 6766 N 610.455 -0.639598 -1.44038 0
M  V30 6767 C 611.387 0.0987684 -2.28987 0
M  V30 6768 C 612.4 0.80058 -1.41755 0
M  V30 6769 O 613.589 0.660611 -1.65826 0
M  V30 6770 C 610.689 1.16242 -3.18341 0
M  V30 6771 C 609.862 0.541447 -4.34036 0
M  V30 6772 C 608.921 1.50017 -5.04362 0
M  V30 6773 O 607.947 1.01403 -5.60095 0
M  V30 6774 N 609.149 2.83441 -5.06598 0
M  V30 6775 H 611.914 -0.630305 -2.92997 0
M  V30 6776 H 609.475 -0.481376 -1.54578 0
M  V30 6777 H 611.467 1.80429 -3.62253 0
M  V30 6778 H 610.037 1.79362 -2.56024 0
M  V30 6779 H 609.257 -0.27923 -3.9321 0
M  V30 6780 H 610.545 0.107379 -5.08687 0
M  V30 6781 H 609.943 3.2551 -4.62666 0
M  V30 6782 H 608.5 3.42966 -5.54272 0
M  V30 6783 N 611.933 1.52934 -0.380664 0
M  V30 6784 C 612.863 2.29118 0.450268 0
M  V30 6785 C 613.844 1.32153 1.07096 0
M  V30 6786 O 615.029 1.61038 1.08537 0
M  V30 6787 C 612.159 3.09161 1.58231 0
M  V30 6788 C 611.113 4.13938 1.0881 0
M  V30 6789 C 610.439 4.82153 2.31155 0
M  V30 6790 C 611.739 5.22048 0.162146 0
M  V30 6791 H 613.433 2.98826 -0.185361 0
M  V30 6792 H 610.979 1.43715 -0.0905886 0
M  V30 6793 H 612.932 3.61211 2.17036 0
M  V30 6794 H 611.656 2.3717 2.2454 0
M  V30 6795 H 610.315 3.62855 0.522633 0
M  V30 6796 H 609.963 4.06719 2.95953 0
M  V30 6797 H 609.663 5.52966 1.98752 0
M  V30 6798 H 611.187 5.37004 2.90618 0
M  V30 6799 H 612.601 5.6951 0.658126 0
M  V30 6800 H 610.998 6.00057 -0.0717122 0
M  V30 6801 H 612.068 4.78398 -0.791438 0
M  V30 6802 N 613.412 0.11024 1.57214 0
M  V30 6803 C 614.661 -0.549638 1.94067 0
M  V30 6804 C 614.974 -1.68388 0.995234 0
M  V30 6805 O 616.18 -2.40593 1.25807 0
M  V30 6806 C 614.636 -1.02912 3.44873 0
M  V30 6807 C 614.244 0.0761861 4.47935 0
M  V30 6808 C 615.988 -1.66087 3.9066 0
M  V30 6809 C 613.895 -0.419502 5.8991 0
M  V30 6810 H 612.825 -0.209092 0.724428 0
M  V30 6811 H 615.476 0.188683 1.82527 0
M  V30 6812 H 613.858 -1.82159 3.51616 0
M  V30 6813 H 615.032 0.852185 4.52851 0
M  V30 6814 H 613.347 0.614052 4.11847 0
M  V30 6815 H 615.944 -2.04272 4.94143 0
M  V30 6816 H 616.287 -2.53591 3.30148 0
M  V30 6817 H 616.82 -0.933959 3.86681 0
M  V30 6818 H 613.559 0.419277 6.54158 0
M  V30 6819 H 613.079 -1.16217 5.88433 0
M  V30 6820 H 614.758 -0.883577 6.40938 0
M  V30 6821 N 614.89 -1.56749 -0.16351 0
M  V30 6822 C 616.13 -1.84234 -0.885271 0
M  V30 6823 C 616.494 -0.692259 -1.79086 0
M  V30 6824 O 617.695 -0.847747 -2.55082 0
M  V30 6825 C 615.966 -3.16857 -1.65337 0
M  V30 6826 S 617.525 -3.65848 -2.42282 0
M  V30 6827 H 614.343 -0.646293 -0.296354 0
M  V30 6828 H 616.945 -1.94951 -0.146365 0
M  V30 6829 H 615.649 -3.98546 -0.979266 0
M  V30 6830 H 615.18 -3.09102 -2.4335 0
M  V30 6831 H 617.195 -3.33796 -3.67143 0
M  V30 6832 N 616.368 0.432326 -1.51554 0
M  V30 6833 C 617.278 1.55023 -1.76082 0
M  V30 6834 C 618.294 1.61593 -0.645265 0
M  V30 6835 O 619.47 1.78742 -0.928086 0
M  V30 6836 C 616.535 2.90964 -1.88523 0
M  V30 6837 C 615.596 2.9447 -3.12388 0
M  V30 6838 C 614.829 4.23926 -3.24225 0
M  V30 6839 O 615.052 5.16576 -2.4188 0
M  V30 6840 O 613.986 4.33818 -4.17235 0
M  V30 6841 H 617.812 1.37238 -2.70923 0
M  V30 6842 H 615.397 0.615845 -1.36117 0
M  V30 6843 H 617.279 3.71633 -1.98662 0
M  V30 6844 H 615.954 3.08865 -0.9687 0
M  V30 6845 H 614.861 2.12737 -3.07723 0
M  V30 6846 H 616.194 2.81514 -4.03746 0
M  V30 6847 N 617.846 1.41785 0.688094 0
M  V30 6848 C 619.086 1.43018 1.46032 0
M  V30 6849 C 619.45 0.0402632 1.91958 0
M  V30 6850 O 620.651 -0.0726425 2.68702 0
M  V30 6851 C 618.922 2.4151 2.63453 0
M  V30 6852 S 620.481 2.61335 3.5249 0
M  V30 6853 H 617.299 0.506546 0.498931 0
M  V30 6854 H 619.901 1.78283 0.80221 0
M  V30 6855 H 618.605 3.41286 2.27929 0
M  V30 6856 H 618.136 2.07624 3.34149 0
M  V30 6857 H 620.151 1.88637 4.58945 0
M  V30 6858 N 619.324 -0.923095 1.27737 0
M  V30 6859 C 620.572 -1.66797 1.14119 0
M  V30 6860 C 620.893 -1.92479 -0.312541 0
M  V30 6861 O 620.163 -1.53432 -1.218 0
M  V30 6862 H 618.743 -0.618196 0.419336 0
M  V30 6863 H 621.405 -1.10815 1.60331 0
M  V30 6864 H 620.501 -2.63424 1.67374 0
M  V30 6865 N 620.802 -1.09834 -1.13024 0
M  V30 6866 C 621.732 -0.763451 -2.20666 0
M  V30 6867 C 622.713 0.260778 -1.68089 0
M  V30 6868 O 623.898 0.127915 -1.93778 0
M  V30 6869 C 621.028 -0.187744 -3.46792 0
M  V30 6870 C 619.982 -1.14196 -4.12484 0
M  V30 6871 C 619.308 -0.427755 -5.32986 0
M  V30 6872 C 620.608 -2.48607 -4.59338 0
M  V30 6873 H 622.302 -1.66347 -2.48936 0
M  V30 6874 H 619.848 -0.801261 -1.19649 0
M  V30 6875 H 621.801 0.0586375 -4.21359 0
M  V30 6876 H 620.525 0.747485 -3.17931 0
M  V30 6877 H 619.184 -1.37369 -3.3989 0
M  V30 6878 H 618.832 0.511747 -5.0039 0
M  V30 6879 H 618.532 -1.06403 -5.77886 0
M  V30 6880 H 620.056 -0.189772 -6.10305 0
M  V30 6881 H 621.47 -2.29618 -5.25308 0
M  V30 6882 H 619.867 -3.08062 -5.14993 0
M  V30 6883 H 620.937 -3.09062 -3.73642 0
M  V30 6884 N 622.28 1.30327 -0.886154 0
M  V30 6885 C 623.527 1.96097 -0.505192 0
M  V30 6886 C 623.855 1.69952 0.945868 0
M  V30 6887 O 623.11 0.997653 1.68361 0
M  V30 6888 C 623.409 3.49906 -0.728042 0
M  V30 6889 C 623.075 3.96103 -2.15437 0
M  V30 6890 C 621.737 4.08428 -2.5444 0
M  V30 6891 C 624.089 4.20177 -3.08384 0
M  V30 6892 C 621.417 4.42189 -3.85598 0
M  V30 6893 C 623.769 4.55407 -4.39075 0
M  V30 6894 C 622.433 4.65941 -4.7797 0
M  V30 6895 H 621.703 0.71757 -0.184863 0
M  V30 6896 H 624.35 1.55171 -1.12223 0
M  V30 6897 H 622.655 3.9179 -0.027978 0
M  V30 6898 H 624.352 3.98869 -0.412862 0
M  V30 6899 H 620.942 3.87017 -1.84162 0
M  V30 6900 H 625.126 4.10134 -2.7947 0
M  V30 6901 H 620.382 4.48544 -4.15473 0
M  V30 6902 H 624.556 4.72986 -5.11133 0
M  V30 6903 H 622.183 4.91856 -5.79639 0
M  V30 6904 N 623.758 0.647228 1.43697 0
M  V30 6905 C 625.035 0.0883758 1.954 0
M  V30 6906 C 625.415 -1.39006 1.58873 0
M  V30 6907 O 624.763 -2.11255 0.87083 0
M  V30 6908 C 624.973 0.328263 3.47453 0
M  V30 6909 C 626.321 0.230009 4.23977 0
M  V30 6910 O 627.345 0.260496 3.55246 0
M  V30 6911 O 626.204 0.148615 5.46298 0
M  V30 6912 H 623.298 -0.0130683 0.826897 0
M  V30 6913 H 625.844 0.72005 1.53666 0
M  V30 6914 H 624.616 1.3535 3.67146 0
M  V30 6915 H 624.239 -0.336772 3.96171 0
M  V30 6916 N 625.236 -1.5273 0.388769 0
M  V30 6917 C 626.183 -2.26437 -0.446639 0
M  V30 6918 C 627.153 -1.28025 -1.05824 0
M  V30 6919 O 628.338 -1.56852 -1.08637 0
M  V30 6920 C 625.478 -3.07407 -1.56828 0
M  V30 6921 C 624.591 -4.20747 -0.979589 0
M  V30 6922 C 623.726 -4.89113 -2.07224 0
M  V30 6923 C 622.765 -5.94447 -1.45942 0
M  V30 6924 N 621.902 -6.56411 -2.49135 0
M  V30 6925 H 626.742 -2.97404 0.18837 0
M  V30 6926 H 624.279 -1.46727 0.104725 0
M  V30 6927 H 626.237 -3.52642 -2.22934 0
M  V30 6928 H 624.867 -2.3865 -2.17361 0
M  V30 6929 H 623.919 -3.7983 -0.208151 0
M  V30 6930 H 625.231 -4.9637 -0.491747 0
M  V30 6931 H 624.385 -5.3765 -2.81101 0
M  V30 6932 H 623.124 -4.13013 -2.59368 0
M  V30 6933 H 622.129 -5.4525 -0.705894 0
M  V30 6934 H 623.354 -6.7248 -0.945932 0
M  V30 6935 H 621.3 -5.83152 -3.00449 0
M  V30 6936 H 621.217 -7.27645 -2.05105 0
M  V30 6937 H 622.485 -7.09592 -3.22644 0
M  V30 6938 N 626.714 -0.118576 -1.57153 0
M  V30 6939 C 627.677 0.817464 -2.14127 0
M  V30 6940 C 628.677 1.1949 -1.07604 0
M  V30 6941 O 629.867 1.12048 -1.33382 0
M  V30 6942 C 626.999 2.10541 -2.68115 0
M  V30 6943 H 628.192 0.322339 -2.98163 0
M  V30 6944 H 625.745 0.130655 -1.55753 0
M  V30 6945 H 626.48 2.64485 -1.87665 0
M  V30 6946 H 626.265 1.84425 -3.4602 0
M  V30 6947 H 627.755 2.77453 -3.12105 0
M  V30 6948 N 628.193 1.56834 0.155195 0
M  V30 6949 C 629.141 1.98584 1.21107 0
M  V30 6950 C 630.135 0.876987 1.44932 0
M  V30 6951 O 631.341 1.06215 1.45322 0
M  V30 6952 H 627.716 0.632039 0.407469 0
M  V30 6953 H 629.687 2.86561 0.832195 0
M  V30 6954 C 628.436 2.37555 2.53895 0
M  V30 6955 H 627.759 3.22428 2.3639 0
M  V30 6956 H 629.199 2.70598 3.26424 0
M  V30 6957 C 627.658 1.22507 3.13837 0
M  V30 6958 O 628.188 0.521388 3.98302 0
M  V30 6959 N 626.394 0.991444 2.73164 0
M  V30 6960 H 625.941 1.56544 2.04577 0
M  V30 6961 H 625.899 0.223546 3.13604 0
M  V30 6962 N 629.671 -0.424282 1.51781 0
M  V30 6963 C 630.634 -1.49848 1.73431 0
M  V30 6964 C 631.634 -1.49016 0.604225 0
M  V30 6965 O 632.824 -1.50808 0.871935 0
M  V30 6966 C 629.956 -2.89332 1.80277 0
M  V30 6967 H 631.149 -1.3195 2.69312 0
M  V30 6968 H 628.702 -0.653809 1.41968 0
M  V30 6969 H 629.437 -3.12618 0.862568 0
M  V30 6970 H 629.222 -2.9134 2.62419 0
M  V30 6971 H 630.712 -3.67233 1.98821 0
M  V30 6972 N 631.149 -1.42148 -0.680565 0
M  V30 6973 C 632.377 -1.45696 -1.46902 0
M  V30 6974 C 632.792 -0.0665858 -1.88683 0
M  V30 6975 O 632.149 0.917436 -1.57764 0
M  V30 6976 C 632.2 -2.37898 -2.72188 0
M  V30 6977 O 631.921 -3.71526 -2.32163 0
M  V30 6978 C 633.422 -2.50407 -3.65802 0
M  V30 6979 H 630.642 -0.495729 -0.45221 0
M  V30 6980 H 633.186 -1.866 -0.836709 0
M  V30 6981 H 631.341 -2.00263 -3.31622 0
M  V30 6982 H 631.755 -4.20849 -3.13027 0
M  V30 6983 H 633.229 -3.19056 -4.50452 0
M  V30 6984 H 633.706 -1.5401 -4.11312 0
M  V30 6985 H 634.312 -2.8874 -3.12265 0
M  V30 6986 N 632.627 0.916307 -1.28225 0
M  V30 6987 C 633.875 1.6619 -1.15002 0
M  V30 6988 C 634.196 1.92642 0.302329 0
M  V30 6989 O 633.466 1.54076 1.20985 0
M  V30 6990 H 632.046 0.615964 -0.422608 0
M  V30 6991 H 634.708 1.09963 -1.60917 0
M  V30 6992 H 633.804 2.62533 -1.68769 0
M  V30 6993 N 634.105 1.10431 1.1244 0
M  V30 6994 C 635.353 0.845045 1.83585 0
M  V30 6995 C 635.674 -0.631168 1.84503 0
M  V30 6996 O 634.944 -1.45825 1.30813 0
M  V30 6997 H 633.524 0.309628 0.679809 0
M  V30 6998 H 636.186 1.39458 1.36153 0
M  V30 6999 H 635.282 1.20786 2.8778 0
M  V30 7000 N 635.583 -1.29855 0.893053 0
M  V30 7001 C 636.831 -1.9544 0.514566 0
M  V30 7002 C 637.152 -1.70795 -0.940959 0
M  V30 7003 O 636.422 -1.03601 -1.66264 0
M  V30 7004 H 635.002 -0.723137 0.187302 0
M  V30 7005 H 637.664 -1.58234 1.13789 0
M  V30 7006 H 636.76 -3.04341 0.691581 0
M  V30 7007 N 637.061 -0.65484 -1.43351 0
M  V30 7008 C 638.309 -0.168559 -2.01396 0
M  V30 7009 C 638.63 1.22235 -1.51933 0
M  V30 7010 O 637.9 1.81685 -0.732627 0
M  V30 7011 H 636.48 -0.0593244 -0.744641 0
M  V30 7012 H 639.142 -0.846871 -1.75539 0
M  V30 7013 H 638.238 -0.154428 -3.11718 0
M  V30 7014 N 638.539 1.52521 -0.396863 0
M  V30 7015 C 639.489 2.2348 0.451722 0
M  V30 7016 C 640.473 1.2415 1.0235 0
M  V30 7017 O 641.665 1.4945 0.948348 0
M  V30 7018 C 638.794 3.05067 1.57445 0
M  V30 7019 C 637.88 4.11799 1.01404 0
M  V30 7020 N 638.271 5.05482 0.179234 0
M  V30 7021 C 636.569 4.27064 1.28578 0
M  V30 7022 C 637.27 5.81552 -0.131202 0
M  V30 7023 N 636.246 5.41523 0.474735 0
M  V30 7024 H 640.048 2.93269 -0.192534 0
M  V30 7025 H 637.562 1.61081 -0.206591 0
M  V30 7026 H 639.559 3.54446 2.19485 0
M  V30 7027 H 638.219 2.36816 2.22145 0
M  V30 7028 H 639.23 5.17573 -0.18411 0
M  V30 7029 H 635.907 3.70042 1.93327 0
M  V30 7030 H 637.297 6.67023 -0.808061 0
M  V30 7031 N 640.017 0.126909 1.57088 0
M  V30 7032 C 641.263 -0.529952 1.95753 0
M  V30 7033 C 641.596 -1.65823 1.01077 0
M  V30 7034 O 640.871 -1.94437 0.0494162 0
M  V30 7035 C 641.154 -1.05517 3.44294 0
M  V30 7036 C 641.007 0.0702253 4.49745 0
M  V30 7037 C 642.326 -1.9435 3.94862 0
M  V30 7038 H 639.445 -0.191168 0.711775 0
M  V30 7039 H 642.087 0.204071 1.88901 0
M  V30 7040 H 640.237 -1.68069 3.50264 0
M  V30 7041 H 641.909 0.705834 4.55868 0
M  V30 7042 H 640.152 0.732259 4.27575 0
M  V30 7043 H 640.823 -0.338642 5.5096 0
M  V30 7044 H 643.299 -1.41658 3.91244 0
M  V30 7045 H 642.175 -2.28015 4.993 0
M  V30 7046 H 642.436 -2.87299 3.36024 0
M  V30 7047 N 641.495 -1.56914 -0.146875 0
M  V30 7048 C 642.427 -1.94878 -1.20645 0
M  V30 7049 C 643.44 -0.844633 -1.39175 0
M  V30 7050 O 644.629 -1.12304 -1.38744 0
M  V30 7051 C 641.729 -2.20769 -2.57127 0
M  V30 7052 C 640.902 -3.52053 -2.59572 0
M  V30 7053 C 639.961 -3.66482 -3.77594 0
M  V30 7054 O 638.987 -4.38873 -3.62462 0
M  V30 7055 N 640.189 -3.03156 -4.95052 0
M  V30 7056 H 642.954 -2.86374 -0.883757 0
M  V30 7057 H 640.515 -1.58366 -0.336436 0
M  V30 7058 H 642.507 -2.27664 -3.34591 0
M  V30 7059 H 641.077 -1.35538 -2.81688 0
M  V30 7060 H 640.297 -3.56598 -1.68023 0
M  V30 7061 H 641.585 -4.38396 -2.58238 0
M  V30 7062 H 640.983 -2.44258 -5.10249 0
M  V30 7063 H 639.54 -3.15611 -5.70292 0
M  V30 7064 N 642.974 0.416227 -1.52004 0
M  V30 7065 C 643.907 1.52736 -1.6955 0
M  V30 7066 C 644.885 1.53264 -0.54305 0
M  V30 7067 O 646.069 1.72077 -0.769527 0
M  V30 7068 C 643.196 2.91283 -1.72835 0
M  V30 7069 C 642.242 3.08695 -2.94295 0
M  V30 7070 S 643.075 2.82758 -4.54762 0
M  V30 7071 C 644.231 4.23548 -4.60823 0
M  V30 7072 H 644.464 1.37623 -2.63528 0
M  V30 7073 H 641.997 0.607335 -1.41954 0
M  V30 7074 H 643.955 3.71134 -1.75413 0
M  V30 7075 H 642.616 3.03742 -0.799966 0
M  V30 7076 H 641.809 4.10042 -2.93056 0
M  V30 7077 H 641.411 2.36699 -2.89568 0
M  V30 7078 H 643.703 5.17078 -4.37763 0
M  V30 7079 H 644.646 4.29813 -5.62731 0
M  V30 7080 H 645.054 4.08188 -3.89927 0
M  V30 7081 N 644.452 1.42507 0.673017 0
M  V30 7082 C 645.698 1.43284 1.43519 0
M  V30 7083 C 646.031 0.049668 1.94136 0
M  V30 7084 O 645.306 -0.926369 1.71022 0
M  V30 7085 C 645.589 2.45874 2.63093 0
M  V30 7086 C 645.442 3.93388 2.18096 0
M  V30 7087 C 646.761 2.45431 3.6531 0
M  V30 7088 H 643.88 0.521752 0.520522 0
M  V30 7089 H 646.522 1.73932 0.764701 0
M  V30 7090 H 644.672 2.19869 3.20296 0
M  V30 7091 H 646.344 4.30379 1.66046 0
M  V30 7092 H 644.587 4.07169 1.49652 0
M  V30 7093 H 645.258 4.60752 3.03993 0
M  V30 7094 H 647.734 2.68561 3.17827 0
M  V30 7095 H 646.61 3.19189 4.46553 0
M  V30 7096 H 646.871 1.48092 4.16559 0
M  V30 7097 N 645.93 -0.909495 1.28709 0
M  V30 7098 C 646.862 -2.01729 1.08804 0
M  V30 7099 C 647.875 -1.62755 0.0384739 0
M  V30 7100 O 649.064 -1.76259 0.281977 0
M  V30 7101 C 646.164 -3.32952 0.63217 0
M  V30 7102 C 645.337 -4.00512 1.75809 0
M  V30 7103 C 644.396 -5.10019 1.29488 0
M  V30 7104 O 643.422 -5.32986 1.99787 0
M  V30 7105 N 644.624 -5.80278 0.1604 0
M  V30 7106 H 647.389 -2.19362 2.04207 0
M  V30 7107 H 644.95 -1.08106 1.20518 0
M  V30 7108 H 646.942 -4.03543 0.305802 0
M  V30 7109 H 645.512 -3.11759 -0.229134 0
M  V30 7110 H 644.732 -3.23413 2.25383 0
M  V30 7111 H 646.02 -4.42395 2.51325 0
M  V30 7112 H 645.418 -5.64094 -0.425937 0
M  V30 7113 H 643.975 -6.51713 -0.106663 0
M  V30 7114 N 647.408 -1.11026 -1.11852 0
M  V30 7115 C 648.824 -0.843294 -1.35502 0
M  V30 7116 C 649.024 0.534179 -1.9429 0
M  V30 7117 O 648.08 1.28585 -2.17307 0
M  V30 7118 C 649.393 -1.94793 -2.29077 0
M  V30 7119 C 650.941 -1.97709 -2.42652 0
M  V30 7120 C 651.416 -3.07364 -3.39546 0
M  V30 7121 N 652.907 -3.0671 -3.47107 0
M  V30 7122 C 653.642 -3.88197 -4.22008 0
M  V30 7123 N 653.138 -4.79635 -4.99922 0
M  V30 7124 N 654.931 -3.76391 -4.17476 0
M  V30 7125 H 647.082 -1.99805 -0.720538 0
M  V30 7126 H 649.345 -0.868633 -0.379711 0
M  V30 7127 H 649.051 -2.93971 -1.93065 0
M  V30 7128 H 648.925 -1.84039 -3.29256 0
M  V30 7129 H 651.312 -0.991604 -2.77941 0
M  V30 7130 H 651.393 -2.1254 -1.4234 0
M  V30 7131 H 651.037 -4.06136 -3.04985 0
M  V30 7132 H 650.967 -2.89774 -4.39703 0
M  V30 7133 H 653.458 -2.40457 -2.91528 0
M  V30 7134 H 653.771 -5.38357 -5.54429 0
M  V30 7135 H 652.116 -4.8366 -4.99097 0
M  V30 7136 H 655.307 -3.04303 -3.55693 0
M  V30 7137 H 655.48 -4.40131 -4.75593 0
M  V30 7138 N 648.886 1.2938 -0.899927 0
M  V30 7139 C 649.849 2.25983 -0.382677 0
M  V30 7140 C 650.849 1.53366 0.483259 0
M  V30 7141 O 652.039 1.71798 0.28828 0
M  V30 7142 C 649.171 3.37878 0.452915 0
M  V30 7143 H 650.364 2.73252 -1.23586 0
M  V30 7144 H 647.917 1.40825 -0.678088 0
M  V30 7145 H 648.652 2.95949 1.32608 0
M  V30 7146 H 648.437 3.91742 -0.167562 0
M  V30 7147 H 649.927 4.09746 0.806107 0
M  V30 7148 N 650.364 0.662433 1.43002 0
M  V30 7149 C 651.297 -0.073459 2.28082 0
M  V30 7150 C 652.275 -0.820869 1.40358 0
M  V30 7151 O 653.459 -0.818545 1.698 0
M  V30 7152 C 650.586 -1.11097 3.19961 0
M  V30 7153 C 649.632 -0.460557 4.24006 0
M  V30 7154 S 650.465 0.772717 5.29896 0
M  V30 7155 C 651.621 -0.264028 6.25343 0
M  V30 7156 H 651.854 0.648227 2.90147 0
M  V30 7157 H 649.387 0.451566 1.47649 0
M  V30 7158 H 651.345 -1.70452 3.73439 0
M  V30 7159 H 650.006 -1.80503 2.57056 0
M  V30 7160 H 649.199 -1.24299 4.88432 0
M  V30 7161 H 648.801 0.0591038 3.73953 0
M  V30 7162 H 651.093 -1.12748 6.68052 0
M  V30 7163 H 652.036 0.345443 7.07257 0
M  V30 7164 H 652.444 -0.603964 5.6126 0
M  V30 7165 N 651.842 -1.52309 0.404946 0
M  V30 7166 C 652.789 -2.26898 -0.422597 0
M  V30 7167 C 653.759 -1.2914 -1.04461 0
M  V30 7168 O 654.944 -1.57996 -1.06967 0
M  V30 7169 C 652.084 -3.09053 -1.53559 0
M  V30 7170 C 651.197 -4.21762 -0.934908 0
M  V30 7171 C 650.332 -4.91283 -2.02025 0
M  V30 7172 C 649.371 -5.95962 -1.39628 0
M  V30 7173 N 648.508 -6.59017 -2.42159 0
M  V30 7174 H 653.348 -2.97188 0.219903 0
M  V30 7175 H 650.885 -1.46607 0.120282 0
M  V30 7176 H 652.843 -3.54987 -2.19181 0
M  V30 7177 H 651.473 -2.40942 -2.14818 0
M  V30 7178 H 650.525 -3.80029 -0.167854 0
M  V30 7179 H 651.837 -4.96864 -0.439073 0
M  V30 7180 H 650.991 -5.40601 -2.75383 0
M  V30 7181 H 649.73 -4.15741 -2.54973 0
M  V30 7182 H 648.735 -5.45968 -0.648023 0
M  V30 7183 H 649.96 -6.73445 -0.874553 0
M  V30 7184 H 647.906 -5.86306 -2.94247 0
M  V30 7185 H 647.823 -7.2978 -1.97376 0
M  V30 7186 H 649.091 -7.12974 -3.15099 0
M  V30 7187 N 653.32 -0.135238 -1.57019 0
M  V30 7188 C 654.597 0.563227 -1.87316 0
M  V30 7189 C 654.977 1.83749 -1.03921 0
M  V30 7190 O 654.325 2.2817 -0.122675 0
M  V30 7191 C 654.535 0.840031 -3.3874 0
M  V30 7192 C 655.883 1.18598 -4.077 0
M  V30 7193 O 656.907 0.92977 -3.43851 0
M  V30 7194 O 655.766 1.66758 -5.20436 0
M  V30 7195 H 652.86 0.285971 -0.775983 0
M  V30 7196 H 655.406 -0.170965 -1.68837 0
M  V30 7197 H 654.178 -0.0622785 -3.9125 0
M  V30 7198 H 653.801 1.62882 -3.62706 0
M  V30 7199 N 654.798 1.5699 0.138552 0
M  V30 7200 C 655.728 2.01933 1.17241 0
M  V30 7201 C 656.709 0.90033 1.44319 0
M  V30 7202 O 657.894 1.16872 1.55095 0
M  V30 7203 C 655.024 2.40711 2.50351 0
M  V30 7204 C 653.978 3.55874 2.37776 0
M  V30 7205 C 653.304 3.80491 3.75674 0
M  V30 7206 C 654.604 4.8826 1.85472 0
M  V30 7207 H 656.298 2.88551 0.798672 0
M  V30 7208 H 653.844 1.3882 0.382743 0
M  V30 7209 H 655.797 2.70754 3.22909 0
M  V30 7210 H 654.521 1.5104 2.89576 0
M  V30 7211 H 653.18 3.2601 1.67669 0
M  V30 7212 H 652.828 2.88057 4.12349 0
M  V30 7213 H 652.528 4.57998 3.68119 0
M  V30 7214 H 654.052 4.12967 4.49767 0
M  V30 7215 H 655.466 5.16965 2.4783 0
M  V30 7216 H 653.863 5.69631 1.88787 0
M  V30 7217 H 654.933 4.78071 0.810935 0
M  V30 7218 N 656.276 -0.40816 1.52223 0
M  V30 7219 C 657.504 -1.17672 1.70179 0
M  V30 7220 C 657.919 -1.84257 0.411696 0
M  V30 7221 O 657.276 -1.7192 -0.612354 0
M  V30 7222 C 657.327 -2.23911 2.83806 0
M  V30 7223 O 657.048 -1.60044 4.0782 0
M  V30 7224 C 658.549 -3.1364 3.13281 0
M  V30 7225 H 655.769 -0.353562 0.570293 0
M  V30 7226 H 658.313 -0.480083 1.98785 0
M  V30 7227 H 656.468 -2.89242 2.57717 0
M  V30 7228 H 656.882 -2.30484 4.71145 0
M  V30 7229 H 658.356 -3.84255 3.96298 0
M  V30 7230 H 658.833 -3.76066 2.26872 0
M  V30 7231 H 659.439 -2.53977 3.41139 0
M  V30 7232 N 657.755 -1.42862 -0.66545 0
M  V30 7233 C 658.985 -1.47032 -1.45138 0
M  V30 7234 C 659.393 -0.0829977 -1.89018 0
M  V30 7235 O 658.736 0.914551 -1.59316 0
M  V30 7236 C 658.798 -2.34302 -2.72659 0
M  V30 7237 C 658.462 -3.82034 -2.50796 0
M  V30 7238 C 659.459 -4.73453 -2.14799 0
M  V30 7239 C 657.144 -4.26397 -2.655 0
M  V30 7240 C 659.138 -6.07228 -1.93785 0
M  V30 7241 C 656.825 -5.6023 -2.44103 0
M  V30 7242 C 657.823 -6.50462 -2.08299 0
M  V30 7243 O 657.511 -7.8182 -1.87116 0
M  V30 7244 H 657.243 -0.501969 -0.452772 0
M  V30 7245 H 659.797 -1.88137 -0.82423 0
M  V30 7246 H 658.027 -1.88063 -3.37889 0
M  V30 7247 H 659.716 -2.29818 -3.34572 0
M  V30 7248 H 660.482 -4.4046 -2.03026 0
M  V30 7249 H 656.361 -3.56448 -2.92345 0
M  V30 7250 H 659.905 -6.7762 -1.65763 0
M  V30 7251 H 655.802 -5.92793 -2.55475 0
M  V30 7252 H 656.57 -7.93274 -2.01639 0
M  V30 7253 N 659.233 0.902656 -1.29189 0
M  V30 7254 C 660.196 1.98797 -1.14071 0
M  V30 7255 C 661.196 1.60615 -0.0770549 0
M  V30 7256 O 662.386 1.71165 -0.323753 0
M  V30 7257 C 659.518 3.32688 -0.743739 0
M  V30 7258 H 660.711 2.13637 -2.10473 0
M  V30 7259 H 658.264 1.08678 -1.12334 0
M  V30 7260 H 658.999 3.23549 0.220554 0
M  V30 7261 H 658.784 3.61765 -1.51223 0
M  V30 7262 H 660.274 4.12337 -0.660935 0
M  V30 7263 N 660.711 1.11618 1.11262 0
M  V30 7264 C 661.936 0.889013 1.8738 0
M  V30 7265 C 662.361 -0.555884 1.79698 0
M  V30 7266 O 661.719 -1.39272 1.16073 0
M  V30 7267 C 661.767 1.35759 3.34069 0
M  V30 7268 O 660.871 0.530499 4.08974 0
M  V30 7269 H 660.212 0.320082 0.581759 0
M  V30 7270 H 662.742 1.48611 1.40627 0
M  V30 7271 H 662.752 1.35291 3.84916 0
M  V30 7272 H 661.427 2.40973 3.38976 0
M  V30 7273 H 660.004 0.601439 3.68018 0
M  V30 7274 N 662.189 -1.289 0.906776 0
M  V30 7275 C 663.119 -2.29932 0.406659 0
M  V30 7276 C 664.1 -1.6189 -0.522061 0
M  V30 7277 O 665.285 -1.8935 -0.431283 0
M  V30 7278 C 662.415 -3.45425 -0.360366 0
M  V30 7279 C 661.369 -4.25316 0.478574 0
M  V30 7280 C 660.695 -5.33076 -0.416373 0
M  V30 7281 C 661.995 -4.92739 1.7322 0
M  V30 7282 H 663.689 -2.72013 1.25097 0
M  V30 7283 H 661.235 -1.30768 0.602977 0
M  V30 7284 H 663.188 -4.15186 -0.721029 0
M  V30 7285 H 661.912 -3.02206 -1.23852 0
M  V30 7286 H 660.571 -3.57273 0.821662 0
M  V30 7287 H 660.219 -4.86101 -1.29287 0
M  V30 7288 H 659.919 -5.8743 0.141309 0
M  V30 7289 H 661.443 -6.05686 -0.773072 0
M  V30 7290 H 662.857 -5.54898 1.44086 0
M  V30 7291 H 661.254 -5.57057 2.23175 0
M  V30 7292 H 662.324 -4.17625 2.46408 0
M  V30 7293 N 663.667 -0.670007 -1.42649 0
M  V30 7294 C 664.907 -0.194106 -2.03476 0
M  V30 7295 C 665.271 1.1755 -1.51809 0
M  V30 7296 O 666.472 1.74579 -2.04391 0
M  V30 7297 C 664.743 -0.221828 -3.56711 0
M  V30 7298 S 666.302 0.183772 -4.38415 0
M  V30 7299 H 663.12 -0.0802478 -0.706457 0
M  V30 7300 H 665.722 -0.882092 -1.74469 0
M  V30 7301 H 664.426 -1.22107 -3.91814 0
M  V30 7302 H 663.957 0.486149 -3.90385 0
M  V30 7303 H 665.972 1.41839 -4.75496 0
M  V30 7304 N 665.145 1.52092 -0.413018 0
M  V30 7305 C 666.392 2.01855 0.161497 0
M  V30 7306 C 666.72 1.29845 1.44812 0
M  V30 7307 O 665.975 0.394471 1.91683 0
M  V30 7308 C 666.274 3.54529 0.4521 0
M  V30 7309 C 665.94 4.4469 -0.745788 0
M  V30 7310 C 664.602 4.69053 -1.07435 0
M  V30 7311 C 666.954 4.97742 -1.54604 0
M  V30 7312 C 664.282 5.43717 -2.20429 0
M  V30 7313 C 666.634 5.73642 -2.66678 0
M  V30 7314 C 665.298 5.96277 -3.00016 0
M  V30 7315 H 664.568 0.73864 0.0590961 0
M  V30 7316 H 667.215 1.83274 -0.555234 0
M  V30 7317 H 665.52 3.7131 1.25045 0
M  V30 7318 H 667.217 3.90546 0.909647 0
M  V30 7319 H 663.807 4.25907 -0.479725 0
M  V30 7320 H 667.991 4.78824 -1.30543 0
M  V30 7321 H 663.247 5.59462 -2.46602 0
M  V30 7322 H 667.421 6.13746 -3.29072 0
M  V30 7323 H 665.048 6.53913 -3.87688 0
M  V30 7324 N 666.623 0.143563 1.56945 0
M  V30 7325 C 668.034 -0.37783 1.82837 0
M  V30 7326 C 668.385 -1.64967 1.06209 0
M  V30 7327 O 667.51 -2.14221 0.306291 0
M  V30 7328 C 668.105 -0.692274 3.31652 0
M  V30 7329 C 666.664 -1.1582 3.58138 0
M  V30 7330 C 665.811 -0.17951 2.76718 0
M  V30 7331 H 668.762 0.368317 1.54367 0
M  V30 7332 H 668.783 -1.54729 3.47619 0
M  V30 7333 H 668.295 0.233572 3.87397 0
M  V30 7334 H 666.396 -2.10011 3.07776 0
M  V30 7335 H 666.509 -1.08655 4.66616 0
M  V30 7336 H 664.873 -0.671458 2.4569 0
M  V30 7337 H 665.656 0.739865 3.35233 0
M  V30 7338 N 668.101 -1.57061 -0.130224 0
M  V30 7339 C 669.011 -2.02802 -1.17934 0
M  V30 7340 C 670.027 -0.946378 -1.46013 0
M  V30 7341 O 671.203 -1.25708 -1.57351 0
M  V30 7342 C 668.268 -2.41368 -2.48882 0
M  V30 7343 C 667.329 -3.63561 -2.28301 0
M  V30 7344 C 666.562 -4.00279 -3.53005 0
M  V30 7345 O 666.785 -3.37463 -4.59864 0
M  V30 7346 O 665.719 -4.93441 -3.44673 0
M  V30 7347 H 669.545 -2.92394 -0.820958 0
M  V30 7348 H 667.13 -1.45475 -0.340197 0
M  V30 7349 H 669.012 -2.66958 -3.26054 0
M  V30 7350 H 667.687 -1.54926 -2.84217 0
M  V30 7351 H 666.594 -3.43136 -1.49025 0
M  V30 7352 H 667.927 -4.50673 -1.97875 0
M  V30 7353 N 669.579 0.400081 -1.52437 0
M  V30 7354 C 670.542 1.4707 -1.75793 0
M  V30 7355 C 671.542 1.48036 -0.627856 0
M  V30 7356 O 672.732 1.49401 -0.895817 0
M  V30 7357 C 669.864 2.86427 -1.84858 0
M  V30 7358 H 671.057 1.27649 -2.71377 0
M  V30 7359 H 668.61 0.631141 -1.42991 0
M  V30 7360 H 669.345 3.11207 -0.912194 0
M  V30 7361 H 669.13 2.87128 -2.6702 0
M  V30 7362 H 670.62 3.64023 -2.04638 0
M  V30 7363 N 671.057 1.43213 0.657864 0
M  V30 7364 C 672.306 1.43871 1.41365 0
M  V30 7365 C 672.619 0.064898 1.95492 0
M  V30 7366 O 673.825 -0.0510796 2.71452 0
M  V30 7367 C 672.281 2.53158 2.55811 0
M  V30 7368 C 671.889 3.96624 2.08311 0
M  V30 7369 C 673.633 2.63004 3.3321 0
M  V30 7370 C 671.54 4.97385 3.1994 0
M  V30 7371 H 670.47 0.535174 0.531136 0
M  V30 7372 H 673.121 1.69185 0.710543 0
M  V30 7373 H 671.503 2.21037 3.2857 0
M  V30 7374 H 672.677 4.38182 1.42593 0
M  V30 7375 H 670.992 3.90781 1.43804 0
M  V30 7376 H 673.589 3.3546 4.16378 0
M  V30 7377 H 673.932 1.67918 3.80932 0
M  V30 7378 H 674.465 2.94403 2.67529 0
M  V30 7379 H 671.204 5.94007 2.77192 0
M  V30 7380 H 670.724 4.60444 3.84385 0
M  V30 7381 H 672.403 5.19877 3.85145 0
M  V30 7382 N 672.536 -0.895792 1.29666 0
M  V30 7383 C 673.483 -2.00035 1.15129 0
M  V30 7384 C 674.453 -1.66043 0.0435819 0
M  V30 7385 O 675.638 -1.89621 0.211811 0
M  V30 7386 C 672.778 -3.34774 0.83787 0
M  V30 7387 C 671.891 -3.81525 2.0264 0
M  V30 7388 C 671.026 -5.04858 1.65201 0
M  V30 7389 C 670.065 -5.43988 2.80612 0
M  V30 7390 N 669.202 -6.58507 2.43544 0
M  V30 7391 H 674.042 -2.11802 2.09628 0
M  V30 7392 H 671.579 -1.03719 1.04311 0
M  V30 7393 H 673.537 -4.12311 0.636824 0
M  V30 7394 H 672.167 -3.22724 -0.0702314 0
M  V30 7395 H 671.219 -2.9999 2.33903 0
M  V30 7396 H 672.531 -4.06472 2.89106 0
M  V30 7397 H 671.685 -5.8999 1.41408 0
M  V30 7398 H 670.424 -4.81759 0.758893 0
M  V30 7399 H 669.429 -4.57388 3.05083 0
M  V30 7400 H 670.654 -5.69066 3.70595 0
M  V30 7401 H 668.6 -6.37004 1.56724 0
M  V30 7402 H 668.517 -6.83269 3.23542 0
M  V30 7403 H 669.785 -7.46897 2.2308 0
M  V30 7404 N 674.014 -1.12206 -1.10668 0
M  V30 7405 C 674.977 -0.790867 -2.15123 0
M  V30 7406 C 675.977 0.193618 -1.5963 0
M  V30 7407 O 677.167 -0.0318728 -1.74171 0
M  V30 7408 C 674.299 -0.174797 -3.40452 0
M  V30 7409 H 675.492 -1.7163 -2.45933 0
M  V30 7410 H 673.045 -0.924993 -1.2599 0
M  V30 7411 H 673.78 0.760478 -3.15257 0
M  V30 7412 H 673.565 -0.88358 -3.82015 0
M  V30 7413 H 675.055 0.0405162 -4.1758 0
M  V30 7414 N 675.492 1.28418 -0.913599 0
M  V30 7415 C 676.908 1.47411 -0.611728 0
M  V30 7416 C 677.108 1.83018 0.843008 0
M  V30 7417 O 676.164 1.93505 1.6221 0
M  V30 7418 C 677.477 2.57703 -1.5495 0
M  V30 7419 C 679.025 2.71572 -1.5562 0
M  V30 7420 C 679.5 3.85008 -2.48058 0
M  V30 7421 N 680.991 3.92361 -2.46184 0
M  V30 7422 C 681.726 4.79516 -3.14407 0
M  V30 7423 N 681.222 5.71262 -3.91958 0
M  V30 7424 N 683.015 4.73125 -3.03495 0
M  V30 7425 H 675.166 1.03585 -1.85429 0
M  V30 7426 H 677.429 0.515907 -0.795326 0
M  V30 7427 H 677.135 2.38298 -2.58663 0
M  V30 7428 H 677.009 3.54801 -1.28048 0
M  V30 7429 H 679.396 2.90366 -0.526441 0
M  V30 7430 H 679.477 1.75006 -1.86565 0
M  V30 7431 H 679.121 3.66969 -3.51136 0
M  V30 7432 H 679.051 4.80971 -2.14416 0
M  V30 7433 H 681.542 3.26749 -1.89851 0
M  V30 7434 H 681.855 6.34593 -4.41034 0
M  V30 7435 H 680.2 5.71103 -3.96063 0
M  V30 7436 H 683.391 4.00442 -2.42413 0
M  V30 7437 H 683.564 5.40834 -3.56935 0
M  V30 7438 N 676.97 0.677563 1.42291 0
M  V30 7439 C 678.218 0.200578 2.01102 0
M  V30 7440 C 678.539 -1.19803 1.53858 0
M  V30 7441 O 677.809 -1.80496 0.761439 0
M  V30 7442 H 676.389 0.0711634 0.743603 0
M  V30 7443 H 679.051 0.874691 1.7417 0
M  V30 7444 H 678.147 0.204 3.11433 0
M  V30 7445 N 678.448 -1.51871 0.421078 0
M  V30 7446 C 679.381 -2.23851 -0.443369 0
M  V30 7447 C 680.359 -1.25142 -1.03818 0
M  V30 7448 O 681.543 -1.5423 -1.08377 0
M  V30 7449 C 678.67 -2.97637 -1.61648 0
M  V30 7450 C 677.716 -4.10873 -1.14391 0
M  V30 7451 S 678.549 -5.35408 -0.0992403 0
M  V30 7452 C 679.705 -6.12726 -1.27739 0
M  V30 7453 H 679.938 -2.96826 0.167786 0
M  V30 7454 H 677.471 -1.53027 0.205461 0
M  V30 7455 H 679.429 -3.40751 -2.28909 0
M  V30 7456 H 678.09 -2.24282 -2.199 0
M  V30 7457 H 677.283 -4.61718 -2.02069 0
M  V30 7458 H 676.885 -3.69937 -0.549775 0
M  V30 7459 H 679.177 -6.40827 -2.19881 0
M  V30 7460 H 680.12 -7.03461 -0.809239 0
M  V30 7461 H 680.528 -5.43968 -1.5086 0
M  V30 7462 N 679.926 -0.151884 -1.56866 0
M  V30 7463 C 680.836 0.798876 -2.20579 0
M  V30 7464 C 681.852 1.268 -1.19154 0
M  V30 7465 O 683.028 1.32418 -1.51748 0
M  V30 7466 C 680.093 2.01861 -2.81874 0
M  V30 7467 C 679.154 1.59825 -3.9844 0
M  V30 7468 C 678.387 2.75984 -4.56802 0
M  V30 7469 O 678.61 3.92331 -4.14044 0
M  V30 7470 O 677.544 2.51175 -5.46987 0
M  V30 7471 H 681.37 0.2865 -3.02346 0
M  V30 7472 H 678.955 0.0753806 -1.4921 0
M  V30 7473 H 680.837 2.73235 -3.20813 0
M  V30 7474 H 679.512 2.52042 -2.03117 0
M  V30 7475 H 678.419 0.854601 -3.64208 0
M  V30 7476 H 679.752 1.14355 -4.78731 0
M  V30 7477 N 681.404 1.57128 0.121893 0
M  V30 7478 C 682.629 1.89254 0.848385 0
M  V30 7479 C 683.054 0.743527 1.72781 0
M  V30 7480 O 682.412 -0.306056 1.78698 0
M  V30 7481 C 682.46 3.20113 1.66012 0
M  V30 7482 O 681.564 3.05815 2.76679 0
M  V30 7483 H 680.905 0.621103 0.234793 0
M  V30 7484 H 683.435 2.0433 0.10516 0
M  V30 7485 H 683.445 3.52761 2.04996 0
M  V30 7486 H 682.12 4.03336 1.01452 0
M  V30 7487 H 680.697 2.84627 2.40918 0
M  V30 7488 N 682.882 -0.391992 1.52647 0
M  V30 7489 C 683.829 -1.47866 1.77213 0
M  V30 7490 C 684.799 -1.54286 0.615223 0
M  V30 7491 O 685.984 -1.7059 0.854622 0
M  V30 7492 C 683.124 -2.85129 1.94411 0
M  V30 7493 C 682.237 -2.87883 3.22098 0
M  V30 7494 C 681.372 -4.16553 3.29631 0
M  V30 7495 C 680.411 -4.13348 4.51453 0
M  V30 7496 N 679.548 -5.33619 4.56284 0
M  V30 7497 H 684.388 -1.26219 2.6995 0
M  V30 7498 H 681.925 -0.612367 1.33748 0
M  V30 7499 H 683.883 -3.64833 2.02367 0
M  V30 7500 H 682.513 -3.05232 1.05038 0
M  V30 7501 H 681.565 -2.00567 3.23229 0
M  V30 7502 H 682.877 -2.81382 4.11856 0
M  V30 7503 H 682.031 -5.0466 3.36753 0
M  V30 7504 H 680.77 -4.25773 2.37842 0
M  V30 7505 H 679.775 -3.23629 4.44459 0
M  V30 7506 H 681 -4.05754 5.44555 0
M  V30 7507 H 678.946 -5.43474 3.67385 0
M  V30 7508 H 678.863 -5.29182 5.3991 0
M  V30 7509 H 680.131 -6.23632 4.67657 0
M  V30 7510 N 684.36 -1.4356 -0.65026 0
M  V30 7511 C 685.27 -1.514 -1.79207 0
M  V30 7512 C 686.286 -0.400895 -1.69319 0
M  V30 7513 O 687.462 -0.655458 -1.90436 0
M  V30 7514 C 684.527 -1.43737 -3.155 0
M  V30 7515 C 683.588 -2.65743 -3.37163 0
M  V30 7516 C 682.821 -2.58436 -4.66954 0
M  V30 7517 O 683.044 -1.63374 -5.46503 0
M  V30 7518 O 681.978 -3.48984 -4.90402 0
M  V30 7519 H 685.804 -2.47825 -1.75547 0
M  V30 7520 H 683.389 -1.25594 -0.809111 0
M  V30 7521 H 685.271 -1.41916 -3.96784 0
M  V30 7522 H 683.946 -0.504488 -3.19745 0
M  V30 7523 H 682.853 -2.73136 -2.55632 0
M  V30 7524 H 684.186 -3.58014 -3.37768 0
M  V30 7525 N 685.838 0.888903 -1.30139 0
M  V30 7526 C 687.115 1.62145 -1.094 0
M  V30 7527 C 687.495 2.08041 0.358091 0
M  V30 7528 O 686.843 1.84438 1.34888 0
M  V30 7529 C 687.053 2.794 -2.09133 0
M  V30 7530 C 688.401 3.49826 -2.40638 0
M  V30 7531 O 689.425 2.89583 -2.07412 0
M  V30 7532 O 688.284 4.58457 -2.97455 0
M  V30 7533 H 685.378 0.712475 -0.41989 0
M  V30 7534 H 687.924 0.936023 -1.41551 0
M  V30 7535 H 686.696 2.42762 -3.06891 0
M  V30 7536 H 686.319 3.55643 -1.77776 0
M  V30 7537 N 687.317 1.12792 1.10072 0
M  V30 7538 C 688.566 0.880232 1.81479 0
M  V30 7539 C 688.879 -0.595575 1.86312 0
M  V30 7540 O 690.085 -0.959979 2.53962 0
M  V30 7541 C 688.541 1.52514 3.25987 0
M  V30 7542 C 688.149 3.036 3.29441 0
M  V30 7543 C 689.893 1.35788 4.02196 0
M  V30 7544 C 687.8 3.61007 4.68431 0
M  V30 7545 H 686.73 0.325654 0.680048 0
M  V30 7546 H 689.381 1.35485 1.23758 0
M  V30 7547 H 687.763 0.978188 3.83728 0
M  V30 7548 H 688.937 3.64819 2.81502 0
M  V30 7549 H 687.252 3.19765 2.66719 0
M  V30 7550 H 689.849 1.76096 5.0487 0
M  V30 7551 H 690.192 0.301972 4.15203 0
M  V30 7552 H 690.725 1.87426 3.50879 0
M  V30 7553 H 687.464 4.66375 4.60625 0
M  V30 7554 H 686.984 3.04564 5.16721 0
M  V30 7555 H 688.663 3.60289 5.37402 0
M  V30 7556 N 688.795 -1.27931 0.920396 0
M  V30 7557 C 690.206 -1.76707 0.602616 0
M  V30 7558 C 690.557 -1.75249 -0.882159 0
M  V30 7559 O 689.682 -1.35135 -1.69019 0
M  V30 7560 C 690.277 -3.20884 1.08714 0
M  V30 7561 C 688.836 -3.67356 0.820157 0
M  V30 7562 C 687.983 -2.47525 1.25006 0
M  V30 7563 H 690.934 -1.14301 1.10095 0
M  V30 7564 H 690.955 -3.78045 0.431535 0
M  V30 7565 H 690.467 -3.21913 2.1678 0
M  V30 7566 H 688.568 -3.7178 -0.247012 0
M  V30 7567 H 688.681 -4.57181 1.43257 0
M  V30 7568 H 687.045 -2.45765 0.668698 0
M  V30 7569 H 687.828 -2.51269 2.3392 0
M  V30 7570 N 690.273 -0.685099 -1.4193 0
M  V30 7571 C 691.503 -0.220052 -2.05425 0
M  V30 7572 C 691.911 1.13185 -1.51611 0
M  V30 7573 O 691.254 1.71631 -0.654875 0
M  V30 7574 C 691.316 -0.0888364 -3.5939 0
M  V30 7575 C 690.98 -1.37109 -4.35947 0
M  V30 7576 C 691.977 -2.30675 -4.65924 0
M  V30 7577 C 689.662 -1.62155 -4.75406 0
M  V30 7578 C 691.656 -3.47556 -5.34306 0
M  V30 7579 C 689.343 -2.79324 -5.43527 0
M  V30 7580 C 690.341 -3.71848 -5.72903 0
M  V30 7581 O 690.029 -4.86966 -6.39624 0
M  V30 7582 H 689.761 -0.102165 -0.668235 0
M  V30 7583 H 692.315 -0.935194 -1.82875 0
M  V30 7584 H 690.545 0.681981 -3.80639 0
M  V30 7585 H 692.234 0.337669 -4.04493 0
M  V30 7586 H 693 -2.12579 -4.3593 0
M  V30 7587 H 688.879 -0.910053 -4.51928 0
M  V30 7588 H 692.423 -4.19794 -5.57153 0
M  V30 7589 H 688.32 -2.97342 -5.72938 0
M  V30 7590 H 689.088 -4.86644 -6.58118 0
M  V30 7591 N 691.751 1.51645 -0.429126 0
M  V30 7592 C 692.981 2.06133 0.138793 0
M  V30 7593 C 693.389 1.29735 1.37716 0
M  V30 7594 O 692.732 0.347955 1.80375 0
M  V30 7595 C 692.794 3.55504 0.534493 0
M  V30 7596 C 692.458 4.53098 -0.595917 0
M  V30 7597 C 693.455 4.98815 -1.46558 0
M  V30 7598 C 691.14 4.96296 -0.774309 0
M  V30 7599 C 693.134 5.86394 -2.4984 0
M  V30 7600 C 690.821 5.83667 -1.81042 0
M  V30 7601 C 691.819 6.28613 -2.67086 0
M  V30 7602 O 691.507 7.14251 -3.68919 0
M  V30 7603 H 691.239 0.675833 0.0150263 0
M  V30 7604 H 693.793 1.96301 -0.604584 0
M  V30 7605 H 692.023 3.63092 1.33045 0
M  V30 7606 H 693.712 3.92545 1.03262 0
M  V30 7607 H 694.478 4.66143 -1.33925 0
M  V30 7608 H 690.357 4.60859 -0.114178 0
M  V30 7609 H 693.901 6.21398 -3.17034 0
M  V30 7610 H 689.798 6.15753 -1.93698 0
M  V30 7611 H 690.566 7.3241 -3.65402 0
M  V30 7612 N 693.229 0.160201 1.56784 0
M  V30 7613 C 694.476 -0.487588 1.96542 0
M  V30 7614 C 694.804 -1.63999 1.04569 0
M  V30 7615 O 694.059 -1.95546 0.0775211 0
M  V30 7616 C 694.358 -1.02259 3.42459 0
M  V30 7617 C 694.024 0.0127436 4.50898 0
M  V30 7618 C 692.686 0.297318 4.80281 0
M  V30 7619 C 695.038 0.716078 5.16257 0
M  V30 7620 C 692.366 1.29081 5.72324 0
M  V30 7621 C 694.718 1.69847 6.09372 0
M  V30 7622 C 693.382 1.99061 6.37127 0
M  V30 7623 H 692.652 -0.178421 0.719199 0
M  V30 7624 H 695.299 0.249818 1.89864 0
M  V30 7625 H 693.604 -1.8376 3.46034 0
M  V30 7626 H 695.301 -1.53261 3.70556 0
M  V30 7627 H 691.891 -0.219235 4.28039 0
M  V30 7628 H 696.075 0.509428 4.93679 0
M  V30 7629 H 691.331 1.52344 5.92116 0
M  V30 7630 H 695.505 2.2489 6.59088 0
M  V30 7631 H 693.132 2.76194 7.08252 0
M  V30 7632 N 694.707 -1.5719 -0.113559 0
M  V30 7633 C 695.937 -1.89053 -0.833212 0
M  V30 7634 C 696.345 -0.750139 -1.73694 0
M  V30 7635 O 695.688 0.287808 -1.81431 0
M  V30 7636 C 695.75 -3.15986 -1.71443 0
M  V30 7637 C 695.414 -4.46271 -0.984449 0
M  V30 7638 C 696.411 -5.18897 -0.322741 0
M  V30 7639 C 694.096 -4.92963 -0.964011 0
M  V30 7640 C 696.09 -6.3644 0.349646 0
M  V30 7641 C 693.777 -6.10422 -0.287828 0
M  V30 7642 C 694.775 -6.82009 0.36784 0
M  V30 7643 O 694.463 -7.97233 1.03322 0
M  V30 7644 H 694.195 -0.630225 -0.244526 0
M  V30 7645 H 696.749 -2.05152 -0.100847 0
M  V30 7646 H 694.979 -2.95984 -2.48858 0
M  V30 7647 H 696.668 -3.33826 -2.309 0
M  V30 7648 H 697.434 -4.83875 -0.330114 0
M  V30 7649 H 693.313 -4.37143 -1.46379 0
M  V30 7650 H 696.857 -6.92254 0.861996 0
M  V30 7651 H 692.754 -6.449 -0.278237 0
M  V30 7652 H 693.522 -8.13105 0.938247 0
M  V30 7653 N 696.185 0.383891 -1.52853 0
M  V30 7654 C 697.601 0.724316 -1.42218 0
M  V30 7655 C 697.801 1.93943 -0.546654 0
M  V30 7656 O 696.857 2.5249 -0.0220562 0
M  V30 7657 C 698.17 0.954635 -2.85144 0
M  V30 7658 C 699.718 1.05579 -2.94656 0
M  V30 7659 C 700.193 1.3187 -4.38605 0
M  V30 7660 N 701.684 1.38681 -4.41952 0
M  V30 7661 C 702.419 1.60699 -5.50421 0
M  V30 7662 N 701.915 1.80154 -6.68967 0
M  V30 7663 N 703.708 1.6292 -5.37972 0
M  V30 7664 H 695.859 -0.4156 -2.08294 0
M  V30 7665 H 698.122 -0.123776 -0.939885 0
M  V30 7666 H 697.828 0.133829 -3.51445 0
M  V30 7667 H 697.702 1.86788 -3.27704 0
M  V30 7668 H 700.089 1.86716 -2.2852 0
M  V30 7669 H 700.17 0.120338 -2.55517 0
M  V30 7670 H 699.814 0.512416 -5.05309 0
M  V30 7671 H 699.744 2.26708 -4.75301 0
M  V30 7672 H 702.235 1.25334 -3.56511 0
M  V30 7673 H 702.548 1.96476 -7.47407 0
M  V30 7674 H 700.893 1.77368 -6.71986 0
M  V30 7675 H 704.084 1.47276 -4.44328 0
M  V30 7676 H 704.257 1.79739 -6.22574 0
M  V30 7677 N 697.663 1.43903 0.642637 0
M  V30 7678 C 698.94 1.36556 1.40043 0
M  V30 7679 C 699.32 0.0185588 2.11092 0
M  V30 7680 O 698.668 -0.998438 2.05532 0
M  V30 7681 C 698.878 2.55596 2.37638 0
M  V30 7682 C 700.226 2.99153 3.01318 0
M  V30 7683 O 701.25 2.55719 2.47965 0
M  V30 7684 O 700.109 3.74427 3.98078 0
M  V30 7685 H 697.203 0.540189 0.626198 0
M  V30 7686 H 699.749 1.55971 0.668657 0
M  V30 7687 H 698.521 3.45256 1.84158 0
M  V30 7688 H 698.144 2.38334 3.18249 0
M  V30 7689 N 699.141 -0.881989 1.30609 0
M  V30 7690 C 700.418 -1.61563 1.10258 0
M  V30 7691 C 700.798 -2.08228 -0.347053 0
M  V30 7692 O 700.146 -1.85151 -1.33908 0
M  V30 7693 C 700.356 -2.78287 2.10612 0
M  V30 7694 C 701.704 -3.48545 2.4249 0
M  V30 7695 O 702.728 -2.88479 2.08945 0
M  V30 7696 O 701.587 -4.56873 2.99883 0
M  V30 7697 H 698.681 -0.710238 0.423663 0
M  V30 7698 H 701.227 -0.928503 1.42045 0
M  V30 7699 H 699.999 -2.41131 3.08174 0
M  V30 7700 H 699.622 -3.54695 1.79659 0
M  V30 7701 N 700.619 -1.13374 -1.09472 0
M  V30 7702 C 701.867 -0.893422 -1.8128 0
M  V30 7703 C 702.188 0.582029 -1.86111 0
M  V30 7704 O 701.458 1.42305 -1.34633 0
M  V30 7705 H 700.038 -0.327543 -0.67136 0
M  V30 7706 H 702.7 -1.43018 -1.32408 0
M  V30 7707 H 701.796 -1.28374 -2.84476 0
M  V30 7708 N 702.098 1.27442 -0.927168 0
M  V30 7709 C 703.028 2.29256 -0.443188 0
M  V30 7710 C 704.009 1.62701 0.49624 0
M  V30 7711 O 705.194 1.90013 0.401105 0
M  V30 7712 C 702.324 3.45955 0.305366 0
M  V30 7713 C 701.278 4.24501 -0.546178 0
M  V30 7714 C 700.604 5.33671 0.331512 0
M  V30 7715 C 701.904 4.89921 -1.81037 0
M  V30 7716 H 703.598 2.69988 -1.29409 0
M  V30 7717 H 701.144 1.29792 -0.623705 0
M  V30 7718 H 703.097 4.1628 0.654885 0
M  V30 7719 H 701.821 3.04138 1.19029 0
M  V30 7720 H 700.48 3.55921 -0.878398 0
M  V30 7721 H 700.128 4.88096 1.21537 0
M  V30 7722 H 699.828 5.87131 -0.234746 0
M  V30 7723 H 701.352 6.0684 0.676614 0
M  V30 7724 H 702.766 5.52536 -1.52895 0
M  V30 7725 H 701.163 5.53436 -2.32009 0
M  V30 7726 H 702.233 4.13652 -2.53021 0
M  V30 7727 N 703.576 0.692616 1.41565 0
M  V30 7728 C 704.506 0.0397325 2.33466 0
M  V30 7729 C 705.487 -0.770334 1.51657 0
M  V30 7730 O 706.672 -0.723903 1.80203 0
M  V30 7731 C 703.802 -0.899495 3.3545 0
M  V30 7732 C 702.756 -0.196738 4.27548 0
M  V30 7733 C 702.082 -1.25012 5.19881 0
M  V30 7734 C 703.382 0.935158 5.1386 0
M  V30 7735 H 705.076 0.807296 2.88311 0
M  V30 7736 H 702.622 0.389665 1.38628 0
M  V30 7737 H 704.575 -1.36545 3.98665 0
M  V30 7738 H 703.299 -1.69869 2.78948 0
M  V30 7739 H 701.958 0.249158 3.65752 0
M  V30 7740 H 701.606 -2.04177 4.59696 0
M  V30 7741 H 701.306 -0.784931 5.82334 0
M  V30 7742 H 702.83 -1.71665 5.85972 0
M  V30 7743 H 704.244 0.549619 5.70659 0
M  V30 7744 H 702.641 1.32726 5.85238 0
M  V30 7745 H 703.711 1.77613 4.512 0
M  V30 7746 N 705.054 -1.51416 0.437162 0
M  V30 7747 C 706.3 -2.02386 -0.129555 0
M  V30 7748 C 706.633 -1.32071 -1.42376 0
M  V30 7749 O 705.908 -0.43559 -1.8956 0
M  V30 7750 C 706.191 -3.5841 -0.348487 0
M  V30 7751 C 706.044 -4.39341 0.964352 0
M  V30 7752 C 707.363 -4.25654 -1.11834 0
M  V30 7753 H 704.482 -0.735587 -0.0456109 0
M  V30 7754 H 707.124 -1.81055 0.576124 0
M  V30 7755 H 705.274 -3.76716 -0.949592 0
M  V30 7756 H 706.946 -4.32685 1.59942 0
M  V30 7757 H 705.189 -4.04432 1.56898 0
M  V30 7758 H 705.86 -5.4667 0.765212 0
M  V30 7759 H 708.336 -4.11617 -0.609165 0
M  V30 7760 H 707.212 -5.34704 -1.24029 0
M  V30 7761 H 707.473 -3.86502 -2.14636 0
M  V30 7762 N 706.532 -0.168513 -1.56696 0
M  V30 7763 C 707.778 0.471368 -1.97863 0
M  V30 7764 C 708.133 1.61049 -1.05267 0
M  V30 7765 O 707.426 1.9138 -0.0917908 0
M  V30 7766 C 707.62 1.00441 -3.42996 0
M  V30 7767 C 707.449 -0.081524 -4.49626 0
M  V30 7768 C 706.219 -0.530242 -5.0251 0
M  V30 7769 C 708.417 -0.880897 -5.067 0
M  V30 7770 N 706.399 -1.59678 -5.9277 0
M  V30 7771 C 707.77 -1.79742 -5.93374 0
M  V30 7772 C 709.825 -0.92629 -4.89208 0
M  V30 7773 C 708.528 -2.7555 -6.64428 0
M  V30 7774 C 710.554 -1.8723 -5.6098 0
M  V30 7775 C 709.916 -2.77631 -6.4738 0
M  V30 7776 H 706.015 0.140671 -0.769244 0
M  V30 7777 H 708.599 -0.268084 -1.92846 0
M  V30 7778 H 706.77 1.71339 -3.48565 0
M  V30 7779 H 708.502 1.61269 -3.7118 0
M  V30 7780 H 705.257 -0.12847 -4.73426 0
M  V30 7781 H 705.681 -2.13045 -6.42605 0
M  V30 7782 H 710.323 -0.241412 -4.2211 0
M  V30 7783 H 708.041 -3.45027 -7.30741 0
M  V30 7784 H 711.627 -1.91349 -5.49433 0
M  V30 7785 H 710.507 -3.4964 -7.01941 0
M  V30 7786 N 708.01 1.57248 0.105221 0
M  V30 7787 C 708.92 2.04653 1.14693 0
M  V30 7788 C 709.936 0.969488 1.44489 0
M  V30 7789 O 711.112 1.28196 1.55331 0
M  V30 7790 C 708.177 2.45297 2.45011 0
M  V30 7791 C 707.238 3.67148 2.22489 0
M  V30 7792 C 706.471 4.05844 3.46592 0
M  V30 7793 O 706.694 3.44736 4.54437 0
M  V30 7794 O 705.628 4.98862 3.36779 0
M  V30 7795 H 709.454 2.93663 0.774336 0
M  V30 7796 H 707.039 1.45998 0.31701 0
M  V30 7797 H 708.921 2.72112 3.21766 0
M  V30 7798 H 707.596 1.59429 2.81717 0
M  V30 7799 H 706.503 3.45463 1.43547 0
M  V30 7800 H 707.836 4.53764 1.9068 0
M  V30 7801 N 709.488 -0.375779 1.53054 0
M  V30 7802 C 710.451 -1.44254 1.7811 0
M  V30 7803 C 711.451 -1.47018 0.651328 0
M  V30 7804 O 712.641 -1.47957 0.919472 0
M  V30 7805 C 709.773 -2.8345 1.89391 0
M  V30 7806 H 710.966 -1.23316 2.73374 0
M  V30 7807 H 708.519 -0.608312 1.43977 0
M  V30 7808 H 709.254 -3.09716 0.961589 0
M  V30 7809 H 709.039 -2.82844 2.71555 0
M  V30 7810 H 710.529 -3.60722 2.10404 0
M  V30 7811 N 710.966 -1.44241 -0.634997 0
M  V30 7812 C 712.215 -1.46102 -1.39058 0
M  V30 7813 C 712.528 -0.0959909 -1.95364 0
M  V30 7814 O 713.734 0.00788751 -2.71499 0
M  V30 7815 C 712.19 -2.57195 -2.51751 0
M  V30 7816 C 711.798 -3.99888 -2.01974 0
M  V30 7817 C 713.542 -2.68272 -3.28984 0
M  V30 7818 C 711.449 -5.02412 -3.11987 0
M  V30 7819 H 710.379 -0.543556 -0.522554 0
M  V30 7820 H 713.03 -1.70294 -0.683538 0
M  V30 7821 H 711.412 -2.26237 -3.25012 0
M  V30 7822 H 712.586 -4.40396 -1.35604 0
M  V30 7823 H 710.901 -3.93019 -1.37568 0
M  V30 7824 H 713.498 -3.42042 -4.10988 0
M  V30 7825 H 713.841 -1.73957 -3.78212 0
M  V30 7826 H 714.374 -2.98622 -2.62812 0
M  V30 7827 H 711.113 -5.98342 -2.67707 0
M  V30 7828 H 710.633 -4.66501 -3.77011 0
M  V30 7829 H 712.312 -5.25939 -3.76825 0
M  V30 7830 N 712.444 0.87505 -1.31075 0
M  V30 7831 C 713.86 1.15997 -1.09622 0
M  V30 7832 C 714.06 2.01036 0.136611 0
M  V30 7833 O 713.116 2.38559 0.827397 0
M  V30 7834 C 714.429 1.85702 -2.36506 0
M  V30 7835 C 715.977 1.98425 -2.42067 0
M  V30 7836 C 716.452 2.71544 -3.68819 0
M  V30 7837 N 717.943 2.79084 -3.69684 0
M  V30 7838 C 718.678 3.36259 -4.64454 0
M  V30 7839 N 718.174 3.94406 -5.69575 0
M  V30 7840 N 719.967 3.34169 -4.51982 0
M  V30 7841 H 712.118 0.308258 -2.10151 0
M  V30 7842 H 714.381 0.199145 -0.926847 0
M  V30 7843 H 714.087 1.30663 -3.26527 0
M  V30 7844 H 713.961 2.86017 -2.45915 0
M  V30 7845 H 716.348 2.5263 -1.52518 0
M  V30 7846 H 716.429 0.971682 -2.36626 0
M  V30 7847 H 716.073 2.18008 -4.58732 0
M  V30 7848 H 716.003 3.73198 -3.71525 0
M  V30 7849 H 718.494 2.3781 -2.93691 0
M  V30 7850 H 718.807 4.36129 -6.37974 0
M  V30 7851 H 717.152 3.92797 -5.73355 0
M  V30 7852 H 720.343 2.87977 -3.69035 0
M  V30 7853 H 720.516 3.78431 -5.26017 0
M  V30 7854 N 713.922 1.13953 1.08869 0
M  V30 7855 C 715.15 0.92817 1.84912 0
M  V30 7856 C 715.565 -0.523197 1.81406 0
M  V30 7857 O 714.922 -1.36237 1.21432 0
M  V30 7858 C 714.973 1.41509 3.32652 0
M  V30 7859 O 714.694 2.80959 3.36145 0
M  V30 7860 C 716.195 1.243 4.25517 0
M  V30 7861 H 713.415 0.330612 0.583898 0
M  V30 7862 H 715.959 1.51349 1.37527 0
M  V30 7863 H 714.114 0.872648 3.77444 0
M  V30 7864 H 714.528 3.02704 4.28335 0
M  V30 7865 H 716.002 1.63237 5.27312 0
M  V30 7866 H 716.479 0.18532 4.38809 0
M  V30 7867 H 717.085 1.77375 3.86546 0
M  V30 7868 N 715.4 -1.26948 0.933913 0
M  V30 7869 C 716.647 -1.94087 0.577625 0
M  V30 7870 C 716.975 -1.73345 -0.88214 0
M  V30 7871 O 716.23 -1.05945 -1.64542 0
M  V30 7872 C 716.529 -3.46963 0.857406 0
M  V30 7873 C 716.195 -3.87834 2.2999 0
M  V30 7874 C 714.857 -3.98704 2.69423 0
M  V30 7875 C 717.209 -4.08442 3.23766 0
M  V30 7876 C 714.537 -4.27573 4.01744 0
M  V30 7877 C 716.889 -4.38798 4.55675 0
M  V30 7878 C 715.553 -4.47881 4.94934 0
M  V30 7879 H 714.823 -0.710215 0.211368 0
M  V30 7880 H 717.47 -1.50899 1.17905 0
M  V30 7881 H 715.775 -3.91416 0.173369 0
M  V30 7882 H 717.472 -3.97062 0.560615 0
M  V30 7883 H 714.062 -3.79916 1.98399 0
M  V30 7884 H 718.246 -3.99479 2.94499 0
M  V30 7885 H 713.502 -4.32815 4.31834 0
M  V30 7886 H 717.676 -4.5369 5.28335 0
M  V30 7887 H 715.303 -4.70005 5.97495 0
M  V30 7888 N 716.879 -0.700114 -1.41195 0
M  V30 7889 C 718.107 -0.242179 -2.05478 0
M  V30 7890 C 718.522 1.11029 -1.52702 0
M  V30 7891 O 717.879 1.69473 -0.677127 0
M  V30 7892 C 717.93 -0.196271 -3.60967 0
M  V30 7893 O 717.651 -1.49532 -4.11791 0
M  V30 7894 C 719.152 0.282102 -4.42401 0
M  V30 7895 H 716.372 -0.111749 -0.661629 0
M  V30 7896 H 718.916 -0.953975 -1.80885 0
M  V30 7897 H 717.071 0.46638 -3.84582 0
M  V30 7898 H 717.485 -1.38545 -5.05871 0
M  V30 7899 H 718.959 0.263093 -5.51373 0
M  V30 7900 H 719.436 1.32174 -4.1884 0
M  V30 7901 H 720.042 -0.349712 -4.2386 0
M  V30 7902 N 718.357 1.51182 -0.445186 0
M  V30 7903 C 719.32 2.26501 0.350722 0
M  V30 7904 C 720.32 1.3025 0.942952 0
M  V30 7905 O 721.51 1.53897 0.816175 0
M  V30 7906 C 718.642 3.06274 1.49697 0
M  V30 7907 H 719.835 2.98299 -0.309474 0
M  V30 7908 H 717.388 1.55034 -0.198551 0
M  V30 7909 H 718.123 2.38911 2.19299 0
M  V30 7910 H 717.908 3.76979 1.0784 0
M  V30 7911 H 719.398 3.63306 2.05909 0
M  V30 7912 N 719.835 0.176821 1.56605 0
M  V30 7913 C 720.745 -0.763682 2.21822 0
M  V30 7914 C 721.761 -1.24889 1.21156 0
M  V30 7915 O 722.937 -1.29987 1.53836 0
M  V30 7916 C 720.002 -1.97352 2.8505 0
M  V30 7917 C 719.063 -1.53466 4.00932 0
M  V30 7918 C 718.296 -2.68682 4.61135 0
M  V30 7919 O 718.519 -3.85694 4.20234 0
M  V30 7920 O 717.453 -2.42442 5.50913 0
M  V30 7921 H 721.279 -0.238363 3.02763 0
M  V30 7922 H 718.864 -0.0516331 1.49311 0
M  V30 7923 H 720.746 -2.68096 3.25119 0
M  V30 7924 H 719.421 -2.48779 2.07101 0
M  V30 7925 H 718.328 -0.796551 3.65521 0
M  V30 7926 H 719.661 -1.06724 4.8049 0
M  V30 7927 N 721.313 -1.57302 -0.09688 0
M  V30 7928 C 722.559 -1.86273 -0.801885 0
M  V30 7929 C 722.892 -0.765694 -1.78468 0
M  V30 7930 O 722.167 0.226495 -1.93177 0
M  V30 7931 C 722.45 -3.25876 -1.53221 0
M  V30 7932 C 722.303 -4.46205 -0.567529 0
M  V30 7933 C 723.622 -3.63352 -2.48321 0
M  V30 7934 H 720.741 -0.67752 -0.29006 0
M  V30 7935 H 723.383 -1.89887 -0.0655577 0
M  V30 7936 H 721.533 -3.22926 -2.15988 0
M  V30 7937 H 723.205 -4.6127 0.0529982 0
M  V30 7938 H 721.448 -4.33636 0.119233 0
M  V30 7939 H 722.119 -5.40608 -1.11564 0
M  V30 7940 H 724.595 -3.67234 -1.95648 0
M  V30 7941 H 723.471 -4.61968 -2.9644 0
M  V30 7942 H 723.732 -2.91941 -3.31998 0
M  V30 7943 N 722.791 0.367657 -1.53252 0
M  V30 7944 C 724.037 1.11216 -1.69584 0
M  V30 7945 C 724.37 1.89026 -0.445269 0
M  V30 7946 O 723.645 1.86342 0.557404 0
M  V30 7947 C 723.928 2.07308 -2.94441 0
M  V30 7948 C 723.781 1.3312 -4.2965 0
M  V30 7949 C 725.1 3.07459 -3.14892 0
M  V30 7950 H 722.219 0.40294 -0.617096 0
M  V30 7951 H 724.861 0.393201 -1.85887 0
M  V30 7952 H 723.011 2.68617 -2.80673 0
M  V30 7953 H 724.683 0.746111 -4.55226 0
M  V30 7954 H 722.926 0.633051 -4.29156 0
M  V30 7955 H 723.597 2.03443 -5.13142 0
M  V30 7956 H 726.073 2.56252 -3.27832 0
M  V30 7957 H 724.949 3.71919 -4.03693 0
M  V30 7958 H 725.21 3.77514 -2.30077 0
M  V30 7959 N 724.269 1.44576 0.627338 0
M  V30 7960 C 725.546 1.38033 1.38586 0
M  V30 7961 C 725.926 0.0409468 2.1106 0
M  V30 7962 O 725.274 -0.976582 2.0658 0
M  V30 7963 C 725.484 2.58102 2.34913 0
M  V30 7964 C 726.832 3.02332 2.98129 0
M  V30 7965 O 727.856 2.58334 2.45238 0
M  V30 7966 O 726.715 3.78628 3.94085 0
M  V30 7967 H 723.809 0.546801 0.620434 0
M  V30 7968 H 726.355 1.56672 0.652077 0
M  V30 7969 H 725.127 3.4719 1.80485 0
M  V30 7970 H 724.75 2.41696 3.15703 0
M  V30 7971 N 725.747 -0.868086 1.31537 0
M  V30 7972 C 726.996 -1.61607 1.20689 0
M  V30 7973 C 727.309 -1.94204 -0.233275 0
M  V30 7974 O 728.515 -2.67515 -0.463465 0
M  V30 7975 C 726.971 -2.91348 2.11292 0
M  V30 7976 C 726.579 -2.66227 3.60315 0
M  V30 7977 C 728.323 -3.69344 2.09249 0
M  V30 7978 C 726.23 -3.91887 4.42921 0
M  V30 7979 H 725.16 -0.606373 0.448138 0
M  V30 7980 H 727.811 -0.959666 1.56405 0
M  V30 7981 H 726.193 -3.58374 1.68477 0
M  V30 7982 H 727.367 -2.07597 4.11388 0
M  V30 7983 H 725.682 -2.01582 3.64354 0
M  V30 7984 H 728.279 -4.62567 2.68209 0
M  V30 7985 H 728.622 -4.02044 1.0801 0
M  V30 7986 H 729.155 -3.09205 2.50274 0
M  V30 7987 H 725.894 -3.64336 5.44922 0
M  V30 7988 H 725.414 -4.49961 3.96605 0
M  V30 7989 H 727.093 -4.59754 4.55231 0
M  V30 7990 N 727.225 -1.14528 -1.08264 0
M  V30 7991 C 728.455 -0.936604 -1.8415 0
M  V30 7992 C 728.863 0.518298 -1.81962 0
M  V30 7993 O 728.206 1.37096 -1.22272 0
M  V30 7994 C 728.268 -1.36182 -3.32708 0
M  V30 7995 C 727.932 -2.83257 -3.58629 0
M  V30 7996 C 728.929 -3.81366 -3.5335 0
M  V30 7997 C 726.614 -3.20704 -3.86593 0
M  V30 7998 C 728.608 -5.14929 -3.75668 0
M  V30 7999 C 726.295 -4.54443 -4.08564 0
M  V30 8000 C 727.293 -5.51365 -4.03095 0
M  V30 8001 O 726.981 -6.8269 -4.24488 0
M  V30 8002 H 726.713 -0.333254 -0.588148 0
M  V30 8003 H 729.267 -1.5247 -1.3763 0
M  V30 8004 H 727.497 -0.717063 -3.79994 0
M  V30 8005 H 729.186 -1.12372 -3.90035 0
M  V30 8006 H 729.952 -3.53781 -3.31759 0
M  V30 8007 H 725.831 -2.45857 -3.89969 0
M  V30 8008 H 729.375 -5.90568 -3.71315 0
M  V30 8009 H 725.272 -4.81747 -4.29639 0
M  V30 8010 H 726.04 -6.8897 -4.41886 0
M  V30 8011 N 728.703 1.26451 -0.940633 0
M  V30 8012 C 729.933 1.97581 -0.603766 0
M  V30 8013 C 730.341 1.70246 0.825395 0
M  V30 8014 O 729.684 0.967001 1.56188 0
M  V30 8015 C 729.746 3.51256 -0.765463 0
M  V30 8016 C 729.41 4.0224 -2.16915 0
M  V30 8017 C 730.407 4.1402 -3.14457 0
M  V30 8018 C 728.092 4.36263 -2.48958 0
M  V30 8019 C 730.086 4.59117 -4.42143 0
M  V30 8020 C 727.773 4.81048 -3.76877 0
M  V30 8021 C 728.771 4.92436 -4.73282 0
M  V30 8022 O 728.459 5.36234 -5.98923 0
M  V30 8023 H 728.191 0.636948 -0.226436 0
M  V30 8024 H 730.745 1.61941 -1.2635 0
M  V30 8025 H 728.975 3.86669 -0.0485956 0
M  V30 8026 H 730.664 4.03597 -0.431738 0
M  V30 8027 H 731.43 3.87981 -2.91026 0
M  V30 8028 H 727.309 4.26634 -1.74656 0
M  V30 8029 H 730.853 4.6792 -5.17394 0
M  V30 8030 H 726.75 5.06531 -4.00121 0
M  V30 8031 H 727.518 5.54456 -6.02097 0
M  V30 8032 N 730.181 0.707592 1.40822 0
M  V30 8033 C 731.091 0.0507246 2.34545 0
M  V30 8034 C 732.107 -0.752727 1.56876 0
M  V30 8035 O 733.283 -0.687524 1.89302 0
M  V30 8036 C 730.348 -0.865731 3.35717 0
M  V30 8037 C 729.409 -0.0531313 4.29267 0
M  V30 8038 C 728.642 -0.925939 5.25606 0
M  V30 8039 O 728.865 -2.16531 5.27703 0
M  V30 8040 O 727.799 -0.369194 6.00767 0
M  V30 8041 H 731.625 0.823587 2.9232 0
M  V30 8042 H 729.21 0.46801 1.4188 0
M  V30 8043 H 731.092 -1.39091 3.97783 0
M  V30 8044 H 729.767 -1.61788 2.80368 0
M  V30 8045 H 728.674 0.516931 3.70511 0
M  V30 8046 H 730.007 0.660617 4.87747 0
M  V30 8047 N 731.66 -1.50943 0.453197 0
M  V30 8048 C 732.908 -2.01813 -0.107709 0
M  V30 8049 C 733.229 -1.33841 -1.41816 0
M  V30 8050 O 732.499 -0.477973 -1.8998 0
M  V30 8051 H 731.079 -0.745773 -0.0427948 0
M  V30 8052 H 733.741 -1.8545 0.599531 0
M  V30 8053 H 732.837 -3.10911 -0.27218 0
M  V30 8054 N 733.138 -0.185124 -1.56509 0
M  V30 8055 C 734.415 0.503348 -1.89013 0
M  V30 8056 C 734.795 1.80349 -1.09715 0
M  V30 8057 O 734.143 2.27665 -0.195203 0
M  V30 8058 C 734.353 0.731839 -3.41241 0
M  V30 8059 C 735.701 1.05568 -4.11267 0
M  V30 8060 O 736.725 0.819906 -3.46635 0
M  V30 8061 O 735.584 1.50116 -5.25478 0
M  V30 8062 H 732.678 0.261139 -0.784688 0
M  V30 8063 H 735.224 -0.224592 -1.68207 0
M  V30 8064 H 733.996 -0.18672 -3.90854 0
M  V30 8065 H 733.619 1.5126 -3.67704 0
M  V30 8066 N 734.616 1.57351 0.0885366 0
M  V30 8067 C 735.548 1.99221 1.13329 0
M  V30 8068 C 736.561 0.895705 1.35945 0
M  V30 8069 O 737.75 1.17376 1.34481 0
M  V30 8070 C 734.85 2.3016 2.48756 0
M  V30 8071 C 734.023 3.61444 2.46327 0
M  V30 8072 C 733.082 3.80244 3.63732 0
M  V30 8073 O 732.108 4.52024 3.45924 0
M  V30 8074 N 733.31 3.2132 4.8346 0
M  V30 8075 H 736.075 2.89456 0.776862 0
M  V30 8076 H 733.636 1.59505 0.277428 0
M  V30 8077 H 735.628 2.39925 3.25911 0
M  V30 8078 H 734.198 1.459 2.76464 0
M  V30 8079 H 733.418 3.62588 1.54673 0
M  V30 8080 H 734.706 4.47678 2.41789 0
M  V30 8081 H 734.104 2.63028 5.00832 0
M  V30 8082 H 732.661 3.3656 5.58185 0
M  V30 8083 N 736.094 -0.359525 1.53444 0
M  V30 8084 C 737.34 -1.10315 1.70172 0
M  V30 8085 C 737.673 -1.88788 0.455287 0
M  V30 8086 O 736.948 -1.86635 -0.547514 0
M  V30 8087 C 737.231 -2.05744 2.95536 0
M  V30 8088 C 737.084 -1.3084 4.3035 0
M  V30 8089 C 738.403 -3.05784 3.16518 0
M  V30 8090 H 735.522 -0.399662 0.619225 0
M  V30 8091 H 738.164 -0.383338 1.86093 0
M  V30 8092 H 736.314 -2.67125 2.82093 0
M  V30 8093 H 737.986 -0.721959 4.55615 0
M  V30 8094 H 736.229 -0.610283 4.29486 0
M  V30 8095 H 736.9 -2.00718 5.14214 0
M  V30 8096 H 739.376 -2.5451 3.29187 0
M  V30 8097 H 738.252 -3.69772 4.05659 0
M  V30 8098 H 738.513 -3.76289 2.32076 0
M  V30 8099 N 737.572 -1.44907 -0.619662 0
M  V30 8100 C 738.818 -1.48512 -1.38102 0
M  V30 8101 C 739.151 -0.121686 -1.93818 0
M  V30 8102 O 738.426 0.862256 -1.74343 0
M  V30 8103 C 738.709 -2.55469 -2.53787 0
M  V30 8104 C 738.562 -4.01212 -2.03345 0
M  V30 8105 C 739.881 -2.58821 -3.55949 0
M  V30 8106 H 737 -0.540712 -0.500799 0
M  V30 8107 H 739.642 -1.7665 -0.69962 0
M  V30 8108 H 737.792 -2.31606 -3.11915 0
M  V30 8109 H 739.464 -4.36245 -1.49959 0
M  V30 8110 H 737.707 -4.12443 -1.34438 0
M  V30 8111 H 738.378 -4.71717 -2.86683 0
M  V30 8112 H 740.854 -2.80172 -3.07641 0
M  V30 8113 H 739.73 -3.35542 -4.34399 0
M  V30 8114 H 739.991 -1.63451 -4.10775 0
M  V30 8115 N 739.05 0.861098 -1.31996 0
M  V30 8116 C 739.96 2.00154 -1.22374 0
M  V30 8117 C 740.976 1.73447 -0.138631 0
M  V30 8118 O 742.152 1.98191 -0.358104 0
M  V30 8119 C 739.217 3.33696 -0.940645 0
M  V30 8120 C 738.278 3.73668 -2.11355 0
M  V30 8121 C 737.511 5.00837 -1.84386 0
M  V30 8122 O 737.734 5.64996 -0.783287 0
M  V30 8123 O 736.668 5.37787 -2.70313 0
M  V30 8124 H 740.494 2.11207 -2.18233 0
M  V30 8125 H 738.079 0.990768 -1.11822 0
M  V30 8126 H 739.961 4.13756 -0.798987 0
M  V30 8127 H 738.636 3.23698 -0.0121636 0
M  V30 8128 H 737.543 2.94211 -2.31065 0
M  V30 8129 H 738.876 3.88303 -3.02459 0
M  V30 8130 N 740.528 1.15101 1.07655 0
M  V30 8131 C 741.438 0.858869 2.18313 0
M  V30 8132 C 742.454 -0.163641 1.73229 0
M  V30 8133 O 743.63 0.00969541 2.01398 0
M  V30 8134 C 740.695 0.34893 3.4494 0
M  V30 8135 C 739.756 1.43495 4.04608 0
M  V30 8136 C 738.989 0.949253 5.2519 0
M  V30 8137 O 739.212 -0.20636 5.70027 0
M  V30 8138 O 738.146 1.73161 5.76454 0
M  V30 8139 H 741.972 1.78386 2.45788 0
M  V30 8140 H 739.557 0.929876 1.16934 0
M  V30 8141 H 741.439 0.070851 4.2134 0
M  V30 8142 H 740.114 -0.548237 3.19024 0
M  V30 8143 H 739.021 1.7666 3.29761 0
M  V30 8144 H 740.354 2.30692 4.3479 0
M  V30 8145 N 742.006 -1.2595 0.947325 0
M  V30 8146 C 743.283 -1.88676 0.515824 0
M  V30 8147 C 743.663 -1.85547 -1.00675 0
M  V30 8148 O 743.011 -1.31399 -1.8694 0
M  V30 8149 C 743.221 -3.31734 1.08415 0
M  V30 8150 C 744.569 -4.08545 1.15654 0
M  V30 8151 O 745.593 -3.40826 1.03517 0
M  V30 8152 O 744.452 -5.29663 1.34608 0
M  V30 8153 H 741.546 -0.809537 0.169055 0
M  V30 8154 H 744.092 -1.34075 1.04029 0
M  V30 8155 H 742.864 -3.28404 2.1276 0
M  V30 8156 H 742.487 -3.93882 0.542499 0
M  V30 8157 N 743.484 -0.715051 -1.40445 0
M  V30 8158 C 744.895 -0.326763 -1.83818 0
M  V30 8159 C 745.246 1.13851 -1.59789 0
M  V30 8160 O 744.371 1.87611 -1.07848 0
M  V30 8161 C 744.966 -0.586297 -3.33688 0
M  V30 8162 C 743.525 -0.251724 -3.75557 0
M  V30 8163 C 742.672 -0.858928 -2.63662 0
M  V30 8164 H 745.623 -0.914241 -1.2972 0
M  V30 8165 H 745.644 0.148636 -3.8021 0
M  V30 8166 H 745.156 -1.65281 -3.51146 0
M  V30 8167 H 743.257 0.809754 -3.63695 0
M  V30 8168 H 743.37 -0.720348 -4.73654 0
M  V30 8169 H 741.734 -0.287013 -2.53078 0
M  V30 8170 H 742.517 -1.9297 -2.83932 0
M  V30 8171 N 744.962 1.50701 -0.461195 0
M  V30 8172 C 745.872 2.32069 0.343661 0
M  V30 8173 C 746.888 1.42016 1.00535 0
M  V30 8174 O 748.064 1.75077 0.995498 0
M  V30 8175 C 745.129 3.16424 1.41692 0
M  V30 8176 C 744.19 4.22286 0.772869 0
M  V30 8177 C 743.423 5.02609 1.79499 0
M  V30 8178 O 743.646 4.83874 3.0203 0
M  V30 8179 O 742.58 5.86047 1.3723 0
M  V30 8180 H 746.406 3.01996 -0.321268 0
M  V30 8181 H 743.991 1.47723 -0.223235 0
M  V30 8182 H 745.873 3.68795 2.03883 0
M  V30 8183 H 744.548 2.49236 2.0655 0
M  V30 8184 H 743.455 3.73931 0.112277 0
M  V30 8185 H 744.788 4.91915 0.167399 0
M  V30 8186 N 746.441 0.193421 1.56409 0
M  V30 8187 C 747.371 -0.723334 2.22014 0
M  V30 8188 C 748.352 -1.22254 1.1827 0
M  V30 8189 O 749.537 -1.27168 1.46771 0
M  V30 8190 C 746.667 -1.94366 2.87818 0
M  V30 8191 C 745.621 -1.57943 3.97791 0
M  V30 8192 C 744.947 -2.87623 4.50752 0
M  V30 8193 C 746.247 -0.790639 5.16281 0
M  V30 8194 H 747.941 -0.176426 2.9888 0
M  V30 8195 H 745.487 -0.0834166 1.43758 0
M  V30 8196 H 747.44 -2.5902 3.32396 0
M  V30 8197 H 746.164 -2.51507 2.08355 0
M  V30 8198 H 744.823 -0.956482 3.53903 0
M  V30 8199 H 744.471 -3.4285 3.68053 0
M  V30 8200 H 744.171 -2.63998 5.24956 0
M  V30 8201 H 745.695 -3.53268 4.9803 0
M  V30 8202 H 747.109 -1.34024 5.57414 0
M  V30 8203 H 745.506 -0.65258 5.96541 0
M  V30 8204 H 746.576 0.208633 4.84451 0
M  V30 8205 N 747.919 -1.57396 -0.0801906 0
M  V30 8206 C 748.851 -1.9982 -1.12271 0
M  V30 8207 C 749.864 -0.902902 -1.35468 0
M  V30 8208 O 751.053 -1.18088 -1.33856 0
M  V30 8209 C 748.153 -2.31476 -2.47532 0
M  V30 8210 C 747.326 -3.62745 -2.44407 0
M  V30 8211 C 746.385 -3.82168 -3.6171 0
M  V30 8212 O 745.411 -4.53852 -3.43522 0
M  V30 8213 N 746.613 -3.2388 -4.81749 0
M  V30 8214 H 749.378 -2.89864 -0.761501 0
M  V30 8215 H 746.939 -1.5965 -0.268965 0
M  V30 8216 H 748.931 -2.4165 -3.24634 0
M  V30 8217 H 747.501 -1.47364 -2.75686 0
M  V30 8218 H 746.721 -3.63403 -1.52747 0
M  V30 8219 H 748.009 -4.48954 -2.39412 0
M  V30 8220 H 747.407 -2.6568 -4.9943 0
M  V30 8221 H 745.964 -3.39515 -5.56392 0
M  V30 8222 N 749.397 0.351382 -1.53633 0
M  V30 8223 C 750.674 1.10903 -1.6112 0
M  V30 8224 C 751.054 2.06725 -0.427556 0
M  V30 8225 O 750.402 2.20992 0.580916 0
M  V30 8226 C 750.612 1.83561 -2.96827 0
M  V30 8227 C 751.96 2.37587 -3.51906 0
M  V30 8228 O 752.984 1.93669 -2.9895 0
M  V30 8229 O 751.843 3.17913 -4.44515 0
M  V30 8230 H 748.937 0.509558 -0.651368 0
M  V30 8231 H 751.483 0.353504 -1.65977 0
M  V30 8232 H 750.255 1.1371 -3.74414 0
M  V30 8233 H 749.878 2.6599 -2.95525 0
M  V30 8234 N 750.875 1.45233 0.611969 0
M  V30 8235 C 752.122 1.49021 1.37109 0
M  V30 8236 C 752.45 0.130227 1.94064 0
M  V30 8237 O 751.705 -0.870551 1.75271 0
M  V30 8238 C 752.004 2.51353 2.54079 0
M  V30 8239 C 751.67 3.96178 2.15299 0
M  V30 8240 C 750.332 4.35614 2.04436 0
M  V30 8241 C 752.684 4.87275 1.84966 0
M  V30 8242 C 750.012 5.64047 1.61456 0
M  V30 8243 C 752.364 6.16115 1.43474 0
M  V30 8244 C 751.028 6.54486 1.31167 0
M  V30 8245 H 750.298 0.545307 0.501719 0
M  V30 8246 H 752.945 1.78555 0.692122 0
M  V30 8247 H 751.25 2.15372 3.27295 0
M  V30 8248 H 752.947 2.51523 3.12309 0
M  V30 8249 H 749.537 3.6499 2.24678 0
M  V30 8250 H 753.721 4.57548 1.92258 0
M  V30 8251 H 748.977 5.92575 1.50547 0
M  V30 8252 H 753.151 6.86149 1.19048 0
M  V30 8253 H 750.778 7.53904 0.97637 0
M  V30 8254 N 752.353 -0.854086 1.3245 0
M  V30 8255 C 753.599 -1.61069 1.23225 0
M  V30 8256 C 753.932 -1.93111 -0.205349 0
M  V30 8257 O 753.207 -1.57397 -1.14265 0
M  V30 8258 C 753.49 -2.93065 2.09249 0
M  V30 8259 C 753.343 -2.67801 3.6139 0
M  V30 8260 C 754.662 -3.94341 1.95406 0
M  V30 8261 H 751.781 -0.584449 0.448986 0
M  V30 8262 H 754.423 -0.986189 1.62402 0
M  V30 8263 H 752.573 -3.46364 1.75967 0
M  V30 8264 H 754.245 -2.21052 4.04887 0
M  V30 8265 H 752.488 -2.01756 3.84027 0
M  V30 8266 H 753.159 -3.6179 4.16907 0
M  V30 8267 H 755.635 -3.50301 2.24562 0
M  V30 8268 H 754.511 -4.84555 2.57872 0
M  V30 8269 H 754.772 -4.32382 0.921865 0
M  V30 8270 N 753.831 -1.1567 -1.07043 0
M  V30 8271 C 754.779 -0.852204 -2.16426 0
M  V30 8272 C 755.773 0.175661 -1.68487 0
M  V30 8273 O 756.979 0.0303874 -1.79974 0
M  V30 8274 H 753.354 -0.257942 -0.706378 0
M  V30 8275 H 755.325 -1.78231 -2.39324 0
M  V30 8276 C 754.074 -0.361362 -3.45817 0
M  V30 8277 H 753.397 -1.14369 -3.83092 0
M  V30 8278 H 754.837 -0.186997 -4.23587 0
M  V30 8279 C 753.296 0.917703 -3.2416 0
M  V30 8280 O 753.826 1.98858 -3.49025 0
M  V30 8281 N 752.032 0.858456 -2.77631 0
M  V30 8282 H 751.579 -0.0131821 -2.57597 0
M  V30 8283 H 751.537 1.71478 -2.6352 0
M  V30 8284 N 755.309 1.25446 -0.953992 0
M  V30 8285 C 756.586 1.884 -0.525823 0
M  V30 8286 C 756.966 1.86079 0.996891 0
M  V30 8287 O 756.314 1.32389 1.8624 0
M  V30 8288 C 756.524 3.31154 -1.10172 0
M  V30 8289 C 757.872 4.07926 -1.17819 0
M  V30 8290 O 758.896 3.40273 -1.05323 0
M  V30 8291 O 757.755 5.28942 -1.37415 0
M  V30 8292 H 754.849 0.808629 -0.173345 0
M  V30 8293 H 757.395 1.33522 -1.04738 0
M  V30 8294 H 756.167 3.27271 -2.14499 0
M  V30 8295 H 755.79 3.93588 -0.56338 0
M  V30 8296 N 756.787 0.722489 1.40064 0
M  V30 8297 C 758.033 0.265371 2.01056 0
M  V30 8298 C 758.366 -1.14062 1.57174 0
M  V30 8299 O 757.641 -1.77514 0.794916 0
M  V30 8300 C 757.924 0.353157 3.58364 0
M  V30 8301 C 757.777 1.79802 4.123 0
M  V30 8302 C 759.096 -0.271677 4.39261 0
M  V30 8303 H 756.215 0.0979002 0.730469 0
M  V30 8304 H 758.857 0.916289 1.66446 0
M  V30 8305 H 757.007 -0.201037 3.87979 0
M  V30 8306 H 758.679 2.40813 3.93455 0
M  V30 8307 H 756.922 2.32348 3.66329 0
M  V30 8308 H 757.593 1.81079 5.21454 0
M  V30 8309 H 760.069 0.200607 4.15616 0
M  V30 8310 H 758.945 -0.179843 5.48605 0
M  V30 8311 H 759.206 -1.35611 4.20787 0
M  V30 8312 N 758.265 -1.50454 0.469181 0
M  V30 8313 C 759.495 -2.06429 -0.0840913 0
M  V30 8314 C 759.903 -1.3334 -1.34227 0
M  V30 8315 O 759.246 -0.395656 -1.79389 0
M  V30 8316 C 759.308 -3.56797 -0.440049 0
M  V30 8317 C 758.972 -4.51359 0.715838 0
M  V30 8318 C 759.969 -4.94754 1.59732 0
M  V30 8319 C 757.654 -4.94069 0.905621 0
M  V30 8320 C 759.648 -5.79564 2.653 0
M  V30 8321 C 757.335 -5.78662 1.96453 0
M  V30 8322 C 758.333 -6.21311 2.83658 0
M  V30 8323 O 758.021 -7.04218 3.87727 0
M  V30 8324 H 757.753 -0.675994 0.00289751 0
M  V30 8325 H 760.307 -1.94629 0.656417 0
M  V30 8326 H 758.537 -3.66492 -1.23372 0
M  V30 8327 H 760.226 -3.95145 -0.928181 0
M  V30 8328 H 760.992 -4.62428 1.46237 0
M  V30 8329 H 756.871 -4.60394 0.236326 0
M  V30 8330 H 760.415 -6.12774 3.33398 0
M  V30 8331 H 756.312 -6.10401 2.09955 0
M  V30 8332 H 757.08 -7.22464 3.84692 0
M  V30 8333 N 759.743 -0.201713 -1.56304 0
M  V30 8334 C 760.989 0.435952 -1.98059 0
M  V30 8335 C 761.322 1.60811 -1.08873 0
M  V30 8336 O 760.597 1.9398 -0.142128 0
M  V30 8337 C 760.88 0.889706 -3.48936 0
M  V30 8338 C 760.733 -0.284725 -4.48898 0
M  V30 8339 C 762.052 1.7529 -4.03685 0
M  V30 8340 H 759.171 0.15699 -0.720085 0
M  V30 8341 H 761.813 -0.293965 -1.87712 0
M  V30 8342 H 759.963 1.51166 -3.57884 0
M  V30 8343 H 761.635 -0.922531 -4.51981 0
M  V30 8344 H 759.878 -0.935427 -4.23594 0
M  V30 8345 H 760.549 0.0753865 -5.51949 0
M  V30 8346 H 763.025 1.2283 -3.97558 0
M  V30 8347 H 761.901 2.03933 -5.0961 0
M  V30 8348 H 762.162 2.70939 -3.49348 0
M  V30 8349 N 761.222 1.57436 0.0718424 0
M  V30 8350 C 762.452 1.91196 0.782795 0
M  V30 8351 C 762.86 0.795927 1.71644 0
M  V30 8352 O 762.203 -0.239604 1.82131 0
M  V30 8353 C 762.265 3.20421 1.63005 0
M  V30 8354 C 761.929 4.48724 0.865782 0
M  V30 8355 C 762.926 5.19571 0.185051 0
M  V30 8356 C 760.611 4.95345 0.832971 0
M  V30 8357 C 762.605 6.3529 -0.518264 0
M  V30 8358 C 760.292 6.1097 0.125884 0
M  V30 8359 C 761.29 6.80794 -0.548533 0
M  V30 8360 O 760.978 7.94213 -1.24423 0
M  V30 8361 H 760.71 0.636486 0.227731 0
M  V30 8362 H 763.264 2.05348 0.0464187 0
M  V30 8363 H 761.494 3.02478 2.40923 0
M  V30 8364 H 763.183 3.39831 2.21968 0
M  V30 8365 H 763.949 4.8458 0.201707 0
M  V30 8366 H 759.828 4.40871 1.34737 0
M  V30 8367 H 763.372 6.89725 -1.04523 0
M  V30 8368 H 759.269 6.45411 0.107155 0
M  V30 8369 H 760.037 8.10331 -1.1535 0
M  V30 8370 N 762.7 -0.34323 1.53817 0
M  V30 8371 C 763.948 -1.0813 1.70741 0
M  V30 8372 C 764.269 -1.89165 0.473461 0
M  V30 8373 O 763.539 -1.89075 -0.512605 0
M  V30 8374 H 762.119 -0.40219 0.629486 0
M  V30 8375 H 764.781 -0.384426 1.91071 0
M  V30 8376 H 763.877 -1.7585 2.57843 0
M  V30 8377 N 764.178 -1.45556 -0.604258 0
M  V30 8378 C 765.111 -1.48975 -1.72863 0
M  V30 8379 C 766.089 -0.345803 -1.5888 0
M  V30 8380 O 767.273 -0.546796 -1.80395 0
M  V30 8381 C 764.4 -1.34794 -3.10722 0
M  V30 8382 C 763.446 -2.53096 -3.43285 0
M  V30 8383 S 764.279 -4.15551 -3.37754 0
M  V30 8384 C 765.435 -4.03842 -4.78187 0
M  V30 8385 H 765.668 -2.44108 -1.69701 0
M  V30 8386 H 763.201 -1.33179 -0.781194 0
M  V30 8387 H 765.159 -1.273 -3.90263 0
M  V30 8388 H 763.82 -0.411254 -3.11396 0
M  V30 8389 H 763.013 -2.39109 -4.4367 0
M  V30 8390 H 762.615 -2.57469 -2.71267 0
M  V30 8391 H 764.907 -3.69191 -5.6807 0
M  V30 8392 H 765.85 -5.0415 -4.97231 0
M  V30 8393 H 766.258 -3.35443 -4.54025 0
M  V30 8394 N 765.656 0.84705 -1.32902 0
M  V30 8395 C 767.072 1.13645 -1.12058 0
M  V30 8396 C 767.272 2.01281 0.093937 0
M  V30 8397 O 766.328 2.4026 0.776608 0
M  V30 8398 C 767.641 1.80644 -2.40392 0
M  V30 8399 C 769.189 1.93246 -2.46221 0
M  V30 8400 C 769.664 2.6366 -3.74496 0
M  V30 8401 N 771.155 2.71179 -3.75521 0
M  V30 8402 C 771.89 3.26332 -4.71482 0
M  V30 8403 N 771.386 3.82236 -5.77813 0
M  V30 8404 N 773.179 3.24507 -4.58968 0
M  V30 8405 H 765.33 0.263612 -2.10758 0
M  V30 8406 H 767.593 0.17944 -0.930863 0
M  V30 8407 H 767.299 1.23708 -3.29225 0
M  V30 8408 H 767.173 2.80736 -2.51926 0
M  V30 8409 H 769.56 2.49338 -1.57843 0
M  V30 8410 H 769.641 0.921272 -2.38634 0
M  V30 8411 H 769.285 2.08229 -4.63253 0
M  V30 8412 H 769.215 3.65234 -3.79357 0
M  V30 8413 H 771.706 2.31527 -2.9867 0
M  V30 8414 H 772.019 4.22499 -6.47082 0
M  V30 8415 H 770.364 3.80546 -5.81558 0
M  V30 8416 H 773.555 2.80085 -3.7506 0
M  V30 8417 H 773.728 3.67188 -5.33926 0
M  V30 8418 N 767.134 1.16236 1.06428 0
M  V30 8419 C 768.382 0.941171 1.78847 0
M  V30 8420 C 768.703 -0.53248 1.87589 0
M  V30 8421 O 767.973 -1.38686 1.38358 0
M  V30 8422 H 766.553 0.345228 0.66244 0
M  V30 8423 H 769.215 1.46479 1.28569 0
M  V30 8424 H 768.311 1.35871 2.80972 0
M  V30 8425 N 768.612 -1.24939 0.960631 0
M  V30 8426 C 770.028 -1.45039 0.666018 0
M  V30 8427 C 770.228 -1.86021 -0.774501 0
M  V30 8428 O 769.284 -1.99392 -1.54916 0
M  V30 8429 C 770.597 -2.51775 1.64408 0
M  V30 8430 C 772.145 -2.6561 1.65592 0
M  V30 8431 C 772.62 -3.75536 2.62177 0
M  V30 8432 N 774.111 -3.82954 2.60577 0
M  V30 8433 C 774.846 -4.67517 3.31987 0
M  V30 8434 N 774.342 -5.56321 4.1289 0
M  V30 8435 N 776.135 -4.61535 3.20845 0
M  V30 8436 H 768.286 -0.96632 1.89145 0
M  V30 8437 H 770.549 -0.486034 0.813926 0
M  V30 8438 H 770.255 -2.28534 2.67329 0
M  V30 8439 H 770.129 -3.49804 1.41128 0
M  V30 8440 H 772.516 -2.88212 0.633846 0
M  V30 8441 H 772.597 -1.67962 1.92931 0
M  V30 8442 H 772.241 -3.53684 3.64514 0
M  V30 8443 H 772.171 -4.72682 2.32119 0
M  V30 8444 H 774.662 -3.19478 2.01847 0
M  V30 8445 H 774.975 -6.17787 4.64283 0
M  V30 8446 H 773.32 -5.5601 4.16987 0
M  V30 8447 H 776.511 -3.91169 2.57108 0
M  V30 8448 H 776.684 -5.27214 3.76762 0
M  V30 8449 N 770.09 -0.729906 -1.39679 0
M  V30 8450 C 771.037 -0.0866063 -2.30637 0
M  V30 8451 C 772.007 0.735115 -1.48947 0
M  V30 8452 O 773.192 0.696125 -1.77648 0
M  V30 8453 C 770.332 0.818524 -3.35252 0
M  V30 8454 C 769.445 -0.0152635 -4.31997 0
M  V30 8455 C 768.58 0.890669 -5.2368 0
M  V30 8456 C 767.619 0.0518246 -6.12078 0
M  V30 8457 N 766.756 0.913411 -6.96133 0
M  V30 8458 H 771.596 -0.867925 -2.85081 0
M  V30 8459 H 769.133 -0.439673 -1.40376 0
M  V30 8460 H 771.091 1.3577 -3.9449 0
M  V30 8461 H 769.721 1.56587 -2.82277 0
M  V30 8462 H 768.773 -0.671794 -3.74421 0
M  V30 8463 H 770.085 -0.664086 -4.9436 0
M  V30 8464 H 769.239 1.49787 -5.87919 0
M  V30 8465 H 767.978 1.57328 -4.61627 0
M  V30 8466 H 766.983 -0.568209 -5.46856 0
M  V30 8467 H 768.208 -0.627497 -6.76195 0
M  V30 8468 H 766.154 1.58141 -6.36653 0
M  V30 8469 H 766.071 0.320952 -7.55318 0
M  V30 8470 H 767.339 1.50633 -7.64807 0
M  V30 8471 N 771.568 1.50203 -0.477153 0
M  V30 8472 C 772.793 2.07263 0.0754986 0
M  V30 8473 C 773.218 1.33801 1.32208 0
M  V30 8474 O 772.576 0.387482 1.77111 0
M  V30 8475 C 772.624 3.59028 0.336348 0
M  V30 8476 O 771.728 3.87339 1.4157 0
M  V30 8477 H 771.069 0.663815 -0.015662 0
M  V30 8478 H 773.599 1.93321 -0.669936 0
M  V30 8479 H 773.609 4.03927 0.575034 0
M  V30 8480 H 772.284 4.11912 -0.574551 0
M  V30 8481 H 770.861 3.54272 1.16385 0
M  V30 8482 N 773.046 0.209999 1.56195 0
M  V30 8483 C 774.271 -0.433064 2.02828 0
M  V30 8484 C 774.696 -1.5337 1.08901 0
M  V30 8485 O 774.054 -1.81144 0.0751132 0
M  V30 8486 C 774.102 -0.952635 3.47789 0
M  V30 8487 O 773.206 -2.0647 3.56993 0
M  V30 8488 H 772.547 -0.0994594 0.656509 0
M  V30 8489 H 775.077 0.32525 2.01998 0
M  V30 8490 H 775.087 -1.26542 3.8788 0
M  V30 8491 H 773.762 -0.147007 4.1564 0
M  V30 8492 H 772.339 -1.75942 3.28784 0
M  V30 8493 N 774.524 -1.57472 -0.0634922 0
M  V30 8494 C 775.772 -1.87283 -0.759563 0
M  V30 8495 C 776.093 -0.803135 -1.77693 0
M  V30 8496 O 775.363 0.167293 -1.95184 0
M  V30 8497 H 773.943 -0.691106 -0.283516 0
M  V30 8498 H 776.605 -1.94864 -0.0376091 0
M  V30 8499 H 775.701 -2.85064 -1.27062 0
M  V30 8500 N 776.003 0.335068 -1.53997 0
M  V30 8501 C 777.25 1.07435 -1.71651 0
M  V30 8502 C 777.578 1.88378 -0.48413 0
M  V30 8503 O 776.833 1.8827 0.534139 0
M  V30 8504 C 777.132 2.0364 -2.9371 0
M  V30 8505 C 776.798 1.38942 -4.28959 0
M  V30 8506 C 775.46 1.21027 -4.65732 0
M  V30 8507 C 777.812 0.924083 -5.12943 0
M  V30 8508 C 775.14 0.552097 -5.84097 0
M  V30 8509 C 777.492 0.27978 -6.31981 0
M  V30 8510 C 776.156 0.0883843 -6.67441 0
M  V30 8511 H 775.426 0.393133 -0.628114 0
M  V30 8512 H 778.073 0.352712 -1.88224 0
M  V30 8513 H 776.378 2.82215 -2.71775 0
M  V30 8514 H 778.075 2.6085 -3.04562 0
M  V30 8515 H 774.665 1.53885 -4.00022 0
M  V30 8516 H 778.849 1.05032 -4.85059 0
M  V30 8517 H 774.105 0.392502 -6.10139 0
M  V30 8518 H 778.279 -0.0888479 -6.96343 0
M  V30 8519 H 775.906 -0.423657 -7.59019 0
M  V30 8520 N 777.481 1.45874 0.596531 0
M  V30 8521 C 778.892 1.44798 1.17857 0
M  V30 8522 C 779.243 0.181443 1.95359 0
M  V30 8523 O 778.368 -0.716336 2.042 0
M  V30 8524 C 778.963 2.62333 2.14398 0
M  V30 8525 C 777.522 2.64342 2.67955 0
M  V30 8526 C 776.669 2.37244 1.43564 0
M  V30 8527 H 779.62 1.53954 0.385222 0
M  V30 8528 H 779.641 2.37063 2.97626 0
M  V30 8529 H 779.153 3.54499 1.57963 0
M  V30 8530 H 777.254 1.76213 3.28298 0
M  V30 8531 H 777.367 3.63897 3.11634 0
M  V30 8532 H 775.731 1.87022 1.72901 0
M  V30 8533 H 776.514 3.31568 0.889805 0
M  V30 8534 N 778.959 -0.83999 1.33349 0
M  V30 8535 C 779.906 -1.94972 1.23509 0
M  V30 8536 C 780.876 -1.65709 0.113967 0
M  V30 8537 O 782.061 -1.88552 0.292045 0
M  V30 8538 C 779.201 -3.30919 0.979105 0
M  V30 8539 C 778.314 -3.72587 2.18639 0
M  V30 8540 C 777.449 -4.97397 1.86465 0
M  V30 8541 C 776.488 -5.31597 3.03432 0
M  V30 8542 N 775.625 -6.47584 2.71254 0
M  V30 8543 H 780.465 -2.0272 2.18423 0
M  V30 8544 H 778.002 -0.992017 1.08616 0
M  V30 8545 H 779.96 -4.09239 0.811126 0
M  V30 8546 H 778.59 -3.22731 0.0667099 0
M  V30 8547 H 777.642 -2.89799 2.46416 0
M  V30 8548 H 778.954 -3.93844 3.06086 0
M  V30 8549 H 778.108 -5.83462 1.66305 0
M  V30 8550 H 776.847 -4.78107 0.96254 0
M  V30 8551 H 775.852 -4.44037 3.24208 0
M  V30 8552 H 777.077 -5.52836 3.94397 0
M  V30 8553 H 775.023 -6.29783 1.836 0
M  V30 8554 H 774.94 -6.68931 3.52231 0
M  V30 8555 H 776.208 -7.36764 2.54558 0
M  V30 8556 N 780.437 -1.16799 -1.0581 0
M  V30 8557 C 781.662 -0.977402 -1.82925 0
M  V30 8558 C 782.087 0.469514 -1.82146 0
M  V30 8559 O 781.445 1.33576 -1.22585 0
M  V30 8560 C 781.493 -1.51543 -3.27211 0
M  V30 8561 O 780.597 -0.725021 -4.05977 0
M  V30 8562 H 779.938 -0.347474 -0.565825 0
M  V30 8563 H 782.468 -1.55151 -1.33376 0
M  V30 8564 H 782.478 -1.53502 -3.78023 0
M  V30 8565 H 781.153 -2.56872 -3.27093 0
M  V30 8566 H 779.73 -0.77634 -3.64729 0
M  V30 8567 N 781.915 1.24427 -0.967243 0
M  V30 8568 C 783.161 1.92772 -0.629812 0
M  V30 8569 C 783.494 1.75436 0.832827 0
M  V30 8570 O 782.769 1.10716 1.59913 0
M  V30 8571 C 783.052 3.45798 -1.00477 0
M  V30 8572 C 782.905 3.72304 -2.52407 0
M  V30 8573 C 784.224 4.36787 -0.538999 0
M  V30 8574 H 781.343 0.700099 -0.230282 0
M  V30 8575 H 783.985 1.46805 -1.20616 0
M  V30 8576 H 782.135 3.8508 -0.514336 0
M  V30 8577 H 783.807 3.42584 -3.08924 0
M  V30 8578 H 782.05 3.17472 -2.95625 0
M  V30 8579 H 782.721 4.7937 -2.73693 0
M  V30 8580 H 785.197 4.04877 -0.959874 0
M  V30 8581 H 784.073 5.4259 -0.829926 0
M  V30 8582 H 784.334 4.38527 0.560923 0
M  V30 8583 N 783.393 0.737304 1.3929 0
M  V30 8584 C 784.34 0.0988364 2.30588 0
M  V30 8585 C 785.31 -0.727206 1.49335 0
M  V30 8586 O 786.495 -0.686694 1.78014 0
M  V30 8587 C 783.635 -0.800734 3.35682 0
M  V30 8588 C 782.748 0.0381731 4.31983 0
M  V30 8589 C 781.883 -0.862884 5.24145 0
M  V30 8590 C 780.922 -0.0193639 6.12097 0
M  V30 8591 N 780.059 -0.87648 6.96608 0
M  V30 8592 H 784.899 0.883031 2.84617 0
M  V30 8593 H 782.436 0.447111 1.4014 0
M  V30 8594 H 784.394 -1.33676 3.95205 0
M  V30 8595 H 783.024 -1.55088 2.83103 0
M  V30 8596 H 782.076 0.691641 3.74059 0
M  V30 8597 H 783.388 0.690294 4.94 0
M  V30 8598 H 782.542 -1.46667 5.88705 0
M  V30 8599 H 781.281 -1.54878 4.62454 0
M  V30 8600 H 780.286 0.597202 5.46547 0
M  V30 8601 H 781.511 0.663348 6.75852 0
M  V30 8602 H 779.457 -1.54762 6.37483 0
M  V30 8603 H 779.374 -0.280892 7.55478 0
M  V30 8604 H 780.642 -1.46575 7.65595 0
M  V30 8605 N 784.871 -1.49948 0.485112 0
M  V30 8606 C 786.096 -2.073 -0.0645059 0
M  V30 8607 C 786.521 -1.345 -1.31497 0
M  V30 8608 O 785.879 -0.39687 -1.76903 0
M  V30 8609 C 785.927 -3.59201 -0.317304 0
M  V30 8610 O 785.031 -3.88085 -1.39514 0
M  V30 8611 H 784.372 -0.663723 0.0191822 0
M  V30 8612 H 786.902 -1.92963 0.680179 0
M  V30 8613 H 786.912 -4.04227 -0.553604 0
M  V30 8614 H 785.587 -4.11602 0.596387 0
M  V30 8615 H 784.164 -3.54885 -1.14504 0
M  V30 8616 N 786.349 -0.21828 -1.56081 0
M  V30 8617 C 787.765 0.137168 -1.59009 0
M  V30 8618 C 787.965 1.59215 -1.23503 0
M  V30 8619 O 787.021 2.33178 -0.968716 0
M  V30 8620 C 788.334 -0.186162 -3.00123 0
M  V30 8621 C 789.882 -0.128135 -3.12738 0
M  V30 8622 C 790.357 -0.425094 -4.56023 0
M  V30 8623 N 791.848 -0.374547 -4.61683 0
M  V30 8624 C 792.583 -0.57786 -5.70481 0
M  V30 8625 N 792.079 -0.842771 -6.87655 0
M  V30 8626 N 793.872 -0.510521 -5.59777 0
M  V30 8627 H 786.023 -1.16746 -1.77437 0
M  V30 8628 H 788.286 -0.467706 -0.824594 0
M  V30 8629 H 787.992 -1.19589 -3.30744 0
M  V30 8630 H 787.866 0.500388 -3.73866 0
M  V30 8631 H 790.253 0.872224 -2.81915 0
M  V30 8632 H 790.334 -0.848112 -2.41331 0
M  V30 8633 H 789.978 -1.42288 -4.87562 0
M  V30 8634 H 789.908 0.316038 -5.25651 0
M  V30 8635 H 792.399 -0.177356 -3.77484 0
M  V30 8636 H 792.712 -0.986095 -7.66483 0
M  V30 8637 H 791.057 -0.879929 -6.89407 0
M  V30 8638 H 794.248 -0.303813 -4.67113 0
M  V30 8639 H 794.421 -0.672378 -6.44502 0
M  V30 8640 N 787.827 1.57504 0.0551401 0
M  V30 8641 C 788.737 2.08198 1.08124 0
M  V30 8642 C 789.753 1.01496 1.41331 0
M  V30 8643 O 790.929 1.33073 1.51174 0
M  V30 8644 C 787.994 2.52968 2.37083 0
M  V30 8645 C 787.055 3.7404 2.10696 0
M  V30 8646 C 786.288 4.16665 3.33505 0
M  V30 8647 O 786.511 3.59019 4.4324 0
M  V30 8648 O 785.445 5.09324 3.20737 0
M  V30 8649 H 789.271 2.95977 0.680518 0
M  V30 8650 H 786.856 1.46933 0.270401 0
M  V30 8651 H 788.738 2.82211 3.12946 0
M  V30 8652 H 787.413 1.6831 2.76502 0
M  V30 8653 H 786.32 3.49855 1.32484 0
M  V30 8654 H 787.653 4.59601 1.76148 0
M  V30 8655 N 789.305 -0.326896 1.54172 0
M  V30 8656 C 790.237 -1.42319 1.79661 0
M  V30 8657 C 791.25 -1.47989 0.678456 0
M  V30 8658 O 792.439 -1.50773 0.955503 0
M  V30 8659 C 789.539 -2.80876 1.89636 0
M  V30 8660 C 788.712 -2.98449 3.19761 0
M  V30 8661 C 787.771 -4.17347 3.2048 0
M  V30 8662 O 786.797 -4.10667 3.94134 0
M  V30 8663 N 787.999 -5.26717 2.44027 0
M  V30 8664 H 790.764 -1.20819 2.74268 0
M  V30 8665 H 788.325 -0.516866 1.53428 0
M  V30 8666 H 790.317 -3.58619 1.87549 0
M  V30 8667 H 788.887 -2.95442 1.02141 0
M  V30 8668 H 788.107 -2.08035 3.34836 0
M  V30 8669 H 789.395 -3.07083 4.05681 0
M  V30 8670 H 788.793 -5.35019 1.8377 0
M  V30 8671 H 787.35 -6.02891 2.47721 0
M  V30 8672 N 790.784 -1.46188 -0.588786 0
M  V30 8673 C 791.714 -1.59148 -1.70863 0
M  V30 8674 C 792.695 -0.442083 -1.64255 0
M  V30 8675 O 793.88 -0.667575 -1.82365 0
M  V30 8676 C 791.01 -1.5757 -3.09498 0
M  V30 8677 C 789.964 -2.71418 -3.30932 0
M  V30 8678 C 789.29 -2.549 -4.70032 0
M  V30 8679 C 790.59 -4.1329 -3.19356 0
M  V30 8680 H 792.284 -2.52889 -1.60274 0
M  V30 8681 H 789.83 -1.21707 -0.769638 0
M  V30 8682 H 791.783 -1.65231 -3.87655 0
M  V30 8683 H 790.507 -0.603705 -3.20972 0
M  V30 8684 H 789.166 -2.63216 -2.55172 0
M  V30 8685 H 788.814 -1.55797 -4.78264 0
M  V30 8686 H 788.514 -3.31257 -4.85327 0
M  V30 8687 H 790.038 -2.64443 -5.50366 0
M  V30 8688 H 791.452 -4.22636 -3.87365 0
M  V30 8689 H 789.849 -4.90187 -3.46175 0
M  V30 8690 H 790.919 -4.33874 -2.16522 0
M  V30 8691 N 792.262 0.832906 -1.33792 0
M  V30 8692 C 793.487 1.62568 -1.28788 0
M  V30 8693 C 793.912 1.87599 0.137246 0
M  V30 8694 O 793.27 1.44436 1.0958 0
M  V30 8695 C 793.318 2.9495 -2.07453 0
M  V30 8696 O 792.422 3.86546 -1.43722 0
M  V30 8697 H 791.763 0.494809 -0.442787 0
M  V30 8698 H 794.293 1.03578 -1.76445 0
M  V30 8699 H 794.303 3.44599 -2.1844 0
M  V30 8700 H 792.978 2.76055 -3.11073 0
M  V30 8701 H 791.555 3.45044 -1.41417 0
M  V30 8702 N 793.74 1.17359 1.05189 0
M  V30 8703 C 794.65 0.904984 2.16442 0
M  V30 8704 C 795.666 -0.12686 1.73537 0
M  V30 8705 O 796.842 0.0524127 2.01332 0
M  V30 8706 C 793.907 0.422019 3.44122 0
M  V30 8707 C 792.968 1.52045 4.01473 0
M  V30 8708 C 792.201 1.06044 5.23059 0
M  V30 8709 O 792.424 -0.0854023 5.70336 0
M  V30 8710 O 791.358 1.85349 5.72651 0
M  V30 8711 H 795.184 1.8356 2.41949 0
M  V30 8712 H 792.769 0.95447 1.14936 0
M  V30 8713 H 794.651 0.160208 4.21095 0
M  V30 8714 H 793.326 -0.480444 3.20115 0
M  V30 8715 H 792.233 1.83615 3.25939 0
M  V30 8716 H 793.566 2.39863 4.29798 0
M  V30 8717 N 795.218 -1.23913 0.973828 0
M  V30 8718 C 796.448 -1.95911 0.655938 0
M  V30 8719 C 796.856 -1.72375 -0.779967 0
M  V30 8720 O 796.199 -1.00807 -1.5357 0
M  V30 8721 C 796.261 -3.49103 0.858324 0
M  V30 8722 C 795.925 -3.96347 2.27504 0
M  V30 8723 C 796.922 -4.05537 3.25324 0
M  V30 8724 C 794.607 -4.29509 2.60437 0
M  V30 8725 C 796.601 -4.47233 4.5416 0
M  V30 8726 C 794.288 -4.70887 3.89498 0
M  V30 8727 C 795.286 -4.79714 4.86172 0
M  V30 8728 O 794.974 -5.20166 6.1293 0
M  V30 8729 H 794.706 -0.630721 0.243244 0
M  V30 8730 H 797.26 -1.58534 1.30599 0
M  V30 8731 H 795.49 -3.86405 0.151097 0
M  V30 8732 H 797.179 -4.02311 0.538592 0
M  V30 8733 H 797.945 -3.80128 3.0121 0
M  V30 8734 H 793.824 -4.21853 1.85906 0
M  V30 8735 H 797.368 -4.54038 5.29618 0
M  V30 8736 H 793.265 -4.95744 4.1341 0
M  V30 8737 H 794.033 -5.38298 6.16586 0
M  V30 8738 N 796.696 -0.74468 -1.38897 0
M  V30 8739 C 797.626 -0.126355 -2.33158 0
M  V30 8740 C 798.607 0.713517 -1.54412 0
M  V30 8741 O 799.792 0.656523 -1.82766 0
M  V30 8742 C 796.922 0.774375 -3.38557 0
M  V30 8743 C 795.876 0.0379214 -4.27983 0
M  V30 8744 C 795.202 1.05631 -5.24162 0
M  V30 8745 C 796.502 -1.12523 -5.10035 0
M  V30 8746 H 798.196 -0.913744 -2.85116 0
M  V30 8747 H 795.742 -0.440847 -1.37086 0
M  V30 8748 H 797.695 1.21655 -4.03458 0
M  V30 8749 H 796.419 1.59399 -2.85061 0
M  V30 8750 H 795.078 -0.384733 -3.64576 0
M  V30 8751 H 794.726 1.86975 -4.66958 0
M  V30 8752 H 794.426 0.568261 -5.84846 0
M  V30 8753 H 795.95 1.49799 -5.9194 0
M  V30 8754 H 797.364 -0.761037 -5.68226 0
M  V30 8755 H 795.761 -1.54355 -5.79909 0
M  V30 8756 H 796.831 -1.94237 -4.44297 0
M  V30 8757 N 798.174 1.49689 -0.493057 0
M  V30 8758 C 799.402 2.06836 0.0513141 0
M  V30 8759 C 799.817 1.35436 1.31539 0
M  V30 8760 O 799.174 0.430248 1.77356 0
M  V30 8761 C 799.225 3.60107 0.317003 0
M  V30 8762 O 798.946 4.2882 -0.896957 0
M  V30 8763 C 800.447 4.33945 0.905902 0
M  V30 8764 H 797.667 0.670787 -0.0169048 0
M  V30 8765 H 800.211 1.92574 -0.688139 0
M  V30 8766 H 798.366 3.74099 1.00642 0
M  V30 8767 H 798.78 5.20395 -0.654939 0
M  V30 8768 H 800.254 5.42087 1.04144 0
M  V30 8769 H 800.731 3.95895 1.90168 0
M  V30 8770 H 801.337 4.2454 0.254195 0
M  V30 8771 N 799.652 0.226554 1.55963 0
M  V30 8772 C 800.898 -0.404387 1.98727 0
M  V30 8773 C 801.231 -1.59059 1.11418 0
M  V30 8774 O 800.506 -1.93729 0.172971 0
M  V30 8775 C 800.789 -0.834081 3.50307 0
M  V30 8776 C 800.642 0.356104 4.48388 0
M  V30 8777 C 801.961 -1.68845 4.06423 0
M  V30 8778 H 799.08 -0.145515 0.722492 0
M  V30 8779 H 801.722 0.323791 1.87221 0
M  V30 8780 H 799.872 -1.45454 3.60244 0
M  V30 8781 H 801.544 0.99432 4.50456 0
M  V30 8782 H 799.787 1.0027 4.22053 0
M  V30 8783 H 800.458 0.0124333 5.51999 0
M  V30 8784 H 802.934 -1.16489 3.99461 0
M  V30 8785 H 801.81 -1.958 5.1279 0
M  V30 8786 H 802.071 -2.65347 3.53615 0
M  V30 8787 N 801.13 -1.57531 -0.0467866 0
M  V30 8788 C 802.376 -1.8873 -0.742218 0
M  V30 8789 C 802.709 -0.822084 -1.75941 0
M  V30 8790 O 801.984 0.164922 -1.938 0
M  V30 8791 C 802.267 -3.30586 -1.42776 0
M  V30 8792 C 802.12 -4.47785 -0.425285 0
M  V30 8793 C 803.439 -3.71068 -2.36636 0
M  V30 8794 H 800.558 -0.686406 -0.268359 0
M  V30 8795 H 803.2 -1.89999 -0.00511341 0
M  V30 8796 H 801.35 -3.29634 -2.05605 0
M  V30 8797 H 803.022 -4.60867 0.199721 0
M  V30 8798 H 801.265 -4.33037 0.25713 0
M  V30 8799 H 801.936 -5.43884 -0.943086 0
M  V30 8800 H 804.412 -3.73273 -1.83866 0
M  V30 8801 H 803.288 -4.71165 -2.81593 0
M  V30 8802 H 803.549 -3.02355 -3.22542 0
M  V30 8803 N 802.608 0.318715 -1.54344 0
M  V30 8804 C 803.857 1.05363 -1.71993 0
M  V30 8805 C 804.17 1.89018 -0.503155 0
M  V30 8806 O 805.376 2.65639 -0.561085 0
M  V30 8807 C 803.832 1.92281 -3.0423 0
M  V30 8808 C 803.44 1.13715 -4.33328 0
M  V30 8809 C 805.184 2.65479 -3.31242 0
M  V30 8810 C 803.091 1.99806 -5.56625 0
M  V30 8811 H 802.021 0.397081 -0.64097 0
M  V30 8812 H 804.672 0.311598 -1.80835 0
M  V30 8813 H 803.054 2.70402 -2.89307 0
M  V30 8814 H 804.228 0.403305 -4.59032 0
M  V30 8815 H 802.543 0.521769 -4.13118 0
M  V30 8816 H 805.14 3.30209 -4.20555 0
M  V30 8817 H 805.483 3.33374 -2.49334 0
M  V30 8818 H 806.016 1.94417 -3.47054 0
M  V30 8819 H 802.755 1.36411 -6.41149 0
M  V30 8820 H 802.275 2.70911 -5.35133 0
M  V30 8821 H 803.954 2.58277 -5.93213 0
M  V30 8822 N 804.086 1.46499 0.581025 0
M  V30 8823 C 805.333 1.51896 1.33918 0
M  V30 8824 C 805.661 0.171361 1.93744 0
M  V30 8825 O 804.916 -0.833178 1.77078 0
M  V30 8826 C 805.215 2.56686 2.48691 0
M  V30 8827 C 804.881 4.00656 2.06847 0
M  V30 8828 C 803.543 4.39852 1.9515 0
M  V30 8829 C 805.895 4.91089 1.74589 0
M  V30 8830 C 803.223 5.67345 1.49456 0
M  V30 8831 C 805.575 6.1902 1.30373 0
M  V30 8832 C 804.239 6.57121 1.17255 0
M  V30 8833 H 803.509 0.555826 0.490039 0
M  V30 8834 H 806.156 1.79983 0.654092 0
M  V30 8835 H 804.461 2.22266 3.22653 0
M  V30 8836 H 806.158 2.58091 3.06904 0
M  V30 8837 H 802.748 3.69674 2.16886 0
M  V30 8838 H 806.932 4.61523 1.8251 0
M  V30 8839 H 802.188 5.95635 1.37944 0
M  V30 8840 H 806.362 6.8852 1.04467 0
M  V30 8841 H 803.989 7.55805 0.816236 0
M  V30 8842 N 805.565 -0.825799 1.34232 0
M  V30 8843 C 806.793 -1.61363 1.29497 0
M  V30 8844 C 807.208 -1.88341 -0.131536 0
M  V30 8845 O 806.565 -1.47279 -1.07773 0
M  V30 8846 C 806.616 -2.95623 2.08061 0
M  V30 8847 O 806.337 -2.69824 3.45147 0
M  V30 8848 C 807.838 -3.90032 2.10688 0
M  V30 8849 H 805.058 -0.501676 0.445603 0
M  V30 8850 H 807.602 -1.02767 1.76803 0
M  V30 8851 H 805.757 -3.50785 1.64404 0
M  V30 8852 H 806.171 -3.55412 3.85723 0
M  V30 8853 H 807.645 -4.81411 2.70087 0
M  V30 8854 H 808.122 -4.25188 1.10052 0
M  V30 8855 H 808.728 -3.40807 2.54422 0
M  V30 8856 N 807.043 -1.17915 -1.04565 0
M  V30 8857 C 808.006 -0.903787 -2.10628 0
M  V30 8858 C 809.006 0.10873 -1.60432 0
M  V30 8859 O 810.196 -0.124152 -1.73757 0
M  V30 8860 C 807.328 -0.355017 -3.39046 0
M  V30 8861 H 808.521 -1.84425 -2.3649 0
M  V30 8862 H 806.074 -0.990477 -1.2091 0
M  V30 8863 H 806.809 0.592297 -3.18845 0
M  V30 8864 H 806.594 -1.08484 -3.76794 0
M  V30 8865 H 808.084 -0.180891 -4.17208 0
M  V30 8866 N 808.521 1.23394 -0.980386 0
M  V30 8867 C 809.746 1.96384 -0.666935 0
M  V30 8868 C 810.171 1.72087 0.759456 0
M  V30 8869 O 809.529 0.992328 1.51732 0
M  V30 8870 C 809.577 3.47499 -0.963177 0
M  V30 8871 O 808.681 4.12363 -0.0552051 0
M  V30 8872 H 808.022 0.614797 -0.250839 0
M  V30 8873 H 810.552 1.56831 -1.31398 0
M  V30 8874 H 810.562 3.97953 -0.899877 0
M  V30 8875 H 809.237 3.6451 -2.00264 0
M  V30 8876 H 807.814 3.72499 -0.172914 0
M  V30 8877 N 809.999 0.752036 1.385 0
M  V30 8878 C 810.962 0.131587 2.28822 0
M  V30 8879 C 811.962 -0.649149 1.47115 0
M  V30 8880 O 813.152 -0.475645 1.67581 0
M  V30 8881 C 810.284 -0.822101 3.30839 0
M  V30 8882 H 811.477 0.927551 2.85196 0
M  V30 8883 H 809.03 0.518945 1.47434 0
M  V30 8884 H 809.765 -1.6438 2.79553 0
M  V30 8885 H 809.55 -0.264689 3.91206 0
M  V30 8886 H 811.04 -1.25226 3.98382 0
M  V30 8887 N 811.477 -1.49425 0.500989 0
M  V30 8888 C 812.409 -2.27037 -0.314159 0
M  V30 8889 C 813.422 -1.33578 -0.930626 0
M  V30 8890 O 814.611 -1.58861 -0.813968 0
M  V30 8891 C 811.711 -3.05968 -1.45729 0
M  V30 8892 C 810.884 -4.27 -0.948135 0
M  V30 8893 C 809.943 -4.87977 -1.96888 0
M  V30 8894 O 808.969 -5.48044 -1.53743 0
M  V30 8895 N 810.171 -4.77627 -3.29928 0
M  V30 8896 H 812.936 -2.97634 0.351336 0
M  V30 8897 H 810.497 -1.58427 0.333536 0
M  V30 8898 H 812.489 -3.43634 -2.1377 0
M  V30 8899 H 811.059 -2.37978 -2.02695 0
M  V30 8900 H 810.279 -3.94091 -0.0926311 0
M  V30 8901 H 811.567 -5.0541 -0.586362 0
M  V30 8902 H 810.965 -4.29926 -3.67669 0
M  V30 8903 H 809.522 -5.19478 -3.93682 0
M  V30 8904 N 812.955 -0.234822 -1.55841 0
M  V30 8905 C 813.905 0.68346 -2.17515 0
M  V30 8906 C 814.889 1.14798 -1.1274 0
M  V30 8907 O 816.081 1.09976 -1.38688 0
M  V30 8908 C 813.21 1.88551 -2.86886 0
M  V30 8909 C 812.296 1.44006 -3.98903 0
M  V30 8910 N 812.687 0.708034 -5.0082 0
M  V30 8911 C 810.985 1.7263 -4.11236 0
M  V30 8912 C 811.686 0.479036 -5.79724 0
M  V30 8913 N 810.662 1.03968 -5.33565 0
M  V30 8914 H 814.464 0.115897 -2.93671 0
M  V30 8915 H 811.978 -0.0366273 -1.62359 0
M  V30 8916 H 813.975 2.55425 -3.2949 0
M  V30 8917 H 812.635 2.45742 -2.12229 0
M  V30 8918 H 813.646 0.359363 -5.16652 0
M  V30 8919 H 810.323 2.31046 -3.47741 0
M  V30 8920 H 811.713 -0.104514 -6.71819 0
M  V30 8921 N 814.433 1.57553 0.0384317 0
M  V30 8922 C 815.396 2.04927 1.02653 0
M  V30 8923 C 816.396 0.951768 1.29607 0
M  V30 8924 O 817.586 1.21568 1.24768 0
M  V30 8925 C 814.718 2.45828 2.36181 0
M  V30 8926 H 815.911 2.93474 0.617508 0
M  V30 8927 H 813.464 1.53679 0.285031 0
M  V30 8928 H 814.199 1.60408 2.8185 0
M  V30 8929 H 813.984 3.25945 2.1795 0
M  V30 8930 H 815.474 2.82939 3.0714 0
M  V30 8931 N 815.911 -0.310526 1.54511 0
M  V30 8932 C 816.874 -1.3657 1.84068 0
M  V30 8933 C 817.874 -1.44123 0.713097 0
M  V30 8934 O 819.064 -1.43924 0.981399 0
M  V30 8935 C 816.196 -2.75162 2.01243 0
M  V30 8936 H 817.389 -1.1161 2.78358 0
M  V30 8937 H 814.942 -0.546699 1.46427 0
M  V30 8938 H 815.677 -3.05359 1.09208 0
M  V30 8939 H 815.462 -2.71071 2.83307 0
M  V30 8940 H 816.952 -3.51473 2.25514 0
M  V30 8941 N 817.389 -1.46805 -0.573248 0
M  V30 8942 C 818.635 -1.5283 -1.33307 0
M  V30 8943 C 818.968 -0.183287 -1.93333 0
M  V30 8944 O 818.243 0.806354 -1.76998 0
M  V30 8945 C 818.526 -2.63414 -2.45531 0
M  V30 8946 C 818.379 -4.07478 -1.90478 0
M  V30 8947 C 819.698 -2.70014 -3.47535 0
M  V30 8948 H 816.817 -0.556371 -0.483343 0
M  V30 8949 H 819.459 -1.78787 -0.643066 0
M  V30 8950 H 817.609 -2.41412 -3.04389 0
M  V30 8951 H 819.281 -4.40795 -1.36004 0
M  V30 8952 H 817.524 -4.16511 -1.21248 0
M  V30 8953 H 818.195 -4.80598 -2.71531 0
M  V30 8954 H 820.671 -2.89817 -2.98572 0
M  V30 8955 H 819.547 -3.49192 -4.23504 0
M  V30 8956 H 819.808 -1.76436 -4.05367 0
M  V30 8957 N 818.867 0.818669 -1.34668 0
M  V30 8958 C 819.815 1.95123 -1.26609 0
M  V30 8959 C 820.809 1.68611 -0.163348 0
M  V30 8960 O 822.015 1.76975 -0.328586 0
M  V30 8961 H 818.39 0.640871 -0.393431 0
M  V30 8962 H 820.361 1.99043 -2.22316 0
M  V30 8963 C 819.11 3.31697 -1.04272 0
M  V30 8964 H 818.433 3.52648 -1.8836 0
M  V30 8965 H 819.873 4.11382 -1.0267 0
M  V30 8966 C 818.332 3.35942 0.253858 0
M  V30 8967 O 818.862 3.81632 1.25378 0
M  V30 8968 N 817.068 2.89165 0.288447 0
M  V30 8969 H 816.615 2.52176 -0.525845 0
M  V30 8970 H 816.573 2.92387 1.15572 0
M  V30 8971 N 820.346 1.18468 1.03938 0
M  V30 8972 C 821.593 0.980833 1.77161 0
M  V30 8973 C 821.921 -0.489425 1.88242 0
M  V30 8974 O 821.176 -1.37961 1.388 0
M  V30 8975 C 821.475 1.58229 3.20466 0
M  V30 8976 C 821.141 3.07889 3.29416 0
M  V30 8977 C 819.803 3.48737 3.31566 0
M  V30 8978 C 822.155 4.03903 3.29411 0
M  V30 8979 C 819.483 4.84171 3.31355 0
M  V30 8980 C 821.835 5.39253 3.3074 0
M  V30 8981 C 820.499 5.79547 3.31182 0
M  V30 8982 H 819.769 0.358912 0.648277 0
M  V30 8983 H 822.416 1.47552 1.22069 0
M  V30 8984 H 820.721 1.00964 3.78568 0
M  V30 8985 H 822.418 1.39998 3.75768 0
M  V30 8986 H 819.008 2.75335 3.28464 0
M  V30 8987 H 823.192 3.73395 3.2694 0
M  V30 8988 H 818.448 5.14685 3.30015 0
M  V30 8989 H 822.622 6.13417 3.29686 0
M  V30 8990 H 820.249 6.84466 3.30772 0
M  V30 8991 N 821.824 -1.22873 0.986916 0
M  V30 8992 C 823.072 -1.91084 0.658121 0
M  V30 8993 C 823.393 -1.77304 -0.811675 0
M  V30 8994 O 822.663 -1.15649 -1.58121 0
M  V30 8995 H 821.243 -0.707251 0.240427 0
M  V30 8996 H 823.905 -1.49357 1.25213 0
M  V30 8997 H 823.001 -2.98373 0.915428 0
M  V30 8998 N 823.302 -0.75937 -1.38099 0
M  V30 8999 C 824.234 -0.0956547 -2.29 0
M  V30 9000 C 825.247 0.677561 -1.4803 0
M  V30 9001 O 826.436 0.517696 -1.70828 0
M  V30 9002 C 823.536 0.88844 -3.27047 0
M  V30 9003 C 822.709 0.171652 -4.37063 0
M  V30 9004 C 821.768 1.06733 -5.15262 0
M  V30 9005 O 820.794 0.535698 -5.66674 0
M  V30 9006 N 821.996 2.39486 -5.28797 0
M  V30 9007 H 824.761 -0.876354 -2.86601 0
M  V30 9008 H 822.322 -0.61065 -1.49942 0
M  V30 9009 H 824.314 1.49079 -3.76241 0
M  V30 9010 H 822.884 1.57018 -2.70304 0
M  V30 9011 H 822.104 -0.611473 -3.89429 0
M  V30 9012 H 823.392 -0.324121 -5.07767 0
M  V30 9013 H 822.79 2.85127 -4.88589 0
M  V30 9014 H 821.347 2.94758 -5.81344 0
M  V30 9015 N 824.78 1.49157 -0.508906 0
M  V30 9016 C 826.01 2.06579 0.0293308 0
M  V30 9017 C 826.418 1.36852 1.30645 0
M  V30 9018 O 825.761 0.443079 1.78276 0
M  V30 9019 C 825.823 3.57838 0.345296 0
M  V30 9020 C 825.487 4.49302 -0.835256 0
M  V30 9021 C 826.484 4.90345 -1.72793 0
M  V30 9022 C 824.169 4.91494 -1.0363 0
M  V30 9023 C 826.163 5.72327 -2.80573 0
M  V30 9024 C 823.85 5.7325 -2.11726 0
M  V30 9025 C 824.848 6.13572 -3.00032 0
M  V30 9026 O 824.536 6.93691 -4.06261 0
M  V30 9027 H 824.268 0.675679 -0.0208193 0
M  V30 9028 H 826.822 1.9282 -0.707789 0
M  V30 9029 H 825.052 3.69634 1.13612 0
M  V30 9030 H 826.741 3.97467 0.823089 0
M  V30 9031 H 827.507 4.58388 -1.58446 0
M  V30 9032 H 823.386 4.59605 -0.358308 0
M  V30 9033 H 826.93 6.03719 -3.49527 0
M  V30 9034 H 822.827 6.0462 -2.26065 0
M  V30 9035 H 823.595 7.12011 -4.03711 0
M  V30 9036 N 826.258 0.243083 1.55714 0
M  V30 9037 C 827.535 -0.432851 1.90751 0
M  V30 9038 C 827.915 -1.76153 1.16333 0
M  V30 9039 O 827.263 -2.26783 0.279565 0
M  V30 9040 C 827.473 -0.604685 3.43722 0
M  V30 9041 C 828.821 -0.90231 4.14902 0
M  V30 9042 O 829.845 -0.690689 3.49439 0
M  V30 9043 O 828.704 -1.3051 5.30688 0
M  V30 9044 H 825.798 -0.231835 0.79384 0
M  V30 9045 H 828.344 0.286867 1.67258 0
M  V30 9046 H 827.116 0.331655 3.89892 0
M  V30 9047 H 826.739 -1.37509 3.73065 0
M  V30 9048 N 827.736 -1.57571 -0.0300757 0
M  V30 9049 C 828.982 -1.90355 -0.716687 0
M  V30 9050 C 829.337 -0.841568 -1.73018 0
M  V30 9051 O 828.63 0.149847 -1.91013 0
M  V30 9052 C 828.824 -3.27624 -1.42818 0
M  V30 9053 C 828.653 -4.47076 -0.485111 0
M  V30 9054 C 827.423 -5.05188 -0.106533 0
M  V30 9055 C 829.621 -5.13758 0.236059 0
M  V30 9056 N 827.603 -6.08155 0.837899 0
M  V30 9057 C 828.974 -6.1128 1.03619 0
M  V30 9058 C 831.029 -4.96977 0.30311 0
M  V30 9059 C 829.732 -6.93829 1.89721 0
M  V30 9060 C 831.758 -5.80086 1.15125 0
M  V30 9061 C 831.12 -6.77178 1.9393 0
M  V30 9062 H 827.219 -0.745417 -0.236384 0
M  V30 9063 H 829.803 -1.94686 0.0231985 0
M  V30 9064 H 827.974 -3.24224 -2.13854 0
M  V30 9065 H 829.706 -3.47927 -2.0671 0
M  V30 9066 H 826.461 -4.71277 -0.468498 0
M  V30 9067 H 826.885 -6.64311 1.30459 0
M  V30 9068 H 831.527 -4.21791 -0.291858 0
M  V30 9069 H 829.245 -7.6836 2.50298 0
M  V30 9070 H 832.831 -5.6915 1.20665 0
M  V30 9071 H 831.711 -7.4037 2.58499 0
M  V30 9072 N 829.214 0.302327 -1.54673 0
M  V30 9073 C 830.454 1.04568 -1.75627 0
M  V30 9074 C 830.818 1.84535 -0.530175 0
M  V30 9075 O 832.019 2.61613 -0.61743 0
M  V30 9076 C 830.29 1.92873 -3.0089 0
M  V30 9077 S 831.849 2.73872 -3.4284 0
M  V30 9078 H 828.667 0.352682 -0.617362 0
M  V30 9079 H 831.269 0.319239 -1.92876 0
M  V30 9080 H 829.973 1.32998 -3.88252 0
M  V30 9081 H 829.504 2.69887 -2.86225 0
M  V30 9082 H 831.519 3.95386 -2.99807 0
M  V30 9083 N 830.692 1.47107 0.565454 0
M  V30 9084 C 831.917 1.57153 1.35343 0
M  V30 9085 C 832.342 0.219247 1.86818 0
M  V30 9086 O 831.7 -0.803539 1.62521 0
M  V30 9087 C 831.748 2.59387 2.50501 0
M  V30 9088 O 830.852 2.14086 3.52478 0
M  V30 9089 H 830.193 0.528209 0.402357 0
M  V30 9090 H 832.723 1.92821 0.684189 0
M  V30 9091 H 832.733 2.79546 2.97184 0
M  V30 9092 H 831.408 3.57579 2.12391 0
M  V30 9093 H 829.985 2.03991 3.12157 0
M  V30 9094 N 832.17 -0.811516 1.35101 0
M  V30 9095 C 833.416 -1.57016 1.29296 0
M  V30 9096 C 833.771 -1.91941 -0.13288 0
M  V30 9097 O 833.064 -1.58121 -1.08204 0
M  V30 9098 C 833.258 -2.87121 2.1283 0
M  V30 9099 C 833.087 -2.64908 3.63392 0
M  V30 9100 C 831.857 -2.61055 4.32641 0
M  V30 9101 C 834.055 -2.35628 4.57148 0
M  V30 9102 N 832.037 -2.30508 5.68981 0
M  V30 9103 C 833.408 -2.14876 5.81574 0
M  V30 9104 C 835.463 -2.2145 4.45942 0
M  V30 9105 C 834.166 -1.81381 6.96055 0
M  V30 9106 C 836.192 -1.89352 5.60267 0
M  V30 9107 C 835.554 -1.69432 6.83719 0
M  V30 9108 H 831.653 -0.57649 0.528378 0
M  V30 9109 H 834.237 -0.950338 1.69931 0
M  V30 9110 H 832.408 -3.47007 1.74473 0
M  V30 9111 H 834.14 -3.52629 1.98582 0
M  V30 9112 H 830.895 -2.75531 3.85201 0
M  V30 9113 H 831.319 -2.18042 6.40927 0
M  V30 9114 H 835.961 -2.35551 3.51106 0
M  V30 9115 H 833.679 -1.66018 7.90863 0
M  V30 9116 H 837.265 -1.79098 5.53548 0
M  V30 9117 H 836.145 -1.44957 7.70686 0
M  V30 9118 N 833.648 -1.19017 -1.03309 0
M  V30 9119 C 834.897 -0.984542 -1.76039 0
M  V30 9120 C 835.21 0.485937 -1.89468 0
M  V30 9121 O 836.416 0.810278 -2.59127 0
M  V30 9122 C 834.872 -1.71261 -3.1654 0
M  V30 9123 C 834.48 -3.22291 -3.11179 0
M  V30 9124 C 836.224 -1.59007 -3.93595 0
M  V30 9125 C 834.131 -3.87704 -4.46587 0
M  V30 9126 H 833.061 -0.364749 -0.659905 0
M  V30 9127 H 835.712 -1.4247 -1.15649 0
M  V30 9128 H 834.094 -1.20025 -3.77373 0
M  V30 9129 H 835.268 -3.80611 -2.59753 0
M  V30 9130 H 833.583 -3.34772 -2.47622 0
M  V30 9131 H 836.18 -2.05232 -4.93745 0
M  V30 9132 H 836.523 -0.543534 -4.12736 0
M  V30 9133 H 837.056 -2.07564 -3.39355 0
M  V30 9134 H 833.795 -4.92437 -4.3265 0
M  V30 9135 H 833.315 -3.34172 -4.98085 0
M  V30 9136 H 834.994 -3.91008 -5.15482 0
M  V30 9137 N 835.127 1.22348 -0.993418 0
M  V30 9138 C 836.538 1.72893 -0.704616 0
M  V30 9139 C 836.889 1.80095 0.778483 0
M  V30 9140 O 836.014 1.4476 1.60853 0
M  V30 9141 C 836.609 3.14 -1.27237 0
M  V30 9142 C 835.168 3.61949 -1.03294 0
M  V30 9143 C 834.315 2.39816 -1.39225 0
M  V30 9144 H 837.266 1.07688 -1.16572 0
M  V30 9145 H 837.287 3.74886 -0.651212 0
M  V30 9146 H 836.799 3.08727 -2.3518 0
M  V30 9147 H 834.9 3.72588 0.0298329 0
M  V30 9148 H 835.013 4.48051 -1.69668 0
M  V30 9149 H 833.377 2.41448 -0.810849 0
M  V30 9150 H 834.16 2.37203 -2.48172 0
M  V30 9151 N 836.605 0.766683 1.37694 0
M  V30 9152 C 837.553 0.137269 2.32195 0
M  V30 9153 C 838.547 -0.69067 1.54681 0
M  V30 9154 O 839.753 -0.588299 1.70115 0
M  V30 9155 H 836.128 0.0256003 0.751564 0
M  V30 9156 H 838.099 0.950129 2.82869 0
M  V30 9157 C 836.848 -0.731446 3.39919 0
M  V30 9158 H 836.171 -0.103738 3.99665 0
M  V30 9159 H 837.611 -1.13891 4.08417 0
M  V30 9160 C 836.07 -1.87984 2.79578 0
M  V30 9161 O 836.6 -2.97496 2.69924 0
M  V30 9162 N 834.806 -1.6789 2.37195 0
M  V30 9163 H 834.353 -0.788162 2.45246 0
M  V30 9164 H 834.311 -2.44894 1.97165 0
M  V30 9165 N 838.083 -1.48885 0.516809 0
M  V30 9166 C 839.046 -2.27916 -0.242256 0
M  V30 9167 C 840.046 -1.34601 -0.879735 0
M  V30 9168 O 841.236 -1.57616 -0.74182 0
M  V30 9169 C 838.368 -3.13067 -1.34914 0
M  V30 9170 H 839.561 -2.96483 0.451444 0
M  V30 9171 H 837.114 -1.5391 0.272294 0
M  V30 9172 H 837.849 -2.49102 -2.07651 0
M  V30 9173 H 837.634 -3.81695 -0.897313 0
M  V30 9174 H 839.124 -3.72716 -1.88341 0
M  V30 9175 N 839.561 -0.251338 -1.55583 0
M  V30 9176 C 840.972 0.25098 -1.85005 0
M  V30 9177 C 841.323 1.57259 -1.17321 0
M  V30 9178 O 840.448 2.11603 -0.453136 0
M  V30 9179 C 841.043 0.462161 -3.35633 0
M  V30 9180 C 839.602 0.908737 -3.65266 0
M  V30 9181 C 838.749 -0.0115418 -2.77298 0
M  V30 9182 H 841.7 -0.473782 -1.51463 0
M  V30 9183 H 841.721 1.30415 -3.57452 0
M  V30 9184 H 841.233 -0.499886 -3.84867 0
M  V30 9185 H 839.334 1.8831 -3.21512 0
M  V30 9186 H 839.447 0.762526 -4.72993 0
M  V30 9187 H 837.811 0.500612 -2.49732 0
M  V30 9188 H 838.594 -0.969042 -3.29339 0
M  V30 9189 N 841.039 1.57585 0.0217189 0
M  V30 9190 C 842.45 1.7787 0.567377 0
M  V30 9191 C 842.801 0.883337 1.7519 0
M  V30 9192 O 841.926 0.0800819 2.16252 0
M  V30 9193 C 842.521 3.2257 1.03606 0
M  V30 9194 C 841.08 3.44026 1.52718 0
M  V30 9195 C 840.227 2.73313 0.468545 0
M  V30 9196 H 843.178 1.57377 -0.2045 0
M  V30 9197 H 843.199 3.29488 1.9031 0
M  V30 9198 H 842.711 3.87711 0.173739 0
M  V30 9199 H 840.812 2.8407 2.41111 0
M  V30 9200 H 840.925 4.52659 1.56962 0
M  V30 9201 H 839.289 2.37299 0.925263 0
M  V30 9202 H 840.072 3.41141 -0.384438 0
M  V30 9203 N 842.517 -0.29412 1.54831 0
M  V30 9204 C 843.745 -1.04724 1.78439 0
M  V30 9205 C 844.16 -1.80695 0.547239 0
M  V30 9206 O 843.517 -1.75989 -0.483141 0
M  V30 9207 C 843.568 -2.02242 2.99634 0
M  V30 9208 O 843.289 -1.29352 4.18568 0
M  V30 9209 C 844.79 -2.89537 3.35683 0
M  V30 9210 H 842.01 -0.310285 0.594949 0
M  V30 9211 H 844.554 -0.331306 2.01798 0
M  V30 9212 H 842.709 -2.69328 2.78462 0
M  V30 9213 H 843.123 -1.94901 4.86943 0
M  V30 9214 H 844.597 -3.538 4.23709 0
M  V30 9215 H 845.074 -3.58201 2.54143 0
M  V30 9216 H 845.68 -2.27973 3.59038 0
M  V30 9217 N 843.995 -1.47404 -0.557645 0
M  V30 9218 C 844.928 -1.54399 -1.68036 0
M  V30 9219 C 845.906 -0.396175 -1.577 0
M  V30 9220 O 847.09 -0.603911 -1.78564 0
M  V30 9221 C 844.217 -1.44611 -3.06277 0
M  V30 9222 C 843.263 -2.63889 -3.35059 0
M  V30 9223 S 844.096 -4.26086 -3.24362 0
M  V30 9224 C 845.252 -4.1885 -4.65097 0
M  V30 9225 H 845.485 -2.49384 -1.61849 0
M  V30 9226 H 843.018 -1.35597 -0.738429 0
M  V30 9227 H 844.976 -1.39651 -3.86015 0
M  V30 9228 H 843.637 -0.510114 -3.0993 0
M  V30 9229 H 842.83 -2.53103 -4.35838 0
M  V30 9230 H 842.432 -2.65969 -2.62938 0
M  V30 9231 H 844.724 -3.87077 -5.56037 0
M  V30 9232 H 845.667 -5.19714 -4.8094 0
M  V30 9233 H 846.075 -3.49717 -4.43123 0
M  V30 9234 N 845.473 0.80434 -1.35529 0
M  V30 9235 C 846.889 1.10023 -1.15616 0
M  V30 9236 C 847.089 2.01478 0.0298535 0
M  V30 9237 O 846.145 2.42609 0.699778 0
M  V30 9238 C 847.458 1.72905 -2.46017 0
M  V30 9239 C 849.006 1.85315 -2.52245 0
M  V30 9240 C 849.481 2.51612 -3.82695 0
M  V30 9241 N 850.972 2.59095 -3.83958 0
M  V30 9242 C 851.707 3.11167 -4.81625 0
M  V30 9243 N 851.203 3.63659 -5.89681 0
M  V30 9244 N 852.996 3.09741 -4.6906 0
M  V30 9245 H 845.147 0.196428 -2.1149 0
M  V30 9246 H 847.41 0.149735 -0.9361 0
M  V30 9247 H 847.116 1.13171 -3.32994 0
M  V30 9248 H 846.99 2.72579 -2.6073 0
M  V30 9249 H 849.377 2.44191 -1.65695 0
M  V30 9250 H 849.458 0.844886 -2.41444 0
M  V30 9251 H 849.102 1.93385 -4.69643 0
M  V30 9252 H 849.032 3.5298 -3.90785 0
M  V30 9253 H 851.523 2.21908 -3.05884 0
M  V30 9254 H 851.836 4.01699 -6.60195 0
M  V30 9255 H 850.181 3.61852 -5.9337 0
M  V30 9256 H 853.372 2.68011 -3.83781 0
M  V30 9257 H 853.545 3.50016 -5.45338 0
M  V30 9258 N 846.951 1.19563 1.02676 0
M  V30 9259 C 847.914 0.937182 2.09164 0
M  V30 9260 C 848.914 -0.0831927 1.60585 0
M  V30 9261 O 850.104 0.15178 1.73538 0
M  V30 9262 C 847.236 0.408912 3.38439 0
M  V30 9263 H 848.429 1.88164 2.33526 0
M  V30 9264 H 845.982 1.00959 1.19319 0
M  V30 9265 H 846.717 -0.541497 3.19747 0
M  V30 9266 H 846.502 1.14464 3.7502 0
M  V30 9267 H 847.992 0.247242 4.16867 0
M  V30 9268 N 848.429 -1.21819 0.999893 0
M  V30 9269 C 849.84 -1.72517 0.713775 0
M  V30 9270 C 850.191 -1.80505 -0.768922 0
M  V30 9271 O 849.316 -1.45611 -1.60083 0
M  V30 9272 C 849.911 -3.13321 1.28901 0
M  V30 9273 C 848.47 -3.61396 1.05212 0
M  V30 9274 C 847.617 -2.39074 1.40494 0
M  V30 9275 H 850.568 -1.07068 1.17141 0
M  V30 9276 H 850.589 -3.74535 0.671084 0
M  V30 9277 H 850.101 -3.07475 2.36814 0
M  V30 9278 H 848.202 -3.72599 -0.0100732 0
M  V30 9279 H 848.315 -4.47145 1.72042 0
M  V30 9280 H 846.679 -2.41015 0.823642 0
M  V30 9281 H 847.462 -2.35884 2.49427 0
M  V30 9282 N 849.908 -0.773975 -1.37286 0
M  V30 9283 C 851.319 -0.404433 -1.82267 0
M  V30 9284 C 851.67 1.06971 -1.64474 0
M  V30 9285 O 850.795 1.82867 -1.15708 0
M  V30 9286 C 851.39 -0.727298 -3.30902 0
M  V30 9287 C 849.949 -0.410784 -3.74152 0
M  V30 9288 C 849.096 -0.969983 -2.59782 0
M  V30 9289 H 852.047 -0.968437 -1.25726 0
M  V30 9290 H 852.068 -0.0127575 -3.80498 0
M  V30 9291 H 851.58 -1.80026 -3.4382 0
M  V30 9292 H 849.681 0.65477 -3.66802 0
M  V30 9293 H 849.794 -0.920592 -4.70172 0
M  V30 9294 H 848.158 -0.394094 -2.51633 0
M  V30 9295 H 848.941 -2.04839 -2.75492 0
M  V30 9296 N 851.386 1.48609 -0.524698 0
M  V30 9297 C 852.797 1.86516 -0.0828846 0
M  V30 9298 C 853.148 1.43478 1.33822 0
M  V30 9299 O 852.273 0.823139 2.00133 0
M  V30 9300 C 852.868 3.38495 -0.143639 0
M  V30 9301 C 851.427 3.75615 0.242951 0
M  V30 9302 C 850.574 2.72649 -0.505747 0
M  V30 9303 H 853.525 1.40589 -0.736233 0
M  V30 9304 H 853.546 3.74977 0.645955 0
M  V30 9305 H 853.058 3.69789 -1.17805 0
M  V30 9306 H 851.159 3.49935 1.27971 0
M  V30 9307 H 851.272 4.7901 -0.0929834 0
M  V30 9308 H 849.636 2.54656 0.0473482 0
M  V30 9309 H 850.419 3.06786 -1.54069 0
M  V30 9310 N 852.864 0.259585 1.55447 0
M  V30 9311 C 854.092 -0.365392 2.03648 0
M  V30 9312 C 854.507 -1.50613 1.13847 0
M  V30 9313 O 853.864 -1.81837 0.155414 0
M  V30 9314 C 853.915 -0.861172 3.51093 0
M  V30 9315 O 853.636 0.234121 4.37474 0
M  V30 9316 C 855.137 -1.55555 4.15111 0
M  V30 9317 H 852.357 -0.0853439 0.66555 0
M  V30 9318 H 854.901 0.387151 2.00802 0
M  V30 9319 H 853.056 -1.56385 3.54433 0
M  V30 9320 H 853.47 -0.1444 5.24301 0
M  V30 9321 H 854.944 -1.85403 5.19932 0
M  V30 9322 H 855.421 -2.48185 3.62355 0
M  V30 9323 H 856.027 -0.89712 4.15731 0
M  V30 9324 N 854.342 -1.57594 -0.0133615 0
M  V30 9325 C 855.305 -2.06534 -0.993799 0
M  V30 9326 C 856.305 -0.972267 -1.28077 0
M  V30 9327 O 857.495 -1.23537 -1.22818 0
M  V30 9328 C 854.627 -2.49554 -2.3224 0
M  V30 9329 H 855.82 -2.94419 -0.570741 0
M  V30 9330 H 853.373 -1.54113 -0.260546 0
M  V30 9331 H 854.108 -1.64872 -2.79263 0
M  V30 9332 H 853.893 -3.29371 -2.12737 0
M  V30 9333 H 855.383 -2.8779 -3.026 0
M  V30 9334 N 855.82 0.285905 -1.54985 0
M  V30 9335 C 856.767 1.35306 -1.86978 0
M  V30 9336 C 857.737 1.49682 -0.720046 0
M  V30 9337 O 858.922 1.64297 -0.970107 0
M  V30 9338 C 856.062 2.71059 -2.13591 0
M  V30 9339 C 855.175 2.6501 -3.41165 0
M  V30 9340 C 854.31 3.92856 -3.57544 0
M  V30 9341 C 853.349 3.81266 -4.78855 0
M  V30 9342 N 852.486 5.00919 -4.9196 0
M  V30 9343 H 857.326 1.07323 -2.78003 0
M  V30 9344 H 854.863 0.518776 -1.37649 0
M  V30 9345 H 856.821 3.50026 -2.27019 0
M  V30 9346 H 855.451 2.97271 -1.25816 0
M  V30 9347 H 854.503 1.77824 -3.36278 0
M  V30 9348 H 855.815 2.52342 -4.30262 0
M  V30 9349 H 854.969 4.80263 -3.70718 0
M  V30 9350 H 853.708 4.08377 -2.66608 0
M  V30 9351 H 852.713 2.92243 -4.65698 0
M  V30 9352 H 853.938 3.67277 -5.71213 0
M  V30 9353 H 851.884 5.16875 -4.03951 0
M  V30 9354 H 851.801 4.90732 -5.75081 0
M  V30 9355 H 853.069 5.89935 -5.09507 0
M  V30 9356 N 857.298 1.47698 0.54982 0
M  V30 9357 C 858.546 1.54397 1.30407 0
M  V30 9358 C 858.867 0.211026 1.93855 0
M  V30 9359 O 858.137 -0.765701 1.80316 0
M  V30 9360 H 856.717 0.568747 0.484289 0
M  V30 9361 H 859.379 1.84042 0.641444 0
M  V30 9362 H 858.475 2.31449 2.09375 0
M  V30 9363 N 858.776 -0.797141 1.35954 0
M  V30 9364 C 860.022 -1.55698 1.29946 0
M  V30 9365 C 860.355 -1.93808 -0.123259 0
M  V30 9366 O 859.63 -1.62102 -1.07486 0
M  V30 9367 C 859.913 -2.83926 2.2149 0
M  V30 9368 C 859.766 -2.52232 3.72423 0
M  V30 9369 C 861.085 -3.85698 2.11955 0
M  V30 9370 H 858.204 -0.56488 0.47337 0
M  V30 9371 H 860.846 -0.916421 1.66438 0
M  V30 9372 H 858.996 -3.38588 1.905 0
M  V30 9373 H 860.668 -2.0368 4.13899 0
M  V30 9374 H 858.911 -1.85286 3.92239 0
M  V30 9375 H 859.582 -3.43782 4.31877 0
M  V30 9376 H 862.058 -3.40462 2.39218 0
M  V30 9377 H 860.934 -4.73182 2.78191 0
M  V30 9378 H 861.195 -4.28083 1.10442 0
M  V30 9379 N 860.254 -1.20106 -1.0204 0
M  V30 9380 C 861.5 -1.01039 -1.75838 0
M  V30 9381 C 861.833 0.456819 -1.88751 0
M  V30 9382 O 861.108 1.33919 -1.41053 0
M  V30 9383 C 861.391 -1.69009 -3.17975 0
M  V30 9384 C 861.244 -3.2315 -3.1288 0
M  V30 9385 C 862.563 -1.42005 -4.16561 0
M  V30 9386 H 859.682 -0.368465 -0.638281 0
M  V30 9387 H 862.324 -1.48066 -1.19064 0
M  V30 9388 H 860.474 -1.29026 -3.66449 0
M  V30 9389 H 862.146 -3.72402 -2.72239 0
M  V30 9390 H 860.389 -3.54253 -2.50374 0
M  V30 9391 H 861.06 -3.65862 -4.13339 0
M  V30 9392 H 863.536 -1.76685 -3.76725 0
M  V30 9393 H 862.412 -1.92101 -5.14187 0
M  V30 9394 H 862.673 -0.346884 -4.40737 0
M  V30 9395 N 861.732 1.21287 -1.00634 0
M  V30 9396 C 862.96 1.94385 -0.708678 0
M  V30 9397 C 863.375 1.7416 0.728957 0
M  V30 9398 O 862.732 1.04906 1.49335 0
M  V30 9399 C 862.783 3.46755 -1.02193 0
M  V30 9400 O 862.504 3.6631 -2.40309 0
M  V30 9401 C 864.005 4.37014 -0.743867 0
M  V30 9402 H 861.225 0.618136 -0.261052 0
M  V30 9403 H 863.769 1.54067 -1.34475 0
M  V30 9404 H 861.924 3.8499 -0.431441 0
M  V30 9405 H 862.338 4.60393 -2.51274 0
M  V30 9406 H 863.812 5.42621 -1.01321 0
M  V30 9407 H 864.289 4.38017 0.322084 0
M  V30 9408 H 864.895 4.04426 -1.31603 0
M  V30 9409 N 863.21 0.781244 1.36873 0
M  V30 9410 C 864.459 0.34652 1.98701 0
M  V30 9411 C 864.772 -1.08555 1.62712 0
M  V30 9412 O 865.978 -1.62213 2.17713 0
M  V30 9413 C 864.434 0.568611 3.5538 0
M  V30 9414 C 864.042 2.01156 4.003 0
M  V30 9415 C 865.786 0.197983 4.24038 0
M  V30 9416 C 863.693 2.18074 5.49725 0
M  V30 9417 H 862.623 0.125821 0.743428 0
M  V30 9418 H 865.274 0.961721 1.56279 0
M  V30 9419 H 863.656 -0.116185 3.9583 0
M  V30 9420 H 864.83 2.73209 3.71071 0
M  V30 9421 H 863.145 2.33967 3.44454 0
M  V30 9422 H 865.742 0.302778 5.33842 0
M  V30 9423 H 866.085 -0.852927 4.07469 0
M  V30 9424 H 866.618 0.835696 3.88923 0
M  V30 9425 H 863.357 3.21519 5.71232 0
M  V30 9426 H 862.877 1.50517 5.80607 0
M  V30 9427 H 864.556 1.98393 6.15832 0
M  V30 9428 N 864.689 -1.48329 0.532571 0
M  V30 9429 C 865.599 -2.33445 -0.232546 0
M  V30 9430 C 866.615 -1.46651 -0.93645 0
M  V30 9431 O 867.791 -1.79627 -0.910834 0
M  V30 9432 C 864.856 -3.22824 -1.26434 0
M  V30 9433 C 863.917 -4.25492 -0.570511 0
M  V30 9434 C 863.15 -5.10601 -1.55315 0
M  V30 9435 O 863.373 -4.97733 -2.78599 0
M  V30 9436 O 862.307 -5.91927 -1.09112 0
M  V30 9437 H 866.133 -3.00119 0.464988 0
M  V30 9438 H 863.718 -1.46489 0.293462 0
M  V30 9439 H 865.6 -3.78103 -1.86055 0
M  V30 9440 H 864.275 -2.58807 -1.94424 0
M  V30 9441 H 863.182 -3.74041 0.0662587 0
M  V30 9442 H 864.515 -4.92154 0.0674904 0
M  V30 9443 N 866.167 -0.267825 -1.55308 0
M  V30 9444 C 867.099 0.65591 -2.19614 0
M  V30 9445 C 868.112 1.12302 -1.17865 0
M  V30 9446 O 869.301 1.04618 -1.44628 0
M  V30 9447 C 866.401 1.90582 -2.80235 0
M  V30 9448 C 865.574 1.58673 -4.07605 0
M  V30 9449 C 864.633 2.68836 -4.52343 0
M  V30 9450 O 863.659 2.35331 -5.18274 0
M  V30 9451 N 864.861 3.98752 -4.21873 0
M  V30 9452 H 867.626 0.105566 -2.99514 0
M  V30 9453 H 865.187 -0.0886263 -1.61657 0
M  V30 9454 H 867.179 2.63561 -3.07112 0
M  V30 9455 H 865.749 2.3654 -2.04371 0
M  V30 9456 H 864.969 0.691113 -3.88094 0
M  V30 9457 H 866.257 1.34845 -4.90606 0
M  V30 9458 H 865.655 4.28797 -3.68985 0
M  V30 9459 H 864.212 4.68131 -4.53537 0
M  V30 9460 N 867.645 1.57599 0.00500368 0
M  V30 9461 C 868.894 1.89528 0.690061 0
M  V30 9462 C 869.207 0.869451 1.75214 0
M  V30 9463 O 870.413 1.07879 2.49147 0
M  V30 9464 C 868.869 3.36425 1.27852 0
M  V30 9465 C 868.477 4.47293 0.251531 0
M  V30 9466 C 870.221 3.77471 1.94206 0
M  V30 9467 C 868.128 5.85264 0.8497 0
M  V30 9468 H 867.058 0.707201 0.2615 0
M  V30 9469 H 869.709 1.83418 -0.0547209 0
M  V30 9470 H 868.091 3.37356 2.07381 0
M  V30 9471 H 869.265 4.5787 -0.518796 0
M  V30 9472 H 867.58 4.15235 -0.311281 0
M  V30 9473 H 870.177 4.77884 2.39855 0
M  V30 9474 H 870.52 3.10722 2.77051 0
M  V30 9475 H 871.053 3.78817 1.21419 0
M  V30 9476 H 867.792 6.55472 0.0601408 0
M  V30 9477 H 867.312 5.78361 1.5893 0
M  V30 9478 H 868.991 6.32762 1.34984 0
M  V30 9479 N 869.123 -0.277682 1.55134 0
M  V30 9480 C 870.369 -1.0114 1.7578 0
M  V30 9481 C 870.702 -1.86109 0.554719 0
M  V30 9482 O 869.977 -1.89275 -0.447813 0
M  V30 9483 C 870.26 -1.89789 3.06027 0
M  V30 9484 C 870.113 -1.07844 4.3668 0
M  V30 9485 C 871.432 -2.88577 3.32282 0
M  V30 9486 H 868.551 -0.366277 0.639539 0
M  V30 9487 H 871.193 -0.284155 1.87863 0
M  V30 9488 H 869.343 -2.51796 2.95856 0
M  V30 9489 H 871.015 -0.479432 4.58802 0
M  V30 9490 H 869.258 -0.381764 4.32117 0
M  V30 9491 H 869.929 -1.73179 5.24131 0
M  V30 9492 H 872.405 -2.36702 3.42215 0
M  V30 9493 H 871.281 -3.47749 4.2469 0
M  V30 9494 H 871.542 -3.63458 2.51696 0
M  V30 9495 N 870.601 -1.47988 -0.541979 0
M  V30 9496 C 871.878 -1.45878 -1.30303 0
M  V30 9497 C 872.258 -0.163931 -2.10463 0
M  V30 9498 O 871.606 0.854479 -2.11922 0
M  V30 9499 C 871.816 -2.71359 -2.19466 0
M  V30 9500 C 873.164 -3.19199 -2.79995 0
M  V30 9501 O 874.188 -2.72193 -2.2976 0
M  V30 9502 O 873.047 -4.00961 -3.71339 0
M  V30 9503 H 870.141 -0.582043 -0.587498 0
M  V30 9504 H 872.687 -1.60207 -0.559623 0
M  V30 9505 H 871.459 -3.57122 -1.59936 0
M  V30 9506 H 871.082 -2.59692 -3.01075 0
M  V30 9507 N 872.079 0.78992 -1.36375 0
M  V30 9508 C 873.307 1.57873 -1.3373 0
M  V30 9509 C 873.722 1.88624 0.0815544 0
M  V30 9510 O 873.079 1.50085 1.03831 0
M  V30 9511 C 873.13 2.90003 -2.15825 0
M  V30 9512 O 872.851 2.60578 -3.5218 0
M  V30 9513 C 874.352 3.84309 -2.20955 0
M  V30 9514 H 871.572 0.489685 -0.458748 0
M  V30 9515 H 874.116 0.980436 -1.79465 0
M  V30 9516 H 872.271 3.46303 -1.73646 0
M  V30 9517 H 872.685 3.4506 -3.95011 0
M  V30 9518 H 874.159 4.74081 -2.82756 0
M  V30 9519 H 874.636 4.22121 -1.21287 0
M  V30 9520 H 875.242 3.33942 -2.63368 0
M  V30 9521 N 873.557 1.20646 1.01402 0
M  V30 9522 C 874.487 0.98155 2.11867 0
M  V30 9523 C 875.468 -0.0903712 1.6986 0
M  V30 9524 O 876.653 0.0676586 1.94082 0
M  V30 9525 C 873.783 0.535636 3.43145 0
M  V30 9526 C 872.737 1.55109 3.98905 0
M  V30 9527 C 872.063 0.961725 5.2598 0
M  V30 9528 C 873.363 2.93552 4.32001 0
M  V30 9529 H 875.057 1.90544 2.3094 0
M  V30 9530 H 872.603 0.917554 1.10982 0
M  V30 9531 H 874.556 0.365512 4.19812 0
M  V30 9532 H 873.28 -0.423882 3.23838 0
M  V30 9533 H 871.939 1.70862 3.24348 0
M  V30 9534 H 871.587 -0.00580108 5.03 0
M  V30 9535 H 871.287 1.63993 5.64252 0
M  V30 9536 H 872.811 0.802726 6.053 0
M  V30 9537 H 874.225 2.81295 4.99546 0
M  V30 9538 H 872.622 3.58303 4.81393 0
M  V30 9539 H 873.692 3.4508 3.40658 0
M  V30 9540 N 875.035 -1.20752 1.01276 0
M  V30 9541 C 876.446 -1.7175 0.732033 0
M  V30 9542 C 876.797 -1.8131 -0.749733 0
M  V30 9543 O 875.922 -1.47301 -1.58529 0
M  V30 9544 C 876.517 -3.11936 1.32217 0
M  V30 9545 C 875.076 -3.6026 1.09039 0
M  V30 9546 C 874.223 -2.37571 1.43022 0
M  V30 9547 H 877.174 -1.0582 1.1827 0
M  V30 9548 H 877.195 -3.73802 0.710771 0
M  V30 9549 H 876.707 -3.04946 2.40061 0
M  V30 9550 H 874.808 -3.72588 0.0294464 0
M  V30 9551 H 874.921 -4.45295 1.76775 0
M  V30 9552 H 873.285 -2.40128 0.849159 0
M  V30 9553 H 874.068 -2.33225 2.51915 0
M  V30 9554 N 876.513 -0.788492 -1.36457 0
M  V30 9555 C 877.79 -0.284484 -1.9352 0
M  V30 9556 C 878.17 1.2232 -1.7205 0
M  V30 9557 O 877.518 2.01424 -1.07892 0
M  V30 9558 C 877.728 -0.676106 -3.42388 0
M  V30 9559 C 879.076 -0.655327 -4.19512 0
M  V30 9560 O 880.1 -0.616523 -3.50824 0
M  V30 9561 O 878.959 -0.697391 -5.42032 0
M  V30 9562 H 876.053 -0.0701769 -0.824017 0
M  V30 9563 H 878.599 -0.870974 -1.45644 0
M  V30 9564 H 877.371 -1.71596 -3.51668 0
M  V30 9565 H 876.994 -0.0634517 -3.97549 0
M  V30 9566 N 877.991 1.48044 -0.54043 0
M  V30 9567 C 879.407 1.58354 -0.199006 0
M  V30 9568 C 879.607 1.54118 1.29807 0
M  V30 9569 O 878.663 1.43573 2.07709 0
M  V30 9570 C 879.976 2.89563 -0.810797 0
M  V30 9571 C 881.524 3.03113 -0.780486 0
M  V30 9572 C 881.999 4.36997 -1.37104 0
M  V30 9573 N 883.49 4.43591 -1.33347 0
M  V30 9574 C 884.225 5.45714 -1.76021 0
M  V30 9575 N 883.721 6.54738 -2.26473 0
M  V30 9576 N 885.514 5.36659 -1.67194 0
M  V30 9577 H 877.665 1.49041 -1.51329 0
M  V30 9578 H 879.928 0.708309 -0.630081 0
M  V30 9579 H 879.634 2.9835 -1.86227 0
M  V30 9580 H 879.508 3.76053 -0.293977 0
M  V30 9581 H 881.895 2.93932 0.262246 0
M  V30 9582 H 881.976 2.18207 -1.33489 0
M  V30 9583 H 881.62 4.46932 -2.41276 0
M  V30 9584 H 881.55 5.20607 -0.792229 0
M  V30 9585 H 884.041 3.65391 -0.964259 0
M  V30 9586 H 884.354 7.28814 -2.57002 0
M  V30 9587 H 882.699 6.55673 -2.30473 0
M  V30 9588 H 885.89 4.50382 -1.27569 0
M  V30 9589 H 886.063 6.16113 -2.00771 0
M  V30 9590 N 879.47 0.276058 1.55163 0
M  V30 9591 C 880.718 -0.339782 1.99223 0
M  V30 9592 C 881.039 -1.56307 1.16589 0
M  V30 9593 O 880.309 -1.94225 0.25564 0
M  V30 9594 H 878.889 -0.128534 0.735859 0
M  V30 9595 H 881.551 0.381612 1.91128 0
M  V30 9596 H 880.647 -0.629 3.05696 0
M  V30 9597 N 880.948 -1.576 0.00335426 0
M  V30 9598 C 882.364 -1.55653 -0.352766 0
M  V30 9599 C 882.564 -1.00632 -1.74572 0
M  V30 9600 O 881.62 -0.641621 -2.44212 0
M  V30 9601 C 882.933 -2.99858 -0.224929 0
M  V30 9602 C 884.481 -3.11563 -0.299619 0
M  V30 9603 C 884.956 -4.57559 -0.200868 0
M  V30 9604 N 886.447 -4.62477 -0.258663 0
M  V30 9605 C 887.182 -5.73031 -0.205644 0
M  V30 9606 N 886.678 -6.92723 -0.103027 0
M  V30 9607 N 888.471 -5.61509 -0.257754 0
M  V30 9608 H 880.622 -1.91703 0.914539 0
M  V30 9609 H 882.885 -0.88068 0.350865 0
M  V30 9610 H 882.591 -3.43964 0.733595 0
M  V30 9611 H 882.465 -3.63547 -1.00564 0
M  V30 9612 H 884.852 -2.67384 -1.24859 0
M  V30 9613 H 884.933 -2.50644 0.511025 0
M  V30 9614 H 884.577 -5.02413 0.744572 0
M  V30 9615 H 884.507 -5.16428 -1.03004 0
M  V30 9616 H 886.998 -3.76375 -0.339168 0
M  V30 9617 H 887.311 -7.7277 -0.0685593 0
M  V30 9618 H 885.656 -6.94966 -0.0686069 0
M  V30 9619 H 888.847 -4.66892 -0.336142 0
M  V30 9620 H 889.02 -6.4765 -0.21297 0
M  V30 9621 N 882.426 0.269451 -1.5528 0
M  V30 9622 C 883.651 1.02299 -1.80415 0
M  V30 9623 C 884.076 1.7902 -0.577363 0
M  V30 9624 O 883.434 1.75018 0.473125 0
M  V30 9625 C 883.482 1.95445 -3.0304 0
M  V30 9626 O 882.586 3.04271 -2.78375 0
M  V30 9627 H 881.927 0.292289 -0.596207 0
M  V30 9628 H 884.457 0.297282 -2.02429 0
M  V30 9629 H 884.467 2.37333 -3.31869 0
M  V30 9630 H 883.142 1.39017 -3.91978 0
M  V30 9631 H 881.719 2.66673 -2.60653 0
M  V30 9632 N 883.904 1.48273 0.534124 0
M  V30 9633 C 885.144 1.57674 1.3007 0
M  V30 9634 C 885.508 0.243256 1.90453 0
M  V30 9635 O 886.709 0.212231 2.67961 0
M  V30 9636 C 884.98 2.68044 2.36405 0
M  V30 9637 S 886.539 2.97183 3.22843 0
M  V30 9638 H 883.357 0.55652 0.442501 0
M  V30 9639 H 885.959 1.85774 0.60896 0
M  V30 9640 H 884.663 3.63498 1.90518 0
M  V30 9641 H 884.194 2.41833 3.10291 0
M  V30 9642 H 886.209 2.36164 4.36396 0
M  V30 9643 N 885.382 -0.782676 1.36792 0
M  V30 9644 C 886.628 -1.54238 1.32597 0
M  V30 9645 C 886.983 -1.92179 -0.0921366 0
M  V30 9646 O 886.276 -1.60381 -1.04826 0
M  V30 9647 C 886.47 -2.82542 2.18872 0
M  V30 9648 C 886.299 -2.5714 3.6893 0
M  V30 9649 C 885.069 -2.5182 4.38081 0
M  V30 9650 C 887.267 -2.25878 4.62043 0
M  V30 9651 N 885.249 -2.18387 5.73742 0
M  V30 9652 C 886.62 -2.02491 5.86001 0
M  V30 9653 C 888.675 -2.11941 4.50539 0
M  V30 9654 C 887.378 -1.66576 6.99746 0
M  V30 9655 C 889.404 -1.77426 5.64158 0
M  V30 9656 C 888.766 -1.54891 6.87159 0
M  V30 9657 H 884.865 -0.565152 0.540488 0
M  V30 9658 H 887.449 -0.914079 1.71909 0
M  V30 9659 H 885.62 -3.43228 1.81794 0
M  V30 9660 H 887.352 -3.48338 2.06017 0
M  V30 9661 H 884.107 -2.67298 3.90958 0
M  V30 9662 H 884.531 -2.04398 6.45407 0
M  V30 9663 H 889.173 -2.28051 3.56024 0
M  V30 9664 H 886.891 -1.49205 7.94206 0
M  V30 9665 H 890.477 -1.67316 5.57222 0
M  V30 9666 H 889.357 -1.28577 7.73588 0
M  V30 9667 N 886.86 -1.21182 -1.00761 0
M  V30 9668 C 887.81 -0.936247 -2.0789 0
M  V30 9669 C 888.794 0.107482 -1.60541 0
M  V30 9670 O 889.986 -0.1011 -1.76711 0
M  V30 9671 C 887.115 -0.499949 -3.3964 0
M  V30 9672 C 886.201 -1.5776 -3.93666 0
M  V30 9673 N 886.592 -2.80208 -4.2109 0
M  V30 9674 C 884.89 -1.44586 -4.21913 0
M  V30 9675 C 885.591 -3.49787 -4.64784 0
M  V30 9676 N 884.567 -2.7722 -4.676 0
M  V30 9677 H 888.369 -1.86659 -2.27015 0
M  V30 9678 H 885.883 -1.10716 -1.1881 0
M  V30 9679 H 887.88 -0.283897 -4.15932 0
M  V30 9680 H 886.54 0.423659 -3.21924 0
M  V30 9681 H 887.551 -3.16776 -4.09724 0
M  V30 9682 H 884.228 -0.587346 -4.13348 0
M  V30 9683 H 885.618 -4.54615 -4.94747 0
M  V30 9684 N 888.338 1.20213 -1.01915 0
M  V30 9685 C 889.268 2.25336 -0.612023 0
M  V30 9686 C 890.249 1.65933 0.374186 0
M  V30 9687 O 891.434 1.92464 0.259053 0
M  V30 9688 C 888.564 3.47267 0.047904 0
M  V30 9689 C 887.518 4.1928 -0.859557 0
M  V30 9690 C 886.844 5.3466 -0.0652655 0
M  V30 9691 C 888.144 4.75143 -2.1688 0
M  V30 9692 H 889.838 2.59645 -1.49079 0
M  V30 9693 H 887.384 1.24808 -0.718263 0
M  V30 9694 H 889.337 4.19991 0.344294 0
M  V30 9695 H 888.061 3.12129 0.961404 0
M  V30 9696 H 886.72 3.48425 -1.13999 0
M  V30 9697 H 886.368 4.95767 0.849964 0
M  V30 9698 H 886.068 5.83772 -0.669618 0
M  V30 9699 H 887.592 6.10187 0.224612 0
M  V30 9700 H 889.006 5.39672 -1.9346 0
M  V30 9701 H 887.403 5.34702 -2.72422 0
M  V30 9702 H 888.473 3.93744 -2.83008 0
M  V30 9703 N 889.816 0.795718 1.36037 0
M  V30 9704 C 891.064 0.370291 1.98679 0
M  V30 9705 C 891.385 -1.06332 1.63458 0
M  V30 9706 O 890.655 -1.73394 0.911671 0
M  V30 9707 H 889.235 0.133928 0.734896 0
M  V30 9708 H 891.897 1.01915 1.6613 0
M  V30 9709 H 890.993 0.467207 3.08583 0
M  V30 9710 N 891.294 -1.47756 0.548274 0
M  V30 9711 C 892.257 -2.28379 -0.193857 0
M  V30 9712 C 893.257 -1.36436 -0.850986 0
M  V30 9713 O 894.447 -1.59154 -0.70822 0
M  V30 9714 C 891.579 -3.15858 -1.28243 0
M  V30 9715 H 892.772 -2.95458 0.514231 0
M  V30 9716 H 890.325 -1.53298 0.304879 0
M  V30 9717 H 891.06 -2.5345 -2.0232 0
M  V30 9718 H 890.845 -3.83512 -0.816148 0
M  V30 9719 H 892.335 -3.76627 -1.80393 0
M  V30 9720 N 892.772 -0.284283 -1.55015 0
M  V30 9721 C 894.018 0.330352 -2.00091 0
M  V30 9722 C 894.351 1.54814 -1.17244 0
M  V30 9723 O 893.626 1.92954 -0.244753 0
M  V30 9724 C 893.909 0.703492 -3.53161 0
M  V30 9725 C 893.762 -0.522275 -4.46758 0
M  V30 9726 C 895.081 1.53645 -4.12409 0
M  V30 9727 H 892.2 0.118599 -0.727395 0
M  V30 9728 H 894.842 -0.393054 -1.8589 0
M  V30 9729 H 892.992 1.31983 -3.65394 0
M  V30 9730 H 894.664 -1.16082 -4.46456 0
M  V30 9731 H 892.907 -1.15865 -4.1804 0
M  V30 9732 H 893.578 -0.217295 -5.51572 0
M  V30 9733 H 896.054 1.01583 -4.0351 0
M  V30 9734 H 894.93 1.76633 -5.19704 0
M  V30 9735 H 895.191 2.5204 -3.63219 0
M  V30 9736 N 894.251 1.57596 -0.0117121 0
M  V30 9737 C 895.497 1.92189 0.665966 0
M  V30 9738 C 895.852 0.887145 1.70726 0
M  V30 9739 O 895.145 -0.099151 1.91343 0
M  V30 9740 C 895.339 3.31296 1.34082 0
M  V30 9741 C 895.168 4.48205 0.366406 0
M  V30 9742 C 893.938 5.05293 -0.0274458 0
M  V30 9743 C 896.136 5.12951 -0.37219 0
M  V30 9744 N 894.118 6.0572 -0.998846 0
M  V30 9745 C 895.489 6.08318 -1.1979 0
M  V30 9746 C 897.544 4.95998 -0.434768 0
M  V30 9747 C 896.247 6.88555 -2.0805 0
M  V30 9748 C 898.273 5.7683 -1.30464 0
M  V30 9749 C 897.635 6.71798 -2.11816 0
M  V30 9750 H 893.734 0.751422 0.216537 0
M  V30 9751 H 896.318 1.94556 -0.0748079 0
M  V30 9752 H 894.489 3.2978 2.05182 0
M  V30 9753 H 896.221 3.53285 1.97413 0
M  V30 9754 H 892.976 4.72354 0.343382 0
M  V30 9755 H 893.4 6.60619 -1.48027 0
M  V30 9756 H 898.042 4.22417 0.179925 0
M  V30 9757 H 895.76 7.61453 -2.70581 0
M  V30 9758 H 899.346 5.6575 -1.35712 0
M  V30 9759 H 898.226 7.33256 -2.78037 0
M  V30 9760 N 895.729 -0.261212 1.5542 0
M  V30 9761 C 896.692 -1.30645 1.8832 0
M  V30 9762 C 897.692 -1.41782 0.758588 0
M  V30 9763 O 898.882 -1.40729 1.02669 0
M  V30 9764 C 896.014 -2.6862 2.09895 0
M  V30 9765 H 897.207 -1.02698 2.81768 0
M  V30 9766 H 894.76 -0.499838 1.48092 0
M  V30 9767 H 895.495 -3.0173 1.18868 0
M  V30 9768 H 895.28 -2.61921 2.91787 0
M  V30 9769 H 896.77 -3.44121 2.36581 0
M  V30 9770 N 897.207 -1.48554 -0.526253 0
M  V30 9771 C 898.137 -1.66252 -1.63959 0
M  V30 9772 C 899.118 -0.511351 -1.62232 0
M  V30 9773 O 900.303 -0.744322 -1.7937 0
M  V30 9774 C 897.433 -1.70556 -3.02536 0
M  V30 9775 C 896.387 -2.8521 -3.19123 0
M  V30 9776 C 895.713 -2.74606 -4.58798 0
M  V30 9777 C 897.013 -4.26463 -3.0154 0
M  V30 9778 H 898.707 -2.59459 -1.49404 0
M  V30 9779 H 896.253 -1.24862 -0.717326 0
M  V30 9780 H 898.206 -1.81524 -3.80298 0
M  V30 9781 H 896.93 -0.739297 -3.18123 0
M  V30 9782 H 895.589 -2.73802 -2.43779 0
M  V30 9783 H 895.237 -1.75941 -4.71226 0
M  V30 9784 H 894.937 -3.51544 -4.70841 0
M  V30 9785 H 896.461 -2.87548 -5.38655 0
M  V30 9786 H 897.875 -4.38685 -3.69091 0
M  V30 9787 H 896.272 -5.04428 -3.25073 0
M  V30 9788 H 897.342 -4.42667 -1.97925 0
M  V30 9789 N 898.685 0.775411 -1.37205 0
M  V30 9790 C 899.91 1.5696 -1.35567 0
M  V30 9791 C 900.335 1.88012 0.0575554 0
M  V30 9792 O 899.693 1.48954 1.03355 0
M  V30 9793 C 899.741 2.85886 -2.19776 0
M  V30 9794 O 898.845 3.80103 -1.59987 0
M  V30 9795 H 898.186 0.475583 -0.463375 0
M  V30 9796 H 900.716 0.96001 -1.80679 0
M  V30 9797 H 900.726 3.35024 -2.32859 0
M  V30 9798 H 899.401 2.62613 -3.22502 0
M  V30 9799 H 897.978 3.38736 -1.55924 0
M  V30 9800 N 900.163 1.21714 1.00117 0
M  V30 9801 C 901.095 0.937627 2.09144 0
M  V30 9802 C 902.108 -0.0806291 1.626 0
M  V30 9803 O 903.297 0.152348 1.77849 0
M  V30 9804 C 900.397 0.387036 3.36683 0
M  V30 9805 C 899.57 1.46054 4.12295 0
M  V30 9806 C 898.629 0.918505 5.18122 0
M  V30 9807 O 897.655 1.60282 5.46167 0
M  V30 9808 N 898.857 -0.264308 5.79898 0
M  V30 9809 H 901.622 1.87622 2.33705 0
M  V30 9810 H 899.183 1.12291 1.16629 0
M  V30 9811 H 901.175 0.00992825 4.04699 0
M  V30 9812 H 899.745 -0.456467 3.09249 0
M  V30 9813 H 898.965 2.01133 3.39027 0
M  V30 9814 H 900.253 2.18306 4.59587 0
M  V30 9815 H 899.651 -0.837242 5.5947 0
M  V30 9816 H 898.208 -0.582886 6.49188 0
M  V30 9817 N 901.641 -1.19671 1.02551 0
M  V30 9818 C 902.888 -1.89268 0.720002 0
M  V30 9819 C 903.216 -1.79411 -0.751127 0
M  V30 9820 O 902.471 -1.17859 -1.5623 0
M  V30 9821 C 902.77 -3.39647 1.11241 0
M  V30 9822 C 902.436 -3.69706 2.58125 0
M  V30 9823 C 901.098 -3.7762 2.98256 0
M  V30 9824 C 903.45 -3.83301 3.53171 0
M  V30 9825 C 900.778 -3.96594 4.32354 0
M  V30 9826 C 903.13 -4.03788 4.86968 0
M  V30 9827 C 901.794 -4.09934 5.26793 0
M  V30 9828 H 901.064 -0.692579 0.263467 0
M  V30 9829 H 903.711 -1.41738 1.28774 0
M  V30 9830 H 902.016 -3.89052 0.463234 0
M  V30 9831 H 903.713 -3.91809 0.853602 0
M  V30 9832 H 900.303 -3.64152 2.26033 0
M  V30 9833 H 904.487 -3.76534 3.2332 0
M  V30 9834 H 899.743 -3.9959 4.6275 0
M  V30 9835 H 903.917 -4.1325 5.60533 0
M  V30 9836 H 901.544 -4.24389 6.30712 0
M  V30 9837 N 903.119 -0.802921 -1.35613 0
M  V30 9838 C 904.051 -0.168461 -2.2858 0
M  V30 9839 C 905.064 0.630123 -1.50111 0
M  V30 9840 O 906.253 0.463086 -1.72388 0
M  V30 9841 C 903.353 0.783943 -3.29708 0
M  V30 9842 C 902.526 0.0325165 -4.37388 0
M  V30 9843 C 901.585 0.902859 -5.18396 0
M  V30 9844 O 900.611 0.355144 -5.68091 0
M  V30 9845 N 901.813 2.22542 -5.36149 0
M  V30 9846 H 904.578 -0.96709 -2.83668 0
M  V30 9847 H 902.139 -0.658043 -1.47924 0
M  V30 9848 H 904.131 1.37034 -3.80794 0
M  V30 9849 H 902.701 1.48339 -2.75162 0
M  V30 9850 H 901.921 -0.735057 -3.87286 0
M  V30 9851 H 903.209 -0.485499 -5.06478 0
M  V30 9852 H 902.607 2.69439 -4.97412 0
M  V30 9853 H 901.164 2.76113 -5.90428 0
M  V30 9854 N 904.597 1.47463 -0.556102 0
M  V30 9855 C 905.507 2.33785 0.195378 0
M  V30 9856 C 906.523 1.48123 0.913 0
M  V30 9857 O 907.699 1.81053 0.882141 0
M  V30 9858 C 904.764 3.24795 1.21282 0
M  V30 9859 C 903.825 4.26346 0.502747 0
M  V30 9860 C 903.058 5.13007 1.47172 0
M  V30 9861 O 903.281 5.02103 2.70646 0
M  V30 9862 O 902.215 5.93588 0.996814 0
M  V30 9863 H 906.041 2.99341 -0.512676 0
M  V30 9864 H 903.626 1.46004 -0.31673 0
M  V30 9865 H 905.508 3.81015 1.80016 0
M  V30 9866 H 904.183 2.61868 1.90282 0
M  V30 9867 H 903.09 3.73889 -0.125757 0
M  V30 9868 H 904.423 4.91984 -0.145779 0
M  V30 9869 N 906.075 0.2925 1.54862 0
M  V30 9870 C 907.023 -0.603186 2.24643 0
M  V30 9871 C 908.017 -1.1439 1.24946 0
M  V30 9872 O 909.223 -1.09552 1.42823 0
M  V30 9873 H 905.598 -0.213105 0.721173 0
M  V30 9874 H 907.569 0.00799278 2.98399 0
M  V30 9875 C 906.318 -1.76769 2.99413 0
M  V30 9876 H 905.641 -1.36084 3.75927 0
M  V30 9877 H 907.081 -2.37066 3.51533 0
M  V30 9878 C 905.54 -2.66669 2.05886 0
M  V30 9879 O 906.07 -3.67525 1.62136 0
M  V30 9880 N 904.276 -2.34216 1.7202 0
M  V30 9881 H 903.823 -1.52246 2.07795 0
M  V30 9882 H 903.781 -2.94635 1.09717 0
M  V30 9883 N 907.553 -1.57587 0.0200696 0
M  V30 9884 C 908.463 -2.13119 -0.980676 0
M  V30 9885 C 909.479 -1.08124 -1.36328 0
M  V30 9886 O 910.655 -1.40134 -1.44653 0
M  V30 9887 C 907.72 -2.63991 -2.24743 0
M  V30 9888 C 906.781 -3.83667 -1.9261 0
M  V30 9889 C 906.014 -4.32103 -3.13246 0
M  V30 9890 O 906.237 -3.79758 -4.25606 0
M  V30 9891 O 905.171 -5.24047 -2.96072 0
M  V30 9892 H 908.997 -2.98887 -0.538528 0
M  V30 9893 H 906.582 -1.48055 -0.19999 0
M  V30 9894 H 908.464 -2.9682 -2.99125 0
M  V30 9895 H 907.139 -1.81311 -2.68157 0
M  V30 9896 H 906.046 -3.55778 -1.15641 0
M  V30 9897 H 907.379 -4.67482 -1.54019 0
M  V30 9898 N 909.032 0.252966 -1.55557 0
M  V30 9899 C 909.962 1.31691 -1.9282 0
M  V30 9900 C 910.943 1.50516 -0.7924 0
M  V30 9901 O 912.128 1.63225 -1.05219 0
M  V30 9902 C 909.258 2.67281 -2.21762 0
M  V30 9903 C 908.212 2.6316 -3.37536 0
M  V30 9904 C 907.538 4.02488 -3.52005 0
M  V30 9905 C 908.838 2.20675 -4.73392 0
M  V30 9906 H 910.532 1.00751 -2.81939 0
M  V30 9907 H 908.078 0.483219 -1.3565 0
M  V30 9908 H 910.031 3.41842 -2.46419 0
M  V30 9909 H 908.755 2.99845 -1.29463 0
M  V30 9910 H 907.414 1.91057 -3.12878 0
M  V30 9911 H 907.062 4.32307 -2.57137 0
M  V30 9912 H 906.762 4.00621 -4.29857 0
M  V30 9913 H 908.286 4.78758 -3.78977 0
M  V30 9914 H 909.7 2.84965 -4.97461 0
M  V30 9915 H 908.097 2.29931 -5.54303 0
M  V30 9916 H 909.167 1.15831 -4.70862 0
M  V30 9917 N 910.51 1.48831 0.518367 0
M  V30 9918 C 911.757 1.57439 1.27355 0
M  V30 9919 C 912.085 0.25338 1.92843 0
M  V30 9920 O 911.34 -0.757323 1.80452 0
M  V30 9921 C 911.639 2.67003 2.3758 0
M  V30 9922 C 911.305 4.09069 1.89667 0
M  V30 9923 C 909.967 4.47733 1.76319 0
M  V30 9924 C 912.319 4.98052 1.53603 0
M  V30 9925 C 909.647 5.73173 1.25258 0
M  V30 9926 C 911.999 6.23992 1.04001 0
M  V30 9927 C 910.663 6.61503 0.892784 0
M  V30 9928 H 909.933 0.57611 0.466023 0
M  V30 9929 H 912.58 1.82595 0.577166 0
M  V30 9930 H 910.885 2.35751 3.12936 0
M  V30 9931 H 912.582 2.70876 2.95681 0
M  V30 9932 H 909.172 3.7854 2.01011 0
M  V30 9933 H 913.356 4.68849 1.62771 0
M  V30 9934 H 908.612 6.0095 1.12557 0
M  V30 9935 H 912.786 6.92331 0.751706 0
M  V30 9936 H 910.413 7.58587 0.494939 0
M  V30 9937 N 911.988 -0.768124 1.37614 0
M  V30 9938 C 912.918 -1.89537 1.36374 0
M  V30 9939 C 913.899 -1.68513 0.231803 0
M  V30 9940 O 915.084 -1.89318 0.432705 0
M  V30 9941 C 912.214 -3.26871 1.17358 0
M  V30 9942 C 911.168 -3.62466 2.27602 0
M  V30 9943 C 910.494 -4.9838 1.93705 0
M  V30 9944 C 911.794 -3.68841 3.69802 0
M  V30 9945 H 913.488 -1.90832 2.30702 0
M  V30 9946 H 911.034 -0.91672 1.11051 0
M  V30 9947 H 912.987 -4.05371 1.15119 0
M  V30 9948 H 911.711 -3.26018 0.194865 0
M  V30 9949 H 910.37 -2.86276 2.29002 0
M  V30 9950 H 910.018 -4.94071 0.943539 0
M  V30 9951 H 909.718 -5.23165 2.6753 0
M  V30 9952 H 911.242 -5.79276 1.93059 0
M  V30 9953 H 912.656 -4.37485 3.70513 0
M  V30 9954 H 911.053 -4.05126 4.42711 0
M  V30 9955 H 912.123 -2.69415 4.03167 0
M  V30 9956 N 913.466 -1.22244 -0.994698 0
M  V30 9957 C 914.714 -1.04384 -1.73056 0
M  V30 9958 C 915.035 0.422204 -1.90374 0
M  V30 9959 O 914.305 1.30383 -1.46209 0
M  V30 9960 H 912.885 -0.383263 -0.641185 0
M  V30 9961 H 915.547 -1.53725 -1.1981 0
M  V30 9962 H 914.643 -1.52021 -2.72573 0
M  V30 9963 N 914.944 1.19125 -1.03184 0
M  V30 9964 C 915.877 2.21229 -0.559739 0
M  V30 9965 C 916.855 1.57578 0.400998 0
M  V30 9966 O 918.039 1.85809 0.317399 0
M  V30 9967 C 915.166 3.38203 0.183442 0
M  V30 9968 C 914.212 4.2022 -0.729182 0
M  V30 9969 S 915.045 4.87903 -2.20706 0
M  V30 9970 C 916.201 6.08284 -1.47448 0
M  V30 9971 H 916.434 2.60932 -1.42484 0
M  V30 9972 H 913.967 1.29419 -0.842028 0
M  V30 9973 H 915.925 4.06001 0.606084 0
M  V30 9974 H 914.586 2.96929 1.02432 0
M  V30 9975 H 913.779 5.03761 -0.155272 0
M  V30 9976 H 913.381 3.57755 -1.09028 0
M  V30 9977 H 915.673 6.73193 -0.762687 0
M  V30 9978 H 916.616 6.70165 -2.28659 0
M  V30 9979 H 917.024 5.56092 -0.97068 0
M  V30 9980 N 916.422 0.810101 1.35185 0
M  V30 9981 C 917.652 0.404109 2.02609 0
M  V30 9982 C 918.06 -0.990748 1.61186 0
M  V30 9983 O 917.403 -1.65038 0.80674 0
M  V30 9984 C 917.465 0.412047 3.57131 0
M  V30 9985 C 917.129 1.75802 4.21832 0
M  V30 9986 C 918.126 2.71687 4.43263 0
M  V30 9987 C 915.811 2.04299 4.58876 0
M  V30 9988 C 917.805 3.9425 5.00845 0
M  V30 9989 C 915.492 3.27125 5.16171 0
M  V30 9990 C 916.49 4.21918 5.37098 0
M  V30 9991 O 916.178 5.42576 5.93184 0
M  V30 9992 H 915.91 0.161914 0.656323 0
M  V30 9993 H 918.464 1.09605 1.73712 0
M  V30 9994 H 916.694 -0.336509 3.85233 0
M  V30 9995 H 918.383 0.0278817 4.0589 0
M  V30 9996 H 919.149 2.50964 4.15021 0
M  V30 9997 H 915.028 1.31324 4.41899 0
M  V30 9998 H 918.572 4.68251 5.17094 0
M  V30 9999 H 914.469 3.47718 5.43841 0
M  V30 10000 H 915.237 5.43921 6.11631 0
M  V30 10001 N 917.9 -1.47166 0.563914 0
M  V30 10002 C 919.311 -1.86231 0.132307 0
M  V30 10003 C 919.662 -1.46976 -1.29971 0
M  V30 10004 O 918.787 -0.875911 -1.97881 0
M  V30 10005 C 919.382 -3.37996 0.233335 0
M  V30 10006 C 917.941 -3.76127 -0.143278 0
M  V30 10007 C 917.088 -2.71212 0.577857 0
M  V30 10008 H 920.039 -1.38588 0.773249 0
M  V30 10009 H 920.06 -3.76558 -0.546309 0
M  V30 10010 H 919.572 -3.66535 1.27568 0
M  V30 10011 H 917.673 -3.53205 -1.18648 0
M  V30 10012 H 917.786 -4.78595 0.219952 0
M  V30 10013 H 916.15 -2.54692 0.020186 0
M  V30 10014 H 916.933 -3.02593 1.62149 0
M  V30 10015 N 919.378 -0.300708 -1.54705 0
M  V30 10016 C 920.288 0.584996 -2.27189 0
M  V30 10017 C 921.304 1.14866 -1.30697 0
M  V30 10018 O 922.48 1.17351 -1.63679 0
M  V30 10019 C 919.545 1.74076 -2.99831 0
M  V30 10020 C 918.606 1.2112 -4.1186 0
M  V30 10021 C 917.839 2.31188 -4.81028 0
M  V30 10022 O 918.062 3.5108 -4.49554 0
M  V30 10023 O 916.996 1.97897 -5.68437 0
M  V30 10024 H 920.822 -0.00298177 -3.037 0
M  V30 10025 H 918.407 -0.0671802 -1.49249 0
M  V30 10026 H 920.289 2.41413 -3.45395 0
M  V30 10027 H 918.964 2.31535 -2.26215 0
M  V30 10028 H 917.871 0.50357 -3.70695 0
M  V30 10029 H 919.204 0.682046 -4.87452 0
M  V30 10030 N 920.856 1.57574 -0.0284266 0
M  V30 10031 C 921.766 2.13637 0.96936 0
M  V30 10032 C 922.782 1.08845 1.35752 0
M  V30 10033 O 923.958 1.40899 1.43908 0
M  V30 10034 C 921.023 2.65179 2.2334 0
M  V30 10035 C 920.084 3.84683 1.90572 0
M  V30 10036 C 919.317 4.33758 3.1095 0
M  V30 10037 O 919.54 3.82009 4.23586 0
M  V30 10038 O 918.474 5.2561 2.93288 0
M  V30 10039 H 922.3 2.99169 0.52267 0
M  V30 10040 H 919.885 1.48159 0.192135 0
M  V30 10041 H 921.767 2.98402 2.97547 0
M  V30 10042 H 920.442 1.82731 2.67191 0
M  V30 10043 H 919.349 3.56386 1.13753 0
M  V30 10044 H 920.682 4.68292 1.51538 0
M  V30 10045 N 922.334 -0.244713 1.55689 0
M  V30 10046 C 923.284 -1.30596 1.86892 0
M  V30 10047 C 924.268 -1.43388 0.729972 0
M  V30 10048 O 925.46 -1.46593 0.99194 0
M  V30 10049 C 922.589 -2.66099 2.16902 0
M  V30 10050 C 921.675 -2.57302 3.37129 0
M  V30 10051 N 922.066 -2.18139 4.56343 0
M  V30 10052 C 920.364 -2.88311 3.40283 0
M  V30 10053 C 921.065 -2.20028 5.38482 0
M  V30 10054 N 920.041 -2.59616 4.77599 0
M  V30 10055 H 923.843 -0.993699 2.76591 0
M  V30 10056 H 921.357 -0.453334 1.55944 0
M  V30 10057 H 923.354 -3.4269 2.37422 0
M  V30 10058 H 922.014 -2.9819 1.28502 0
M  V30 10059 H 923.025 -1.89647 4.81928 0
M  V30 10060 H 919.702 -3.24928 2.62161 0
M  V30 10061 H 921.092 -1.9207 6.43862 0
M  V30 10062 N 923.813 -1.49104 -0.510467 0
M  V30 10063 C 925.06 -1.58112 -1.26518 0
M  V30 10064 C 925.388 -0.263603 -1.92705 0
M  V30 10065 O 924.643 0.747743 -1.80852 0
M  V30 10066 C 924.942 -2.68259 -2.36161 0
M  V30 10067 C 924.608 -4.10069 -1.87495 0
M  V30 10068 C 923.27 -4.48662 -1.73942 0
M  V30 10069 C 925.622 -4.98859 -1.5096 0
M  V30 10070 C 922.95 -5.73829 -1.22217 0
M  V30 10071 C 925.302 -6.24535 -1.00691 0
M  V30 10072 C 923.966 -6.61967 -0.857691 0
M  V30 10073 H 923.236 -0.578574 -0.462962 0
M  V30 10074 H 925.883 -1.82899 -0.567475 0
M  V30 10075 H 924.188 -2.37407 -3.11681 0
M  V30 10076 H 925.885 -2.7244 -2.9424 0
M  V30 10077 H 922.475 -3.79601 -1.99001 0
M  V30 10078 H 926.659 -4.69706 -1.60282 0
M  V30 10079 H 921.915 -6.01539 -1.09368 0
M  V30 10080 H 926.089 -6.9272 -0.71498 0
M  V30 10081 H 923.716 -7.58839 -0.454702 0
M  V30 10082 N 925.291 0.760815 -1.38019 0
M  V30 10083 C 926.54 1.51506 -1.3315 0
M  V30 10084 C 926.853 1.95444 0.0782124 0
M  V30 10085 O 928.059 2.70352 0.249418 0
M  V30 10086 C 926.515 2.73636 -2.33776 0
M  V30 10087 C 926.123 2.36753 -3.80332 0
M  V30 10088 C 927.867 3.51548 -2.37937 0
M  V30 10089 C 925.774 3.55451 -4.72661 0
M  V30 10090 H 924.704 0.568844 -0.494907 0
M  V30 10091 H 927.355 0.832343 -1.63537 0
M  V30 10092 H 925.737 3.43852 -1.96422 0
M  V30 10093 H 926.911 1.7425 -4.26584 0
M  V30 10094 H 925.226 1.71991 -3.7922 0
M  V30 10095 H 927.823 4.39791 -3.04119 0
M  V30 10096 H 928.166 3.9219 -1.39617 0
M  V30 10097 H 928.699 2.88339 -2.74054 0
M  V30 10098 H 925.438 3.19882 -5.7215 0
M  V30 10099 H 924.958 4.17022 -4.31107 0
M  V30 10100 H 926.637 4.22125 -4.90326 0
M  V30 10101 N 926.769 1.22769 0.988202 0
M  V30 10102 C 927.679 1.01844 2.11341 0
M  V30 10103 C 928.695 -0.0346937 1.73965 0
M  V30 10104 O 929.871 0.159061 2.00771 0
M  V30 10105 C 926.936 0.603837 3.41401 0
M  V30 10106 C 925.997 1.73113 3.92849 0
M  V30 10107 C 925.23 1.33621 5.16702 0
M  V30 10108 O 925.453 0.217041 5.69987 0
M  V30 10109 O 924.387 2.15444 5.62021 0
M  V30 10110 H 928.213 1.96127 2.31879 0
M  V30 10111 H 925.798 1.01405 1.09715 0
M  V30 10112 H 927.68 0.383196 4.19654 0
M  V30 10113 H 926.355 -0.310082 3.22211 0
M  V30 10114 H 925.262 2.00634 3.15748 0
M  V30 10115 H 926.595 2.62308 4.1648 0
M  V30 10116 N 928.247 -1.18576 1.03814 0
M  V30 10117 C 929.194 -2.2212 0.626988 0
M  V30 10118 C 930.164 -1.62064 -0.363912 0
M  V30 10119 O 931.349 -1.89041 -0.258469 0
M  V30 10120 C 928.489 -3.45099 -0.00650133 0
M  V30 10121 C 927.602 -4.19503 1.03156 0
M  V30 10122 C 926.737 -5.29932 0.366852 0
M  V30 10123 C 925.776 -5.96104 1.39018 0
M  V30 10124 N 924.913 -6.98076 0.750625 0
M  V30 10125 H 929.753 -2.56646 1.51449 0
M  V30 10126 H 927.29 -1.26084 0.757702 0
M  V30 10127 H 929.248 -4.15363 -0.391108 0
M  V30 10128 H 927.878 -3.11201 -0.857536 0
M  V30 10129 H 926.93 -3.48092 1.53414 0
M  V30 10130 H 928.242 -4.64843 1.80893 0
M  V30 10131 H 927.396 -6.06657 -0.0720979 0
M  V30 10132 H 926.135 -4.85687 -0.442631 0
M  V30 10133 H 925.14 -5.18122 1.8393 0
M  V30 10134 H 926.365 -6.42432 2.20132 0
M  V30 10135 H 924.311 -6.55989 -0.0385981 0
M  V30 10136 H 924.228 -7.41655 1.46574 0
M  V30 10137 H 925.496 -7.78776 0.335986 0
M  V30 10138 N 929.725 -0.817259 -1.34754 0
M  V30 10139 C 931.136 -0.462215 -1.80888 0
M  V30 10140 C 931.487 1.01685 -1.67794 0
M  V30 10141 O 930.612 1.79094 -1.21468 0
M  V30 10142 C 931.207 -0.832204 -3.2842 0
M  V30 10143 C 929.766 -0.52961 -3.72655 0
M  V30 10144 C 928.913 -1.05214 -2.56564 0
M  V30 10145 H 931.864 -1.00795 -1.22581 0
M  V30 10146 H 931.885 -0.133804 -3.80265 0
M  V30 10147 H 931.397 -1.90873 -3.37919 0
M  V30 10148 H 929.498 0.537743 -3.68699 0
M  V30 10149 H 929.611 -1.06971 -4.67005 0
M  V30 10150 H 927.975 -0.473949 -2.50251 0
M  V30 10151 H 928.758 -2.135 -2.68836 0
M  V30 10152 N 931.203 1.46865 -0.571711 0
M  V30 10153 C 932.449 2.0273 -0.0531858 0
M  V30 10154 C 932.782 1.44353 1.29907 0
M  V30 10155 O 932.057 0.604488 1.84868 0
M  V30 10156 C 932.34 3.60092 0.0243831 0
M  V30 10157 C 932.193 4.28874 -1.35599 0
M  V30 10158 C 933.512 4.33994 0.730563 0
M  V30 10159 H 930.631 0.736706 -0.0208018 0
M  V30 10160 H 933.273 1.75132 -0.736794 0
M  V30 10161 H 931.423 3.83736 0.606565 0
M  V30 10162 H 933.095 4.16527 -1.98249 0
M  V30 10163 H 931.338 3.88664 -1.92674 0
M  V30 10164 H 932.009 5.37561 -1.25429 0
M  V30 10165 H 934.485 4.1543 0.236098 0
M  V30 10166 H 933.361 5.43699 0.753836 0
M  V30 10167 H 933.622 4.04257 1.78967 0
M  V30 10168 N 932.681 0.308908 1.54543 0
M  V30 10169 C 933.628 -0.563659 2.23811 0
M  V30 10170 C 934.598 -1.12332 1.22355 0
M  V30 10171 O 935.783 -1.16638 1.50997 0
M  V30 10172 C 932.923 -1.72585 2.98845 0
M  V30 10173 C 932.036 -1.19682 4.1509 0
M  V30 10174 C 931.171 -2.32351 4.77688 0
M  V30 10175 C 930.21 -1.76623 5.86064 0
M  V30 10176 N 929.347 -2.82896 6.42584 0
M  V30 10177 H 934.187 0.0336288 2.97981 0
M  V30 10178 H 931.724 0.0283666 1.47073 0
M  V30 10179 H 933.682 -2.40951 3.40586 0
M  V30 10180 H 932.312 -2.29464 2.27037 0
M  V30 10181 H 931.364 -0.405173 3.78236 0
M  V30 10182 H 932.676 -0.748923 4.93146 0
M  V30 10183 H 931.83 -3.0865 5.22322 0
M  V30 10184 H 930.569 -2.80472 3.98982 0
M  V30 10185 H 929.574 -0.988171 5.40847 0
M  V30 10186 H 930.799 -1.29398 6.66658 0
M  V30 10187 H 928.745 -3.30336 5.66758 0
M  V30 10188 H 928.662 -2.42626 7.16009 0
M  V30 10189 H 929.93 -3.59068 6.91875 0
M  V30 10190 N 934.159 -1.57557 0.0367827 0
M  V30 10191 C 935.069 -2.14148 -0.958017 0
M  V30 10192 C 936.085 -1.09564 -1.35173 0
M  V30 10193 O 937.261 -1.4166 -1.43158 0
M  V30 10194 C 934.326 -2.6636 -2.21931 0
M  V30 10195 C 933.387 -3.85688 -1.8853 0
M  V30 10196 C 932.62 -4.35401 -3.08645 0
M  V30 10197 O 932.843 -3.8425 -4.21554 0
M  V30 10198 O 931.777 -5.27158 -2.90497 0
M  V30 10199 H 935.603 -2.99442 -0.506797 0
M  V30 10200 H 933.188 -1.48259 -0.184275 0
M  V30 10201 H 935.07 -2.99976 -2.9596 0
M  V30 10202 H 933.745 -1.84145 -2.66219 0
M  V30 10203 H 932.652 -3.56985 -1.11861 0
M  V30 10204 H 933.985 -4.69089 -1.49052 0
M  V30 10205 N 935.637 0.236453 -1.55816 0
M  V30 10206 C 936.6 1.27633 -1.90375 0
M  V30 10207 C 937.6 1.40557 -0.781048 0
M  V30 10208 O 938.79 1.39078 -1.04895 0
M  V30 10209 C 935.922 2.65247 -2.14142 0
M  V30 10210 H 937.115 0.982019 -2.83366 0
M  V30 10211 H 934.668 0.476215 -1.48869 0
M  V30 10212 H 935.403 2.99801 -1.23653 0
M  V30 10213 H 935.188 2.57246 -2.95917 0
M  V30 10214 H 936.678 3.40313 -2.42026 0
M  V30 10215 N 937.115 1.49373 0.502552 0
M  V30 10216 C 938.048 1.60529 1.6219 0
M  V30 10217 C 939.026 0.454431 1.56121 0
M  V30 10218 O 940.21 0.669768 1.762 0
M  V30 10219 C 937.337 1.55879 3.00698 0
M  V30 10220 C 936.383 2.76143 3.25034 0
M  V30 10221 S 937.216 4.37831 3.08325 0
M  V30 10222 C 938.372 4.35824 4.49231 0
M  V30 10223 H 938.605 2.55219 1.52482 0
M  V30 10224 H 936.138 1.38244 0.687594 0
M  V30 10225 H 938.096 1.53882 3.80566 0
M  V30 10226 H 936.757 0.624791 3.07823 0
M  V30 10227 H 935.95 2.69104 4.26144 0
M  V30 10228 H 935.552 2.75544 2.52886 0
M  V30 10229 H 937.844 4.07447 5.41288 0
M  V30 10230 H 938.787 5.37206 4.6132 0
M  V30 10231 H 939.195 3.65923 4.29838 0
M  V30 10232 N 938.594 -0.753485 1.38421 0
M  V30 10233 C 939.557 -1.84888 1.35459 0
M  V30 10234 C 940.557 -1.58764 0.255083 0
M  V30 10235 O 941.747 -1.66507 0.511978 0
M  V30 10236 C 938.879 -3.22361 1.10888 0
M  V30 10237 H 940.072 -1.88922 2.32913 0
M  V30 10238 H 937.625 -0.955199 1.23716 0
M  V30 10239 H 938.36 -3.23996 0.1404 0
M  V30 10240 H 938.145 -3.42717 1.90492 0
M  V30 10241 H 939.635 -4.02437 1.1151 0
M  V30 10242 N 940.072 -1.23292 -0.981677 0
M  V30 10243 C 941.488 -0.995295 -1.24764 0
M  V30 10244 C 941.688 0.304379 -1.99188 0
M  V30 10245 O 940.744 1.02414 -2.30798 0
M  V30 10246 C 942.057 -2.20135 -2.04844 0
M  V30 10247 C 943.605 -2.24612 -2.17988 0
M  V30 10248 C 944.08 -3.448 -3.01458 0
M  V30 10249 N 945.571 -3.45031 -3.09044 0
M  V30 10250 C 946.306 -4.34683 -3.7395 0
M  V30 10251 N 945.802 -5.34569 -4.4069 0
M  V30 10252 N 947.595 -4.22429 -3.70823 0
M  V30 10253 H 939.746 -2.06834 -0.483052 0
M  V30 10254 H 942.009 -0.906929 -0.276014 0
M  V30 10255 H 941.715 -3.14446 -1.57532 0
M  V30 10256 H 941.589 -2.21115 -3.05594 0
M  V30 10257 H 943.976 -1.30841 -2.64508 0
M  V30 10258 H 944.057 -2.27664 -1.16631 0
M  V30 10259 H 943.701 -4.38877 -2.55635 0
M  V30 10260 H 943.631 -3.38988 -4.02982 0
M  V30 10261 H 946.122 -2.72759 -2.61555 0
M  V30 10262 H 946.435 -5.99236 -4.87991 0
M  V30 10263 H 944.78 -5.3847 -4.39403 0
M  V30 10264 H 947.971 -3.43639 -3.17851 0
M  V30 10265 H 948.144 -4.92501 -4.21126 0
M  V30 10266 N 941.55 1.18024 -1.04442 0
M  V30 10267 C 942.797 1.88098 -0.750022 0
M  V30 10268 C 943.125 1.80583 0.722489 0
M  V30 10269 O 942.38 1.20329 1.54335 0
M  V30 10270 C 942.679 3.37834 -1.16631 0
M  V30 10271 C 942.345 3.65553 -2.63974 0
M  V30 10272 C 941.007 3.72827 -3.04226 0
M  V30 10273 C 943.359 3.77634 -3.59224 0
M  V30 10274 C 940.687 3.89666 -4.38608 0
M  V30 10275 C 943.039 3.9599 -4.9333 0
M  V30 10276 C 941.703 4.01501 -5.33248 0
M  V30 10277 H 940.973 0.6883 -0.274452 0
M  V30 10278 H 943.62 1.39671 -1.31012 0
M  V30 10279 H 941.925 3.88266 -0.525071 0
M  V30 10280 H 943.622 3.90402 -0.915827 0
M  V30 10281 H 940.212 3.6051 -2.31798 0
M  V30 10282 H 944.396 3.71342 -3.2927 0
M  V30 10283 H 939.652 3.92178 -4.69048 0
M  V30 10284 H 943.826 4.0428 -5.67037 0
M  V30 10285 H 941.453 4.14301 -6.37384 0
M  V30 10286 N 943.028 0.824394 1.34319 0
M  V30 10287 C 944.444 0.510336 1.51221 0
M  V30 10288 C 944.644 -0.965201 1.76879 0
M  V30 10289 O 943.7 -1.74961 1.82057 0
M  V30 10290 C 945.013 1.37114 2.6762 0
M  V30 10291 C 946.561 1.36842 2.81502 0
M  V30 10292 C 947.036 2.21374 4.00946 0
M  V30 10293 N 948.527 2.19005 4.08156 0
M  V30 10294 C 949.262 2.81159 4.99737 0
M  V30 10295 N 948.758 3.52309 5.96532 0
M  V30 10296 N 950.551 2.70706 4.9262 0
M  V30 10297 H 942.702 1.77976 1.15924 0
M  V30 10298 H 944.965 0.758503 0.568663 0
M  V30 10299 H 944.671 2.41905 2.55294 0
M  V30 10300 H 944.545 1.03689 3.62669 0
M  V30 10301 H 946.932 0.328284 2.93268 0
M  V30 10302 H 947.013 1.74265 1.87257 0
M  V30 10303 H 946.657 3.25437 3.8994 0
M  V30 10304 H 946.587 1.813 4.94407 0
M  V30 10305 H 949.078 1.67252 3.38874 0
M  V30 10306 H 949.391 3.96977 6.63045 0
M  V30 10307 H 947.736 3.56415 5.96652 0
M  V30 10308 H 950.927 2.14694 4.15962 0
M  V30 10309 H 951.1 3.19431 5.63798 0
M  V30 10310 N 944.506 -1.46559 0.579492 0
M  V30 10311 C 945.453 -2.30275 -0.155598 0
M  V30 10312 C 946.423 -1.40422 -0.887175 0
M  V30 10313 O 947.608 -1.69373 -0.878481 0
M  V30 10314 C 944.748 -3.24827 -1.16539 0
M  V30 10315 C 943.861 -4.29778 -0.43759 0
M  V30 10316 C 942.996 -5.11461 -1.43462 0
M  V30 10317 C 942.035 -6.08164 -0.693048 0
M  V30 10318 N 941.172 -6.82726 -1.63799 0
M  V30 10319 H 946.012 -2.92607 0.564356 0
M  V30 10320 H 943.549 -1.44211 0.290126 0
M  V30 10321 H 945.507 -3.78088 -1.76368 0
M  V30 10322 H 944.137 -2.64311 -1.8531 0
M  V30 10323 H 943.189 -3.794 0.27567 0
M  V30 10324 H 944.501 -4.98597 0.142298 0
M  V30 10325 H 943.655 -5.68982 -2.1058 0
M  V30 10326 H 942.394 -4.42595 -2.04844 0
M  V30 10327 H 941.399 -5.49799 -0.00807093 0
M  V30 10328 H 942.624 -6.79047 -0.0846678 0
M  V30 10329 H 940.57 -6.16572 -2.23997 0
M  V30 10330 H 940.487 -7.47795 -1.11082 0
M  V30 10331 H 941.755 -7.44807 -2.29962 0
M  V30 10332 N 945.984 -0.3171 -1.54377 0
M  V30 10333 C 946.932 0.567371 -2.25574 0
M  V30 10334 C 947.926 1.12387 -1.2675 0
M  V30 10335 O 949.132 1.07266 -1.44548 0
M  V30 10336 H 945.507 0.201605 -0.724472 0
M  V30 10337 H 947.478 -0.0554644 -2.98348 0
M  V30 10338 C 946.227 1.71984 -3.02187 0
M  V30 10339 H 945.55 1.30086 -3.78044 0
M  V30 10340 H 946.99 2.31443 -3.5526 0
M  V30 10341 C 945.449 2.6336 -2.10103 0
M  V30 10342 O 945.979 3.64899 -1.67962 0
M  V30 10343 N 944.185 2.3145 -1.75725 0
M  V30 10344 H 943.732 1.48921 -2.10191 0
M  V30 10345 H 943.69 2.92852 -1.14391 0
M  V30 10346 N 947.462 1.57535 -0.0451378 0
M  V30 10347 C 948.392 2.14208 0.929372 0
M  V30 10348 C 949.373 1.06221 1.32858 0
M  V30 10349 O 950.558 1.34132 1.40436 0
M  V30 10350 C 947.688 2.68217 2.20629 0
M  V30 10351 C 946.642 3.81134 1.94734 0
M  V30 10352 C 945.968 4.21636 3.28828 0
M  V30 10353 C 947.268 5.06531 1.27374 0
M  V30 10354 H 948.962 2.95886 0.457348 0
M  V30 10355 H 946.508 1.42332 0.218544 0
M  V30 10356 H 948.461 3.06502 2.89196 0
M  V30 10357 H 947.185 1.83722 2.70026 0
M  V30 10358 H 945.844 3.43312 1.28579 0
M  V30 10359 H 945.492 3.34099 3.76014 0
M  V30 10360 H 945.192 4.97736 3.12302 0
M  V30 10361 H 946.716 4.62516 3.98637 0
M  V30 10362 H 948.13 5.423 1.85967 0
M  V30 10363 H 946.527 5.87735 1.21194 0
M  V30 10364 H 947.597 4.84261 0.248913 0
M  V30 10365 N 948.94 -0.228186 1.55939 0
M  V30 10366 C 949.85 -1.30386 1.9503 0
M  V30 10367 C 950.866 -1.51645 0.853218 0
M  V30 10368 O 952.042 -1.64904 1.15623 0
M  V30 10369 C 949.107 -2.63489 2.25332 0
M  V30 10370 C 948.168 -2.5059 3.48573 0
M  V30 10371 C 947.401 -3.77345 3.7742 0
M  V30 10372 O 947.624 -4.80067 3.08045 0
M  V30 10373 O 946.558 -3.74855 4.70922 0
M  V30 10374 H 950.384 -1.0022 2.86687 0
M  V30 10375 H 947.969 -0.430503 1.43063 0
M  V30 10376 H 949.851 -3.4211 2.46046 0
M  V30 10377 H 948.526 -2.93349 1.3685 0
M  V30 10378 H 947.433 -1.70191 3.33145 0
M  V30 10379 H 948.766 -2.2567 4.37417 0
M  V30 10380 N 950.418 -1.49637 -0.494624 0
M  V30 10381 C 951.381 -1.66252 -1.57775 0
M  V30 10382 C 952.381 -0.534054 -1.51672 0
M  V30 10383 O 953.571 -0.800637 -1.54711 0
M  V30 10384 C 950.703 -1.66584 -2.97426 0
M  V30 10385 H 951.896 -2.62864 -1.4437 0
M  V30 10386 H 949.449 -1.38764 -0.719323 0
M  V30 10387 H 950.184 -0.715798 -3.16302 0
M  V30 10388 H 949.969 -2.48543 -3.03264 0
M  V30 10389 H 951.459 -1.81474 -3.76108 0
M  V30 10390 N 951.896 0.746133 -1.38819 0
M  V30 10391 C 953.145 1.50085 -1.34749 0
M  V30 10392 C 953.458 1.95516 0.0574786 0
M  V30 10393 O 954.664 2.70601 0.22073 0
M  V30 10394 C 953.12 2.71141 -2.36665 0
M  V30 10395 C 952.728 2.32706 -3.82821 0
M  V30 10396 C 954.472 3.49005 -2.41652 0
M  V30 10397 C 952.379 3.50418 -4.76405 0
M  V30 10398 H 951.309 0.563563 -0.500912 0
M  V30 10399 H 953.96 0.814951 -1.6441 0
M  V30 10400 H 952.342 3.4175 -2.00058 0
M  V30 10401 H 953.516 1.69715 -4.28408 0
M  V30 10402 H 951.831 1.67959 -3.81023 0
M  V30 10403 H 954.428 4.36541 -3.08766 0
M  V30 10404 H 954.771 3.90687 -1.43769 0
M  V30 10405 H 955.304 2.85416 -2.77097 0
M  V30 10406 H 952.043 3.13795 -5.75511 0
M  V30 10407 H 951.563 4.12426 -4.35505 0
M  V30 10408 H 953.242 4.16901 -4.94775 0
M  V30 10409 N 953.375 1.23811 0.975125 0
M  V30 10410 C 954.621 1.07495 1.71967 0
M  V30 10411 C 954.954 -0.386451 1.90316 0
M  V30 10412 O 954.229 -1.28591 1.45927 0
M  V30 10413 C 954.512 1.80694 3.11483 0
M  V30 10414 C 954.365 3.3454 3.00671 0
M  V30 10415 C 955.684 1.57367 4.11003 0
M  V30 10416 H 952.803 0.3919 0.624166 0
M  V30 10417 H 955.445 1.52383 1.13487 0
M  V30 10418 H 953.595 1.42538 3.61407 0
M  V30 10419 H 955.267 3.8225 2.5823 0
M  V30 10420 H 953.51 3.63301 2.37054 0
M  V30 10421 H 954.181 3.80951 3.99475 0
M  V30 10422 H 956.657 1.90545 3.69908 0
M  V30 10423 H 955.533 2.11052 5.06703 0
M  V30 10424 H 955.794 0.510221 4.39146 0
M  V30 10425 N 954.853 -1.17469 1.05066 0
M  V30 10426 C 956.078 -1.92162 0.780298 0
M  V30 10427 C 956.503 -1.76222 -0.657832 0
M  V30 10428 O 955.861 -1.0791 -1.45688 0
M  V30 10429 C 955.909 -3.41292 1.16414 0
M  V30 10430 O 955.013 -4.1134 0.295531 0
M  V30 10431 H 954.354 -0.599127 0.286257 0
M  V30 10432 H 956.884 -1.48903 1.40318 0
M  V30 10433 H 956.894 -3.92029 1.13036 0
M  V30 10434 H 955.569 -3.52214 2.21175 0
M  V30 10435 H 954.146 -3.70857 0.389797 0
M  V30 10436 N 956.331 -0.831506 -1.3388 0
M  V30 10437 C 957.577 -0.424302 -1.98312 0
M  V30 10438 C 957.91 1.01211 -1.65741 0
M  V30 10439 O 957.185 1.70636 -0.933464 0
M  V30 10440 C 957.468 -0.636815 -3.54424 0
M  V30 10441 C 957.321 -2.11997 -3.96708 0
M  V30 10442 C 958.64 -0.0782411 -4.4003 0
M  V30 10443 H 955.759 -0.155637 -0.720379 0
M  V30 10444 H 958.401 -1.04566 -1.58638 0
M  V30 10445 H 956.551 -0.107907 -3.8835 0
M  V30 10446 H 958.223 -2.71317 -3.73075 0
M  V30 10447 H 956.466 -2.60723 -3.46707 0
M  V30 10448 H 957.137 -2.21944 -5.05416 0
M  V30 10449 H 959.613 -0.530243 -4.12708 0
M  V30 10450 H 958.489 -0.256676 -5.483 0
M  V30 10451 H 958.75 1.01745 -4.30233 0
M  V30 10452 N 957.809 1.4625 -0.587256 0
M  V30 10453 C 959.058 2.01571 -0.0722643 0
M  V30 10454 C 959.371 1.46385 1.29733 0
M  V30 10455 O 960.577 1.93554 1.90392 0
M  V30 10456 C 959.033 3.59814 -0.078579 0
M  V30 10457 C 958.641 4.23996 -1.44678 0
M  V30 10458 C 960.385 4.22776 0.382231 0
M  V30 10459 C 958.292 5.74332 -1.41057 0
M  V30 10460 H 957.222 0.753642 -0.0232461 0
M  V30 10461 H 959.873 1.67936 -0.739577 0
M  V30 10462 H 958.255 3.90546 0.654988 0
M  V30 10463 H 959.429 4.04867 -2.20043 0
M  V30 10464 H 957.744 3.73147 -1.84799 0
M  V30 10465 H 960.341 5.32983 0.428182 0
M  V30 10466 H 960.684 3.92027 1.40072 0
M  V30 10467 H 961.217 3.96687 -0.297417 0
M  V30 10468 H 957.956 6.09747 -2.40601 0
M  V30 10469 H 957.476 5.95711 -0.699185 0
M  V30 10470 H 959.155 6.37137 -1.12543 0
M  V30 10471 N 959.287 0.325282 1.54207 0
M  V30 10472 C 960.25 -0.527228 2.23054 0
M  V30 10473 C 961.25 -1.04217 1.22456 0
M  V30 10474 O 962.44 -0.934325 1.47024 0
M  V30 10475 C 959.572 -1.7325 2.93594 0
M  V30 10476 H 960.765 0.0746423 2.99807 0
M  V30 10477 H 958.318 0.0763872 1.56113 0
M  V30 10478 H 959.053 -2.37356 2.20981 0
M  V30 10479 H 958.838 -1.37065 3.67363 0
M  V30 10480 H 960.328 -2.3376 3.46043 0
M  V30 10481 N 960.765 -1.57509 0.0534917 0
M  V30 10482 C 961.675 -2.15152 -0.935249 0
M  V30 10483 C 962.691 -1.10991 -1.34003 0
M  V30 10484 O 963.867 -1.43171 -1.41648 0
M  V30 10485 C 960.932 -2.68699 -2.19093 0
M  V30 10486 C 959.993 -3.87666 -1.84428 0
M  V30 10487 C 959.226 -4.3865 -3.0401 0
M  V30 10488 O 959.449 -3.887 -4.17455 0
M  V30 10489 O 958.383 -5.30209 -2.84889 0
M  V30 10490 H 962.209 -2.99962 -0.475009 0
M  V30 10491 H 959.794 -1.48446 -0.16854 0
M  V30 10492 H 961.676 -3.03098 -2.92762 0
M  V30 10493 H 960.351 -1.86958 -2.6425 0
M  V30 10494 H 959.258 -3.58151 -1.08068 0
M  V30 10495 H 960.591 -4.70643 -1.44068 0
M  V30 10496 N 962.243 0.219913 -1.56058 0
M  V30 10497 C 963.659 0.569685 -1.49086 0
M  V30 10498 C 963.859 1.87066 -0.748903 0
M  V30 10499 O 962.915 2.50838 -0.289235 0
M  V30 10500 C 964.228 0.647397 -2.93648 0
M  V30 10501 C 965.776 0.737914 -3.04177 0
M  V30 10502 C 966.251 0.846957 -4.50101 0
M  V30 10503 N 967.742 0.911136 -4.5415 0
M  V30 10504 C 968.477 1.01525 -5.64341 0
M  V30 10505 N 967.973 1.0832 -6.8428 0
M  V30 10506 N 969.766 1.05051 -5.52196 0
M  V30 10507 H 961.917 -0.633778 -2.02724 0
M  V30 10508 H 964.18 -0.222583 -0.921499 0
M  V30 10509 H 963.886 -0.238987 -3.50887 0
M  V30 10510 H 963.76 1.51046 -3.45637 0
M  V30 10511 H 966.147 1.61474 -2.47002 0
M  V30 10512 H 966.228 -0.150845 -2.55355 0
M  V30 10513 H 965.872 -0.0254166 -5.07894 0
M  V30 10514 H 965.802 1.75116 -4.96631 0
M  V30 10515 H 968.293 0.868869 -3.67776 0
M  V30 10516 H 968.606 1.16247 -7.64007 0
M  V30 10517 H 966.951 1.05231 -6.86987 0
M  V30 10518 H 970.142 0.994086 -4.57423 0
M  V30 10519 H 970.315 1.12819 -6.38103 0
M  V30 10520 N 963.721 1.49897 0.486681 0
M  V30 10521 C 964.669 1.68125 1.60738 0
M  V30 10522 C 965.663 0.547097 1.60322 0
M  V30 10523 O 966.869 0.727153 1.64659 0
M  V30 10524 H 963.244 0.530391 0.533094 0
M  V30 10525 H 965.215 2.62165 1.42521 0
M  V30 10526 C 963.964 1.77827 2.98786 0
M  V30 10527 H 963.287 2.6448 2.99818 0
M  V30 10528 H 964.727 1.94611 3.76699 0
M  V30 10529 C 963.186 0.526287 3.32764 0
M  V30 10530 O 963.716 -0.341607 4.00245 0
M  V30 10531 N 961.922 0.384947 2.88039 0
M  V30 10532 H 961.469 1.09222 2.33299 0
M  V30 10533 H 961.427 -0.451618 3.11139 0
M  V30 10534 N 965.199 -0.738761 1.39212 0
M  V30 10535 C 966.146 -1.85273 1.37631 0
M  V30 10536 C 967.116 -1.64407 0.236572 0
M  V30 10537 O 968.301 -1.85866 0.431104 0
M  V30 10538 C 965.441 -3.22745 1.22188 0
M  V30 10539 C 964.554 -3.55342 2.45674 0
M  V30 10540 C 963.689 -4.82195 2.22847 0
M  V30 10541 C 962.728 -5.07625 3.42029 0
M  V30 10542 N 961.865 -6.25679 3.18543 0
M  V30 10543 H 966.705 -1.85959 2.32859 0
M  V30 10544 H 964.242 -0.908716 1.15675 0
M  V30 10545 H 966.2 -4.02095 1.11245 0
M  V30 10546 H 964.83 -3.21347 0.30592 0
M  V30 10547 H 963.882 -2.70722 2.67233 0
M  V30 10548 H 965.194 -3.70054 3.34457 0
M  V30 10549 H 964.348 -5.69518 2.09126 0
M  V30 10550 H 963.087 -4.6965 1.31454 0
M  V30 10551 H 962.092 -4.18765 3.56253 0
M  V30 10552 H 963.317 -5.22058 4.34319 0
M  V30 10553 H 961.263 -6.14429 2.2981 0
M  V30 10554 H 961.18 -6.40961 4.0088 0
M  V30 10555 H 962.448 -7.15851 3.08508 0
M  V30 10556 N 966.677 -1.24326 -0.968545 0
M  V30 10557 C 967.624 -1.0349 -2.06297 0
M  V30 10558 C 968.594 0.0515333 -1.6602 0
M  V30 10559 O 969.779 -0.102924 -1.90522 0
M  V30 10560 C 966.919 -0.64487 -3.39021 0
M  V30 10561 C 966.032 -1.80469 -3.92498 0
M  V30 10562 C 965.167 -1.36032 -5.13487 0
M  V30 10563 C 964.206 -2.49014 -5.59159 0
M  V30 10564 N 963.343 -2.05451 -6.71367 0
M  V30 10565 H 968.183 -1.97161 -2.23454 0
M  V30 10566 H 965.72 -0.982028 -1.0952 0
M  V30 10567 H 967.678 -0.399771 -4.1528 0
M  V30 10568 H 966.308 0.254845 -3.21792 0
M  V30 10569 H 965.36 -2.16348 -3.12886 0
M  V30 10570 H 966.672 -2.65365 -4.22354 0
M  V30 10571 H 965.826 -1.07405 -5.97117 0
M  V30 10572 H 964.565 -0.481887 -4.85313 0
M  V30 10573 H 963.57 -2.78402 -4.74102 0
M  V30 10574 H 964.795 -3.37413 -5.89346 0
M  V30 10575 H 962.741 -1.20004 -6.4493 0
M  V30 10576 H 962.658 -2.83901 -7.00668 0
M  V30 10577 H 963.926 -1.79962 -7.58442 0
M  V30 10578 N 968.156 1.1691 -1.05688 0
M  V30 10579 C 969.103 2.21095 -0.662246 0
M  V30 10580 C 970.073 1.62623 0.338083 0
M  V30 10581 O 971.258 1.89428 0.228362 0
M  V30 10582 C 968.398 3.45066 -0.0484018 0
M  V30 10583 C 967.511 4.17809 -1.09817 0
M  V30 10584 C 966.646 5.29281 -0.451114 0
M  V30 10585 C 965.685 5.93817 -1.48484 0
M  V30 10586 N 964.822 6.96793 -0.861588 0
M  V30 10587 H 969.662 2.54204 -1.55513 0
M  V30 10588 H 967.199 1.24863 -0.777665 0
M  V30 10589 H 969.157 4.15932 0.324978 0
M  V30 10590 H 967.787 3.12526 0.807918 0
M  V30 10591 H 966.839 3.45608 -1.58932 0
M  V30 10592 H 968.151 4.61907 -1.88265 0
M  V30 10593 H 967.305 6.06695 -0.0244251 0
M  V30 10594 H 966.044 4.8633 0.365306 0
M  V30 10595 H 965.049 5.1513 -1.92149 0
M  V30 10596 H 966.274 6.38848 -2.30325 0
M  V30 10597 H 964.22 6.55967 -0.0657688 0
M  V30 10598 H 964.137 7.39229 -1.58354 0
M  V30 10599 H 965.405 7.78142 -0.45984 0
M  V30 10600 N 969.634 0.838594 1.33437 0
M  V30 10601 C 970.566 0.229006 2.28053 0
M  V30 10602 C 971.579 -0.590103 1.51729 0
M  V30 10603 O 972.768 -0.417218 1.73556 0
M  V30 10604 C 969.868 -0.696251 3.31671 0
M  V30 10605 C 969.041 0.0834606 4.3732 0
M  V30 10606 C 968.1 -0.765097 5.20608 0
M  V30 10607 O 967.126 -0.2044 5.68833 0
M  V30 10608 N 968.328 -2.08249 5.4186 0
M  V30 10609 H 971.093 1.04196 2.81004 0
M  V30 10610 H 968.654 0.697031 1.46127 0
M  V30 10611 H 970.646 -1.26889 3.84293 0
M  V30 10612 H 969.216 -1.40992 2.78998 0
M  V30 10613 H 968.436 0.837481 3.85201 0
M  V30 10614 H 969.724 0.619613 5.05013 0
M  V30 10615 H 969.122 -2.56156 5.04381 0
M  V30 10616 H 967.679 -2.60362 5.97541 0
M  V30 10617 N 971.112 -1.45937 0.595003 0
M  V30 10618 C 972.042 -2.33198 -0.11871 0
M  V30 10619 C 973.023 -1.46083 -0.871423 0
M  V30 10620 O 974.208 -1.74879 -0.844461 0
M  V30 10621 C 971.338 -3.28576 -1.12495 0
M  V30 10622 C 970.292 -4.25229 -0.486275 0
M  V30 10623 C 969.618 -5.10204 -1.59986 0
M  V30 10624 C 970.918 -5.19019 0.584473 0
M  V30 10625 H 972.612 -2.93122 0.609886 0
M  V30 10626 H 970.158 -1.40951 0.294742 0
M  V30 10627 H 972.111 -3.88485 -1.6327 0
M  V30 10628 H 970.835 -2.66784 -1.88398 0
M  V30 10629 H 969.494 -3.666 0.000507962 0
M  V30 10630 H 969.142 -4.44789 -2.34886 0
M  V30 10631 H 968.842 -5.75669 -1.1781 0
M  V30 10632 H 970.366 -5.7298 -2.11014 0
M  V30 10633 H 971.78 -5.73073 0.161297 0
M  V30 10634 H 970.177 -5.92893 0.927256 0
M  V30 10635 H 971.247 -4.62208 1.46601 0
M  V30 10636 N 972.59 -0.333456 -1.54032 0
M  V30 10637 C 974.001 0.15256 -1.86076 0
M  V30 10638 C 974.352 1.50819 -1.25492 0
M  V30 10639 O 973.477 2.08903 -0.564665 0
M  V30 10640 C 974.072 0.283599 -3.37611 0
M  V30 10641 C 972.631 0.713841 -3.69569 0
M  V30 10642 C 971.778 -0.158515 -2.76847 0
M  V30 10643 H 974.729 -0.553404 -1.48738 0
M  V30 10644 H 974.75 1.11284 -3.63863 0
M  V30 10645 H 974.262 -0.703193 -3.81676 0
M  V30 10646 H 972.363 1.71002 -3.31042 0
M  V30 10647 H 972.476 0.510731 -4.7637 0
M  V30 10648 H 970.84 0.367531 -2.52034 0
M  V30 10649 H 971.623 -1.14226 -3.2374 0
M  V30 10650 N 974.068 1.57479 -0.061844 0
M  V30 10651 C 975.298 1.97142 0.61794 0
M  V30 10652 C 975.706 0.938533 1.64281 0
M  V30 10653 O 975.049 -0.084385 1.83506 0
M  V30 10654 C 975.111 3.33083 1.35263 0
M  V30 10655 C 974.775 4.54447 0.482372 0
M  V30 10656 C 975.772 5.1927 -0.255954 0
M  V30 10657 C 973.457 5.00623 0.410167 0
M  V30 10658 C 975.451 6.28612 -1.05481 0
M  V30 10659 C 973.138 6.09839 -0.392369 0
M  V30 10660 C 974.136 6.73696 -1.12354 0
M  V30 10661 O 973.824 7.80811 -1.91285 0
M  V30 10662 H 973.556 0.653497 0.172969 0
M  V30 10663 H 976.11 2.05002 -0.127781 0
M  V30 10664 H 974.34 3.21808 2.14421 0
M  V30 10665 H 976.029 3.5742 1.92368 0
M  V30 10666 H 976.795 4.84546 -0.209703 0
M  V30 10667 H 972.674 4.50704 0.968883 0
M  V30 10668 H 976.218 6.78385 -1.62602 0
M  V30 10669 H 972.115 6.43997 -0.44022 0
M  V30 10670 H 972.883 7.9764 -1.83611 0
M  V30 10671 N 975.546 -0.211634 1.56173 0
M  V30 10672 C 976.776 -0.949805 1.83473 0
M  V30 10673 C 977.184 -1.78045 0.640053 0
M  V30 10674 O 976.527 -1.79277 -0.400702 0
M  V30 10675 C 976.589 -1.90868 3.04647 0
M  V30 10676 C 976.253 -1.26159 4.39241 0
M  V30 10677 C 977.25 -0.646597 5.15863 0
M  V30 10678 C 974.935 -1.27039 4.85969 0
M  V30 10679 C 976.929 -0.0490313 6.37381 0
M  V30 10680 C 974.616 -0.668987 6.07427 0
M  V30 10681 C 975.614 -0.0593687 6.82974 0
M  V30 10682 O 975.302 0.532656 8.02133 0
M  V30 10683 H 975.034 -0.283458 0.6137 0
M  V30 10684 H 977.588 -0.22894 2.0412 0
M  V30 10685 H 975.818 -2.6688 2.79843 0
M  V30 10686 H 977.507 -2.51323 3.18734 0
M  V30 10687 H 978.273 -0.632056 4.80864 0
M  V30 10688 H 974.152 -1.73429 4.27134 0
M  V30 10689 H 977.696 0.427414 6.96289 0
M  V30 10690 H 973.593 -0.680975 6.41898 0
M  V30 10691 H 974.361 0.427942 8.17381 0
M  V30 10692 N 977.024 -1.50153 -0.478725 0
M  V30 10693 C 978.254 -1.64266 -1.253 0
M  V30 10694 C 978.662 -0.322256 -1.86435 0
M  V30 10695 O 978.005 0.704925 -1.69636 0
M  V30 10696 C 978.067 -2.67017 -2.40712 0
M  V30 10697 C 977.731 -4.10779 -2.00274 0
M  V30 10698 C 978.728 -4.96889 -1.52963 0
M  V30 10699 C 976.413 -4.5665 -2.09228 0
M  V30 10700 C 978.407 -6.26914 -1.15139 0
M  V30 10701 C 976.094 -5.86683 -1.71015 0
M  V30 10702 C 977.092 -6.71641 -1.24048 0
M  V30 10703 O 976.78 -7.99248 -0.863617 0
M  V30 10704 H 976.512 -0.555382 -0.385392 0
M  V30 10705 H 979.066 -1.97078 -0.578751 0
M  V30 10706 H 977.296 -2.29432 -3.11284 0
M  V30 10707 H 978.985 -2.70428 -3.02694 0
M  V30 10708 H 979.751 -4.62669 -1.45474 0
M  V30 10709 H 975.63 -3.90674 -2.44735 0
M  V30 10710 H 979.174 -6.93179 -0.784089 0
M  V30 10711 H 975.071 -6.20426 -1.78162 0
M  V30 10712 H 975.839 -8.12452 -0.993139 0
M  V30 10713 N 978.502 0.731368 -1.39602 0
M  V30 10714 C 979.432 1.85855 -1.41351 0
M  V30 10715 C 980.413 1.67839 -0.2764 0
M  V30 10716 O 981.598 1.88104 -0.482747 0
M  V30 10717 C 978.728 3.23644 -1.25983 0
M  V30 10718 C 977.682 3.56304 -2.37132 0
M  V30 10719 C 977.008 4.93069 -2.0685 0
M  V30 10720 C 978.308 3.58906 -3.79452 0
M  V30 10721 H 980.002 1.84648 -2.3568 0
M  V30 10722 H 977.548 0.886955 -1.13442 0
M  V30 10723 H 979.501 4.02176 -1.25826 0
M  V30 10724 H 978.225 3.25387 -0.281234 0
M  V30 10725 H 976.884 2.80104 -2.36511 0
M  V30 10726 H 976.532 4.91396 -1.0742 0
M  V30 10727 H 976.232 5.15888 -2.81306 0
M  V30 10728 H 977.756 5.73953 -2.0835 0
M  V30 10729 H 979.17 4.27508 -3.81982 0
M  V30 10730 H 977.567 3.93246 -4.53297 0
M  V30 10731 H 978.637 2.58631 -4.10168 0
M  V30 10732 N 979.98 1.24838 0.961938 0
M  V30 10733 C 981.205 1.11967 1.7458 0
M  V30 10734 C 981.63 -0.323287 1.85301 0
M  V30 10735 O 980.988 -1.23412 1.32812 0
M  V30 10736 C 981.036 1.77066 3.14134 0
M  V30 10737 O 980.14 1.04534 3.98932 0
M  V30 10738 H 979.481 0.391338 0.536424 0
M  V30 10739 H 982.011 1.65259 1.20626 0
M  V30 10740 H 982.021 1.83056 3.64629 0
M  V30 10741 H 980.696 2.82052 3.05646 0
M  V30 10742 H 979.273 1.06372 3.57407 0
M  V30 10743 N 981.458 -1.16348 1.06306 0
M  V30 10744 C 982.869 -1.68491 0.80422 0
M  V30 10745 C 983.22 -1.84327 -0.672159 0
M  V30 10746 O 982.345 -1.53892 -1.52139 0
M  V30 10747 C 982.94 -3.06048 1.45328 0
M  V30 10748 C 981.499 -3.55311 1.24221 0
M  V30 10749 C 980.646 -2.31291 1.5297 0
M  V30 10750 H 983.597 -1.00708 1.22652 0
M  V30 10751 H 983.618 -3.70451 0.868674 0
M  V30 10752 H 983.13 -2.9449 2.52779 0
M  V30 10753 H 981.231 -3.72128 0.187447 0
M  V30 10754 H 981.344 -4.37397 1.95502 0
M  V30 10755 H 979.708 -2.3631 0.950241 0
M  V30 10756 H 980.491 -2.22331 2.6158 0
M  V30 10757 N 982.937 -0.845659 -1.3299 0
M  V30 10758 C 984.214 -0.366306 -1.92139 0
M  V30 10759 C 984.594 1.14912 -1.77083 0
M  V30 10760 O 983.942 1.96667 -1.16338 0
M  V30 10761 C 984.152 -0.820716 -3.39213 0
M  V30 10762 C 985.5 -0.832667 -4.16355 0
M  V30 10763 O 986.524 -0.764764 -3.47893 0
M  V30 10764 O 985.383 -0.926658 -5.38586 0
M  V30 10765 H 982.477 -0.105063 -0.820299 0
M  V30 10766 H 985.023 -0.931962 -1.41819 0
M  V30 10767 H 983.795 -1.86357 -3.44074 0
M  V30 10768 H 983.418 -0.232009 -3.96923 0
M  V30 10769 N 984.415 1.45619 -0.602734 0
M  V30 10770 C 985.831 1.57368 -0.26599 0
M  V30 10771 C 986.031 1.59485 1.23154 0
M  V30 10772 O 985.087 1.52254 2.01432 0
M  V30 10773 C 986.4 2.85863 -0.932881 0
M  V30 10774 C 987.948 2.9953 -0.908344 0
M  V30 10775 C 988.423 4.30789 -1.55515 0
M  V30 10776 N 989.914 4.37536 -1.52042 0
M  V30 10777 C 990.649 5.37758 -1.99008 0
M  V30 10778 N 990.145 6.44544 -2.54038 0
M  V30 10779 N 991.938 5.29085 -1.89805 0
M  V30 10780 H 984.089 1.42489 -1.57514 0
M  V30 10781 H 986.352 0.680948 -0.659556 0
M  V30 10782 H 986.058 2.90183 -1.98713 0
M  V30 10783 H 985.932 3.74467 -0.453209 0
M  V30 10784 H 988.319 2.9478 0.137344 0
M  V30 10785 H 988.4 2.12349 -1.42623 0
M  V30 10786 H 988.044 4.36297 -2.60014 0
M  V30 10787 H 987.974 5.16778 -1.01232 0
M  V30 10788 H 990.465 3.60972 -1.11837 0
M  V30 10789 H 990.778 7.17258 -2.87682 0
M  V30 10790 H 989.123 6.45308 -2.58075 0
M  V30 10791 H 992.314 4.44566 -1.46556 0
M  V30 10792 H 992.487 6.07043 -2.26722 0
M  V30 10793 N 985.893 0.34162 1.53853 0
M  V30 10794 C 987.142 -0.256475 2.00063 0
M  V30 10795 C 987.455 -1.51811 1.23341 0
M  V30 10796 O 988.661 -2.19332 1.60017 0
M  V30 10797 C 987.117 -0.507567 3.56303 0
M  V30 10798 C 986.725 0.738052 4.41879 0
M  V30 10799 C 988.469 -1.06463 4.10933 0
M  V30 10800 C 986.376 0.457865 5.89625 0
M  V30 10801 H 985.306 -0.0996143 0.747391 0
M  V30 10802 H 987.957 0.456649 1.77727 0
M  V30 10803 H 986.339 -1.28134 3.74697 0
M  V30 10804 H 987.513 1.51278 4.3526 0
M  V30 10805 H 985.828 1.21661 3.98231 0
M  V30 10806 H 988.425 -1.28918 5.18926 0
M  V30 10807 H 988.768 -2.01956 3.64032 0
M  V30 10808 H 989.301 -0.351601 3.96243 0
M  V30 10809 H 986.04 1.38247 6.40756 0
M  V30 10810 H 985.56 -0.278818 5.99152 0
M  V30 10811 H 987.239 0.0743914 6.46957 0
M  V30 10812 N 987.371 -1.57444 0.0701946 0
M  V30 10813 C 988.782 -1.80875 -0.462709 0
M  V30 10814 C 989.133 -0.983975 -1.69742 0
M  V30 10815 O 988.258 -0.206027 -2.15417 0
M  V30 10816 C 988.853 -3.28062 -0.84623 0
M  V30 10817 C 987.412 -3.52345 -1.32401 0
M  V30 10818 C 986.559 -2.7558 -0.308399 0
M  V30 10819 H 989.51 -1.55917 0.295907 0
M  V30 10820 H 989.531 -3.40023 -1.70776 0
M  V30 10821 H 989.043 -3.88064 0.0526033 0
M  V30 10822 H 987.144 -2.97645 -2.24139 0
M  V30 10823 H 987.257 -4.6104 -1.30304 0
M  V30 10824 H 985.621 -2.4229 -0.785337 0
M  V30 10825 H 986.404 -3.38319 0.582679 0
M  V30 10826 N 988.849 0.203349 -1.56283 0
M  V30 10827 C 989.797 1.27157 -1.94766 0
M  V30 10828 C 990.791 1.4756 -0.832005 0
M  V30 10829 O 991.997 1.48519 -1.01696 0
M  V30 10830 H 988.372 0.426712 -0.61921 0
M  V30 10831 H 990.343 0.919921 -2.83866 0
M  V30 10832 C 989.092 2.6108 -2.29636 0
M  V30 10833 H 988.415 2.46193 -3.15006 0
M  V30 10834 H 989.855 3.34591 -2.60433 0
M  V30 10835 C 988.314 3.17456 -1.12799 0
M  V30 10836 O 988.844 3.99717 -0.398661 0
M  V30 10837 N 987.05 2.76084 -0.906975 0
M  V30 10838 H 986.597 2.09294 -1.50179 0
M  V30 10839 H 986.555 3.14143 -0.127005 0
M  V30 10840 N 990.327 1.50405 0.470755 0
M  V30 10841 C 991.552 1.65442 1.25075 0
M  V30 10842 C 991.977 0.337612 1.85045 0
M  V30 10843 O 991.335 -0.698555 1.67302 0
M  V30 10844 C 991.383 2.74793 2.33498 0
M  V30 10845 O 990.487 2.36069 3.3815 0
M  V30 10846 H 989.828 0.552728 0.367951 0
M  V30 10847 H 992.358 1.96782 0.560177 0
M  V30 10848 H 992.368 2.97879 2.78804 0
M  V30 10849 H 991.043 3.70363 1.8922 0
M  V30 10850 H 989.62 2.2343 2.98552 0
M  V30 10851 N 991.805 -0.723954 1.39988 0
M  V30 10852 C 993.051 -1.48591 1.38017 0
M  V30 10853 C 993.384 -1.94189 -0.0203522 0
M  V30 10854 O 992.659 -1.67572 -0.987422 0
M  V30 10855 C 992.942 -2.71786 2.36229 0
M  V30 10856 C 992.795 -2.32136 3.8527 0
M  V30 10857 C 994.114 -3.73921 2.32102 0
M  V30 10858 H 991.233 -0.538993 0.502648 0
M  V30 10859 H 993.875 -0.826908 1.71062 0
M  V30 10860 H 992.025 -3.28015 2.0818 0
M  V30 10861 H 993.697 -1.81454 4.24113 0
M  V30 10862 H 991.94 -1.64234 4.01509 0
M  V30 10863 H 992.611 -3.20406 4.49493 0
M  V30 10864 H 995.087 -3.27303 2.56928 0
M  V30 10865 H 993.963 -4.5777 3.02882 0
M  V30 10866 H 994.224 -4.21627 1.32979 0
M  V30 10867 N 993.283 -1.25346 -0.955304 0
M  V30 10868 C 994.246 -1.05754 -2.03344 0
M  V30 10869 C 995.246 -0.0105743 -1.60797 0
M  V30 10870 O 996.436 -0.252699 -1.72357 0
M  V30 10871 C 993.568 -0.605536 -3.35479 0
M  V30 10872 H 994.761 -2.01459 -2.22158 0
M  V30 10873 H 992.314 -1.07744 -1.1323 0
M  V30 10874 H 993.049 0.354154 -3.2236 0
M  V30 10875 H 992.834 -1.36134 -3.67709 0
M  V30 10876 H 994.324 -0.489867 -4.14717 0
M  V30 10877 N 994.761 1.15782 -1.06922 0
M  V30 10878 C 996.01 1.85807 -0.784774 0
M  V30 10879 C 996.323 1.82967 0.691551 0
M  V30 10880 O 997.529 2.48632 1.0906 0
M  V30 10881 C 995.985 3.33469 -1.35375 0
M  V30 10882 C 995.593 3.44766 -2.86077 0
M  V30 10883 C 997.337 4.08707 -1.14713 0
M  V30 10884 C 995.244 4.86551 -3.36187 0
M  V30 10885 H 994.174 0.696046 -0.28989 0
M  V30 10886 H 996.825 1.30629 -1.28873 0
M  V30 10887 H 995.207 3.88292 -0.77754 0
M  V30 10888 H 996.381 3.00073 -3.49704 0
M  V30 10889 H 994.696 2.82969 -3.05479 0
M  V30 10890 H 997.293 5.13336 -1.49633 0
M  V30 10891 H 997.636 4.16211 -0.0858868 0
M  V30 10892 H 998.169 3.60142 -1.68946 0
M  V30 10893 H 994.908 4.84229 -4.41818 0
M  V30 10894 H 994.428 5.31844 -2.77312 0
M  V30 10895 H 996.107 5.55392 -3.31887 0
M  V30 10896 O 996.278 0.9869 1.27838 0
M  V30 10897 H 996.969 0.633951 1.83032 0
M  V30 END ATOM
M  V30 BEGIN BOND
M  V30 END BOND
M  V30 END CTAB
M  END
$$$$
