drugbank_target|Q13219 Pappalysin-1 (DB12695)
 OpenBabel12092121073D

  0  0  0     0  0            999 V3000
M  V30 BEGIN CTAB
M  V30 COUNTS 24790 25136 0 0 0
M  V30 BEGIN ATOM
M  V30 1 H -0.908 1.98254 -0.117106 0
M  V30 2 N 0 1.576 0 0
M  V30 3 C 0.933 2.03868 1.02534 0
M  V30 4 C 1.911 0.928543 1.3348 0
M  V30 5 O 3.095 1.19667 1.45644 0
M  V30 6 C 0.222 2.43627 2.35294 0
M  V30 7 C -0.732 3.65373 2.2001 0
M  V30 8 S 0.101 5.13292 1.52614 0
M  V30 9 C 1.257 5.56322 2.86805 0
M  V30 10 H 1.49 2.90518 0.631377 0
M  V30 11 H -0.977 1.52953 0.210867 0
M  V30 12 H 0.981 2.67203 3.11629 0
M  V30 13 H -0.358 1.57376 2.7183 0
M  V30 14 H -1.165 3.90944 3.18086 0
M  V30 15 H -1.563 3.418 1.51819 0
M  V30 16 H 0.729 5.58782 3.83104 0
M  V30 17 H 1.672 6.56266 2.65933 0
M  V30 18 H 2.08 4.83886 2.90714 0
M  V30 19 N 1.4781 -0.272755 1.55222 0
M  V30 20 C 2.8941 -0.619959 1.47067 0
M  V30 21 C 3.0941 -1.895 0.684978 0
M  V30 22 O 2.1501 -2.51675 0.203931 0
M  V30 23 C 3.4631 -0.746693 2.91282 0
M  V30 24 C 5.0111 -0.840731 3.01497 0
M  V30 25 C 5.4861 -0.99924 4.46967 0
M  V30 26 N 6.9771 -1.06476 4.50796 0
M  V30 27 C 7.7121 -1.20621 5.6057 0
M  V30 28 N 7.2081 -1.31483 6.80209 0
M  V30 29 N 9.0011 -1.23733 5.48312 0
M  V30 30 H 1.1521 0.564606 2.04758 0
M  V30 31 H 3.4151 0.191177 0.928523 0
M  V30 32 H 3.1211 0.119753 3.51496 0
M  V30 33 H 2.9951 -1.6269 3.40311 0
M  V30 34 H 5.3821 -1.69764 2.41379 0
M  V30 35 H 5.4631 0.0640874 2.5572 0
M  V30 36 H 5.1071 -0.146984 5.07687 0
M  V30 37 H 5.0371 -1.91871 4.90401 0
M  V30 38 H 7.5281 -0.993196 3.64615 0
M  V30 39 H 7.8411 -1.42111 7.59621 0
M  V30 40 H 6.1861 -1.28487 6.8302 0
M  V30 41 H 9.3771 -1.14877 4.53785 0
M  V30 42 H 9.5501 -1.34412 6.33906 0
M  V30 43 N 2.9562 -1.48159 -0.537278 0
M  V30 44 C 3.8862 -1.65029 -1.6519 0
M  V30 45 C 4.8672 -0.499281 -1.62607 0
M  V30 46 O 6.0522 -0.730972 -1.79918 0
M  V30 47 C 3.1822 -1.68303 -3.03795 0
M  V30 48 C 2.1362 -2.8283 -3.21234 0
M  V30 49 C 1.4622 -2.71189 -4.60826 0
M  V30 50 C 2.7622 -4.24211 -3.04701 0
M  V30 51 H 4.4562 -2.58341 -1.51328 0
M  V30 52 H 2.0022 -1.24325 -0.726585 0
M  V30 53 H 3.9552 -1.78693 -3.81637 0
M  V30 54 H 2.6792 -0.715635 -3.18663 0
M  V30 55 H 1.3382 -2.71983 -2.45807 0
M  V30 56 H 0.9862 -1.72435 -4.7252 0
M  V30 57 H 0.6862 -3.48035 -4.7344 0
M  V30 58 H 2.2102 -2.83537 -5.40777 0
M  V30 59 H 3.6242 -4.3593 -3.72341 0
M  V30 60 H 2.0212 -5.01998 -3.28813 0
M  V30 61 H 3.0912 -4.41184 -2.01209 0
M  V30 62 N 4.4343 0.785586 -1.36625 0
M  V30 63 C 5.6803 1.5452 -1.32269 0
M  V30 64 C 6.0353 1.92159 0.0962266 0
M  V30 65 O 5.3283 1.60158 1.05167 0
M  V30 66 C 5.5223 2.83007 -2.1827 0
M  V30 67 C 5.3513 2.57925 -3.68382 0
M  V30 68 C 4.1213 2.52752 -4.37544 0
M  V30 69 C 6.3193 2.26861 -4.61561 0
M  V30 70 N 4.3013 2.19608 -5.73276 0
M  V30 71 C 5.6723 2.03738 -5.85569 0
M  V30 72 C 7.7273 2.129 -4.50087 0
M  V30 73 C 6.4303 1.68065 -6.9939 0
M  V30 74 C 8.4563 1.78626 -5.63779 0
M  V30 75 C 7.8183 1.56353 -6.86828 0
M  V30 76 H 3.9173 0.566301 -0.539283 0
M  V30 77 H 6.5013 0.917736 -1.71714 0
M  V30 78 H 4.6723 3.43614 -1.81063 0
M  V30 79 H 6.4043 3.48775 -2.05275 0
M  V30 80 H 3.1593 2.6813 -3.90389 0
M  V30 81 H 3.5833 2.05771 -6.44971 0
M  V30 82 H 8.2253 2.28808 -3.55537 0
M  V30 83 H 5.9433 1.50895 -7.93887 0
M  V30 84 H 9.5293 1.68502 -5.56865 0
M  V30 85 H 8.4093 1.30223 -7.73312 0
M  V30 86 N 5.9124 1.20967 1.01018 0
M  V30 87 C 7.1374 1.0503 1.78839 0
M  V30 88 C 7.5624 -0.395752 1.8389 0
M  V30 89 O 6.9204 -1.28529 1.27867 0
M  V30 90 C 6.9684 1.64602 3.2084 0
M  V30 91 O 6.0724 0.887988 4.02726 0
M  V30 92 H 5.4134 0.369987 0.551367 0
M  V30 93 H 7.9434 1.60399 1.27018 0
M  V30 94 H 7.9534 1.68607 3.71532 0
M  V30 95 H 6.6284 2.69841 3.16479 0
M  V30 96 H 5.2054 0.922648 3.61305 0
M  V30 97 N 7.3905 -1.2043 1.01659 0
M  V30 98 C 8.6365 -1.90356 0.716674 0
M  V30 99 C 8.9915 -1.77367 -0.745557 0
M  V30 100 O 8.2845 -1.1471 -1.53467 0
M  V30 101 C 8.4785 -3.40464 1.08714 0
M  V30 102 C 8.3075 -3.6806 2.58384 0
M  V30 103 C 7.0775 -3.86775 3.25167 0
M  V30 104 C 9.2755 -3.70623 3.56572 0
M  V30 105 N 7.2575 -4.01889 4.64067 0
M  V30 106 C 8.6285 -3.91161 4.81034 0
M  V30 107 C 10.6835 -3.53586 3.50544 0
M  V30 108 C 9.3865 -3.96428 6.00198 0
M  V30 109 C 11.4125 -3.60125 4.6911 0
M  V30 110 C 10.7745 -3.81135 5.92381 0
M  V30 111 H 6.8735 -0.716226 0.313918 0
M  V30 112 H 9.4575 -1.44815 1.30141 0
M  V30 113 H 7.6285 -3.84757 0.530745 0
M  V30 114 H 9.3605 -3.97863 0.740763 0
M  V30 115 H 6.1155 -3.85156 2.75594 0
M  V30 116 H 6.5395 -4.13323 5.36184 0
M  V30 117 H 11.1815 -3.36308 2.56235 0
M  V30 118 H 8.8995 -4.12502 6.94887 0
M  V30 119 H 12.4855 -3.4825 4.66062 0
M  V30 120 H 11.3655 -3.86054 6.82592 0
M  V30 121 N 8.8686 -0.792821 -1.36206 0
M  V30 122 C 10.1146 -0.36733 -1.99446 0
M  V30 123 C 10.4476 1.05917 -1.62774 0
M  V30 124 O 9.7226 1.7324 -0.88421 0
M  V30 125 C 10.0056 -0.535044 -3.56103 0
M  V30 126 C 9.8586 -2.00548 -4.02617 0
M  V30 127 C 11.1776 0.0478191 -4.40074 0
M  V30 128 H 8.2966 -0.134941 -0.724541 0
M  V30 129 H 10.9386 -0.999794 -1.61568 0
M  V30 130 H 9.0886 0.00336329 -3.885 0
M  V30 131 H 10.7606 -2.60521 -3.80692 0
M  V30 132 H 9.0036 -2.50686 -3.54032 0
M  V30 133 H 9.6746 -2.07377 -5.11565 0
M  V30 134 H 12.1506 -0.411822 -4.14057 0
M  V30 135 H 11.0266 -0.0995336 -5.4881 0
M  V30 136 H 11.2876 1.14025 -4.27142 0
M  V30 137 N 10.3467 1.47872 -0.545128 0
M  V30 138 C 11.2767 2.32661 0.197793 0
M  V30 139 C 12.2577 1.43041 0.920504 0
M  V30 140 O 13.4427 1.71912 0.90333 0
M  V30 141 C 10.5727 3.24569 1.23582 0
M  V30 142 C 9.5267 4.23333 0.630323 0
M  V30 143 C 8.8527 5.0448 1.77211 0
M  V30 144 C 10.1527 5.20704 -0.407974 0
M  V30 145 H 11.8467 2.95024 -0.510045 0
M  V30 146 H 9.3927 1.4187 -0.246731 0
M  V30 147 H 11.3457 3.8272 1.76362 0
M  V30 148 H 10.0697 2.60236 1.97344 0
M  V30 149 H 8.7287 3.6639 0.123922 0
M  V30 150 H 8.3767 4.36561 2.49847 0
M  V30 151 H 8.0767 5.71339 1.37281 0
M  V30 152 H 9.6007 5.65487 2.3034 0
M  V30 153 H 11.0147 5.7329 0.033305 0
M  V30 154 H 9.4117 5.95699 -0.725486 0
M  V30 155 H 10.4817 4.66917 -1.30828 0
M  V30 156 N 11.8248 0.280983 1.55075 0
M  V30 157 C 12.7748 -0.618585 2.19448 0
M  V30 158 C 13.7588 -1.11401 1.16098 0
M  V30 159 O 14.9508 -1.0581 1.41891 0
M  V30 160 C 12.0798 -1.79951 2.92357 0
M  V30 161 C 11.1658 -1.321 4.03002 0
M  V30 162 N 11.5568 -0.559044 5.02701 0
M  V30 163 C 9.8548 -1.60346 4.16179 0
M  V30 164 C 10.5558 -0.306722 5.80891 0
M  V30 165 N 9.5318 -0.880825 5.36416 0
M  V30 166 H 13.3338 -0.0286638 2.93886 0
M  V30 167 H 10.8478 0.0848104 1.62178 0
M  V30 168 H 12.8448 -2.45531 3.36927 0
M  V30 169 H 11.5048 -2.39333 2.19431 0
M  V30 170 H 12.5158 -0.205827 5.17491 0
M  V30 171 H 9.1928 -2.20621 3.54447 0
M  V30 172 H 10.5828 0.30391 6.71212 0
M  V30 173 N 13.3029 -1.57598 0.00835791 0
M  V30 174 C 14.2329 -2.1198 -0.979113 0
M  V30 175 C 15.2139 -1.03091 -1.35301 0
M  V30 176 O 16.3989 -1.30818 -1.43528 0
M  V30 177 C 13.5289 -2.62995 -2.26828 0
M  V30 178 C 12.4829 -3.76485 -2.03576 0
M  V30 179 C 11.8089 -4.13846 -3.38579 0
M  V30 180 C 13.1089 -5.0342 -1.39161 0
M  V30 181 H 14.8029 -2.94738 -0.526281 0
M  V30 182 H 12.3489 -1.41783 -0.251704 0
M  V30 183 H 14.3019 -2.99669 -2.96271 0
M  V30 184 H 13.0259 -1.7737 -2.7424 0
M  V30 185 H 11.6849 -3.40217 -1.36557 0
M  V30 186 H 11.3329 -3.25232 -3.83709 0
M  V30 187 H 11.0329 -4.90312 -3.23834 0
M  V30 188 H 12.5569 -4.53086 -4.09323 0
M  V30 189 H 13.9709 -5.37812 -1.98573 0
M  V30 190 H 12.3679 -5.84746 -1.34878 0
M  V30 191 H 13.4379 -4.83548 -0.361868 0
M  V30 192 N 14.781 0.264519 -1.55364 0
M  V30 193 C 16.029 0.993021 -1.76021 0
M  V30 194 C 16.35 1.86511 -0.569099 0
M  V30 195 O 15.62 1.91438 0.415735 0
M  V30 196 H 14.2 0.369639 -0.649135 0
M  V30 197 H 16.862 0.286707 -1.9278 0
M  V30 198 H 15.958 1.62502 -2.66457 0
M  V30 199 N 16.2591 1.48442 0.529413 0
M  V30 200 C 17.1891 1.65902 1.64313 0
M  V30 201 C 18.1701 0.507897 1.6234 0
M  V30 202 O 19.3551 0.740503 1.79528 0
M  V30 203 C 16.4851 1.69911 3.02898 0
M  V30 204 C 15.4391 2.8453 3.19729 0
M  V30 205 C 14.7651 2.73629 4.59381 0
M  V30 206 C 16.0651 4.25821 3.02447 0
M  V30 207 H 17.7591 2.5914 1.49955 0
M  V30 208 H 15.3051 1.24709 0.719982 0
M  V30 209 H 17.2581 1.80715 3.80684 0
M  V30 210 H 15.9821 0.732524 3.18279 0
M  V30 211 H 14.6411 2.73283 2.44361 0
M  V30 212 H 14.2891 1.74938 4.71599 0
M  V30 213 H 13.9891 3.50541 4.71588 0
M  V30 214 H 15.5131 2.86401 5.39265 0
M  V30 215 H 16.9271 4.37898 3.70024 0
M  V30 216 H 15.3241 5.03735 3.26146 0
M  V30 217 H 16.3941 4.42244 1.98867 0
M  V30 218 N 17.7372 -0.778329 1.37039 0
M  V30 219 C 18.6672 -1.90546 1.34962 0
M  V30 220 C 19.6482 -1.68681 0.219274 0
M  V30 221 O 20.8332 -1.89634 0.418624 0
M  V30 222 C 17.9632 -3.27734 1.14925 0
M  V30 223 C 16.9172 -3.64147 2.24902 0
M  V30 224 C 16.2432 -4.99806 1.89996 0
M  V30 225 C 17.5432 -3.71579 3.67051 0
M  V30 226 H 19.2372 -1.92541 2.29277 0
M  V30 227 H 16.7832 -0.924948 1.10366 0
M  V30 228 H 18.7362 -4.06215 1.12104 0
M  V30 229 H 17.4602 -3.26154 0.170631 0
M  V30 230 H 16.1192 -2.8797 2.26868 0
M  V30 231 H 15.7672 -4.94759 0.906796 0
M  V30 232 H 15.4672 -5.25139 2.63634 0
M  V30 233 H 16.9912 -5.80694 1.88749 0
M  V30 234 H 18.4052 -4.40227 3.67251 0
M  V30 235 H 16.8022 -4.08405 4.39688 0
M  V30 236 H 17.8722 -2.72404 4.01154 0
M  V30 237 N 19.2153 -1.21501 -1.00376 0
M  V30 238 C 20.4403 -1.05977 -1.78279 0
M  V30 239 C 20.8653 0.385994 -1.84097 0
M  V30 240 O 20.2233 1.27849 -1.28547 0
M  V30 241 C 20.2713 -1.66302 -3.19963 0
M  V30 242 O 19.3753 -0.909333 -4.0225 0
M  V30 243 H 18.7163 -0.372906 -0.549397 0
M  V30 244 H 21.2463 -1.6107 -1.26165 0
M  V30 245 H 21.2563 -1.70574 -3.70632 0
M  V30 246 H 19.9313 -2.71515 -3.15043 0
M  V30 247 H 18.5083 -0.941795 -3.60811 0
M  V30 248 N 20.6934 1.19889 -1.02296 0
M  V30 249 C 21.6564 2.21116 -0.603351 0
M  V30 250 C 22.6564 1.5738 0.329884 0
M  V30 251 O 23.8464 1.73802 0.117702 0
M  V30 252 C 20.9784 3.40696 0.117992 0
M  V30 253 H 22.1714 2.59754 -1.49893 0
M  V30 254 H 19.7244 1.33463 -0.813468 0
M  V30 255 H 20.4594 3.07569 1.0282 0
M  V30 256 H 20.2444 3.88188 -0.552511 0
M  V30 257 H 21.7344 4.15692 0.398696 0
M  V30 258 N 22.1715 0.800033 1.35784 0
M  V30 259 C 23.1345 0.211565 2.28221 0
M  V30 260 C 24.1345 -0.59728 1.49296 0
M  V30 261 O 25.3245 -0.416721 1.69142 0
M  V30 262 C 22.4565 -0.705846 3.33513 0
M  V30 263 H 23.6495 1.02677 2.81776 0
M  V30 264 H 21.2025 0.570211 1.45528 0
M  V30 265 H 21.9375 -1.54498 2.85133 0
M  V30 266 H 21.7225 -0.127655 3.91892 0
M  V30 267 H 23.2125 -1.11211 4.02519 0
M  V30 268 N 23.6496 -1.47581 0.552962 0
M  V30 269 C 24.5796 -2.32762 -0.185451 0
M  V30 270 C 25.5606 -1.43527 -0.912905 0
M  V30 271 O 26.7456 -1.72388 -0.894201 0
M  V30 272 C 23.8756 -3.25219 -1.21859 0
M  V30 273 C 22.8296 -4.23661 -0.607864 0
M  V30 274 C 22.1556 -5.05413 -1.74533 0
M  V30 275 C 23.4556 -5.20481 0.435582 0
M  V30 276 H 25.1496 -2.94749 0.525684 0
M  V30 277 H 22.6956 -1.41738 0.254251 0
M  V30 278 H 24.6486 -3.8365 -1.7433 0
M  V30 279 H 23.3726 -2.61279 -1.95961 0
M  V30 280 H 22.0316 -3.66451 -0.104489 0
M  V30 281 H 21.6796 -4.3788 -2.47529 0
M  V30 282 H 21.3796 -5.72059 -1.34249 0
M  V30 283 H 22.9036 -5.66701 -2.27338 0
M  V30 284 H 24.3176 -5.733 -0.00290157 0
M  V30 285 H 22.7146 -5.95305 0.757067 0
M  V30 286 H 23.7846 -4.66217 1.33303 0
M  V30 287 N 25.1277 -0.289203 -1.54924 0
M  V30 288 C 26.3757 0.322879 -1.99504 0
M  V30 289 C 26.6967 1.55313 -1.1791 0
M  V30 290 O 25.9667 1.94001 -0.272097 0
M  V30 291 H 24.5467 0.122291 -0.736922 0
M  V30 292 H 27.2087 -0.397802 -1.90797 0
M  V30 293 H 26.3047 0.603061 -3.06218 0
M  V30 294 N 26.6058 1.57591 -0.0167156 0
M  V30 295 C 27.8458 1.93145 0.668902 0
M  V30 296 C 28.2098 0.892406 1.7 0
M  V30 297 O 29.4108 1.13373 2.43721 0
M  V30 298 C 27.6818 3.33678 1.28039 0
M  V30 299 S 29.2408 3.91142 1.9888 0
M  V30 300 H 26.0588 0.67593 0.220545 0
M  V30 301 H 28.6608 1.95347 -0.0774105 0
M  V30 302 H 27.3648 4.07126 0.517339 0
M  V30 303 H 26.8958 3.3489 2.06427 0
M  V30 304 H 28.9108 3.73571 3.26587 0
M  V30 305 N 28.0839 -0.256276 1.55502 0
M  V30 306 C 29.3319 -0.983672 1.76545 0
M  V30 307 C 29.6529 -1.86206 0.578982 0
M  V30 308 O 28.9229 -1.91656 -0.405577 0
M  V30 309 H 27.5029 -0.366191 0.651086 0
M  V30 310 H 30.1649 -0.276479 1.92929 0
M  V30 311 H 29.2609 -1.61087 2.67315 0
M  V30 312 N 29.562 -1.4872 -0.521534 0
M  V30 313 C 30.492 -1.66771 -1.63431 0
M  V30 314 C 31.473 -0.516499 -1.62069 0
M  V30 315 O 32.658 -0.750013 -1.79132 0
M  V30 316 C 29.788 -1.71515 -3.01993 0
M  V30 317 C 28.742 -2.86222 -3.18216 0
M  V30 318 C 28.068 -2.76061 -4.57924 0
M  V30 319 C 29.368 -4.27419 -3.00184 0
M  V30 320 H 31.062 -2.59932 -1.48579 0
M  V30 321 H 28.608 -1.25089 -0.713358 0
M  V30 322 H 30.561 -1.82731 -3.7972 0
M  V30 323 H 29.285 -0.749393 -3.17886 0
M  V30 324 H 27.944 -2.74575 -2.42908 0
M  V30 325 H 27.592 -1.77437 -4.70665 0
M  V30 326 H 27.292 -3.53037 -4.69722 0
M  V30 327 H 28.816 -2.89256 -5.37739 0
M  V30 328 H 30.23 -4.39855 -3.67697 0
M  V30 329 H 28.627 -5.05458 -3.2347 0
M  V30 330 H 29.697 -4.43293 -1.96518 0
M  V30 331 N 31.0401 0.771051 -1.3745 0
M  V30 332 C 32.0031 1.86598 -1.33093 0
M  V30 333 C 33.0031 1.59076 -0.234845 0
M  V30 334 O 34.1931 1.67145 -0.490732 0
M  V30 335 C 31.3251 3.23747 -1.06773 0
M  V30 336 H 32.5181 1.91873 -2.30488 0
M  V30 337 H 30.0711 0.970876 -1.2249 0
M  V30 338 H 30.8061 3.24148 -0.099129 0
M  V30 339 H 30.5911 3.45115 -1.86112 0
M  V30 340 H 32.0811 4.03824 -1.06377 0
M  V30 341 N 32.5182 1.22032 0.997298 0
M  V30 342 C 33.4282 1.00271 2.12092 0
M  V30 343 C 34.4442 -0.047621 1.73935 0
M  V30 344 O 35.6202 0.144136 2.00884 0
M  V30 345 C 32.6852 0.578449 3.4184 0
M  V30 346 C 31.7462 1.70189 3.94125 0
M  V30 347 C 30.9792 1.29778 5.17681 0
M  V30 348 O 31.2022 0.174676 5.70132 0
M  V30 349 O 30.1362 2.11261 5.63607 0
M  V30 350 H 33.9622 1.94398 2.3333 0
M  V30 351 H 31.5472 1.00587 1.10465 0
M  V30 352 H 33.4292 0.351998 4.19927 0
M  V30 353 H 32.1042 -0.334019 3.21972 0
M  V30 354 H 31.0112 1.98282 3.1723 0
M  V30 355 H 32.3442 2.59206 4.18417 0
M  V30 356 N 33.9963 -1.19345 1.0293 0
M  V30 357 C 35.4123 -1.41069 0.746446 0
M  V30 358 C 35.6123 -1.90078 -0.668776 0
M  V30 359 O 34.6683 -2.0778 -1.4347 0
M  V30 360 C 35.9813 -2.42141 1.78292 0
M  V30 361 C 37.5293 -2.55887 1.80252 0
M  V30 362 C 38.0043 -3.60214 2.8286 0
M  V30 363 N 39.4953 -3.67711 2.81679 0
M  V30 364 C 40.2303 -4.48128 3.57727 0
M  V30 365 N 39.7263 -5.32248 4.43491 0
M  V30 366 N 41.5193 -4.42782 3.46267 0
M  V30 367 H 33.6703 -0.858536 1.94275 0
M  V30 368 H 35.9333 -0.439541 0.839945 0
M  V30 369 H 35.6393 -2.13155 2.79746 0
M  V30 370 H 35.5133 -3.41323 1.60557 0
M  V30 371 H 37.9003 -2.84196 0.794757 0
M  V30 372 H 37.9813 -1.56858 2.02062 0
M  V30 373 H 37.6253 -3.32647 3.83807 0
M  V30 374 H 37.5553 -4.58895 2.58307 0
M  V30 375 H 40.0463 -3.07634 2.19476 0
M  V30 376 H 40.3593 -5.90729 4.98256 0
M  V30 377 H 38.7043 -5.31707 4.47564 0
M  V30 378 H 41.8953 -3.76107 2.78677 0
M  V30 379 H 42.0683 -5.05215 4.05785 0
M  V30 380 N 35.4744 -0.807222 -1.35358 0
M  V30 381 C 36.8854 -0.44876 -1.81226 0
M  V30 382 C 37.2364 1.02929 -1.67033 0
M  V30 383 O 36.3614 1.79991 -1.20133 0
M  V30 384 C 36.9564 -0.807774 -3.2903 0
M  V30 385 C 35.5154 -0.501901 -3.73039 0
M  V30 386 C 34.6624 -1.03304 -2.57339 0
M  V30 387 H 37.6134 -0.998808 -1.23327 0
M  V30 388 H 37.6344 -0.10554 -3.80354 0
M  V30 389 H 37.1464 -1.88357 -3.39328 0
M  V30 390 H 35.2474 0.565128 -3.68289 0
M  V30 391 H 35.3604 -1.03497 -4.67787 0
M  V30 392 H 33.7244 -0.455339 -2.50597 0
M  V30 393 H 34.5074 -2.11496 -2.70415 0
M  V30 394 N 36.9525 1.47285 -0.560781 0
M  V30 395 C 38.3685 1.58065 -0.22081 0
M  V30 396 C 38.5685 1.55892 1.27671 0
M  V30 397 O 37.6245 1.46422 2.0571 0
M  V30 398 C 38.9375 2.88418 -0.850625 0
M  V30 399 C 40.4855 3.02009 -0.822184 0
M  V30 400 C 40.9605 4.35066 -1.43113 0
M  V30 401 N 42.4515 4.41711 -1.39448 0
M  V30 402 C 43.1865 5.43237 -1.83525 0
M  V30 403 N 42.6825 6.51555 -2.35474 0
M  V30 404 N 44.4755 5.34304 -1.74574 0
M  V30 405 H 36.6265 1.46941 -1.53369 0
M  V30 406 H 38.8895 0.699558 -0.639783 0
M  V30 407 H 38.5955 2.95755 -1.9032 0
M  V30 408 H 38.4695 3.75612 -0.345773 0
M  V30 409 H 40.8565 2.94266 0.221714 0
M  V30 410 H 40.9375 2.16347 -1.36483 0
M  V30 411 H 40.5815 4.43565 -2.47412 0
M  V30 412 H 40.5115 5.19465 -0.863899 0
M  V30 413 H 43.0025 3.64027 -1.01452 0
M  V30 414 H 43.3155 7.25203 -2.67021 0
M  V30 415 H 41.6605 6.52435 -2.39487 0
M  V30 416 H 44.8515 4.48581 -1.33763 0
M  V30 417 H 45.0245 6.13288 -2.09242 0
M  V30 418 N 38.4306 0.297415 1.54768 0
M  V30 419 C 39.8466 -0.0560823 1.59501 0
M  V30 420 C 40.0466 -1.52725 1.31444 0
M  V30 421 O 39.1026 -2.27947 1.08611 0
M  V30 422 C 40.4156 0.338631 2.98787 0
M  V30 423 C 41.9636 0.287097 3.11681 0
M  V30 424 C 42.4386 0.656579 4.53269 0
M  V30 425 N 43.9296 0.608977 4.59179 0
M  V30 426 C 44.6646 0.867385 5.66802 0
M  V30 427 N 44.1606 1.19157 6.82476 0
M  V30 428 N 45.9536 0.794687 5.56454 0
M  V30 429 H 38.1046 1.25624 1.71267 0
M  V30 430 H 40.3676 0.509057 0.799728 0
M  V30 431 H 40.0736 1.36263 3.2423 0
M  V30 432 H 39.9476 -0.309508 3.75928 0
M  V30 433 H 42.3346 -0.727649 2.85988 0
M  V30 434 H 42.4156 0.969809 2.36703 0
M  V30 435 H 42.0596 1.66912 4.7969 0
M  V30 436 H 41.9896 -0.0481649 5.26578 0
M  V30 437 H 44.4806 0.369198 3.76092 0
M  V30 438 H 44.7936 1.37482 7.60473 0
M  V30 439 H 43.1386 1.22958 6.84037 0
M  V30 440 H 46.3296 0.541098 4.64962 0
M  V30 441 H 46.5026 0.999445 6.40246 0
M  V30 442 N 39.9087 -1.5758 0.0250728 0
M  V30 443 C 40.8717 -2.08896 -0.943139 0
M  V30 444 C 41.8717 -1.00321 -1.25668 0
M  V30 445 O 43.0617 -1.26495 -1.19769 0
M  V30 446 C 40.1937 -2.55143 -2.26086 0
M  V30 447 H 41.3867 -2.95723 -0.498775 0
M  V30 448 H 38.9397 -1.54703 -0.222888 0
M  V30 449 H 39.6747 -1.71633 -2.75159 0
M  V30 450 H 39.4597 -3.34461 -2.04641 0
M  V30 451 H 40.9497 -2.95083 -2.95492 0
M  V30 452 N 41.3868 0.248026 -1.55636 0
M  V30 453 C 42.8028 0.596483 -1.48035 0
M  V30 454 C 43.0028 1.88386 -0.715039 0
M  V30 455 O 42.0588 2.51319 -0.243944 0
M  V30 456 C 43.3718 0.700258 -2.92433 0
M  V30 457 C 44.9198 0.792659 -3.02797 0
M  V30 458 C 45.3948 0.928005 -4.485 0
M  V30 459 N 46.8858 0.992903 -4.52433 0
M  V30 460 C 47.6208 1.11687 -5.62418 0
M  V30 461 N 47.1168 1.20645 -6.82214 0
M  V30 462 N 48.9098 1.14994 -5.50212 0
M  V30 463 H 41.0608 -0.597109 -2.03834 0
M  V30 464 H 43.3238 -0.205925 -0.925364 0
M  V30 465 H 43.0298 -0.175658 -3.51261 0
M  V30 466 H 42.9038 1.57255 -3.42857 0
M  V30 467 H 45.2908 1.65903 -2.4405 0
M  V30 468 H 45.3718 -0.104762 -2.55585 0
M  V30 469 H 45.0158 0.0661971 -5.07857 0
M  V30 470 H 44.9458 1.84045 -4.93391 0
M  V30 471 H 47.4368 0.935064 -3.66149 0
M  V30 472 H 47.7498 1.30008 -7.61786 0
M  V30 473 H 46.0948 1.17605 -6.84977 0
M  V30 474 H 49.2858 1.07643 -4.55555 0
M  V30 475 H 49.4588 1.24311 -6.35965 0
M  V30 476 N 42.8649 1.48995 0.513639 0
M  V30 477 C 44.2809 1.35478 0.843682 0
M  V30 478 C 44.4809 0.378213 1.97919 0
M  V30 479 O 43.5369 -0.194689 2.51748 0
M  V30 480 C 44.8499 2.75901 1.1958 0
M  V30 481 C 46.3979 2.84509 1.30474 0
M  V30 482 C 46.8729 4.25671 1.69021 0
M  V30 483 N 48.3639 4.28422 1.76094 0
M  V30 484 C 49.0989 5.34601 2.07338 0
M  V30 485 N 48.5949 6.5104 2.36894 0
M  V30 486 N 50.3879 5.22007 2.08483 0
M  V30 487 H 42.5389 2.11092 -0.235328 0
M  V30 488 H 44.8019 0.947039 -0.0426669 0
M  V30 489 H 44.5079 3.49001 0.434913 0
M  V30 490 H 44.3819 3.10467 2.1422 0
M  V30 491 H 46.7689 2.11655 2.05637 0
M  V30 492 H 46.8499 2.53542 0.339155 0
M  V30 493 H 46.4939 4.99048 0.944135 0
M  V30 494 H 46.4239 4.54094 2.66658 0
M  V30 495 H 48.9149 3.44441 1.55464 0
M  V30 496 H 49.2279 7.2779 2.59887 0
M  V30 497 H 47.5729 6.54287 2.34378 0
M  V30 498 H 50.7639 4.30051 1.84861 0
M  V30 499 H 50.9369 6.04854 2.325 0
M  V30 500 N 44.343 -0.763751 1.37857 0
M  V30 501 C 45.62 -1.51244 1.24035 0
M  V30 502 C 46 -2.10472 -0.162649 0
M  V30 503 O 45.348 -1.96206 -1.17112 0
M  V30 504 C 45.558 -2.58694 2.34261 0
M  V30 505 C 46.906 -3.25878 2.72193 0
M  V30 506 O 47.93 -2.68993 2.33497 0
M  V30 507 O 46.789 -4.2874 3.38887 0
M  V30 508 H 43.883 -0.670243 0.484462 0
M  V30 509 H 46.429 -0.800031 1.49658 0
M  V30 510 H 45.201 -2.13105 3.2818 0
M  V30 511 H 44.824 -3.37527 2.10146 0
M  V30 512 N 45.8211 -1.22559 -0.990812 0
M  V30 513 C 47.2321 -1.04791 -1.54518 0
M  V30 514 C 47.5831 0.387998 -1.92325 0
M  V30 515 O 46.7081 1.27328 -1.74976 0
M  V30 516 C 47.3031 -1.896 -2.80779 0
M  V30 517 C 45.8621 -1.76124 -3.32652 0
M  V30 518 C 45.0091 -1.8594 -2.05722 0
M  V30 519 H 47.9601 -1.36374 -0.811662 0
M  V30 520 H 47.9811 -1.41464 -3.53225 0
M  V30 521 H 47.4931 -2.94101 -2.53231 0
M  V30 522 H 45.5941 -0.743643 -3.65104 0
M  V30 523 H 45.7071 -2.58913 -4.03114 0
M  V30 524 H 44.0711 -1.29403 -2.19379 0
M  V30 525 H 44.8541 -2.91976 -1.80568 0
M  V30 526 N 47.2992 1.18797 -1.03562 0
M  V30 527 C 48.7152 1.40671 -0.753917 0
M  V30 528 C 48.9152 1.9043 0.658686 0
M  V30 529 O 47.9712 2.08538 1.42366 0
M  V30 530 C 49.2842 2.41192 -1.79574 0
M  V30 531 C 50.8322 2.54928 -1.81606 0
M  V30 532 C 51.3072 3.58709 -2.84766 0
M  V30 533 N 52.7982 3.66212 -2.83625 0
M  V30 534 C 53.5332 4.46225 -3.60098 0
M  V30 535 N 53.0292 5.29888 -4.46308 0
M  V30 536 N 54.8222 4.40939 -3.4861 0
M  V30 537 H 46.9732 0.848221 -1.94728 0
M  V30 538 H 49.2362 0.435081 -0.842264 0
M  V30 539 H 48.9422 2.11669 -2.80872 0
M  V30 540 H 48.8162 3.40467 -1.62365 0
M  V30 541 H 51.2032 2.83771 -0.809817 0
M  V30 542 H 51.2842 1.55784 -2.02891 0
M  V30 543 H 50.9282 3.30607 -3.85566 0
M  V30 544 H 50.8582 4.57519 -2.60737 0
M  V30 545 H 53.3492 3.06466 -2.21105 0
M  V30 546 H 53.6622 5.88078 -5.01382 0
M  V30 547 H 52.0072 5.29326 -4.50377 0
M  V30 548 H 55.1982 3.74624 -2.80668 0
M  V30 549 H 55.3712 5.03056 -4.08459 0
M  V30 550 N 48.7773 0.814389 1.34928 0
M  V30 551 C 49.7403 0.235759 2.27984 0
M  V30 552 C 50.7403 -0.581412 1.49921 0
M  V30 553 O 51.9303 -0.398758 1.69575 0
M  V30 554 C 49.0623 -0.670433 3.34242 0
M  V30 555 H 50.2553 1.05659 2.80671 0
M  V30 556 H 47.8083 0.585614 1.44915 0
M  V30 557 H 48.5433 -1.51466 2.86755 0
M  V30 558 H 48.3283 -0.0860822 3.92005 0
M  V30 559 H 49.8183 -1.06935 4.03676 0
M  V30 560 N 50.2554 -1.46986 0.568584 0
M  V30 561 C 51.5034 -2.02041 0.0487022 0
M  V30 562 C 51.8244 -1.44408 -1.31039 0
M  V30 563 O 51.0944 -0.623477 -1.85714 0
M  V30 564 H 49.6744 -0.746849 0.015014 0
M  V30 565 H 52.3364 -1.80257 0.741168 0
M  V30 566 H 51.4324 -3.12085 -0.0308961 0
M  V30 567 N 51.7335 -0.305618 -1.54608 0
M  V30 568 C 53.1495 0.0476228 -1.59529 0
M  V30 569 C 53.3495 1.52025 -1.32252 0
M  V30 570 O 52.4055 2.27368 -1.09818 0
M  V30 571 C 53.7185 -0.354471 -2.98603 0
M  V30 572 C 55.2665 -0.303622 -3.11524 0
M  V30 573 C 55.7415 -0.680608 -4.52915 0
M  V30 574 N 57.2325 -0.63332 -4.5885 0
M  V30 575 C 57.9675 -0.897432 -5.66334 0
M  V30 576 N 57.4635 -1.22775 -6.81834 0
M  V30 577 N 59.2565 -0.824186 -5.56025 0
M  V30 578 H 51.4075 -1.2653 -1.70599 0
M  V30 579 H 53.6705 -0.513291 -0.797017 0
M  V30 580 H 53.3765 -1.3798 -3.23503 0
M  V30 581 H 53.2505 0.289568 -3.76087 0
M  V30 582 H 55.6375 0.712472 -2.8637 0
M  V30 583 H 55.7185 -0.982348 -2.36185 0
M  V30 584 H 55.3625 -1.69453 -4.78799 0
M  V30 585 H 55.2925 0.0202385 -5.26596 0
M  V30 586 H 57.7835 -0.389138 -3.75891 0
M  V30 587 H 58.0965 -1.41513 -7.59733 0
M  V30 588 H 56.4415 -1.26583 -6.83375 0
M  V30 589 H 59.6325 -0.565748 -4.64669 0
M  V30 590 H 59.8055 -1.03338 -6.39707 0
M  V30 591 N 53.2116 1.57565 -0.0334293 0
M  V30 592 C 54.6226 1.79746 0.504798 0
M  V30 593 C 54.9736 0.944091 1.71992 0
M  V30 594 O 54.0986 0.155694 2.15839 0
M  V30 595 C 54.6936 3.25997 0.922567 0
M  V30 596 C 53.2526 3.49159 1.40588 0
M  V30 597 C 52.3996 2.74785 0.372633 0
M  V30 598 H 55.3506 1.56565 -0.259436 0
M  V30 599 H 55.3716 3.35945 1.78666 0
M  V30 600 H 54.8836 3.88081 0.0379825 0
M  V30 601 H 52.9846 2.92332 2.31025 0
M  V30 602 H 53.0976 4.57873 1.41028 0
M  V30 603 H 51.4616 2.40391 0.841672 0
M  V30 604 H 52.2446 3.39587 -0.503559 0
M  V30 605 N 54.6897 -0.239769 1.55765 0
M  V30 606 C 56.1007 -0.808263 1.68297 0
M  V30 607 C 56.4517 -1.85736 0.632181 0
M  V30 608 O 55.5767 -2.15277 -0.220204 0
M  V30 609 C 56.1717 -1.47284 3.05111 0
M  V30 610 C 54.7307 -1.98895 3.19559 0
M  V30 611 C 53.8777 -0.842575 2.64189 0
M  V30 612 H 56.8287 -0.0154422 1.58692 0
M  V30 613 H 56.8497 -2.34111 2.99954 0
M  V30 614 H 56.3617 -0.709053 3.81568 0
M  V30 615 H 54.4627 -2.78132 2.47938 0
M  V30 616 H 54.5757 -2.18143 4.26556 0
M  V30 617 H 52.9397 -1.24501 2.22197 0
M  V30 618 H 53.7227 -0.0917552 3.43177 0
M  V30 619 N 56.1678 -1.49265 -0.50573 0
M  V30 620 C 57.5838 -1.35923 -0.836486 0
M  V30 621 C 57.7838 -0.388704 -1.97715 0
M  V30 622 O 56.8398 0.181336 -2.51848 0
M  V30 623 C 58.1528 -2.76531 -1.18115 0
M  V30 624 C 59.7008 -2.85197 -1.28964 0
M  V30 625 C 60.1758 -4.26561 -1.66761 0
M  V30 626 N 61.6668 -4.2935 -1.73819 0
M  V30 627 C 62.4018 -5.35693 -2.045 0
M  V30 628 N 61.8978 -6.52287 -2.33438 0
M  V30 629 N 63.6908 -5.23105 -2.05711 0
M  V30 630 H 55.8418 -2.10965 0.246519 0
M  V30 631 H 58.1048 -0.9468 0.0476887 0
M  V30 632 H 57.8108 -3.49226 -0.416398 0
M  V30 633 H 57.6848 -3.11599 -2.1257 0
M  V30 634 H 60.0718 -2.12742 -2.04511 0
M  V30 635 H 60.1528 -2.53718 -0.325704 0
M  V30 636 H 59.7968 -4.99541 -0.917656 0
M  V30 637 H 59.7268 -4.55502 -2.64246 0
M  V30 638 H 62.2178 -3.4526 -1.53635 0
M  V30 639 H 62.5308 -7.29158 -2.56024 0
M  V30 640 H 60.8758 -6.55521 -2.30905 0
M  V30 641 H 64.0668 -4.31026 -1.82577 0
M  V30 642 H 64.2398 -6.06078 -2.29289 0
M  V30 643 N 57.6459 0.756429 -1.3826 0
M  V30 644 C 59.0569 1.33359 -1.30661 0
M  V30 645 C 59.4079 1.96161 0.0388875 0
M  V30 646 O 58.5329 1.94874 0.940918 0
M  V30 647 C 59.1279 2.42477 -2.36622 0
M  V30 648 C 57.6869 2.95922 -2.3261 0
M  V30 649 C 56.8339 1.69275 -2.19639 0
M  V30 650 H 59.7849 0.55552 -1.4866 0
M  V30 651 H 59.8059 3.22345 -2.02174 0
M  V30 652 H 59.3179 1.96739 -3.34538 0
M  V30 653 H 57.4189 3.45996 -1.38267 0
M  V30 654 H 57.5319 3.50494 -3.26636 0
M  V30 655 H 55.8959 1.92793 -1.66442 0
M  V30 656 H 56.6789 1.25619 -3.19491 0
M  V30 657 N 59.124 1.23083 0.984299 0
M  V30 658 C 60.087 1.00979 2.05757 0
M  V30 659 C 61.087 -0.0269573 1.60777 0
M  V30 660 O 62.277 0.212403 1.729 0
M  V30 661 C 59.409 0.527072 3.36801 0
M  V30 662 H 60.602 1.9622 2.26799 0
M  V30 663 H 58.155 1.05072 1.15714 0
M  V30 664 H 58.89 -0.429294 3.21446 0
M  V30 665 H 58.675 1.27515 3.70786 0
M  V30 666 H 60.165 0.392942 4.15747 0
M  V30 667 N 60.6021 -1.18246 1.0419 0
M  V30 668 C 61.5651 -2.20128 0.638452 0
M  V30 669 C 62.5651 -1.57885 -0.304805 0
M  V30 670 O 63.7551 -1.73967 -0.0900369 0
M  V30 671 C 60.8871 -3.4084 -0.0637751 0
M  V30 672 H 62.0801 -2.57336 1.54007 0
M  V30 673 H 59.6331 -1.32152 0.834598 0
M  V30 674 H 60.3681 -3.09166 -0.979136 0
M  V30 675 H 60.1531 -3.8726 0.614198 0
M  V30 676 H 61.6431 -4.16274 -0.332512 0
M  V30 677 N 62.0802 -0.821533 -1.34494 0
M  V30 678 C 63.3282 -0.408139 -1.97936 0
M  V30 679 C 63.6492 1.03193 -1.65457 0
M  V30 680 O 62.9192 1.71622 -0.944595 0
M  V30 681 H 61.4992 -0.147928 -0.732206 0
M  V30 682 H 64.1612 -1.05067 -1.64155 0
M  V30 683 H 63.2572 -0.52601 -3.07635 0
M  V30 684 N 63.5583 1.46682 -0.576371 0
M  V30 685 C 64.9693 1.86112 -0.148091 0
M  V30 686 C 65.3203 1.48073 1.2872 0
M  V30 687 O 64.4453 0.892656 1.97131 0
M  V30 688 C 65.0403 3.37786 -0.261982 0
M  V30 689 C 63.5993 3.76235 0.111384 0
M  V30 690 C 62.7463 2.70713 -0.60083 0
M  V30 691 H 65.6973 1.37927 -0.78497 0
M  V30 692 H 65.7183 3.77007 0.514364 0
M  V30 693 H 65.2303 3.6544 -1.30671 0
M  V30 694 H 63.3313 3.54198 1.15649 0
M  V30 695 H 63.4443 4.78391 -0.26052 0
M  V30 696 H 61.8083 2.54666 -0.0417783 0
M  V30 697 H 62.5913 3.01208 -1.64708 0
M  V30 698 N 65.0364 0.313813 1.54444 0
M  V30 699 C 65.9994 -0.54379 2.22656 0
M  V30 700 C 66.9994 -1.05124 1.21678 0
M  V30 701 O 68.1894 -0.945225 1.46325 0
M  V30 702 C 65.3214 -1.75427 2.92298 0
M  V30 703 H 66.5144 0.0523599 2.99854 0
M  V30 704 H 64.0674 0.0647834 1.56166 0
M  V30 705 H 64.8024 -2.38991 2.19211 0
M  V30 706 H 64.5874 -1.39791 3.66334 0
M  V30 707 H 66.0774 -2.36325 3.44297 0
M  V30 708 N 66.5145 -1.57545 0.0417849 0
M  V30 709 C 67.7425 -1.96624 -0.643928 0
M  V30 710 C 68.1575 -0.918897 -1.64929 0
M  V30 711 O 67.5145 0.0979323 -1.82237 0
M  V30 712 C 67.5655 -3.35781 -1.33914 0
M  V30 713 O 67.2865 -4.365 -0.374048 0
M  V30 714 C 68.7875 -3.89566 -2.1155 0
M  V30 715 H 66.0075 -0.647316 -0.176702 0
M  V30 716 H 68.5515 -2.04229 0.105304 0
M  V30 717 H 66.7065 -3.29357 -2.03968 0
M  V30 718 H 67.1205 -5.17248 -0.869179 0
M  V30 719 H 68.5945 -4.89242 -2.55628 0
M  V30 720 H 69.0715 -3.24488 -2.9598 0
M  V30 721 H 69.6775 -3.99298 -1.46427 0
M  V30 722 N 67.9926 0.231505 -1.5589 0
M  V30 723 C 69.2326 0.964533 -1.80211 0
M  V30 724 C 69.5966 1.81926 -0.613744 0
M  V30 725 O 70.7976 2.58526 -0.736045 0
M  V30 726 C 69.0686 1.78956 -3.09369 0
M  V30 727 S 70.6276 2.57959 -3.54969 0
M  V30 728 H 67.4456 0.324173 -0.632798 0
M  V30 729 H 70.0476 0.230985 -1.94131 0
M  V30 730 H 68.7516 1.15161 -3.93911 0
M  V30 731 H 68.2826 2.56559 -2.9823 0
M  V30 732 H 70.2976 3.81309 -3.17519 0
M  V30 733 N 69.4707 1.49531 0.497807 0
M  V30 734 C 70.4337 1.65916 1.58128 0
M  V30 735 C 71.4337 0.530825 1.51786 0
M  V30 736 O 72.6237 0.797342 1.54881 0
M  V30 737 C 69.7557 1.65951 2.9778 0
M  V30 738 H 70.9487 2.62556 1.44929 0
M  V30 739 H 68.5017 1.38611 0.722275 0
M  V30 740 H 69.2367 0.709065 3.16453 0
M  V30 741 H 69.0217 2.47897 3.03792 0
M  V30 742 H 70.5117 1.80673 3.76493 0
M  V30 743 N 70.9488 -0.749086 1.3866 0
M  V30 744 C 72.1768 -1.53834 1.38358 0
M  V30 745 C 72.5918 -1.88783 -0.0255219 0
M  V30 746 O 71.9488 -1.53101 -0.993292 0
M  V30 747 C 71.9998 -2.83468 2.2434 0
M  V30 748 O 71.7208 -2.50008 3.5976 0
M  V30 749 C 73.2218 -3.7758 2.32267 0
M  V30 750 H 70.4418 -0.47585 0.473083 0
M  V30 751 H 72.9858 -0.926726 1.82297 0
M  V30 752 H 71.1408 -3.40995 1.83851 0
M  V30 753 H 71.5548 -3.33182 4.05081 0
M  V30 754 H 73.0288 -4.65478 2.96706 0
M  V30 755 H 73.5058 -4.18334 1.33765 0
M  V30 756 H 74.1118 -3.25976 2.73166 0
M  V30 757 N 72.4269 -1.23603 -0.977757 0
M  V30 758 C 73.8429 -0.999251 -1.24447 0
M  V30 759 C 74.0429 0.298053 -1.99283 0
M  V30 760 O 73.0989 1.01681 -2.31122 0
M  V30 761 C 74.4119 -2.20784 -2.04144 0
M  V30 762 C 75.9599 -2.25303 -2.17273 0
M  V30 763 C 76.4349 -3.45755 -3.00362 0
M  V30 764 N 77.9259 -3.4601 -3.07947 0
M  V30 765 C 78.6609 -4.35868 -3.72568 0
M  V30 766 N 78.1569 -5.35966 -4.38991 0
M  V30 767 N 79.9499 -4.23605 -3.6948 0
M  V30 768 H 72.1009 -2.06986 -0.476483 0
M  V30 769 H 74.3639 -0.907801 -0.273134 0
M  V30 770 H 74.0699 -3.14945 -1.56533 0
M  V30 771 H 73.9439 -2.22085 -3.04891 0
M  V30 772 H 76.3309 -1.3168 -2.64092 0
M  V30 773 H 76.4119 -2.28033 -1.15907 0
M  V30 774 H 76.0559 -4.39687 -2.5424 0
M  V30 775 H 75.9859 -3.40266 -4.01904 0
M  V30 776 H 78.4769 -2.73588 -2.60688 0
M  V30 777 H 78.7899 -6.00783 -4.86086 0
M  V30 778 H 77.1349 -5.39863 -4.37691 0
M  V30 779 H 80.3259 -3.44647 -3.16759 0
M  V30 780 H 80.4989 -4.93836 -4.1956 0
M  V30 781 N 73.905 1.17692 -1.04816 0
M  V30 782 C 74.868 2.19787 -0.650117 0
M  V30 783 C 75.868 1.58044 0.296427 0
M  V30 784 O 77.058 1.74012 0.0808097 0
M  V30 785 C 74.19 3.40869 0.0456987 0
M  V30 786 H 75.383 2.56516 -1.5537 0
M  V30 787 H 72.936 1.31708 -0.841594 0
M  V30 788 H 73.671 3.09681 0.962726 0
M  V30 789 H 73.456 3.86928 -0.634727 0
M  V30 790 H 74.946 4.16445 0.310432 0
M  V30 791 N 75.3831 0.828654 1.34056 0
M  V30 792 C 76.3461 0.259927 2.27721 0
M  V30 793 C 77.3461 -0.565478 1.50529 0
M  V30 794 O 78.5361 -0.38075 1.69988 0
M  V30 795 C 75.6681 -0.634944 3.34935 0
M  V30 796 H 76.8611 1.0863 2.79534 0
M  V30 797 H 74.4141 0.600951 1.44285 0
M  V30 798 H 75.1491 -1.48416 2.88346 0
M  V30 799 H 74.9341 -0.0444999 3.92075 0
M  V30 800 H 76.4241 -1.02648 4.04788 0
M  V30 801 N 76.8612 -1.46375 0.584142 0
M  V30 802 C 78.2772 -1.57694 0.245929 0
M  V30 803 C 78.4772 -1.57903 -1.25175 0
M  V30 804 O 77.5332 -1.49676 -2.03355 0
M  V30 805 C 78.8462 -2.87028 0.896402 0
M  V30 806 C 80.3942 -3.00662 0.870127 0
M  V30 807 C 80.8692 -4.32734 1.50017 0
M  V30 808 N 82.3602 -4.39436 1.46458 0
M  V30 809 C 83.0952 -5.40248 1.92144 0
M  V30 810 N 82.5912 -6.47726 2.4581 0
M  V30 811 N 84.3842 -5.31459 1.83052 0
M  V30 812 H 76.5352 -1.44483 1.55687 0
M  V30 813 H 78.7982 -0.689291 0.650831 0
M  V30 814 H 78.5042 -2.9269 1.95002 0
M  V30 815 H 78.3782 -3.75014 0.405486 0
M  V30 816 H 80.7652 -2.94581 -0.174871 0
M  V30 817 H 80.8462 -2.14148 1.39908 0
M  V30 818 H 80.4902 -4.39573 2.54437 0
M  V30 819 H 80.4202 -5.18025 0.946432 0
M  V30 820 H 82.9112 -3.62367 1.07231 0
M  V30 821 H 83.2242 -7.20863 2.78525 0
M  V30 822 H 81.5692 -6.48542 2.49836 0
M  V30 823 H 84.7602 -4.46396 1.40883 0
M  V30 824 H 84.9332 -6.09881 2.18973 0
M  V30 825 N 78.3393 -0.321999 -1.54275 0
M  V30 826 C 79.5873 0.280489 -2.00144 0
M  V30 827 C 79.9083 1.52777 -1.21178 0
M  V30 828 O 79.1783 1.9338 -0.313187 0
M  V30 829 H 77.7583 0.106632 -0.73935 0
M  V30 830 H 80.4203 -0.438184 -1.8991 0
M  V30 831 H 79.5163 0.537972 -3.07428 0
M  V30 832 N 79.8174 1.5752 -0.0501392 0
M  V30 833 C 81.2334 1.56631 0.306402 0
M  V30 834 C 81.4334 1.0577 1.71508 0
M  V30 835 O 80.4894 0.713837 2.422 0
M  V30 836 C 81.8024 3.00393 0.135811 0
M  V30 837 C 83.3504 3.12315 0.206993 0
M  V30 838 C 83.8254 4.57954 0.064944 0
M  V30 839 N 85.3164 4.63041 0.121254 0
M  V30 840 C 86.0514 5.73389 0.0354381 0
M  V30 841 N 85.5474 6.92724 -0.102666 0
M  V30 842 N 87.3404 5.62026 0.090946 0
M  V30 843 H 79.4914 1.88903 -0.971046 0
M  V30 844 H 81.7544 0.869876 -0.376855 0
M  V30 845 H 81.4604 3.41635 -0.835384 0
M  V30 846 H 81.3344 3.66373 0.897275 0
M  V30 847 H 83.7214 2.70973 1.16866 0
M  V30 848 H 83.8024 2.49016 -0.585208 0
M  V30 849 H 83.4464 4.99981 -0.893394 0
M  V30 850 H 83.3764 5.19258 0.876277 0
M  V30 851 H 85.8674 3.77216 0.227284 0
M  V30 852 H 86.1804 7.72633 -0.160882 0
M  V30 853 H 84.5254 6.94864 -0.137737 0
M  V30 854 H 87.7164 4.67684 0.197388 0
M  V30 855 H 87.8894 6.47997 0.0206089 0
M  V30 856 N 81.2955 -0.223234 1.56011 0
M  V30 857 C 82.7115 -0.572856 1.48965 0
M  V30 858 C 82.9115 -1.87225 0.74492 0
M  V30 859 O 81.9675 -2.50899 0.283896 0
M  V30 860 C 83.2805 -0.653646 2.9351 0
M  V30 861 C 84.8285 -0.744386 3.0402 0
M  V30 862 C 85.3035 -0.856535 4.49919 0
M  V30 863 N 86.7945 -0.9208 4.53955 0
M  V30 864 C 87.5295 -1.02726 5.64123 0
M  V30 865 N 87.0255 -1.09777 6.84047 0
M  V30 866 N 88.8185 -1.06226 5.51971 0
M  V30 867 H 80.9695 0.629462 2.02858 0
M  V30 868 H 83.2325 0.220621 0.921971 0
M  V30 869 H 82.9385 0.231518 3.50937 0
M  V30 870 H 82.8125 -1.51781 3.45315 0
M  V30 871 H 85.1995 -1.61999 2.46658 0
M  V30 872 H 85.2805 0.14541 2.55386 0
M  V30 873 H 84.9245 0.0146069 5.07898 0
M  V30 874 H 84.8545 -1.76172 4.96257 0
M  V30 875 H 87.3455 -0.876694 3.6759 0
M  V30 876 H 87.6585 -1.17872 7.63758 0
M  V30 877 H 86.0035 -1.06693 6.86762 0
M  V30 878 H 89.1945 -1.00382 4.5721 0
M  V30 879 H 89.3675 -1.14177 6.37862 0
M  V30 880 N 82.7736 -1.49793 -0.48987 0
M  V30 881 C 83.7366 -1.66752 -1.57246 0
M  V30 882 C 84.7366 -0.538867 -1.51502 0
M  V30 883 O 85.9266 -0.805545 -1.54456 0
M  V30 884 C 83.0586 -1.67528 -2.96896 0
M  V30 885 H 84.2516 -2.63321 -1.43534 0
M  V30 886 H 81.8046 -1.38992 -0.714914 0
M  V30 887 H 82.5396 -0.725837 -3.16073 0
M  V30 888 H 82.3246 -2.49504 -3.02473 0
M  V30 889 H 83.8146 -1.82667 -3.7553 0
M  V30 890 N 84.2517 0.741722 -1.39055 0
M  V30 891 C 85.4767 1.53607 -1.39354 0
M  V30 892 C 85.9017 1.88096 0.0116905 0
M  V30 893 O 85.2597 1.5143 0.996924 0
M  V30 894 C 85.3077 2.80441 -2.26682 0
M  V30 895 O 84.4117 3.76088 -1.69208 0
M  V30 896 H 83.7527 0.464142 -0.474835 0
M  V30 897 H 86.2827 0.915665 -1.82967 0
M  V30 898 H 86.2927 3.29246 -2.40959 0
M  V30 899 H 84.9677 2.5467 -3.2881 0
M  V30 900 H 83.5447 3.34833 -1.64138 0
M  V30 901 N 85.7298 1.2412 0.971189 0
M  V30 902 C 87.1408 1.07236 1.52831 0
M  V30 903 C 87.4918 -0.357352 1.92918 0
M  V30 904 O 86.6168 -1.24528 1.76979 0
M  V30 905 C 87.2118 1.94043 2.77728 0
M  V30 906 C 85.7708 1.81394 3.29808 0
M  V30 907 C 84.9178 1.89189 2.02738 0
M  V30 908 H 87.8688 1.37648 0.789864 0
M  V30 909 H 87.8898 1.47066 3.5093 0
M  V30 910 H 87.4018 2.98093 2.4852 0
M  V30 911 H 85.5028 0.801634 3.63874 0
M  V30 912 H 85.6158 2.65294 3.98944 0
M  V30 913 H 83.9798 1.32877 2.17292 0
M  V30 914 H 84.7628 2.94812 1.759 0
M  V30 915 N 87.2079 -1.17134 1.05439 0
M  V30 916 C 88.6189 -1.69084 0.791676 0
M  V30 917 C 88.9699 -1.83822 -0.685839 0
M  V30 918 O 88.0949 -1.52757 -1.53278 0
M  V30 919 C 88.6899 -3.07119 1.4305 0
M  V30 920 C 87.2489 -3.56225 1.21577 0
M  V30 921 C 86.3959 -2.32421 1.51247 0
M  V30 922 H 89.3469 -1.01617 1.219 0
M  V30 923 H 89.3679 -3.71087 0.84112 0
M  V30 924 H 88.8799 -2.9636 2.50584 0
M  V30 925 H 86.9809 -3.72257 0.159787 0
M  V30 926 H 87.0939 -4.38837 1.92246 0
M  V30 927 H 85.4579 -2.3701 0.932653 0
M  V30 928 H 86.2409 -2.24268 2.5992 0
M  V30 929 N 88.686 -0.835752 -1.33615 0
M  V30 930 C 90.097 -0.487099 -1.80234 0
M  V30 931 C 90.448 0.993627 -1.69179 0
M  V30 932 O 89.573 1.77403 -1.23924 0
M  V30 933 C 90.168 -0.877385 -3.27242 0
M  V30 934 C 88.727 -0.580915 -3.7189 0
M  V30 935 C 87.874 -1.0874 -2.5509 0
M  V30 936 H 90.825 -1.02474 -1.2118 0
M  V30 937 H 90.846 -0.186195 -3.80044 0
M  V30 938 H 90.358 -1.95512 -3.35256 0
M  V30 939 H 88.459 0.486881 -3.69405 0
M  V30 940 H 88.572 -1.13396 -4.65487 0
M  V30 941 H 86.936 -0.508392 -2.49575 0
M  V30 942 H 87.719 -2.17184 -2.65868 0
M  V30 943 N 90.1641 1.46063 -0.591896 0
M  V30 944 C 91.5751 1.85944 -0.167822 0
M  V30 945 C 91.9261 1.49429 1.27143 0
M  V30 946 O 91.0511 0.913515 1.96173 0
M  V30 947 C 91.6461 3.37489 -0.297794 0
M  V30 948 C 90.2051 3.76332 0.0714732 0
M  V30 949 C 89.3521 2.7006 -0.629509 0
M  V30 950 H 92.3031 1.37087 -0.799555 0
M  V30 951 H 92.3241 3.77532 0.474349 0
M  V30 952 H 91.8361 3.64034 -1.3454 0
M  V30 953 H 89.9371 3.55405 1.11886 0
M  V30 954 H 90.0501 4.78088 -0.311245 0
M  V30 955 H 88.4141 2.54607 -0.0687867 0
M  V30 956 H 89.1971 2.99444 -1.67894 0
M  V30 957 N 91.6422 0.330177 1.54103 0
M  V30 958 C 93.0532 -0.15652 1.86043 0
M  V30 959 C 93.4042 -1.51086 1.2517 0
M  V30 960 O 92.5292 -2.09023 0.560217 0
M  V30 961 C 93.1242 -0.290784 3.3755 0
M  V30 962 C 91.6832 -0.721705 3.69416 0
M  V30 963 C 90.8302 0.152622 2.7688 0
M  V30 964 H 93.7812 0.550237 1.48856 0
M  V30 965 H 93.8022 -1.12058 3.63625 0
M  V30 966 H 93.3142 0.695068 3.81825 0
M  V30 967 H 91.4152 -1.71706 3.30678 0
M  V30 968 H 91.5282 -0.520869 4.7626 0
M  V30 969 H 89.8922 -0.372894 2.51956 0
M  V30 970 H 90.6752 1.13536 3.23982 0
M  V30 971 N 93.1203 -1.57491 0.0584922 0
M  V30 972 C 94.5313 -1.80526 -0.476138 0
M  V30 973 C 94.8823 -0.971334 -1.70469 0
M  V30 974 O 94.0073 -0.190012 -2.15564 0
M  V30 975 C 94.6023 -3.27424 -0.870587 0
M  V30 976 C 93.1613 -3.51351 -1.35015 0
M  V30 977 C 92.3083 -2.75343 -0.32887 0
M  V30 978 H 95.2593 -1.56133 0.284312 0
M  V30 979 H 95.2803 -3.38745 -1.73299 0
M  V30 980 H 94.7923 -3.88093 0.0237627 0
M  V30 981 H 92.8933 -2.95971 -2.26345 0
M  V30 982 H 93.0063 -4.60059 -1.33726 0
M  V30 983 H 91.3703 -2.417 -0.803321 0
M  V30 984 H 92.1533 -3.38743 0.557521 0
M  V30 985 N 94.5984 0.214957 -1.56127 0
M  V30 986 C 96.0094 0.781386 -1.69562 0
M  V30 987 C 96.3604 1.84707 -0.66165 0
M  V30 988 O 95.4854 2.156 0.185927 0
M  V30 989 C 96.0804 1.42411 -3.07416 0
M  V30 990 C 94.6394 1.93786 -3.22683 0
M  V30 991 C 93.7864 0.800438 -2.65496 0
M  V30 992 H 96.7374 -0.00980633 -1.58697 0
M  V30 993 H 96.7584 2.29309 -3.0364 0
M  V30 994 H 96.2704 0.64826 -3.82648 0
M  V30 995 H 94.3714 2.74152 -2.52332 0
M  V30 996 H 94.4844 2.1133 -4.29973 0
M  V30 997 H 92.8484 1.2095 -2.2415 0
M  V30 998 H 93.6314 0.0371471 -3.4328 0
M  V30 999 N 96.0765 1.50051 0.48192 0
M  V30 1000 C 97.3245 1.60181 1.23234 0
M  V30 1001 C 97.6455 0.299176 1.92691 0
M  V30 1002 O 96.9155 -0.682708 1.83619 0
M  V30 1003 H 95.4955 0.590232 0.457859 0
M  V30 1004 H 98.1575 1.86775 0.556881 0
M  V30 1005 H 97.2535 2.40753 1.98607 0
M  V30 1006 N 97.5546 -0.734337 1.39446 0
M  V30 1007 C 98.8026 -1.49096 1.36436 0
M  V30 1008 C 99.1236 -1.94961 -0.0388255 0
M  V30 1009 O 98.3936 -1.69033 -0.990191 0
M  V30 1010 H 96.9736 -0.5531 0.502085 0
M  V30 1011 H 99.6356 -0.871725 1.74319 0
M  V30 1012 H 98.7316 -2.37276 2.02747 0
M  V30 1013 N 99.0327 -1.24633 -0.964593 0
M  V30 1014 C 99.9957 -1.0424 -2.04124 0
M  V30 1015 C 100.996 0.00137563 -1.608 0
M  V30 1016 O 102.186 -0.239883 -1.7254 0
M  V30 1017 C 99.3177 -0.580588 -3.3592 0
M  V30 1018 H 100.511 -1.99803 -2.23649 0
M  V30 1019 H 98.0637 -1.06899 -1.14027 0
M  V30 1020 H 98.7987 0.3781 -3.22088 0
M  V30 1021 H 98.5837 -1.33398 -3.6871 0
M  V30 1022 H 100.074 -0.459034 -4.15069 0
M  V30 1023 N 100.511 1.16574 -1.06058 0
M  V30 1024 C 101.757 1.87565 -0.78683 0
M  V30 1025 C 102.112 1.80012 0.679214 0
M  V30 1026 O 101.405 1.20327 1.49104 0
M  V30 1027 C 101.599 3.36195 -1.21275 0
M  V30 1028 C 101.428 3.58216 -2.71866 0
M  V30 1029 C 100.198 3.7444 -3.39298 0
M  V30 1030 C 102.396 3.57134 -3.70081 0
M  V30 1031 N 100.378 3.84389 -4.78663 0
M  V30 1032 C 101.749 3.73038 -4.9522 0
M  V30 1033 C 103.804 3.40332 -3.63426 0
M  V30 1034 C 102.507 3.73879 -6.14497 0
M  V30 1035 C 104.533 3.42466 -4.82153 0
M  V30 1036 C 103.895 3.58887 -6.06118 0
M  V30 1037 H 99.9938 0.704081 -0.340284 0
M  V30 1038 H 102.578 1.39885 -1.35426 0
M  V30 1039 H 100.749 3.82522 -0.673179 0
M  V30 1040 H 102.481 3.94839 -0.887917 0
M  V30 1041 H 99.2358 3.74662 -2.89699 0
M  V30 1042 H 99.6598 3.93138 -5.51155 0
M  V30 1043 H 104.302 3.26566 -2.68541 0
M  V30 1044 H 102.02 3.86427 -7.09718 0
M  V30 1045 H 105.606 3.30712 -4.78666 0
M  V30 1046 H 104.486 3.60454 -6.9645 0
M  V30 1047 N 101.989 0.842826 1.3317 0
M  V30 1048 C 102.899 0.281444 2.32906 0
M  V30 1049 C 103.915 -0.594587 1.63526 0
M  V30 1050 O 105.091 -0.49777 1.95152 0
M  V30 1051 C 102.156 -0.530929 3.42611 0
M  V30 1052 C 101.217 0.369843 4.27704 0
M  V30 1053 C 100.45 -0.403853 5.3217 0
M  V30 1054 O 100.673 -1.63513 5.46461 0
M  V30 1055 O 99.6069 0.224199 6.01482 0
M  V30 1056 H 103.433 1.10744 2.82789 0
M  V30 1057 H 101.018 0.60545 1.36582 0
M  V30 1058 H 102.9 -0.992437 4.09547 0
M  V30 1059 H 101.575 -1.33392 2.94938 0
M  V30 1060 H 100.482 0.879275 3.6362 0
M  V30 1061 H 101.815 1.13771 4.78871 0
M  V30 1062 N 103.467 -1.45747 0.599634 0
M  V30 1063 C 104.43 -2.28917 -0.113835 0
M  V30 1064 C 105.43 -1.3933 -0.802729 0
M  V30 1065 O 106.62 -1.61534 -0.652103 0
M  V30 1066 C 103.752 -3.20152 -1.17114 0
M  V30 1067 H 104.945 -2.93478 0.617289 0
M  V30 1068 H 102.498 -1.52137 0.358327 0
M  V30 1069 H 103.233 -2.60374 -1.93329 0
M  V30 1070 H 103.018 -3.86133 -0.681468 0
M  V30 1071 H 104.508 -3.82708 -1.67105 0
M  V30 1072 N 104.945 -0.338344 -1.53925 0
M  V30 1073 C 106.191 0.260143 -2.01125 0
M  V30 1074 C 106.524 1.50617 -1.22589 0
M  V30 1075 O 105.799 1.91979 -0.312113 0
M  V30 1076 C 106.082 0.579499 -3.55407 0
M  V30 1077 C 105.935 -0.678264 -4.44657 0
M  V30 1078 C 107.254 1.39122 -4.17532 0
M  V30 1079 H 104.373 0.0930772 -0.731099 0
M  V30 1080 H 107.015 -0.457852 -1.84401 0
M  V30 1081 H 105.165 1.19118 -3.69788 0
M  V30 1082 H 106.837 -1.31631 -4.42121 0
M  V30 1083 H 105.08 -1.3042 -4.13731 0
M  V30 1084 H 105.751 -0.410143 -5.50474 0
M  V30 1085 H 108.227 0.874035 -4.06817 0
M  V30 1086 H 107.103 1.58342 -5.25565 0
M  V30 1087 H 107.364 2.39178 -3.71815 0
M  V30 1088 N 106.423 1.57458 -0.0668435 0
M  V30 1089 C 107.839 1.56947 0.289772 0
M  V30 1090 C 108.039 1.07584 1.70376 0
M  V30 1091 O 107.095 0.739486 2.41429 0
M  V30 1092 C 108.408 3.0052 0.103943 0
M  V30 1093 C 109.956 3.12517 0.173857 0
M  V30 1094 C 110.431 4.57997 0.0163682 0
M  V30 1095 N 111.922 4.63144 0.0721352 0
M  V30 1096 C 112.657 5.73394 -0.0253794 0
M  V30 1097 N 112.153 6.92576 -0.176133 0
M  V30 1098 N 113.946 5.62091 0.0313305 0
M  V30 1099 H 106.097 1.87863 -0.991027 0
M  V30 1100 H 108.36 0.86583 -0.38606 0
M  V30 1101 H 108.066 3.40729 -0.871572 0
M  V30 1102 H 107.94 3.67304 0.858366 0
M  V30 1103 H 110.327 2.72197 1.13985 0
M  V30 1104 H 110.408 2.48381 -0.611586 0
M  V30 1105 H 110.052 4.99005 -0.946374 0
M  V30 1106 H 109.982 5.20158 0.821153 0
M  V30 1107 H 112.473 3.77436 0.187263 0
M  V30 1108 H 112.786 7.72418 -0.242821 0
M  V30 1109 H 111.131 6.94678 -0.211429 0
M  V30 1110 H 114.322 4.67867 0.147773 0
M  V30 1111 H 114.495 6.47982 -0.048121 0
M  V30 1112 N 107.901 -0.206675 1.56239 0
M  V30 1113 C 109.147 -0.930218 1.80208 0
M  V30 1114 C 109.48 -1.83387 0.638981 0
M  V30 1115 O 108.755 -1.91119 -0.361066 0
M  V30 1116 C 109.038 -1.75641 3.1436 0
M  V30 1117 C 108.891 -0.878257 4.41142 0
M  V30 1118 C 110.21 -2.73129 3.45092 0
M  V30 1119 H 107.329 -0.336742 0.655571 0
M  V30 1120 H 109.971 -0.198222 1.88963 0
M  V30 1121 H 108.121 -2.38048 3.07027 0
M  V30 1122 H 109.793 -0.269787 4.6051 0
M  V30 1123 H 108.036 -0.184385 4.33408 0
M  V30 1124 H 108.707 -1.49106 5.3148 0
M  V30 1125 H 111.183 -2.20856 3.52649 0
M  V30 1126 H 110.059 -3.28028 4.40101 0
M  V30 1127 H 110.32 -3.51606 2.68003 0
M  V30 1128 N 109.379 -1.50304 -0.473955 0
M  V30 1129 C 110.79 -1.54042 -1.0549 0
M  V30 1130 C 111.141 -0.342248 -1.93192 0
M  V30 1131 O 110.266 0.545157 -2.09421 0
M  V30 1132 C 110.861 -2.79152 -1.91989 0
M  V30 1133 C 109.42 -2.8558 -2.45196 0
M  V30 1134 C 108.567 -2.48295 -1.2347 0
M  V30 1135 H 111.518 -1.5661 -0.256693 0
M  V30 1136 H 111.539 -2.60845 -2.7702 0
M  V30 1137 H 111.051 -3.66339 -1.28131 0
M  V30 1138 H 109.152 -2.02738 -3.12615 0
M  V30 1139 H 109.265 -3.88403 -2.80499 0
M  V30 1140 H 107.629 -2.00669 -1.56856 0
M  V30 1141 H 108.412 -3.37787 -0.612789 0
M  V30 1142 N 110.857 0.726932 -1.39834 0
M  V30 1143 C 112.273 1.03354 -1.21615 0
M  V30 1144 C 112.473 2.01327 -0.08338 0
M  V30 1145 O 111.529 2.46158 0.56238 0
M  V30 1146 C 112.842 1.58811 -2.55342 0
M  V30 1147 C 114.39 1.70851 -2.62257 0
M  V30 1148 C 114.865 2.29716 -3.96225 0
M  V30 1149 N 116.356 2.37116 -3.97907 0
M  V30 1150 C 117.091 2.83619 -4.98345 0
M  V30 1151 N 116.587 3.29958 -6.09179 0
M  V30 1152 N 118.38 2.82901 -4.8572 0
M  V30 1153 H 110.531 0.0773069 -2.12259 0
M  V30 1154 H 112.794 0.0969102 -0.943034 0
M  V30 1155 H 112.5 0.942855 -3.38826 0
M  V30 1156 H 112.374 2.57502 -2.75632 0
M  V30 1157 H 114.761 2.34497 -1.79152 0
M  V30 1158 H 114.842 0.707913 -2.45809 0
M  V30 1159 H 114.486 1.66696 -4.79765 0
M  V30 1160 H 114.416 3.30469 -4.09997 0
M  V30 1161 H 116.907 2.04374 -3.17868 0
M  V30 1162 H 117.22 3.63976 -6.8172 0
M  V30 1163 H 115.565 3.27946 -6.12761 0
M  V30 1164 H 118.756 2.46027 -3.98231 0
M  V30 1165 H 118.929 3.18827 -5.6414 0
M  V30 1166 N 112.336 1.25143 0.95797 0
M  V30 1167 C 113.752 1.01892 1.22842 0
M  V30 1168 C 113.952 -0.266311 1.99732 0
M  V30 1169 O 113.008 -0.979913 2.3271 0
M  V30 1170 C 114.321 2.24004 2.00606 0
M  V30 1171 C 115.869 2.28731 2.13662 0
M  V30 1172 C 116.344 3.5049 2.94823 0
M  V30 1173 N 117.835 3.50866 3.02403 0
M  V30 1174 C 118.57 4.4174 3.65586 0
M  V30 1175 N 118.066 5.42882 4.30408 0
M  V30 1176 N 119.859 4.29429 3.62694 0
M  V30 1177 H 112.01 2.07718 0.443493 0
M  V30 1178 H 114.273 0.912031 0.258657 0
M  V30 1179 H 113.979 3.17395 1.51503 0
M  V30 1180 H 113.853 2.26907 3.01319 0
M  V30 1181 H 116.24 1.35865 2.61963 0
M  V30 1182 H 116.321 2.29848 1.12265 0
M  V30 1183 H 115.965 4.43676 2.47213 0
M  V30 1184 H 115.895 3.46617 3.96439 0
M  V30 1185 H 118.386 2.777 2.56302 0
M  V30 1186 H 118.699 6.0844 4.76467 0
M  V30 1187 H 117.044 5.46758 4.29047 0
M  V30 1188 H 120.235 3.49643 3.11236 0
M  V30 1189 H 120.408 5.00448 4.1165 0
M  V30 1190 N 113.814 -1.1601 1.06675 0
M  V30 1191 C 115.23 -1.38622 0.790948 0
M  V30 1192 C 115.43 -1.92109 -0.607965 0
M  V30 1193 O 114.486 -2.12239 -1.36787 0
M  V30 1194 C 115.799 -2.36347 1.85905 0
M  V30 1195 C 117.347 -2.50023 1.88301 0
M  V30 1196 C 117.822 -3.51033 2.94176 0
M  V30 1197 N 119.313 -3.58563 2.93235 0
M  V30 1198 C 120.048 -4.36521 3.71803 0
M  V30 1199 N 119.544 -5.17869 4.602 0
M  V30 1200 N 121.337 -4.31541 3.60178 0
M  V30 1201 H 113.488 -0.796294 1.96908 0
M  V30 1202 H 115.751 -0.412597 0.853503 0
M  V30 1203 H 115.457 -2.04147 2.86386 0
M  V30 1204 H 115.331 -3.36042 1.71334 0
M  V30 1205 H 117.718 -2.81524 0.884769 0
M  V30 1206 H 117.799 -1.5035 2.06951 0
M  V30 1207 H 117.443 -3.20268 3.94196 0
M  V30 1208 H 117.373 -4.50445 2.72776 0
M  V30 1209 H 119.864 -3.00496 2.29152 0
M  V30 1210 H 120.177 -5.74578 5.16797 0
M  V30 1211 H 118.522 -5.17199 4.64253 0
M  V30 1212 H 121.713 -3.67051 2.90502 0
M  V30 1213 H 121.886 -4.9205 4.21653 0
M  V30 1214 N 115.292 -0.849877 -1.32721 0
M  V30 1215 C 116.224 -0.248332 -2.27851 0
M  V30 1216 C 117.237 0.577218 -1.52224 0
M  V30 1217 O 118.426 0.402489 -1.73903 0
M  V30 1218 C 115.526 0.668107 -3.32249 0
M  V30 1219 C 114.699 -0.120534 -4.37234 0
M  V30 1220 C 113.758 0.720932 -5.21238 0
M  V30 1221 O 112.784 0.156166 -5.68986 0
M  V30 1222 N 113.986 2.03647 -5.43607 0
M  V30 1223 H 116.751 -1.06575 -2.80111 0
M  V30 1224 H 114.312 -0.709395 -1.45531 0
M  V30 1225 H 116.304 1.23627 -3.85355 0
M  V30 1226 H 114.874 1.38621 -2.80184 0
M  V30 1227 H 114.094 -0.870108 -3.84477 0
M  V30 1228 H 115.382 -0.662406 -5.0447 0
M  V30 1229 H 114.78 2.51871 -5.06535 0
M  V30 1230 H 113.337 2.55287 -5.99727 0
M  V30 1231 N 116.77 1.45427 -0.607355 0
M  V30 1232 C 117.702 2.2871 0.149752 0
M  V30 1233 C 118.715 1.39937 0.831958 0
M  V30 1234 O 119.904 1.64313 0.697385 0
M  V30 1235 C 117.004 3.15673 1.23304 0
M  V30 1236 C 116.177 4.32722 0.637996 0
M  V30 1237 C 115.236 5.00895 1.61215 0
M  V30 1238 O 114.262 5.57697 1.13854 0
M  V30 1239 N 115.464 5.00159 2.94655 0
M  V30 1240 H 118.229 2.94328 -0.564882 0
M  V30 1241 H 115.79 1.55612 -0.446823 0
M  V30 1242 H 117.782 3.58144 1.88454 0
M  V30 1243 H 116.352 2.51965 1.8502 0
M  V30 1244 H 115.572 3.93734 -0.191572 0
M  V30 1245 H 116.86 5.08321 0.220665 0
M  V30 1246 H 116.258 4.553 3.35735 0
M  V30 1247 H 114.815 5.46495 3.55228 0
M  V30 1248 N 118.248 0.346503 1.53744 0
M  V30 1249 C 119.664 -0.00530975 1.59599 0
M  V30 1250 C 119.864 -1.48465 1.36236 0
M  V30 1251 O 118.92 -2.24376 1.15808 0
M  V30 1252 C 120.233 0.433516 2.97559 0
M  V30 1253 C 121.781 0.386111 3.10609 0
M  V30 1254 C 122.256 0.800451 4.50951 0
M  V30 1255 N 123.747 0.754753 4.5701 0
M  V30 1256 C 124.482 1.04727 5.63755 0
M  V30 1257 N 123.978 1.4081 6.7834 0
M  V30 1258 N 125.771 0.971316 5.53644 0
M  V30 1259 H 117.922 1.31009 1.67184 0
M  V30 1260 H 120.185 0.534242 0.783128 0
M  V30 1261 H 119.891 1.46509 3.19731 0
M  V30 1262 H 119.765 -0.189753 3.76722 0
M  V30 1263 H 122.152 -0.636295 2.88158 0
M  V30 1264 H 122.233 1.04462 2.33498 0
M  V30 1265 H 121.877 1.82088 4.74137 0
M  V30 1266 H 121.807 0.119386 5.26465 0
M  V30 1267 H 124.298 0.488662 3.74727 0
M  V30 1268 H 124.611 1.61607 7.55714 0
M  V30 1269 H 122.956 1.44657 6.79779 0
M  V30 1270 H 126.147 0.688748 4.63005 0
M  V30 1271 H 126.32 1.20263 6.36742 0
M  V30 1272 N 119.726 -1.57421 0.075193 0
M  V30 1273 C 120.636 -2.1642 -0.905511 0
M  V30 1274 C 121.652 -1.12828 -1.32461 0
M  V30 1275 O 122.828 -1.45109 -1.39661 0
M  V30 1276 C 119.893 -2.71693 -2.15369 0
M  V30 1277 C 118.954 -3.90171 -1.79068 0
M  V30 1278 C 118.187 -4.42798 -2.97936 0
M  V30 1279 O 118.41 -3.94416 -4.12058 0
M  V30 1280 O 117.344 -5.34085 -2.77555 0
M  V30 1281 H 121.17 -3.00588 -0.433626 0
M  V30 1282 H 118.755 -1.48664 -0.148067 0
M  V30 1283 H 120.637 -3.07104 -2.88557 0
M  V30 1284 H 119.312 -1.90582 -2.61649 0
M  V30 1285 H 118.219 -3.59606 -1.03122 0
M  V30 1286 H 119.552 -4.72584 -1.37569 0
M  V30 1287 N 121.204 0.198386 -1.56346 0
M  V30 1288 C 122.167 1.22952 -1.93431 0
M  V30 1289 C 123.167 1.38611 -0.815092 0
M  V30 1290 O 124.357 1.36479 -1.08255 0
M  V30 1291 C 121.489 2.59946 -2.20546 0
M  V30 1292 H 122.682 0.912626 -2.85677 0
M  V30 1293 H 120.235 0.43977 -1.49986 0
M  V30 1294 H 120.97 2.96696 -1.30927 0
M  V30 1295 H 120.755 2.49953 -3.02102 0
M  V30 1296 H 122.245 3.3431 -2.50253 0
M  V30 1297 N 122.682 1.50554 0.465978 0
M  V30 1298 C 124.098 1.38093 0.800154 0
M  V30 1299 C 124.298 0.440988 1.96615 0
M  V30 1300 O 123.354 -0.114499 2.5224 0
M  V30 1301 C 124.667 2.79565 1.10742 0
M  V30 1302 C 126.215 2.88516 1.21357 0
M  V30 1303 C 126.69 4.30833 1.55393 0
M  V30 1304 N 128.181 4.33807 1.62375 0
M  V30 1305 C 128.916 5.40927 1.90225 0
M  V30 1306 N 128.412 6.58247 2.16062 0
M  V30 1307 N 130.205 5.28376 1.9177 0
M  V30 1308 H 122.356 2.10237 -0.302366 0
M  V30 1309 H 124.619 0.945203 -0.0727746 0
M  V30 1310 H 124.325 3.50208 0.323661 0
M  V30 1311 H 124.199 3.17125 2.04234 0
M  V30 1312 H 126.586 2.1809 1.98799 0
M  V30 1313 H 126.667 2.54492 0.258321 0
M  V30 1314 H 126.311 5.01799 0.784889 0
M  V30 1315 H 126.241 4.62347 2.52076 0
M  V30 1316 H 128.732 3.49212 1.44427 0
M  V30 1317 H 129.045 7.3569 2.36601 0
M  V30 1318 H 127.39 6.61413 2.13444 0
M  V30 1319 H 130.581 4.35715 1.71085 0
M  V30 1320 H 130.754 6.11944 2.13139 0
M  V30 1321 N 124.16 -0.719506 1.40217 0
M  V30 1322 C 125.408 -1.47641 1.3801 0
M  V30 1323 C 125.729 -1.94992 -0.018145 0
M  V30 1324 O 124.999 -1.70073 -0.972207 0
M  V30 1325 H 123.579 -0.547744 0.507923 0
M  V30 1326 H 126.241 -0.853187 1.75233 0
M  V30 1327 H 125.337 -2.35112 2.05253 0
M  V30 1328 N 125.638 -1.25649 -0.95132 0
M  V30 1329 C 126.601 -1.06399 -2.03007 0
M  V30 1330 C 127.601 -0.0156794 -1.60792 0
M  V30 1331 O 128.791 -0.25817 -1.72276 0
M  V30 1332 C 125.923 -0.616184 -3.35285 0
M  V30 1333 H 127.116 -2.02164 -2.21517 0
M  V30 1334 H 124.669 -1.08103 -1.12887 0
M  V30 1335 H 125.404 0.343917 -3.22471 0
M  V30 1336 H 125.189 -1.37301 -3.67275 0
M  V30 1337 H 126.679 -0.503032 -4.14559 0
M  V30 1338 N 127.117 1.15442 -1.07289 0
M  V30 1339 C 128.345 1.90096 -0.81676 0
M  V30 1340 C 128.76 1.7798 0.629966 0
M  V30 1341 O 128.117 1.1313 1.43206 0
M  V30 1342 C 128.168 3.40466 -1.21512 0
M  V30 1343 O 127.889 3.52232 -2.60508 0
M  V30 1344 C 129.39 4.32145 -0.988198 0
M  V30 1345 H 126.61 0.602495 -0.295366 0
M  V30 1346 H 129.154 1.4627 -1.42918 0
M  V30 1347 H 127.309 3.81958 -0.647039 0
M  V30 1348 H 127.723 4.45549 -2.76742 0
M  V30 1349 H 129.197 5.36072 -1.31645 0
M  V30 1350 H 129.674 4.39135 0.0755063 0
M  V30 1351 H 130.28 3.96395 -1.54115 0
M  V30 1352 N 128.595 0.856903 1.32268 0
M  V30 1353 C 129.505 0.306131 2.32594 0
M  V30 1354 C 130.521 -0.577209 1.64147 0
M  V30 1355 O 131.697 -0.477043 1.95669 0
M  V30 1356 C 128.762 -0.494561 3.43154 0
M  V30 1357 C 127.823 0.415186 4.27288 0
M  V30 1358 C 127.056 -0.347387 5.32568 0
M  V30 1359 O 127.279 -1.57708 5.48165 0
M  V30 1360 O 126.213 0.287982 6.01211 0
M  V30 1361 H 130.039 1.13737 2.81598 0
M  V30 1362 H 127.624 0.619902 1.35932 0
M  V30 1363 H 129.506 -0.948944 4.10576 0
M  V30 1364 H 128.181 -1.30257 2.96336 0
M  V30 1365 H 127.088 0.917793 3.62667 0
M  V30 1366 H 128.421 1.18844 4.77637 0
M  V30 1367 N 130.073 -1.45103 0.615059 0
M  V30 1368 C 130.983 -2.34382 -0.101034 0
M  V30 1369 C 131.999 -1.51681 -0.852585 0
M  V30 1370 O 133.175 -1.8446 -0.808484 0
M  V30 1371 C 130.24 -3.29417 -1.08099 0
M  V30 1372 C 129.301 -4.28025 -0.330577 0
M  V30 1373 C 128.534 -5.1852 -1.26385 0
M  V30 1374 O 128.757 -5.12598 -2.50198 0
M  V30 1375 O 127.691 -5.97122 -0.756866 0
M  V30 1376 H 131.517 -2.97033 0.632855 0
M  V30 1377 H 129.102 -1.4461 0.375293 0
M  V30 1378 H 130.984 -3.87958 -1.6452 0
M  V30 1379 H 129.659 -2.69321 -1.79577 0
M  V30 1380 H 128.566 -3.73078 0.276283 0
M  V30 1381 H 129.899 -4.90997 0.343866 0
M  V30 1382 N 131.551 -0.354651 -1.53558 0
M  V30 1383 C 132.962 0.126902 -1.86268 0
M  V30 1384 C 133.313 1.49075 -1.27558 0
M  V30 1385 O 132.438 2.08105 -0.5934 0
M  V30 1386 C 133.033 0.237046 -3.3797 0
M  V30 1387 C 131.592 0.662842 -3.70518 0
M  V30 1388 C 130.739 -0.196652 -2.76602 0
M  V30 1389 H 133.69 -0.573849 -1.47962 0
M  V30 1390 H 133.711 1.06259 -3.65362 0
M  V30 1391 H 133.223 -0.755725 -3.80671 0
M  V30 1392 H 131.324 1.66424 -3.33367 0
M  V30 1393 H 131.437 0.445034 -4.77029 0
M  V30 1394 H 129.801 0.332763 -2.52517 0
M  V30 1395 H 130.584 -1.18676 -3.22135 0
M  V30 1396 N 133.029 1.57378 -0.0835403 0
M  V30 1397 C 134.254 1.98682 0.594987 0
M  V30 1398 C 134.679 0.961969 1.61641 0
M  V30 1399 O 134.037 -0.0709989 1.81161 0
M  V30 1400 C 134.085 3.38988 1.2296 0
M  V30 1401 O 133.189 3.39208 2.34546 0
M  V30 1402 H 132.53 0.646368 0.152002 0
M  V30 1403 H 135.06 2.03961 -0.161533 0
M  V30 1404 H 135.07 3.76431 1.57366 0
M  V30 1405 H 133.745 4.13107 0.481228 0
M  V30 1406 H 132.322 3.13548 2.01846 0
M  V30 1407 N 134.507 -0.190092 1.56449 0
M  V30 1408 C 135.918 -0.754312 1.70784 0
M  V30 1409 C 136.269 -1.83631 0.690951 0
M  V30 1410 O 135.394 -2.15868 -0.151604 0
M  V30 1411 C 135.989 -1.37503 3.09642 0
M  V30 1412 C 134.548 -1.88628 3.25725 0
M  V30 1413 C 133.695 -0.758098 2.66736 0
M  V30 1414 H 136.646 0.0350524 1.58661 0
M  V30 1415 H 136.667 -2.2445 3.0725 0
M  V30 1416 H 136.179 -0.587302 3.83631 0
M  V30 1417 H 134.28 -2.70103 2.56661 0
M  V30 1418 H 134.393 -2.04462 4.3328 0
M  V30 1419 H 132.757 -1.17369 2.26046 0
M  V30 1420 H 133.54 0.0174705 3.43296 0
M  V30 1421 N 135.985 -1.50799 -0.457987 0
M  V30 1422 C 137.396 -1.55152 -1.0385 0
M  V30 1423 C 137.747 -0.362719 -1.92818 0
M  V30 1424 O 136.872 0.522915 -2.09987 0
M  V30 1425 C 137.467 -2.81173 -1.89017 0
M  V30 1426 C 136.026 -2.88164 -2.42154 0
M  V30 1427 C 135.173 -2.49591 -1.20829 0
M  V30 1428 H 138.124 -1.56874 -0.240068 0
M  V30 1429 H 138.145 -2.63769 -2.74238 0
M  V30 1430 H 137.657 -3.67677 -1.24238 0
M  V30 1431 H 135.758 -2.06042 -3.10447 0
M  V30 1432 H 135.871 -3.91356 -2.76364 0
M  V30 1433 H 134.235 -2.02322 -1.54719 0
M  V30 1434 H 135.018 -3.38418 -0.576927 0
M  V30 1435 N 137.463 0.71206 -1.40597 0
M  V30 1436 C 138.688 1.50617 -1.42581 0
M  V30 1437 C 139.113 1.88079 -0.0282102 0
M  V30 1438 O 138.471 1.53511 0.964579 0
M  V30 1439 C 138.519 2.7557 -2.3258 0
M  V30 1440 O 137.623 3.72414 -1.77148 0
M  V30 1441 H 136.964 0.453966 -0.484573 0
M  V30 1442 H 139.494 0.876649 -1.84868 0
M  V30 1443 H 139.504 3.2406 -2.47889 0
M  V30 1444 H 138.179 2.47639 -3.34138 0
M  V30 1445 H 136.756 3.31276 -1.71204 0
M  V30 1446 N 138.941 1.26152 0.944643 0
M  V30 1447 C 140.357 1.03189 1.21754 0
M  V30 1448 C 140.557 -0.245112 2.00004 0
M  V30 1449 O 139.613 -0.955176 2.33736 0
M  V30 1450 C 140.926 2.26119 1.98219 0
M  V30 1451 C 142.474 2.30984 2.11224 0
M  V30 1452 C 142.949 3.53597 2.91089 0
M  V30 1453 N 144.44 3.54053 2.98664 0
M  V30 1454 C 145.175 4.45593 3.60881 0
M  V30 1455 N 144.671 5.47416 4.24626 0
M  V30 1456 N 146.464 4.33252 3.58119 0
M  V30 1457 H 138.615 2.08177 0.421437 0
M  V30 1458 H 140.878 0.914723 0.248969 0
M  V30 1459 H 140.584 3.18984 1.48128 0
M  V30 1460 H 140.458 2.3009 2.98895 0
M  V30 1461 H 142.845 1.38635 2.60508 0
M  V30 1462 H 142.926 2.31026 1.09821 0
M  V30 1463 H 142.57 4.46273 2.42493 0
M  V30 1464 H 142.5 3.50802 3.92741 0
M  V30 1465 H 144.991 2.80403 2.53343 0
M  V30 1466 H 145.304 6.13459 4.69987 0
M  V30 1467 H 143.649 5.51278 4.23223 0
M  V30 1468 H 146.84 3.52924 3.0751 0
M  V30 1469 H 147.013 5.04786 4.06319 0
M  V30 1470 N 140.419 -1.14872 1.07899 0
M  V30 1471 C 141.382 -2.17986 0.708161 0
M  V30 1472 C 142.382 -1.58775 -0.25442 0
M  V30 1473 O 143.572 -1.74166 -0.034645 0
M  V30 1474 C 140.704 -3.40871 0.0446929 0
M  V30 1475 H 141.897 -2.52306 1.62116 0
M  V30 1476 H 139.45 -1.2943 0.876218 0
M  V30 1477 H 140.185 -3.12124 -0.880281 0
M  V30 1478 H 139.97 -3.8511 0.737091 0
M  V30 1479 H 141.46 -4.17121 -0.19991 0
M  V30 1480 N 141.898 -0.863906 -1.31812 0
M  V30 1481 C 142.828 -0.330843 -2.31144 0
M  V30 1482 C 143.809 0.575005 -1.60087 0
M  V30 1483 O 144.994 0.493304 -1.8783 0
M  V30 1484 C 142.124 0.47374 -3.44054 0
M  V30 1485 C 141.078 -0.338481 -4.26659 0
M  V30 1486 C 140.404 0.591412 -5.31419 0
M  V30 1487 C 141.704 -1.56926 -4.98168 0
M  V30 1488 H 143.398 -1.16086 -2.75979 0
M  V30 1489 H 140.944 -0.559657 -1.32679 0
M  V30 1490 H 142.897 0.857143 -4.12591 0
M  V30 1491 H 141.621 1.33721 -2.9797 0
M  V30 1492 H 140.28 -0.703754 -3.59782 0
M  V30 1493 H 139.928 1.45199 -4.81587 0
M  V30 1494 H 139.628 0.0519022 -5.87577 0
M  V30 1495 H 141.152 0.97179 -6.02817 0
M  V30 1496 H 142.566 -1.25764 -5.59336 0
M  V30 1497 H 140.963 -2.04739 -5.64094 0
M  V30 1498 H 142.033 -2.32544 -4.25501 0
M  V30 1499 N 143.376 1.44774 -0.622745 0
M  V30 1500 C 144.606 2.06187 -0.130532 0
M  V30 1501 C 145.014 1.46547 1.19669 0
M  V30 1502 O 144.357 0.579636 1.74316 0
M  V30 1503 C 144.419 3.59437 0.0674983 0
M  V30 1504 C 144.083 4.41496 -1.18026 0
M  V30 1505 C 145.08 4.75512 -2.102 0
M  V30 1506 C 142.765 4.82007 -1.41333 0
M  V30 1507 C 144.759 5.48912 -3.23998 0
M  V30 1508 C 142.446 5.55157 -2.55429 0
M  V30 1509 C 143.444 5.88528 -3.46589 0
M  V30 1510 O 143.132 6.60191 -4.58697 0
M  V30 1511 H 142.864 0.672045 -0.0730162 0
M  V30 1512 H 145.418 1.86768 -0.854802 0
M  V30 1513 H 143.648 3.77314 0.846825 0
M  V30 1514 H 145.337 4.02642 0.513209 0
M  V30 1515 H 146.103 4.4476 -1.93425 0
M  V30 1516 H 141.982 4.55457 -0.712709 0
M  V30 1517 H 145.526 5.74877 -3.95174 0
M  V30 1518 H 141.423 5.85324 -2.72151 0
M  V30 1519 H 142.191 6.78654 -4.57571 0
M  V30 1520 N 144.854 0.36279 1.53368 0
M  V30 1521 C 146.101 -0.227776 2.01215 0
M  V30 1522 C 146.429 -1.49003 1.25014 0
M  V30 1523 O 145.684 -1.92876 0.331236 0
M  V30 1524 C 145.983 -0.568417 3.52851 0
M  V30 1525 C 145.649 0.59918 4.46901 0
M  V30 1526 C 144.311 0.919559 4.72332 0
M  V30 1527 C 146.663 1.38156 5.02556 0
M  V30 1528 C 143.991 2.02434 5.5067 0
M  V30 1529 C 146.343 2.47674 5.821 0
M  V30 1530 C 145.007 2.8025 6.05819 0
M  V30 1531 H 144.277 -0.083349 0.736297 0
M  V30 1532 H 146.924 0.494677 1.85001 0
M  V30 1533 H 145.229 -1.37185 3.66998 0
M  V30 1534 H 146.926 -1.03756 3.87344 0
M  V30 1535 H 143.516 0.339437 4.27254 0
M  V30 1536 H 147.7 1.14729 4.82857 0
M  V30 1537 H 142.956 2.28075 5.67267 0
M  V30 1538 H 147.13 3.08716 6.24234 0
M  V30 1539 H 144.757 3.65979 6.66306 0
M  V30 1540 N 146.332 -1.57332 0.0918853 0
M  V30 1541 C 147.557 -1.98995 -0.584442 0
M  V30 1542 C 147.982 -0.970528 -1.61128 0
M  V30 1543 O 147.34 0.0613904 -1.81196 0
M  V30 1544 C 147.388 -3.39636 -1.21161 0
M  V30 1545 O 146.492 -3.40447 -2.32744 0
M  V30 1546 H 145.833 -0.647165 -0.148572 0
M  V30 1547 H 148.363 -2.03873 0.172347 0
M  V30 1548 H 148.373 -3.7726 -1.55367 0
M  V30 1549 H 147.048 -4.13356 -0.459313 0
M  V30 1550 H 145.625 -3.14614 -2.0018 0
M  V30 1551 N 147.81 0.181792 -1.56548 0
M  V30 1552 C 149.058 0.89832 -1.81038 0
M  V30 1553 C 149.379 1.83232 -0.667164 0
M  V30 1554 O 148.649 1.93372 0.313673 0
M  V30 1555 H 147.229 0.33471 -0.667816 0
M  V30 1556 H 149.891 0.184116 -1.94028 0
M  V30 1557 H 148.987 1.4815 -2.74696 0
M  V30 1558 N 149.288 1.51039 0.449983 0
M  V30 1559 C 150.704 1.38934 0.785462 0
M  V30 1560 C 150.904 0.461817 1.96136 0
M  V30 1561 O 149.96 -0.0877389 2.52348 0
M  V30 1562 C 151.273 2.80724 1.0777 0
M  V30 1563 C 152.821 2.89787 1.1829 0
M  V30 1564 C 153.296 4.32457 1.50815 0
M  V30 1565 N 154.787 4.35505 1.57764 0
M  V30 1566 C 155.522 5.42914 1.84477 0
M  V30 1567 N 155.018 6.60502 2.09068 0
M  V30 1568 N 156.811 5.3038 1.86155 0
M  V30 1569 H 148.962 2.09904 -0.324647 0
M  V30 1570 H 151.225 0.944378 -0.0827957 0
M  V30 1571 H 150.931 3.50531 0.286498 0
M  V30 1572 H 150.805 3.19273 2.00859 0
M  V30 1573 H 153.192 2.20186 1.96474 0
M  V30 1574 H 153.273 2.54752 0.231314 0
M  V30 1575 H 152.917 5.02603 0.731622 0
M  V30 1576 H 152.847 4.64995 2.47158 0
M  V30 1577 H 155.338 3.50724 1.40715 0
M  V30 1578 H 155.651 7.38158 2.28785 0
M  V30 1579 H 153.996 6.63639 2.06416 0
M  V30 1580 H 157.187 4.37505 1.66454 0
M  V30 1581 H 157.36 6.1417 2.06637 0
M  V30 1582 N 150.766 -0.704594 1.40972 0
M  V30 1583 C 152.014 -1.46169 1.39568 0
M  V30 1584 C 152.335 -1.95 0.00253745 0
M  V30 1585 O 151.605 -1.71095 -0.954114 0
M  V30 1586 H 150.185 -0.542326 0.513704 0
M  V30 1587 H 152.847 -0.834553 1.76128 0
M  V30 1588 H 151.943 -2.32922 2.07735 0
M  V30 1589 N 152.244 -1.26651 -0.937939 0
M  V30 1590 C 153.154 -1.10276 -2.07066 0
M  V30 1591 C 154.17 -0.0354197 -1.73964 0
M  V30 1592 O 155.346 -0.239816 -1.99967 0
M  V30 1593 C 152.411 -0.740887 -3.38691 0
M  V30 1594 C 151.472 -1.88799 -3.85556 0
M  V30 1595 C 150.705 -1.54329 -5.10899 0
M  V30 1596 O 150.928 -0.446494 -5.6865 0
M  V30 1597 O 149.862 -2.37911 -5.52885 0
M  V30 1598 H 153.688 -2.05309 -2.23789 0
M  V30 1599 H 151.273 -1.05743 -1.0554 0
M  V30 1600 H 153.155 -0.55195 -4.1777 0
M  V30 1601 H 151.83 0.180022 -3.23199 0
M  V30 1602 H 150.737 -2.13191 -3.07409 0
M  V30 1603 H 152.07 -2.78874 -4.05574 0
M  V30 1604 N 153.722 1.14298 -1.08507 0
M  V30 1605 C 154.654 2.1907 -0.673859 0
M  V30 1606 C 155.667 1.60381 0.279577 0
M  V30 1607 O 156.856 1.78374 0.0670754 0
M  V30 1608 C 153.956 3.38888 0.0290979 0
M  V30 1609 C 153.129 4.27103 -0.943494 0
M  V30 1610 C 152.188 5.25477 -0.275676 0
M  V30 1611 O 151.214 5.61709 -0.920401 0
M  V30 1612 N 152.416 5.7227 0.974013 0
M  V30 1613 H 155.181 2.54965 -1.57521 0
M  V30 1614 H 152.742 1.29528 -0.971287 0
M  V30 1615 H 154.734 4.01761 0.48683 0
M  V30 1616 H 153.304 3.01309 0.832555 0
M  V30 1617 H 152.524 3.61149 -1.58004 0
M  V30 1618 H 153.812 4.82905 -1.60251 0
M  V30 1619 H 153.21 5.44965 1.51755 0
M  V30 1620 H 151.767 6.37127 1.37522 0
M  V30 1621 N 155.201 0.870884 1.31352 0
M  V30 1622 C 156.131 0.343096 2.30966 0
M  V30 1623 C 157.112 -0.566507 1.60389 0
M  V30 1624 O 158.297 -0.483336 1.88089 0
M  V30 1625 C 155.427 -0.455487 3.443 0
M  V30 1626 C 154.381 0.361103 4.26474 0
M  V30 1627 C 153.707 -0.563221 5.31725 0
M  V30 1628 C 155.007 1.59566 4.97329 0
M  V30 1629 H 156.701 1.17548 2.75359 0
M  V30 1630 H 154.247 0.566686 1.32381 0
M  V30 1631 H 156.2 -0.83525 4.13039 0
M  V30 1632 H 154.924 -1.32139 2.98675 0
M  V30 1633 H 153.583 0.722825 3.59403 0
M  V30 1634 H 153.231 -1.42643 4.82351 0
M  V30 1635 H 152.931 -0.0207409 5.87596 0
M  V30 1636 H 154.455 -0.939808 6.03324 0
M  V30 1637 H 155.869 1.28728 5.58661 0
M  V30 1638 H 154.266 2.07728 5.63 0
M  V30 1639 H 155.336 2.34798 4.24262 0
M  V30 1640 N 156.679 -1.44442 0.630414 0
M  V30 1641 C 158.095 -1.56832 0.295973 0
M  V30 1642 C 158.295 -1.61806 -1.20088 0
M  V30 1643 O 157.351 -1.5607 -1.9849 0
M  V30 1644 C 158.664 -2.84031 0.987264 0
M  V30 1645 C 160.212 -2.97742 0.96534 0
M  V30 1646 C 160.687 -4.27743 1.63708 0
M  V30 1647 N 162.178 -4.34555 1.60364 0
M  V30 1648 C 162.913 -5.33862 2.09234 0
M  V30 1649 N 162.409 -6.39578 2.66292 0
M  V30 1650 N 164.202 -5.25366 1.99867 0
M  V30 1651 H 156.353 -1.39457 1.60205 0
M  V30 1652 H 158.616 -0.668237 0.672431 0
M  V30 1653 H 158.322 -2.86338 2.04215 0
M  V30 1654 H 158.196 -3.73534 0.524588 0
M  V30 1655 H 160.583 -2.94989 -0.0810639 0
M  V30 1656 H 160.664 -2.09589 1.4665 0
M  V30 1657 H 160.308 -4.31255 2.68293 0
M  V30 1658 H 160.238 -5.14752 1.11076 0
M  V30 1659 H 162.729 -3.58772 1.18705 0
M  V30 1660 H 163.042 -7.11637 3.01317 0
M  V30 1661 H 161.387 -6.40265 2.70343 0
M  V30 1662 H 164.578 -4.41688 1.55013 0
M  V30 1663 H 164.751 -6.02606 2.38265 0
M  V30 1664 N 158.157 -0.370918 -1.53173 0
M  V30 1665 C 159.087 0.464847 -2.28826 0
M  V30 1666 C 160.068 1.07936 -1.31468 0
M  V30 1667 O 161.253 1.0956 -1.60344 0
M  V30 1668 C 158.383 1.60196 -3.08147 0
M  V30 1669 C 157.337 1.11443 -4.13237 0
M  V30 1670 C 156.663 2.3422 -4.80672 0
M  V30 1671 C 157.963 0.195384 -5.21934 0
M  V30 1672 H 159.657 -0.166329 -2.98938 0
M  V30 1673 H 157.203 -0.0814359 -1.4377 0
M  V30 1674 H 159.156 2.19332 -3.59822 0
M  V30 1675 H 157.88 2.26045 -2.35735 0
M  V30 1676 H 156.539 0.545727 -3.62515 0
M  V30 1677 H 156.187 2.98537 -4.04827 0
M  V30 1678 H 155.887 2.02269 -5.51689 0
M  V30 1679 H 157.411 2.94032 -5.35143 0
M  V30 1680 H 158.825 0.694375 -5.69079 0
M  V30 1681 H 157.222 -0.0335027 -6.00091 0
M  V30 1682 H 158.292 -0.760961 -4.78892 0
M  V30 1683 N 159.635 1.57281 -0.100228 0
M  V30 1684 C 161.051 1.57527 0.256416 0
M  V30 1685 C 161.251 1.11173 1.68056 0
M  V30 1686 O 160.307 0.79053 2.39806 0
M  V30 1687 C 161.62 3.00673 0.0401747 0
M  V30 1688 C 163.168 3.12815 0.107528 0
M  V30 1689 C 163.643 4.57929 -0.0807834 0
M  V30 1690 N 165.134 4.63193 -0.0261207 0
M  V30 1691 C 165.869 5.73212 -0.146999 0
M  V30 1692 N 165.365 6.92047 -0.322999 0
M  V30 1693 N 167.158 5.62031 -0.0879044 0
M  V30 1694 H 159.309 1.85718 -1.03065 0
M  V30 1695 H 161.572 0.857446 -0.404339 0
M  V30 1696 H 161.278 3.38804 -0.943649 0
M  V30 1697 H 161.152 3.69042 0.780262 0
M  V30 1698 H 163.539 2.74554 1.08186 0
M  V30 1699 H 163.62 2.47028 -0.664134 0
M  V30 1700 H 163.264 4.96886 -1.05201 0
M  V30 1701 H 163.194 5.21783 0.710635 0
M  V30 1702 H 165.685 3.77748 0.107161 0
M  V30 1703 H 165.998 7.7173 -0.406608 0
M  V30 1704 H 164.343 6.94074 -0.358733 0
M  V30 1705 H 167.534 4.68075 0.048498 0
M  V30 1706 H 167.707 6.47734 -0.185557 0
M  V30 1707 N 161.113 -0.173488 1.56642 0
M  V30 1708 C 162.076 -1.19859 1.95362 0
M  V30 1709 C 163.076 -1.37296 0.83704 0
M  V30 1710 O 164.266 -1.34739 1.10413 0
M  V30 1711 C 161.398 -2.56405 2.24654 0
M  V30 1712 H 162.591 -0.867062 2.87092 0
M  V30 1713 H 160.144 -0.415853 1.50666 0
M  V30 1714 H 160.879 -2.94576 1.35631 0
M  V30 1715 H 160.664 -2.45115 3.06041 0
M  V30 1716 H 162.154 -3.30287 2.5554 0
M  V30 1717 N 162.591 -1.51276 -0.441967 0
M  V30 1718 C 163.868 -1.54252 -1.20273 0
M  V30 1719 C 164.248 -0.30408 -2.08898 0
M  V30 1720 O 163.596 0.711084 -2.17154 0
M  V30 1721 C 163.806 -2.85406 -2.00859 0
M  V30 1722 C 165.154 -3.37181 -2.58059 0
M  V30 1723 O 166.178 -2.86925 -2.11074 0
M  V30 1724 O 165.037 -4.24858 -3.43741 0
M  V30 1725 H 162.131 -0.619969 -0.547328 0
M  V30 1726 H 164.677 -1.63586 -0.451413 0
M  V30 1727 H 163.449 -3.67003 -1.35736 0
M  V30 1728 H 163.072 -2.79213 -2.83065 0
M  V30 1729 N 164.069 0.697108 -1.41344 0
M  V30 1730 C 164.999 1.82353 -1.45841 0
M  V30 1731 C 165.98 1.67115 -0.317247 0
M  V30 1732 O 167.165 1.86871 -0.528474 0
M  V30 1733 C 164.295 3.20476 -1.33838 0
M  V30 1734 C 163.249 3.50415 -2.4575 0
M  V30 1735 C 162.575 4.87878 -2.18813 0
M  V30 1736 C 163.875 3.49546 -3.88091 0
M  V30 1737 H 165.569 1.78846 -2.40113 0
M  V30 1738 H 163.115 0.859028 -1.15571 0
M  V30 1739 H 165.068 3.98988 -1.35596 0
M  V30 1740 H 163.792 3.24604 -0.360498 0
M  V30 1741 H 162.451 2.74253 -2.43271 0
M  V30 1742 H 162.099 4.8863 -1.19371 0
M  V30 1743 H 161.799 5.08875 -2.93803 0
M  V30 1744 H 163.323 5.68702 -2.22284 0
M  V30 1745 H 164.737 4.18066 -3.92293 0
M  V30 1746 H 163.134 3.82075 -4.62751 0
M  V30 1747 H 164.204 2.48552 -4.16353 0
M  V30 1748 N 165.547 1.27147 0.931209 0
M  V30 1749 C 166.457 1.11372 2.06478 0
M  V30 1750 C 167.473 0.044645 1.73943 0
M  V30 1751 O 168.649 0.250417 1.99837 0
M  V30 1752 C 165.714 0.758838 3.38294 0
M  V30 1753 C 164.775 1.90841 3.84549 0
M  V30 1754 C 164.008 1.57036 5.10074 0
M  V30 1755 O 164.231 0.476645 5.68405 0
M  V30 1756 O 163.165 2.40839 5.51616 0
M  V30 1757 H 166.991 2.06493 2.22698 0
M  V30 1758 H 164.576 1.06301 1.04978 0
M  V30 1759 H 166.458 0.574098 4.17471 0
M  V30 1760 H 165.133 -0.162879 3.2329 0
M  V30 1761 H 164.04 2.14819 3.06274 0
M  V30 1762 H 165.373 2.81021 4.04089 0
M  V30 1763 N 167.025 -1.13721 1.09112 0
M  V30 1764 C 167.955 -2.21148 0.749385 0
M  V30 1765 C 168.936 -1.6792 -0.271475 0
M  V30 1766 O 170.121 -1.93693 -0.140251 0
M  V30 1767 C 167.251 -3.46905 0.165659 0
M  V30 1768 C 166.205 -4.13203 1.11567 0
M  V30 1769 C 165.531 -5.33248 0.393809 0
M  V30 1770 C 166.831 -4.60912 2.45678 0
M  V30 1771 H 168.525 -2.4999 1.64758 0
M  V30 1772 H 166.071 -1.20156 0.793626 0
M  V30 1773 H 168.024 -4.21313 -0.085466 0
M  V30 1774 H 166.748 -3.17449 -0.767714 0
M  V30 1775 H 165.407 -3.40758 1.35202 0
M  V30 1776 H 165.055 -5.00054 -0.543599 0
M  V30 1777 H 164.755 -5.78552 1.02721 0
M  V30 1778 H 166.279 -6.10413 0.150908 0
M  V30 1779 H 167.693 -5.26759 2.26269 0
M  V30 1780 H 166.09 -5.16944 3.04776 0
M  V30 1781 H 167.16 -3.75603 3.06677 0
M  V30 1782 N 168.503 -0.877838 -1.30888 0
M  V30 1783 C 169.914 -0.544193 -1.78593 0
M  V30 1784 C 170.265 0.939301 -1.72254 0
M  V30 1785 O 169.39 1.7337 -1.29505 0
M  V30 1786 C 169.985 -0.98105 -3.24285 0
M  V30 1787 C 168.544 -0.698935 -3.69854 0
M  V30 1788 C 167.691 -1.168 -2.51502 0
M  V30 1789 H 170.642 -1.06278 -1.17859 0
M  V30 1790 H 170.663 -0.307009 -3.79259 0
M  V30 1791 H 170.175 -2.06079 -3.28866 0
M  V30 1792 H 168.276 0.369112 -3.70767 0
M  V30 1793 H 168.389 -1.28148 -4.61644 0
M  V30 1794 H 166.753 -0.587535 -2.47831 0
M  V30 1795 H 167.536 -2.25533 -2.58824 0
M  V30 1796 N 169.982 1.44106 -0.638065 0
M  V30 1797 C 171.398 1.56672 -0.304286 0
M  V30 1798 C 171.598 1.6244 1.19228 0
M  V30 1799 O 170.654 1.57121 1.9766 0
M  V30 1800 C 171.967 2.83503 -1.00231 0
M  V30 1801 C 173.515 2.97226 -0.981116 0
M  V30 1802 C 173.99 4.26868 -1.65974 0
M  V30 1803 N 175.481 4.33698 -1.62666 0
M  V30 1804 C 176.216 5.32745 -2.12063 0
M  V30 1805 N 175.712 6.38157 -2.6968 0
M  V30 1806 N 177.505 5.24299 -2.02651 0
M  V30 1807 H 169.656 1.38605 -1.60942 0
M  V30 1808 H 171.919 0.664661 -0.675965 0
M  V30 1809 H 171.625 2.85251 -2.0573 0
M  V30 1810 H 171.499 3.73251 -0.54439 0
M  V30 1811 H 173.886 2.95027 0.0654188 0
M  V30 1812 H 173.967 2.08808 -1.47759 0
M  V30 1813 H 173.611 4.29826 -2.70576 0
M  V30 1814 H 173.541 5.14156 -1.13804 0
M  V30 1815 H 176.032 3.58138 -1.20606 0
M  V30 1816 H 176.345 7.10029 -3.05087 0
M  V30 1817 H 174.69 6.38823 -2.73734 0
M  V30 1818 H 177.881 4.4086 -1.57353 0
M  V30 1819 H 178.054 6.01334 -2.41457 0
M  V30 1820 N 171.46 0.379036 1.52974 0
M  V30 1821 C 172.737 -0.263479 1.93817 0
M  V30 1822 C 173.117 -1.65244 1.31368 0
M  V30 1823 O 172.465 -2.23448 0.477856 0
M  V30 1824 C 172.675 -0.300166 3.47707 0
M  V30 1825 C 174.023 -0.534061 4.21228 0
M  V30 1826 O 175.047 -0.38081 3.54159 0
M  V30 1827 O 173.906 -0.833501 5.40106 0
M  V30 1828 H 171 -0.161149 0.811147 0
M  V30 1829 H 173.546 0.432798 1.64088 0
M  V30 1830 H 172.318 0.673138 3.85467 0
M  V30 1831 H 171.941 -1.04179 3.83709 0
M  V30 1832 N 172.938 -1.57226 0.108567 0
M  V30 1833 C 173.901 -2.13602 -0.831082 0
M  V30 1834 C 174.901 -1.06841 -1.20173 0
M  V30 1835 O 176.091 -1.32666 -1.12895 0
M  V30 1836 C 173.223 -2.66769 -2.12243 0
M  V30 1837 H 174.416 -2.97951 -0.341317 0
M  V30 1838 H 171.969 -1.55667 -0.14057 0
M  V30 1839 H 172.704 -1.85977 -2.65675 0
M  V30 1840 H 172.489 -3.44839 -1.86625 0
M  V30 1841 H 173.979 -3.10332 -2.79435 0
M  V30 1842 N 174.416 0.165178 -1.56732 0
M  V30 1843 C 175.663 0.880807 -1.8234 0
M  V30 1844 C 175.991 1.81977 -0.686621 0
M  V30 1845 O 175.246 1.92971 0.325697 0
M  V30 1846 C 175.545 1.70405 -3.1416 0
M  V30 1847 C 175.211 0.913475 -4.4155 0
M  V30 1848 C 173.873 0.695303 -4.7615 0
M  V30 1849 C 176.225 0.359349 -5.1996 0
M  V30 1850 C 173.553 -0.0879947 -5.86634 0
M  V30 1851 C 175.905 -0.410893 -6.31264 0
M  V30 1852 C 174.569 -0.639808 -6.64427 0
M  V30 1853 H 173.839 0.32231 -0.667231 0
M  V30 1854 H 176.486 0.145402 -1.90947 0
M  V30 1855 H 174.791 2.50903 -3.00923 0
M  V30 1856 H 176.488 2.26091 -3.31186 0
M  V30 1857 H 173.078 1.09357 -4.14414 0
M  V30 1858 H 177.262 0.515228 -4.93618 0
M  V30 1859 H 172.518 -0.27503 -6.10781 0
M  V30 1860 H 176.692 -0.847494 -6.91224 0
M  V30 1861 H 174.319 -1.24864 -7.49875 0
M  V30 1862 N 175.894 1.51508 0.433938 0
M  V30 1863 C 177.122 1.68157 1.20543 0
M  V30 1864 C 177.537 0.380362 1.84929 0
M  V30 1865 O 176.894 -0.641446 1.70856 0
M  V30 1866 C 176.945 2.79965 2.28696 0
M  V30 1867 O 176.666 4.05045 1.66943 0
M  V30 1868 C 178.167 3.07912 3.18912 0
M  V30 1869 H 175.387 0.56421 0.363191 0
M  V30 1870 H 177.931 1.97941 0.513754 0
M  V30 1871 H 176.086 2.5277 2.93574 0
M  V30 1872 H 176.5 4.67165 2.38448 0
M  V30 1873 H 177.974 3.89719 3.90926 0
M  V30 1874 H 178.451 2.20456 3.79863 0
M  V30 1875 H 179.057 3.36779 2.59731 0
M  V30 1876 N 177.372 -0.689602 1.41712 0
M  V30 1877 C 178.302 -1.81577 1.46806 0
M  V30 1878 C 179.283 -1.66945 0.326105 0
M  V30 1879 O 180.468 -1.86588 0.538377 0
M  V30 1880 C 177.598 -3.19762 1.35535 0
M  V30 1881 C 176.552 -3.49107 2.47605 0
M  V30 1882 C 175.878 -4.86711 2.21397 0
M  V30 1883 C 177.178 -3.47483 3.89939 0
M  V30 1884 H 178.872 -1.7757 2.41058 0
M  V30 1885 H 176.418 -0.852887 1.16025 0
M  V30 1886 H 178.371 -3.98263 1.3771 0
M  V30 1887 H 177.095 -3.24409 0.377708 0
M  V30 1888 H 175.754 -2.72959 2.44722 0
M  V30 1889 H 175.402 -4.8799 1.21961 0
M  V30 1890 H 175.102 -5.0731 2.96497 0
M  V30 1891 H 176.626 -5.67515 2.25297 0
M  V30 1892 H 178.04 -4.1598 3.94505 0
M  V30 1893 H 176.437 -3.79615 4.64771 0
M  V30 1894 H 177.507 -2.46341 4.17665 0
M  V30 1895 N 178.85 -1.27639 -0.924453 0
M  V30 1896 C 179.782 -1.06442 -2.02985 0
M  V30 1897 C 180.795 -0.0194771 -1.62788 0
M  V30 1898 O 181.984 -0.261388 -1.76576 0
M  V30 1899 C 179.084 -0.59327 -3.33667 0
M  V30 1900 C 178.257 -1.71123 -4.02537 0
M  V30 1901 C 177.316 -1.23527 -5.11495 0
M  V30 1902 O 176.342 -1.93553 -5.35281 0
M  V30 1903 N 177.544 -0.0926678 -5.80426 0
M  V30 1904 H 180.309 -2.01633 -2.2173 0
M  V30 1905 H 177.87 -1.19248 -1.09505 0
M  V30 1906 H 179.862 -0.258686 -4.03872 0
M  V30 1907 H 178.432 0.265502 -3.1147 0
M  V30 1908 H 177.652 -2.21593 -3.26022 0
M  V30 1909 H 178.94 -2.46145 -4.45298 0
M  V30 1910 H 178.338 0.491741 -5.63559 0
M  V30 1911 H 176.895 0.182714 -6.51544 0
M  V30 1912 N 180.328 1.1314 -1.09713 0
M  V30 1913 C 181.574 1.84757 -0.836224 0
M  V30 1914 C 181.907 1.8347 0.636598 0
M  V30 1915 O 181.182 1.27491 1.46889 0
M  V30 1916 C 181.465 3.32782 -1.37578 0
M  V30 1917 C 181.318 3.42567 -2.91493 0
M  V30 1918 C 182.637 4.28307 -1.01198 0
M  V30 1919 H 179.756 0.67082 -0.305236 0
M  V30 1920 H 182.398 1.3278 -1.35903 0
M  V30 1921 H 180.548 3.77177 -0.931097 0
M  V30 1922 H 182.22 3.06862 -3.44432 0
M  V30 1923 H 180.463 2.83349 -3.28475 0
M  V30 1924 H 181.134 4.46674 -3.24324 0
M  V30 1925 H 183.61 3.91999 -1.39556 0
M  V30 1926 H 182.486 5.30307 -1.41653 0
M  V30 1927 H 182.747 4.42029 0.0794833 0
M  V30 1928 N 181.806 0.884767 1.30421 0
M  V30 1929 C 183.052 0.513218 1.96819 0
M  V30 1930 C 183.407 -0.927347 1.68577 0
M  V30 1931 O 182.7 -1.64644 0.979941 0
M  V30 1932 C 182.894 0.724318 3.49983 0
M  V30 1933 C 182.723 2.18385 3.93113 0
M  V30 1934 C 181.493 2.82839 4.18725 0
M  V30 1935 C 183.691 3.15763 4.05953 0
M  V30 1936 N 181.673 4.1939 4.48314 0
M  V30 1937 C 183.044 4.37387 4.39423 0
M  V30 1938 C 185.099 3.11555 3.88379 0
M  V30 1939 C 183.802 5.55343 4.5715 0
M  V30 1940 C 185.828 4.28782 4.07308 0
M  V30 1941 C 185.19 5.49172 4.41123 0
M  V30 1942 H 181.289 0.237123 0.745182 0
M  V30 1943 H 183.873 1.14246 1.57658 0
M  V30 1944 H 182.044 0.124565 3.882 0
M  V30 1945 H 183.776 0.31969 4.03435 0
M  V30 1946 H 180.531 2.33708 4.11919 0
M  V30 1947 H 180.955 4.89911 4.67243 0
M  V30 1948 H 185.597 2.19576 3.61312 0
M  V30 1949 H 183.315 6.47826 4.8306 0
M  V30 1950 H 186.901 4.26995 3.95179 0
M  V30 1951 H 185.781 6.38371 4.55469 0
M  V30 1952 N 183.284 -1.43765 0.645699 0
M  V30 1953 C 184.214 -2.33471 -0.0370477 0
M  V30 1954 C 185.195 -1.49042 -0.819779 0
M  V30 1955 O 186.38 -1.77726 -0.782758 0
M  V30 1956 C 183.51 -3.32311 -1.0093 0
M  V30 1957 C 182.464 -4.2667 -0.337201 0
M  V30 1958 C 181.79 -5.1549 -1.42037 0
M  V30 1959 C 183.09 -5.16657 0.765706 0
M  V30 1960 H 184.784 -2.90809 0.712069 0
M  V30 1961 H 182.33 -1.39834 0.343876 0
M  V30 1962 H 184.283 -3.9396 -1.49578 0
M  V30 1963 H 183.007 -2.73213 -1.78948 0
M  V30 1964 H 181.666 -3.66374 0.128771 0
M  V30 1965 H 181.314 -4.52735 -2.1918 0
M  V30 1966 H 181.014 -5.79438 -0.975966 0
M  V30 1967 H 182.538 -5.80012 -1.90838 0
M  V30 1968 H 183.952 -5.72158 0.361702 0
M  V30 1969 H 182.349 -5.89286 1.13413 0
M  V30 1970 H 183.419 -4.56796 1.62683 0
M  V30 1971 N 184.763 -0.387143 -1.52771 0
M  V30 1972 C 186.179 -0.037007 -1.59557 0
M  V30 1973 C 186.379 1.44801 -1.40124 0
M  V30 1974 O 185.435 2.21227 -1.21716 0
M  V30 1975 C 186.748 -0.512256 -2.96305 0
M  V30 1976 C 188.296 -0.468328 -3.09476 0
M  V30 1977 C 188.771 -0.919731 -4.4867 0
M  V30 1978 N 190.262 -0.875656 -4.54848 0
M  V30 1979 C 190.997 -1.19637 -5.6078 0
M  V30 1980 N 190.493 -1.58745 -6.74368 0
M  V30 1981 N 192.286 -1.11776 -5.50874 0
M  V30 1982 H 184.437 -1.35395 -1.63652 0
M  V30 1983 H 186.7 -0.554818 -0.768688 0
M  V30 1984 H 186.406 -1.54935 -3.15734 0
M  V30 1985 H 186.28 0.089805 -3.77093 0
M  V30 1986 H 188.667 0.559671 -2.89744 0
M  V30 1987 H 188.748 -1.10616 -2.30646 0
M  V30 1988 H 188.392 -1.94595 -4.69143 0
M  V30 1989 H 188.322 -0.258927 -5.25963 0
M  V30 1990 H 190.813 -0.587843 -3.733 0
M  V30 1991 H 191.126 -1.81586 -7.51163 0
M  V30 1992 H 189.471 -1.6263 -6.75705 0
M  V30 1993 H 192.662 -0.811264 -4.61016 0
M  V30 1994 H 192.835 -1.37103 -6.3333 0
M  V30 1995 N 186.241 1.57166 -0.116904 0
M  V30 1996 C 187.204 2.14039 0.819742 0
M  V30 1997 C 188.204 1.07477 1.19605 0
M  V30 1998 O 189.394 1.33263 1.1219 0
M  V30 1999 C 186.526 2.67891 2.10826 0
M  V30 2000 H 187.719 2.98128 0.325511 0
M  V30 2001 H 185.272 1.55739 0.132312 0
M  V30 2002 H 186.007 1.87384 2.64685 0
M  V30 2003 H 185.792 3.45823 1.84793 0
M  V30 2004 H 187.282 3.11809 2.77785 0
M  V30 2005 N 187.719 -0.156864 1.56817 0
M  V30 2006 C 188.629 -1.2136 2.00771 0
M  V30 2007 C 189.645 -1.47598 0.921459 0
M  V30 2008 O 190.821 -1.59462 1.2302 0
M  V30 2009 C 187.886 -2.52943 2.37109 0
M  V30 2010 C 186.947 -2.34439 3.59634 0
M  V30 2011 C 186.18 -3.59748 3.94229 0
M  V30 2012 O 186.403 -4.65526 3.29609 0
M  V30 2013 O 185.337 -3.52998 4.8752 0
M  V30 2014 H 189.163 -0.870468 2.90958 0
M  V30 2015 H 186.748 -0.36484 1.44877 0
M  V30 2016 H 188.63 -3.30538 2.61386 0
M  V30 2017 H 187.305 -2.86806 1.5008 0
M  V30 2018 H 186.212 -1.54828 3.40557 0
M  V30 2019 H 187.545 -2.05496 4.4725 0
M  V30 2020 N 189.197 -1.51736 -0.425897 0
M  V30 2021 C 190.445 -1.64644 -1.17204 0
M  V30 2022 C 190.766 -0.370486 -1.91448 0
M  V30 2023 O 190.036 0.614088 -1.86026 0
M  V30 2024 H 188.616 -0.606819 -0.435638 0
M  V30 2025 H 191.278 -1.88713 -0.487177 0
M  V30 2026 H 190.374 -2.47958 -1.89534 0
M  V30 2027 N 190.675 0.682077 -1.42076 0
M  V30 2028 C 191.923 1.4393 -1.41876 0
M  V30 2029 C 192.244 1.94971 -0.0335599 0
M  V30 2030 O 191.514 1.72591 0.926773 0
M  V30 2031 H 190.094 0.534085 -0.522267 0
M  V30 2032 H 192.756 0.806427 -1.77434 0
M  V30 2033 H 191.852 2.29588 -2.11414 0
M  V30 2034 N 192.153 1.28127 0.917671 0
M  V30 2035 C 193.085 1.07517 2.02417 0
M  V30 2036 C 194.098 0.0281099 1.62776 0
M  V30 2037 O 195.287 0.270748 1.76435 0
M  V30 2038 C 192.387 0.610957 3.33347 0
M  V30 2039 C 191.56 1.73255 4.01624 0
M  V30 2040 C 190.619 1.26238 5.10833 0
M  V30 2041 O 189.645 1.96389 5.34247 0
M  V30 2042 N 190.847 0.123448 5.80369 0
M  V30 2043 H 193.612 2.02806 2.20658 0
M  V30 2044 H 191.173 1.19827 1.08871 0
M  V30 2045 H 193.165 0.280101 4.0373 0
M  V30 2046 H 191.735 -0.24898 3.11607 0
M  V30 2047 H 190.955 2.23319 3.24842 0
M  V30 2048 H 192.243 2.48503 4.43986 0
M  V30 2049 H 191.641 -0.461847 5.63812 0
M  V30 2050 H 190.198 -0.148158 6.51632 0
M  V30 2051 N 193.631 -1.12557 1.10312 0
M  V30 2052 C 195.047 -1.36036 0.834649 0
M  V30 2053 C 195.247 -1.93946 -0.546539 0
M  V30 2054 O 194.303 -2.16484 -1.29966 0
M  V30 2055 C 195.616 -2.30312 1.9333 0
M  V30 2056 C 197.164 -2.43906 1.9616 0
M  V30 2057 C 197.639 -3.41496 3.05195 0
M  V30 2058 N 199.13 -3.49053 3.04494 0
M  V30 2059 C 199.865 -4.24471 3.85502 0
M  V30 2060 N 199.361 -5.02966 4.76442 0
M  V30 2061 N 201.154 -4.19864 3.73725 0
M  V30 2062 H 193.305 -0.733246 1.99342 0
M  V30 2063 H 195.568 -0.385234 0.866198 0
M  V30 2064 H 195.274 -1.94933 2.92735 0
M  V30 2065 H 195.148 -3.30421 1.81939 0
M  V30 2066 H 197.535 -2.78567 0.973886 0
M  V30 2067 H 197.616 -1.4369 2.11629 0
M  V30 2068 H 197.26 -3.07565 4.04186 0
M  V30 2069 H 197.19 -4.41539 2.86968 0
M  V30 2070 H 199.681 -2.93053 2.38596 0
M  V30 2071 H 199.994 -5.57846 5.34815 0
M  V30 2072 H 198.339 -5.02167 4.80472 0
M  V30 2073 H 201.53 -3.57623 3.02032 0
M  V30 2074 H 201.703 -4.78386 4.37093 0
M  V30 2075 N 195.109 -0.891671 -1.2995 0
M  V30 2076 C 196.334 -0.527932 -2.00568 0
M  V30 2077 C 196.759 0.877969 -1.66353 0
M  V30 2078 O 196.117 1.58301 -0.883762 0
M  V30 2079 C 196.165 -0.717745 -3.53385 0
M  V30 2080 O 195.269 0.233376 -4.11739 0
M  V30 2081 H 194.61 -0.20722 -0.630837 0
M  V30 2082 H 197.14 -1.20105 -1.65638 0
M  V30 2083 H 197.15 -0.619307 -4.03272 0
M  V30 2084 H 195.825 -1.74276 -3.77625 0
M  V30 2085 H 194.402 0.0880706 -3.72796 0
M  V30 2086 N 196.587 1.43421 -0.653314 0
M  V30 2087 C 197.998 1.85065 -0.246537 0
M  V30 2088 C 198.349 1.54688 1.2069 0
M  V30 2089 O 197.474 0.995896 1.92122 0
M  V30 2090 C 198.069 3.35922 -0.440666 0
M  V30 2091 C 196.628 3.76297 -0.0882064 0
M  V30 2092 C 195.775 2.67147 -0.743484 0
M  V30 2093 H 198.726 1.33572 -0.856979 0
M  V30 2094 H 198.747 3.79204 0.313798 0
M  V30 2095 H 198.259 3.58 -1.49858 0
M  V30 2096 H 196.36 3.5983 0.96711 0
M  V30 2097 H 196.473 4.76338 -0.513738 0
M  V30 2098 H 194.837 2.54086 -0.176712 0
M  V30 2099 H 195.62 2.92053 -1.80443 0
M  V30 2100 N 198.065 0.39524 1.52563 0
M  V30 2101 C 199.028 -0.425001 2.25225 0
M  V30 2102 C 200.028 -0.985266 1.27079 0
M  V30 2103 O 201.218 -0.866332 1.5113 0
M  V30 2104 C 198.35 -1.59686 3.01186 0
M  V30 2105 H 199.543 0.211233 2.99155 0
M  V30 2106 H 197.096 0.147472 1.55603 0
M  V30 2107 H 197.831 -2.27035 2.31572 0
M  V30 2108 H 197.616 -1.20176 3.73229 0
M  V30 2109 H 199.106 -2.17743 3.5634 0
M  V30 2110 N 199.544 -1.57102 0.125237 0
M  V30 2111 C 200.79 -1.95697 -0.532035 0
M  V30 2112 C 201.123 -1.009 -1.6593 0
M  V30 2113 O 200.398 -0.047347 -1.94442 0
M  V30 2114 C 200.681 -3.44181 -1.05884 0
M  V30 2115 C 200.534 -4.49752 0.0654392 0
M  V30 2116 C 201.853 -3.94655 -1.9477 0
M  V30 2117 H 198.972 -0.711571 -0.191925 0
M  V30 2118 H 201.614 -1.88923 0.20206 0
M  V30 2119 H 199.764 -3.50085 -1.68442 0
M  V30 2120 H 201.436 -4.55943 0.700982 0
M  V30 2121 H 199.679 -4.27653 0.727709 0
M  V30 2122 H 200.35 -5.50924 -0.344505 0
M  V30 2123 H 202.826 -3.91094 -1.42074 0
M  V30 2124 H 201.702 -4.99057 -2.28546 0
M  V30 2125 H 201.963 -3.35718 -2.87656 0
M  V30 2126 N 201.022 0.148545 -1.56898 0
M  V30 2127 C 202.271 0.85984 -1.82454 0
M  V30 2128 C 202.584 1.82406 -0.706229 0
M  V30 2129 O 203.79 2.57938 -0.847349 0
M  V30 2130 C 202.246 1.57967 -3.2338 0
M  V30 2131 C 201.854 0.65794 -4.43142 0
M  V30 2132 C 203.598 2.27784 -3.58211 0
M  V30 2133 C 201.505 1.3793 -5.75091 0
M  V30 2134 H 200.435 0.324834 -0.68044 0
M  V30 2135 H 203.086 0.112588 -1.83154 0
M  V30 2136 H 201.468 2.37249 -3.17063 0
M  V30 2137 H 202.642 -0.0995497 -4.60692 0
M  V30 2138 H 200.957 0.0682643 -4.16344 0
M  V30 2139 H 203.554 2.8239 -4.54048 0
M  V30 2140 H 203.897 3.04204 -2.84193 0
M  V30 2141 H 204.43 1.55421 -3.66182 0
M  V30 2142 H 201.169 0.656982 -6.52199 0
M  V30 2143 H 200.689 2.10954 -5.61479 0
M  V30 2144 H 202.368 1.92063 -6.17835 0
M  V30 2145 N 202.5 1.5196 0.417844 0
M  V30 2146 C 203.728 1.69426 1.18753 0
M  V30 2147 C 204.143 0.399955 1.84515 0
M  V30 2148 O 203.5 -0.623288 1.71527 0
M  V30 2149 C 203.551 2.82375 2.25714 0
M  V30 2150 O 203.272 4.06793 1.62638 0
M  V30 2151 C 204.773 3.11277 3.15628 0
M  V30 2152 H 201.993 0.568031 0.357186 0
M  V30 2153 H 204.537 1.98475 0.49273 0
M  V30 2154 H 202.692 2.5587 2.90877 0
M  V30 2155 H 203.106 4.69667 2.3348 0
M  V30 2156 H 204.58 3.93843 3.86771 0
M  V30 2157 H 205.057 2.24473 3.77503 0
M  V30 2158 H 205.663 3.39515 2.56144 0
M  V30 2159 N 203.978 -0.674533 1.42435 0
M  V30 2160 C 205.226 -1.43175 1.42637 0
M  V30 2161 C 205.547 -1.94951 0.0438992 0
M  V30 2162 O 204.817 -1.7308 -0.917607 0
M  V30 2163 H 203.397 -0.531307 0.525092 0
M  V30 2164 H 206.059 -0.797006 1.77859 0
M  V30 2165 H 205.155 -2.28463 2.12629 0
M  V30 2166 N 205.456 -1.28612 -0.910864 0
M  V30 2167 C 206.386 -1.15326 -2.03032 0
M  V30 2168 C 207.367 -0.0502924 -1.70026 0
M  V30 2169 O 208.552 -0.227797 -1.92859 0
M  V30 2170 C 205.682 -0.817343 -3.37545 0
M  V30 2171 C 204.636 -1.8754 -3.84724 0
M  V30 2172 C 203.962 -1.39305 -5.16235 0
M  V30 2173 C 205.262 -3.28244 -4.06267 0
M  V30 2174 H 206.956 -2.08975 -2.14406 0
M  V30 2175 H 204.502 -1.00612 -1.03021 0
M  V30 2176 H 206.455 -0.711151 -4.15356 0
M  V30 2177 H 205.179 0.154846 -3.26233 0
M  V30 2178 H 203.838 -1.97079 -3.09121 0
M  V30 2179 H 203.486 -0.409846 -5.01328 0
M  V30 2180 H 203.186 -2.10057 -5.48771 0
M  V30 2181 H 204.71 -1.30014 -5.96598 0
M  V30 2182 H 206.124 -3.21611 -4.74594 0
M  V30 2183 H 204.521 -3.96855 -4.5014 0
M  V30 2184 H 205.591 -3.72048 -3.10979 0
M  V30 2185 N 206.934 1.1197 -1.10907 0
M  V30 2186 C 208.164 1.8713 -0.875553 0
M  V30 2187 C 208.572 1.8016 0.577843 0
M  V30 2188 O 207.915 1.17699 1.41042 0
M  V30 2189 C 207.977 3.37005 -1.2517 0
M  V30 2190 C 207.641 3.67748 -2.71313 0
M  V30 2191 C 208.638 3.65698 -3.69542 0
M  V30 2192 C 206.323 3.96928 -3.07821 0
M  V30 2193 C 208.317 3.92395 -5.023 0
M  V30 2194 C 206.004 4.23284 -4.40765 0
M  V30 2195 C 207.002 4.21005 -5.37814 0
M  V30 2196 O 206.69 4.46704 -6.68364 0
M  V30 2197 H 206.422 0.598786 -0.313737 0
M  V30 2198 H 208.976 1.42568 -1.47863 0
M  V30 2199 H 207.206 3.82146 -0.591741 0
M  V30 2200 H 208.895 3.93519 -0.994877 0
M  V30 2201 H 209.661 3.43211 -3.42682 0
M  V30 2202 H 205.54 3.97841 -2.32902 0
M  V30 2203 H 209.084 3.90531 -5.78041 0
M  V30 2204 H 204.981 4.45246 -4.67361 0
M  V30 2205 H 205.749 4.64299 -6.74069 0
M  V30 2206 N 208.412 0.89855 1.29475 0
M  V30 2207 C 209.689 0.443416 1.90508 0
M  V30 2208 C 210.069 -1.07685 1.81569 0
M  V30 2209 O 209.417 -1.9182 1.24166 0
M  V30 2210 C 209.627 0.956708 3.35631 0
M  V30 2211 C 210.975 0.999728 4.12663 0
M  V30 2212 O 211.999 0.904299 3.4453 0
M  V30 2213 O 210.858 1.14289 5.34416 0
M  V30 2214 H 207.952 0.138025 0.815401 0
M  V30 2215 H 210.498 0.98834 1.37949 0
M  V30 2216 H 209.27 2.00067 3.36287 0
M  V30 2217 H 208.893 0.391728 3.95666 0
M  V30 2218 N 209.89 -1.43072 0.660911 0
M  V30 2219 C 210.837 -2.30785 -0.0259884 0
M  V30 2220 C 211.807 -1.45184 -0.806888 0
M  V30 2221 O 212.992 -1.74041 -0.781943 0
M  V30 2222 C 210.132 -3.30861 -0.981067 0
M  V30 2223 C 209.245 -4.31558 -0.195458 0
M  V30 2224 C 208.38 -5.18712 -1.14503 0
M  V30 2225 C 207.419 -6.11097 -0.350299 0
M  V30 2226 N 206.556 -6.90849 -1.25186 0
M  V30 2227 H 211.396 -2.88975 0.727846 0
M  V30 2228 H 208.933 -1.42353 0.370682 0
M  V30 2229 H 210.891 -3.87399 -1.54849 0
M  V30 2230 H 209.521 -2.74304 -1.70169 0
M  V30 2231 H 208.573 -3.77252 0.488374 0
M  V30 2232 H 209.885 -4.9701 0.422176 0
M  V30 2233 H 209.039 -5.79914 -1.78284 0
M  V30 2234 H 207.778 -4.53404 -1.79656 0
M  V30 2235 H 206.783 -5.48976 0.300808 0
M  V30 2236 H 208.008 -6.7845 0.296941 0
M  V30 2237 H 205.954 -6.28182 -1.89005 0
M  V30 2238 H 205.871 -7.52854 -0.688971 0
M  V30 2239 H 207.139 -7.5655 -1.87757 0
M  V30 2240 N 211.368 -0.403325 -1.52352 0
M  V30 2241 C 212.608 0.173946 -2.03659 0
M  V30 2242 C 212.972 1.42869 -1.28267 0
M  V30 2243 O 214.173 2.08403 -1.69769 0
M  V30 2244 C 212.444 0.421478 -3.54906 0
M  V30 2245 S 214.003 0.967027 -4.28012 0
M  V30 2246 H 210.821 0.0477461 -0.709395 0
M  V30 2247 H 213.423 -0.554906 -1.87459 0
M  V30 2248 H 212.127 -0.498616 -4.0736 0
M  V30 2249 H 211.658 1.17837 -3.75337 0
M  V30 2250 H 213.673 2.24812 -4.4235 0
M  V30 2251 N 212.846 1.57033 -0.133567 0
M  V30 2252 C 214.071 2.00475 0.531477 0
M  V30 2253 C 214.496 1.01291 1.58499 0
M  V30 2254 O 213.854 -0.0133279 1.81295 0
M  V30 2255 C 213.902 3.42729 1.12113 0
M  V30 2256 O 213.006 3.46498 2.23636 0
M  V30 2257 H 212.347 0.650876 0.131362 0
M  V30 2258 H 214.877 2.03344 -0.22634 0
M  V30 2259 H 214.887 3.81246 1.4531 0
M  V30 2260 H 213.562 4.14428 0.349557 0
M  V30 2261 H 212.139 3.19811 1.91769 0
M  V30 2262 N 214.325 -0.140222 1.56975 0
M  V30 2263 C 215.555 -0.865181 1.87612 0
M  V30 2264 C 215.963 -1.74942 0.72055 0
M  V30 2265 O 215.306 -1.80917 -0.318561 0
M  V30 2266 C 215.368 -1.76782 3.13031 0
M  V30 2267 C 215.032 -1.06005 4.44536 0
M  V30 2268 C 216.029 -0.410768 5.18275 0
M  V30 2269 C 213.714 -1.04754 4.91255 0
M  V30 2270 C 215.708 0.241572 6.36942 0
M  V30 2271 C 213.395 -0.391394 6.09845 0
M  V30 2272 C 214.393 0.252029 6.82535 0
M  V30 2273 O 214.081 0.897757 7.98871 0
M  V30 2274 H 213.813 -0.255188 0.625983 0
M  V30 2275 H 216.367 -0.135653 2.04952 0
M  V30 2276 H 214.597 -2.53846 2.91718 0
M  V30 2277 H 216.286 -2.36533 3.29859 0
M  V30 2278 H 217.052 -0.412195 4.83245 0
M  V30 2279 H 212.931 -1.53777 4.34596 0
M  V30 2280 H 216.475 0.744375 6.93617 0
M  V30 2281 H 212.372 -0.387656 6.44335 0
M  V30 2282 H 213.14 0.800102 8.1458 0
M  V30 2283 N 215.803 -1.52179 -0.40978 0
M  V30 2284 C 217.052 -1.65434 -1.15388 0
M  V30 2285 C 217.365 -0.390056 -1.91671 0
M  V30 2286 O 218.571 -0.402399 -2.68501 0
M  V30 2287 C 217.027 -2.92279 -2.10003 0
M  V30 2288 C 216.635 -4.25813 -1.39239 0
M  V30 2289 C 218.379 -3.14897 -2.84675 0
M  V30 2290 C 216.286 -5.43782 -2.32498 0
M  V30 2291 H 215.216 -0.616267 -0.434432 0
M  V30 2292 H 217.867 -1.78666 -0.418401 0
M  V30 2293 H 216.249 -2.72744 -2.871 0
M  V30 2294 H 217.423 -4.55828 -0.675099 0
M  V30 2295 H 215.738 -4.09292 -0.766097 0
M  V30 2296 H 218.335 -4.0021 -3.54593 0
M  V30 2297 H 218.678 -2.29103 -3.47588 0
M  V30 2298 H 219.211 -3.34901 -2.14677 0
M  V30 2299 H 215.95 -6.3192 -1.74233 0
M  V30 2300 H 215.47 -5.18106 -3.02201 0
M  V30 2301 H 217.149 -5.76834 -2.93038 0
M  V30 2302 N 217.281 0.66697 -1.42791 0
M  V30 2303 C 218.506 1.46004 -1.47301 0
M  V30 2304 C 218.931 1.87894 -0.0880317 0
M  V30 2305 O 218.289 1.56502 0.915253 0
M  V30 2306 C 218.337 2.68031 -2.41229 0
M  V30 2307 O 217.441 3.6659 -1.88906 0
M  V30 2308 H 216.782 0.43832 -0.49877 0
M  V30 2309 H 219.312 0.817391 -1.87563 0
M  V30 2310 H 219.322 3.1601 -2.58073 0
M  V30 2311 H 217.997 2.36883 -3.41847 0
M  V30 2312 H 216.574 3.25661 -1.81656 0
M  V30 2313 N 218.759 1.29093 0.90403 0
M  V30 2314 C 220.175 1.07011 1.1841 0
M  V30 2315 C 220.375 -0.181358 2.00682 0
M  V30 2316 O 219.431 -0.880331 2.36657 0
M  V30 2317 C 220.744 2.32311 1.90924 0
M  V30 2318 C 222.292 2.37587 2.03768 0
M  V30 2319 C 222.767 3.62679 2.79693 0
M  V30 2320 N 224.258 3.63376 2.87249 0
M  V30 2321 C 224.993 4.56848 3.46522 0
M  V30 2322 N 224.489 5.60648 4.06996 0
M  V30 2323 N 226.282 4.44426 3.44154 0
M  V30 2324 H 218.433 2.09412 0.354993 0
M  V30 2325 H 220.696 0.922181 0.219742 0
M  V30 2326 H 220.402 3.23536 1.37905 0
M  V30 2327 H 220.276 2.39483 2.91424 0
M  V30 2328 H 222.663 1.46853 2.55965 0
M  V30 2329 H 222.744 2.34403 1.02415 0
M  V30 2330 H 222.388 4.53762 2.28173 0
M  V30 2331 H 222.318 3.63119 3.81381 0
M  V30 2332 H 224.809 2.88321 2.44293 0
M  V30 2333 H 225.122 6.28101 4.50232 0
M  V30 2334 H 223.467 5.64463 4.05471 0
M  V30 2335 H 226.658 3.62529 2.96126 0
M  V30 2336 H 226.831 5.17457 3.90054 0
M  V30 2337 N 220.237 -1.11381 1.11499 0
M  V30 2338 C 221.514 -1.7955 0.775965 0
M  V30 2339 C 221.894 -1.97859 -0.73588 0
M  V30 2340 O 221.242 -1.56376 -1.66609 0
M  V30 2341 C 221.452 -3.13196 1.53977 0
M  V30 2342 C 222.8 -3.88227 1.71944 0
M  V30 2343 O 223.824 -3.22887 1.50407 0
M  V30 2344 O 222.683 -5.05477 2.07738 0
M  V30 2345 H 219.777 -0.777728 0.28119 0
M  V30 2346 H 222.323 -1.18118 1.21845 0
M  V30 2347 H 221.095 -2.95229 2.56818 0
M  V30 2348 H 220.718 -3.82342 1.09088 0
M  V30 2349 N 221.715 -0.905404 -1.28997 0
M  V30 2350 C 223.131 -0.60233 -1.47798 0
M  V30 2351 C 223.331 0.854645 -1.82478 0
M  V30 2352 O 222.387 1.63439 -1.92468 0
M  V30 2353 C 223.7 -1.53306 -2.58685 0
M  V30 2354 C 225.248 -1.53887 -2.72558 0
M  V30 2355 C 225.723 -2.45602 -3.86579 0
M  V30 2356 N 227.214 -2.43681 -3.93921 0
M  V30 2357 C 227.949 -3.11347 -4.81509 0
M  V30 2358 N 227.445 -3.88313 -5.73746 0
M  V30 2359 N 229.238 -3.00476 -4.75048 0
M  V30 2360 H 221.389 -1.84765 -1.04764 0
M  V30 2361 H 223.652 -0.792025 -0.520961 0
M  V30 2362 H 223.358 -2.57141 -2.39941 0
M  V30 2363 H 223.232 -1.25787 -3.55609 0
M  V30 2364 H 225.619 -0.507941 -2.90696 0
M  V30 2365 H 225.7 -1.85447 -1.76191 0
M  V30 2366 H 225.344 -3.48792 -3.69197 0
M  V30 2367 H 225.274 -2.11349 -4.82327 0
M  V30 2368 H 227.765 -1.87767 -3.27951 0
M  V30 2369 H 228.078 -4.36985 -6.37389 0
M  V30 2370 H 226.423 -3.92419 -5.73614 0
M  V30 2371 H 229.614 -2.39858 -4.01977 0
M  V30 2372 H 229.787 -3.53485 -5.43095 0
M  V30 2373 N 223.193 1.4272 -0.668489 0
M  V30 2374 C 224.441 2.01226 -0.187769 0
M  V30 2375 C 224.762 1.53092 1.2078 0
M  V30 2376 O 224.032 0.74993 1.80977 0
M  V30 2377 H 222.612 0.744041 -0.0664272 0
M  V30 2378 H 225.274 1.74723 -0.863583 0
M  V30 2379 H 224.37 3.11556 -0.184166 0
M  V30 2380 N 224.671 0.411399 1.52136 0
M  V30 2381 C 225.917 -0.156262 2.02799 0
M  V30 2382 C 226.272 -1.42613 1.29149 0
M  V30 2383 O 225.565 -1.87592 0.389839 0
M  V30 2384 C 225.759 -0.455872 3.54481 0
M  V30 2385 C 225.588 0.783404 4.42824 0
M  V30 2386 C 224.358 1.30928 4.88043 0
M  V30 2387 C 226.556 1.66217 4.86699 0
M  V30 2388 N 224.538 2.5038 5.6052 0
M  V30 2389 C 225.909 2.70292 5.5798 0
M  V30 2390 C 227.964 1.67966 4.68713 0
M  V30 2391 C 226.667 3.7603 6.13184 0
M  V30 2392 C 228.693 2.72624 5.24815 0
M  V30 2393 C 228.055 3.7542 5.9602 0
M  V30 2394 H 224.154 -0.0186886 0.781777 0
M  V30 2395 H 226.738 0.566255 1.86284 0
M  V30 2396 H 224.909 -1.14743 3.71064 0
M  V30 2397 H 226.641 -1.01261 3.91827 0
M  V30 2398 H 223.396 0.866977 4.65597 0
M  V30 2399 H 223.82 3.10881 6.014 0
M  V30 2400 H 228.462 0.898312 4.13147 0
M  V30 2401 H 226.18 4.55019 6.6782 0
M  V30 2402 H 229.766 2.74887 5.12765 0
M  V30 2403 H 228.646 4.55073 6.38654 0
M  V30 2404 N 226.149 -1.5696 0.141893 0
M  V30 2405 C 227.395 -1.9625 -0.511248 0
M  V30 2406 C 227.728 -1.02654 -1.64851 0
M  V30 2407 O 227.003 -0.0679676 -1.94381 0
M  V30 2408 C 227.286 -3.45285 -1.02227 0
M  V30 2409 C 227.139 -4.49658 0.113138 0
M  V30 2410 C 228.458 -3.96698 -1.90574 0
M  V30 2411 H 225.577 -0.713567 -0.184367 0
M  V30 2412 H 228.219 -1.88698 0.222087 0
M  V30 2413 H 226.369 -3.51852 -1.64719 0
M  V30 2414 H 228.041 -4.55174 0.749302 0
M  V30 2415 H 226.284 -4.26857 0.773026 0
M  V30 2416 H 226.955 -5.51258 -0.286053 0
M  V30 2417 H 229.431 -3.92578 -1.37918 0
M  V30 2418 H 228.307 -5.01453 -2.2324 0
M  V30 2419 H 228.568 -3.3875 -2.84079 0
M  V30 2420 N 227.627 0.131896 -1.57047 0
M  V30 2421 C 228.873 0.843179 -1.84441 0
M  V30 2422 C 229.206 1.80129 -0.725749 0
M  V30 2423 O 228.481 1.92624 0.269469 0
M  V30 2424 C 228.764 1.60442 -3.22382 0
M  V30 2425 C 228.617 0.666782 -4.4483 0
M  V30 2426 C 229.936 2.56354 -3.5773 0
M  V30 2427 H 227.055 0.305081 -0.670891 0
M  V30 2428 H 229.697 0.107839 -1.89694 0
M  V30 2429 H 227.847 2.23128 -3.18035 0
M  V30 2430 H 229.519 0.0497646 -4.61273 0
M  V30 2431 H 227.762 -0.022609 -4.33794 0
M  V30 2432 H 228.433 1.23579 -5.37989 0
M  V30 2433 H 230.909 2.0378 -3.62785 0
M  V30 2434 H 229.785 3.06657 -4.5525 0
M  V30 2435 H 230.046 3.38419 -2.84473 0
M  V30 2436 N 229.106 1.52395 0.401703 0
M  V30 2437 C 230.354 1.66488 1.14569 0
M  V30 2438 C 230.675 0.400897 1.90835 0
M  V30 2439 O 229.945 -0.584415 1.8698 0
M  V30 2440 H 228.525 0.613672 0.425929 0
M  V30 2441 H 231.187 1.89464 0.457093 0
M  V30 2442 H 230.283 2.50942 1.85566 0
M  V30 2443 N 230.584 -0.659388 1.43143 0
M  V30 2444 C 231.833 -1.41518 1.43721 0
M  V30 2445 C 232.146 -1.95499 0.0628176 0
M  V30 2446 O 233.352 -2.71446 -0.0539683 0
M  V30 2447 C 231.808 -2.5608 2.52885 0
M  V30 2448 C 231.416 -2.08733 3.96402 0
M  V30 2449 C 233.16 -3.3349 2.62649 0
M  V30 2450 C 231.067 -3.20469 4.97045 0
M  V30 2451 H 229.997 -0.531705 0.534608 0
M  V30 2452 H 232.648 -0.712343 1.69109 0
M  V30 2453 H 231.03 -3.28805 2.20688 0
M  V30 2454 H 232.204 -1.43059 4.3803 0
M  V30 2455 H 230.519 -1.44219 3.90627 0
M  V30 2456 H 233.116 -4.16734 3.35017 0
M  V30 2457 H 233.459 -3.8111 1.67513 0
M  V30 2458 H 233.992 -2.67842 2.94118 0
M  V30 2459 H 230.731 -2.77824 5.93712 0
M  V30 2460 H 230.251 -3.84874 4.60034 0
M  V30 2461 H 231.93 -3.85698 5.19467 0
M  V30 2462 N 232.062 -1.29571 -0.897171 0
M  V30 2463 C 233.012 -1.11539 -1.98855 0
M  V30 2464 C 233.996 -0.0340716 -1.60864 0
M  V30 2465 O 235.188 -0.256062 -1.75138 0
M  V30 2466 C 232.317 -0.796603 -3.3393 0
M  V30 2467 C 231.403 -1.91758 -3.78272 0
M  V30 2468 N 231.794 -3.16143 -3.94826 0
M  V30 2469 C 230.092 -1.81119 -4.07568 0
M  V30 2470 C 230.793 -3.89293 -4.32233 0
M  V30 2471 N 229.769 -3.17255 -4.41419 0
M  V30 2472 H 233.571 -2.05894 -2.09726 0
M  V30 2473 H 231.085 -1.20732 -1.08616 0
M  V30 2474 H 233.082 -0.648459 -4.11826 0
M  V30 2475 H 231.742 0.139003 -3.24402 0
M  V30 2476 H 232.753 -3.5157 -3.80288 0
M  V30 2477 H 229.43 -0.948461 -4.06584 0
M  V30 2478 H 230.82 -4.9635 -4.52865 0
M  V30 2479 N 233.54 1.10788 -1.12088 0
M  V30 2480 C 234.768 1.86461 -0.896651 0
M  V30 2481 C 235.183 1.80492 0.553912 0
M  V30 2482 O 234.54 1.19102 1.38278 0
M  V30 2483 C 234.591 3.35006 -1.35843 0
M  V30 2484 O 234.312 3.40866 -2.75213 0
M  V30 2485 C 235.813 4.27565 -1.1706 0
M  V30 2486 H 233.033 0.589425 -0.320654 0
M  V30 2487 H 235.577 1.40076 -1.48993 0
M  V30 2488 H 233.732 3.7887 -0.808458 0
M  V30 2489 H 234.146 4.33411 -2.9539 0
M  V30 2490 H 235.62 5.30007 -1.54263 0
M  V30 2491 H 236.097 4.3906 -0.110814 0
M  V30 2492 H 236.703 3.89501 -1.70789 0
M  V30 2493 N 235.018 0.912232 1.28515 0
M  V30 2494 C 236.267 0.540504 1.94323 0
M  V30 2495 C 236.58 -0.920044 1.72611 0
M  V30 2496 O 237.786 -1.39986 2.32629 0
M  V30 2497 C 236.242 0.915803 3.48053 0
M  V30 2498 C 235.85 2.39598 3.78546 0
M  V30 2499 C 237.594 0.614588 4.20027 0
M  V30 2500 C 235.501 2.71148 5.25578 0
M  V30 2501 H 234.431 0.198418 0.727424 0
M  V30 2502 H 237.082 1.11094 1.46049 0
M  V30 2503 H 235.464 0.274168 3.9505 0
M  V30 2504 H 236.638 3.08422 3.42364 0
M  V30 2505 H 234.953 2.66749 3.1974 0
M  V30 2506 H 237.55 0.827002 5.28266 0
M  V30 2507 H 237.893 -0.447531 4.13887 0
M  V30 2508 H 238.426 1.21462 3.78803 0
M  V30 2509 H 235.165 3.76207 5.36794 0
M  V30 2510 H 234.685 2.0696 5.62963 0
M  V30 2511 H 236.364 2.58072 5.93302 0
M  V30 2512 N 236.496 -1.42363 0.676048 0
M  V30 2513 C 237.721 -2.06377 0.205705 0
M  V30 2514 C 238.146 -1.50463 -1.12883 0
M  V30 2515 O 237.504 -0.623619 -1.70237 0
M  V30 2516 C 237.552 -3.60277 0.152655 0
M  V30 2517 O 236.656 -4.02935 -0.87845 0
M  V30 2518 H 235.997 -0.655588 0.105359 0
M  V30 2519 H 238.527 -1.82475 0.925412 0
M  V30 2520 H 238.537 -4.07993 -0.0230675 0
M  V30 2521 H 237.212 -4.00346 1.12675 0
M  V30 2522 H 235.789 -3.66764 -0.673668 0
M  V30 2523 N 237.974 -0.419461 -1.51915 0
M  V30 2524 C 239.251 0.211999 -1.94448 0
M  V30 2525 C 239.631 1.61703 -1.35703 0
M  V30 2526 O 238.979 2.22102 -0.536931 0
M  V30 2527 C 239.189 0.207872 -3.4838 0
M  V30 2528 C 240.537 0.422192 -4.22496 0
M  V30 2529 O 241.561 0.286778 -3.55044 0
M  V30 2530 O 240.42 0.690009 -5.42126 0
M  V30 2531 H 237.514 0.139586 -0.815135 0
M  V30 2532 H 240.06 -0.476151 -1.62883 0
M  V30 2533 H 238.832 -0.775102 -3.83546 0
M  V30 2534 H 238.455 0.939688 -3.86336 0
M  V30 2535 N 239.452 1.56882 -0.150215 0
M  V30 2536 C 240.384 2.14057 0.819286 0
M  V30 2537 C 241.397 1.09082 1.20851 0
M  V30 2538 O 242.586 1.36347 1.15203 0
M  V30 2539 C 239.686 2.65102 2.11127 0
M  V30 2540 C 238.859 3.94511 1.88891 0
M  V30 2541 C 237.918 4.30834 3.02107 0
M  V30 2542 O 236.944 4.99099 2.73659 0
M  V30 2543 N 238.146 3.90676 4.29363 0
M  V30 2544 H 240.911 2.97871 0.330618 0
M  V30 2545 H 238.472 1.61866 0.0332538 0
M  V30 2546 H 240.464 2.86411 2.85921 0
M  V30 2547 H 239.034 1.85994 2.51247 0
M  V30 2548 H 238.254 3.81795 0.981152 0
M  V30 2549 H 239.542 4.7907 1.71376 0
M  V30 2550 H 238.94 3.35677 4.55343 0
M  V30 2551 H 237.497 4.1703 5.00928 0
M  V30 2552 N 240.93 -0.123565 1.57115 0
M  V30 2553 C 242.207 -0.862196 1.75572 0
M  V30 2554 C 242.587 -1.98279 0.724475 0
M  V30 2555 O 241.935 -2.27102 -0.252407 0
M  V30 2556 C 242.145 -1.38309 3.20424 0
M  V30 2557 C 243.493 -1.83724 3.82793 0
M  V30 2558 O 244.517 -1.47999 3.23998 0
M  V30 2559 O 243.376 -2.49685 4.86127 0
M  V30 2560 H 240.47 -0.409113 0.718718 0
M  V30 2561 H 243.016 -0.107661 1.69358 0
M  V30 2562 H 241.788 -0.578889 3.86994 0
M  V30 2563 H 241.411 -2.20046 3.31158 0
M  V30 2564 N 242.408 -1.52605 -0.393616 0
M  V30 2565 C 243.356 -1.77688 -1.50099 0
M  V30 2566 C 244.35 -0.644615 -1.56656 0
M  V30 2567 O 245.556 -0.826997 -1.59877 0
M  V30 2568 H 241.931 -0.562159 -0.499481 0
M  V30 2569 H 243.902 -2.7043 -1.26135 0
M  V30 2570 C 242.651 -1.95858 -2.87289 0
M  V30 2571 H 241.974 -2.8241 -2.82992 0
M  V30 2572 H 243.414 -2.174 -3.64024 0
M  V30 2573 C 241.873 -0.729848 -3.28899 0
M  V30 2574 O 242.403 0.0949217 -4.01588 0
M  V30 2575 N 240.609 -0.561283 -2.85128 0
M  V30 2576 H 240.156 -1.23357 -2.26143 0
M  V30 2577 H 240.114 0.2595 -3.13327 0
M  V30 2578 N 243.887 0.651787 -1.4349 0
M  V30 2579 C 244.834 1.76462 -1.4876 0
M  V30 2580 C 245.804 1.62641 -0.337189 0
M  V30 2581 O 246.989 1.82864 -0.544544 0
M  V30 2582 C 244.129 3.14623 -1.41796 0
M  V30 2583 C 243.242 3.39568 -2.67053 0
M  V30 2584 C 242.377 4.67585 -2.52068 0
M  V30 2585 C 241.416 4.85639 -3.72587 0
M  V30 2586 N 240.553 6.04915 -3.56402 0
M  V30 2587 H 245.393 1.71293 -2.43849 0
M  V30 2588 H 242.93 0.835889 -1.21043 0
M  V30 2589 H 244.888 3.94496 -1.35753 0
M  V30 2590 H 243.518 3.18859 -0.50288 0
M  V30 2591 H 242.57 2.53783 -2.8337 0
M  V30 2592 H 243.882 3.48795 -3.56572 0
M  V30 2593 H 243.036 5.55586 -2.4374 0
M  V30 2594 H 241.775 4.60681 -1.60075 0
M  V30 2595 H 240.78 3.96073 -3.81321 0
M  V30 2596 H 242.005 4.94372 -4.65589 0
M  V30 2597 H 239.951 5.9914 -2.67146 0
M  V30 2598 H 239.868 6.15106 -4.39524 0
M  V30 2599 H 241.136 6.95533 -3.51929 0
M  V30 2600 N 245.365 1.30045 0.890287 0
M  V30 2601 C 246.642 1.09227 1.62262 0
M  V30 2602 C 247.022 -0.360305 2.08002 0
M  V30 2603 O 246.37 -1.35084 1.84295 0
M  V30 2604 C 246.58 2.08835 2.79623 0
M  V30 2605 C 247.928 2.40266 3.50082 0
M  V30 2606 O 248.952 2.07104 2.89804 0
M  V30 2607 O 247.811 2.96967 4.58773 0
M  V30 2608 H 244.905 0.419132 0.712922 0
M  V30 2609 H 247.451 1.41451 0.937529 0
M  V30 2610 H 246.223 3.06633 2.43089 0
M  V30 2611 H 245.846 1.77397 3.55832 0
M  V30 2612 N 246.843 -1.10192 1.12674 0
M  V30 2613 C 248.254 -1.63707 0.897604 0
M  V30 2614 C 248.605 -1.87812 -0.567546 0
M  V30 2615 O 247.73 -1.62196 -1.43253 0
M  V30 2616 C 248.325 -2.974 1.62292 0
M  V30 2617 C 246.884 -3.47772 1.43986 0
M  V30 2618 C 246.031 -2.22332 1.65722 0
M  V30 2619 H 248.982 -0.936587 1.28116 0
M  V30 2620 H 249.003 -3.64986 1.07541 0
M  V30 2621 H 248.515 -2.79824 2.68924 0
M  V30 2622 H 246.616 -3.70487 0.396206 0
M  V30 2623 H 246.729 -4.25723 2.19765 0
M  V30 2624 H 245.093 -2.30599 1.08149 0
M  V30 2625 H 245.876 -2.07285 2.73657 0
M  V30 2626 N 248.321 -0.919034 -1.28029 0
M  V30 2627 C 249.737 -0.617972 -1.4715 0
M  V30 2628 C 249.937 0.835242 -1.83374 0
M  V30 2629 O 248.993 1.61388 -1.94191 0
M  V30 2630 C 250.306 -1.56041 -2.57044 0
M  V30 2631 C 251.854 -1.56769 -2.7091 0
M  V30 2632 C 252.329 -2.49688 -3.83953 0
M  V30 2633 N 253.82 -2.47845 -3.91314 0
M  V30 2634 C 254.555 -3.16437 -4.78179 0
M  V30 2635 N 254.051 -3.94376 -5.69596 0
M  V30 2636 N 255.844 -3.05498 -4.71834 0
M  V30 2637 H 247.995 -1.85866 -1.02798 0
M  V30 2638 H 250.258 -0.797506 -0.512531 0
M  V30 2639 H 249.964 -2.59671 -2.372 0
M  V30 2640 H 249.838 -1.29551 -3.54255 0
M  V30 2641 H 252.225 -0.538745 -2.90141 0
M  V30 2642 H 252.306 -1.87305 -1.74214 0
M  V30 2643 H 251.95 -3.52688 -3.65477 0
M  V30 2644 H 251.88 -2.16453 -4.80058 0
M  V30 2645 H 254.371 -1.91234 -3.25941 0
M  V30 2646 H 254.684 -4.43721 -6.32718 0
M  V30 2647 H 253.029 -3.98481 -5.69419 0
M  V30 2648 H 256.22 -2.44108 -3.99411 0
M  V30 2649 H 256.393 -3.59225 -5.39316 0
M  V30 2650 N 249.799 1.42003 -0.683588 0
M  V30 2651 C 251.029 2.05448 -0.217866 0
M  V30 2652 C 251.437 1.51491 1.13346 0
M  V30 2653 O 250.78 0.653048 1.717 0
M  V30 2654 C 250.842 3.59399 -0.0850118 0
M  V30 2655 C 250.506 4.36093 -1.36645 0
M  V30 2656 C 251.503 4.66169 -2.30179 0
M  V30 2657 C 249.188 4.75578 -1.61649 0
M  V30 2658 C 251.182 5.34676 -3.46988 0
M  V30 2659 C 248.869 5.43824 -2.78745 0
M  V30 2660 C 249.867 5.73299 -3.71238 0
M  V30 2661 O 249.555 6.40142 -4.86285 0
M  V30 2662 H 249.287 0.668344 -0.101454 0
M  V30 2663 H 251.841 1.82974 -0.933248 0
M  V30 2664 H 250.071 3.80566 0.686031 0
M  V30 2665 H 251.76 4.04457 0.341973 0
M  V30 2666 H 252.526 4.36156 -2.12115 0
M  V30 2667 H 248.405 4.52025 -0.905243 0
M  V30 2668 H 251.949 5.57599 -4.19201 0
M  V30 2669 H 247.846 5.73254 -2.96732 0
M  V30 2670 H 248.614 6.58636 -4.85944 0
M  V30 2671 N 251.277 0.427512 1.51691 0
M  V30 2672 C 252.524 -0.142229 2.02 0
M  V30 2673 C 252.852 -1.43566 1.31221 0
M  V30 2674 O 252.107 -1.91298 0.412744 0
M  V30 2675 C 252.406 -0.418249 3.54944 0
M  V30 2676 C 252.072 0.788187 4.43958 0
M  V30 2677 C 250.734 1.11906 4.68007 0
M  V30 2678 C 253.086 1.59347 4.96244 0
M  V30 2679 C 250.414 2.25608 5.41588 0
M  V30 2680 C 252.766 2.7214 5.71072 0
M  V30 2681 C 251.43 3.05692 5.93387 0
M  V30 2682 H 250.7 -0.0520451 0.73917 0
M  V30 2683 H 253.347 0.572697 1.82736 0
M  V30 2684 H 251.652 -1.21496 3.72486 0
M  V30 2685 H 253.349 -0.872339 3.91397 0
M  V30 2686 H 249.939 0.520344 4.2543 0
M  V30 2687 H 254.123 1.35106 4.77556 0
M  V30 2688 H 249.379 2.51929 5.57083 0
M  V30 2689 H 253.553 3.34914 6.10578 0
M  V30 2690 H 251.18 3.9391 6.50184 0
M  V30 2691 N 252.755 -1.56801 0.158532 0
M  V30 2692 C 254.002 -1.9649 -0.489679 0
M  V30 2693 C 254.33 -1.04394 -1.6411 0
M  V30 2694 O 253.585 -0.0754401 -1.95555 0
M  V30 2695 C 253.884 -3.4235 -1.02623 0
M  V30 2696 C 253.55 -4.50899 0.00794526 0
M  V30 2697 C 252.212 -4.80312 0.292207 0
M  V30 2698 C 254.564 -5.16333 0.710584 0
M  V30 2699 C 251.892 -5.72461 1.28472 0
M  V30 2700 C 254.244 -6.09553 1.69199 0
M  V30 2701 C 252.908 -6.37339 1.98383 0
M  V30 2702 H 252.178 -0.719009 -0.179186 0
M  V30 2703 H 254.825 -1.8989 0.247798 0
M  V30 2704 H 253.13 -3.45838 -1.84128 0
M  V30 2705 H 254.827 -3.70393 -1.53656 0
M  V30 2706 H 251.417 -4.28015 -0.22379 0
M  V30 2707 H 255.601 -4.93732 0.504174 0
M  V30 2708 H 250.857 -5.92278 1.51714 0
M  V30 2709 H 255.031 -6.59327 2.24189 0
M  V30 2710 H 252.658 -7.08546 2.7544 0
M  V30 2711 N 254.233 0.115231 -1.57178 0
M  V30 2712 C 255.458 0.840354 -1.89612 0
M  V30 2713 C 255.883 1.72464 -0.750845 0
M  V30 2714 O 255.241 1.78826 0.298478 0
M  V30 2715 C 255.289 1.64654 -3.20814 0
M  V30 2716 O 254.393 2.7538 -3.06985 0
M  V30 2717 H 253.734 0.232158 -0.622092 0
M  V30 2718 H 256.264 0.0964977 -2.04372 0
M  V30 2719 H 256.274 2.03499 -3.53627 0
M  V30 2720 H 254.949 0.997416 -4.03763 0
M  V30 2721 H 253.526 2.3971 -2.85646 0
M  V30 2722 N 255.711 1.52812 0.385517 0
M  V30 2723 C 256.641 1.80808 1.47752 0
M  V30 2724 C 257.622 0.660318 1.5676 0
M  V30 2725 O 258.807 0.908246 1.71652 0
M  V30 2726 C 255.937 1.98008 2.85324 0
M  V30 2727 C 254.891 3.13709 2.91154 0
M  V30 2728 C 254.217 3.16169 4.31209 0
M  V30 2729 C 255.517 4.52709 2.60483 0
M  V30 2730 H 257.211 2.72253 1.24573 0
M  V30 2731 H 254.757 1.31003 0.597839 0
M  V30 2732 H 256.71 2.16176 3.61726 0
M  V30 2733 H 255.434 1.03255 3.09848 0
M  V30 2734 H 254.093 2.95329 2.17201 0
M  V30 2735 H 253.741 2.19092 4.52778 0
M  V30 2736 H 253.441 3.93894 4.36029 0
M  V30 2737 H 254.965 3.36496 5.09512 0
M  V30 2738 H 256.379 4.71173 3.26602 0
M  V30 2739 H 254.776 5.32528 2.76648 0
M  V30 2740 H 255.846 4.59186 1.55809 0
M  V30 2741 N 257.189 -0.644168 1.43834 0
M  V30 2742 C 258.136 -1.75671 1.49694 0
M  V30 2743 C 259.106 -1.6246 0.345809 0
M  V30 2744 O 260.291 -1.82573 0.554234 0
M  V30 2745 C 257.431 -3.13867 1.43463 0
M  V30 2746 C 256.544 -3.38147 2.6885 0
M  V30 2747 C 255.679 -4.66241 2.54544 0
M  V30 2748 C 254.718 -4.83657 3.75157 0
M  V30 2749 N 253.855 -6.03016 3.59605 0
M  V30 2750 H 258.695 -1.69998 2.44754 0
M  V30 2751 H 256.232 -0.829458 1.21484 0
M  V30 2752 H 258.19 -3.9377 1.37843 0
M  V30 2753 H 256.82 -3.18588 0.519783 0
M  V30 2754 H 255.872 -2.52276 2.84712 0
M  V30 2755 H 257.184 -3.46899 3.58417 0
M  V30 2756 H 256.338 -5.54285 2.46683 0
M  V30 2757 H 255.077 -4.59826 1.62516 0
M  V30 2758 H 254.082 -3.94046 3.83416 0
M  V30 2759 H 255.307 -4.91896 4.68204 0
M  V30 2760 H 253.253 -5.97715 2.7032 0
M  V30 2761 H 253.17 -6.12766 4.42779 0
M  V30 2762 H 254.438 -6.93657 3.55613 0
M  V30 2763 N 258.668 -1.30515 -0.883378 0
M  V30 2764 C 259.896 -1.22359 -1.66841 0
M  V30 2765 C 260.311 0.213296 -1.87591 0
M  V30 2766 O 259.668 1.14075 -1.42454 0
M  V30 2767 C 259.719 -1.95011 -3.04389 0
M  V30 2768 O 259.44 -3.3309 -2.84575 0
M  V30 2769 C 260.941 -1.93532 -3.98824 0
M  V30 2770 H 258.161 -0.423371 -0.520575 0
M  V30 2771 H 260.705 -1.72167 -1.10357 0
M  V30 2772 H 258.86 -1.48997 -3.57601 0
M  V30 2773 H 259.274 -3.69907 -3.71846 0
M  V30 2774 H 260.748 -2.48902 -4.92699 0
M  V30 2775 H 261.225 -0.914627 -4.29571 0
M  V30 2776 H 261.831 -2.39364 -3.51547 0
M  V30 2777 N 260.146 1.09593 -1.13257 0
M  V30 2778 C 261.423 1.78293 -0.804432 0
M  V30 2779 C 261.803 1.99004 0.70431 0
M  V30 2780 O 261.151 1.59007 1.641 0
M  V30 2781 C 261.361 3.10707 -1.5894 0
M  V30 2782 C 262.709 3.85443 -1.78099 0
M  V30 2783 O 263.733 3.20454 -1.55525 0
M  V30 2784 O 262.592 5.02108 -2.15753 0
M  V30 2785 H 259.686 0.773156 -0.293528 0
M  V30 2786 H 262.232 1.16164 -1.23709 0
M  V30 2787 H 261.004 2.91106 -2.61482 0
M  V30 2788 H 260.627 3.80558 -1.15157 0
M  V30 2789 N 261.624 0.925811 1.2754 0
M  V30 2790 C 263.04 0.625767 1.46821 0
M  V30 2791 C 263.24 -0.825506 1.83814 0
M  V30 2792 O 262.296 -1.60356 1.95044 0
M  V30 2793 C 263.609 1.57402 2.56213 0
M  V30 2794 C 265.157 1.58204 2.70075 0
M  V30 2795 C 265.632 2.51721 3.82623 0
M  V30 2796 N 267.123 2.49917 3.89994 0
M  V30 2797 C 267.858 3.18968 4.76494 0
M  V30 2798 N 267.354 3.97391 5.67496 0
M  V30 2799 N 269.147 3.07996 4.70208 0
M  V30 2800 H 261.298 1.86409 1.01811 0
M  V30 2801 H 263.561 0.800213 0.508295 0
M  V30 2802 H 263.267 2.60925 2.35819 0
M  V30 2803 H 263.141 1.31428 3.53563 0
M  V30 2804 H 265.528 0.554124 2.89851 0
M  V30 2805 H 265.609 1.88226 1.73218 0
M  V30 2806 H 265.253 3.54622 3.63601 0
M  V30 2807 H 265.183 2.18996 4.78903 0
M  V30 2808 H 267.674 1.9296 3.24923 0
M  V30 2809 H 267.987 4.4707 6.30356 0
M  V30 2810 H 266.332 4.01495 5.67298 0
M  V30 2811 H 269.523 2.46223 3.9811 0
M  V30 2812 H 269.696 3.6208 5.37403 0
M  V30 2813 N 263.102 -1.41638 0.69111 0
M  V30 2814 C 264.065 -2.29178 0.0319786 0
M  V30 2815 C 265.065 -1.44153 -0.712496 0
M  V30 2816 O 266.255 -1.65354 -0.548053 0
M  V30 2817 C 263.387 -3.26952 -0.965161 0
M  V30 2818 H 264.58 -2.88959 0.802681 0
M  V30 2819 H 262.133 -1.4955 0.454356 0
M  V30 2820 H 262.868 -2.72142 -1.76378 0
M  V30 2821 H 262.653 -3.89685 -0.434522 0
M  V30 2822 H 264.143 -3.92561 -1.42428 0
M  V30 2823 N 264.58 -0.43555 -1.51462 0
M  V30 2824 C 265.996 -0.0877501 -1.59359 0
M  V30 2825 C 266.196 1.4027 -1.4466 0
M  V30 2826 O 265.252 2.17243 -1.28693 0
M  V30 2827 C 266.565 -0.606264 -2.94525 0
M  V30 2828 C 268.113 -0.566548 -3.0783 0
M  V30 2829 C 268.588 -1.06201 -4.45517 0
M  V30 2830 N 270.079 -1.01992 -4.51832 0
M  V30 2831 C 270.814 -1.37417 -5.5669 0
M  V30 2832 N 270.31 -1.80119 -6.68976 0
M  V30 2833 N 272.103 -1.29245 -5.47039 0
M  V30 2834 H 264.254 -1.40533 -1.59261 0
M  V30 2835 H 266.517 -0.578992 -0.750648 0
M  V30 2836 H 266.223 -1.64901 -3.10645 0
M  V30 2837 H 266.097 -0.0302097 -3.77188 0
M  V30 2838 H 268.484 0.467208 -2.91378 0
M  V30 2839 H 268.565 -1.17898 -2.2701 0
M  V30 2840 H 268.209 -2.09422 -4.62715 0
M  V30 2841 H 268.139 -0.426127 -5.24873 0
M  V30 2842 H 270.63 -0.706308 -3.71241 0
M  V30 2843 H 270.943 -2.05392 -7.45006 0
M  V30 2844 H 269.288 -1.84044 -6.70189 0
M  V30 2845 H 272.479 -0.957522 -4.58202 0
M  V30 2846 H 272.652 -1.57182 -6.28648 0
M  V30 2847 N 266.058 1.56714 -0.166846 0
M  V30 2848 C 266.99 2.14914 0.796537 0
M  V30 2849 C 268.003 1.10357 1.19688 0
M  V30 2850 O 269.192 1.37561 1.13751 0
M  V30 2851 C 266.292 2.67326 2.08303 0
M  V30 2852 C 265.465 3.96493 1.84696 0
M  V30 2853 C 264.524 4.34014 2.97521 0
M  V30 2854 O 263.55 5.01973 2.6835 0
M  V30 2855 N 264.752 3.95208 4.25196 0
M  V30 2856 H 267.517 2.98205 0.299006 0
M  V30 2857 H 265.078 1.61892 0.0160839 0
M  V30 2858 H 267.07 2.89428 2.82867 0
M  V30 2859 H 265.64 1.88649 2.4926 0
M  V30 2860 H 264.86 3.82814 0.940602 0
M  V30 2861 H 266.148 4.8086 1.66285 0
M  V30 2862 H 265.546 3.40487 4.51758 0
M  V30 2863 H 264.103 4.2232 4.96477 0
M  V30 2864 N 267.536 -0.106894 1.57237 0
M  V30 2865 C 268.782 -0.81373 1.85759 0
M  V30 2866 C 269.115 -1.78952 0.754315 0
M  V30 2867 O 268.39 -1.93029 -0.23879 0
M  V30 2868 C 268.673 -1.55293 3.24894 0
M  V30 2869 C 268.526 -0.595929 4.45835 0
M  V30 2870 C 269.845 -2.5063 3.61763 0
M  V30 2871 H 266.964 -0.294369 0.67566 0
M  V30 2872 H 269.606 -0.0776472 1.89841 0
M  V30 2873 H 267.756 -2.1804 3.21544 0
M  V30 2874 H 269.428 0.0236262 4.61294 0
M  V30 2875 H 267.671 0.0916191 4.33703 0
M  V30 2876 H 268.342 -1.15004 5.39887 0
M  V30 2877 H 270.818 -1.97982 3.65981 0
M  V30 2878 H 269.694 -2.99376 4.60071 0
M  V30 2879 H 269.955 -3.3385 2.89821 0
M  V30 2880 N 269.014 -1.53014 -0.377408 0
M  V30 2881 C 270.242 -1.72515 -1.14219 0
M  V30 2882 C 270.657 -0.448735 -1.8339 0
M  V30 2883 O 270.014 0.577592 -1.73119 0
M  V30 2884 C 270.065 -2.8826 -2.18148 0
M  V30 2885 O 269.786 -4.10962 -1.51795 0
M  V30 2886 C 271.287 -3.19536 -3.07264 0
M  V30 2887 H 268.507 -0.577301 -0.342001 0
M  V30 2888 H 271.051 -1.99712 -0.439935 0
M  V30 2889 H 269.206 -2.63492 -2.83991 0
M  V30 2890 H 269.62 -4.75693 -2.20945 0
M  V30 2891 H 271.094 -4.03959 -3.76193 0
M  V30 2892 H 271.571 -2.34403 -3.71419 0
M  V30 2893 H 272.177 -3.46186 -2.47053 0
M  V30 2894 N 270.492 0.636531 -1.44174 0
M  V30 2895 C 271.72 1.42353 -1.50144 0
M  V30 2896 C 272.135 1.88389 -0.124575 0
M  V30 2897 O 271.492 1.6051 0.868489 0
M  V30 2898 C 271.543 2.64744 -2.46156 0
M  V30 2899 O 271.264 2.20629 -3.7849 0
M  V30 2900 C 272.765 3.57929 -2.61537 0
M  V30 2901 H 269.985 0.436752 -0.5094 0
M  V30 2902 H 272.529 0.778933 -1.89084 0
M  V30 2903 H 270.684 3.25307 -2.10366 0
M  V30 2904 H 271.098 2.99938 -4.30276 0
M  V30 2905 H 272.572 4.40428 -3.32757 0
M  V30 2906 H 273.049 4.06382 -1.66585 0
M  V30 2907 H 273.655 3.03238 -2.98206 0
M  V30 2908 N 271.97 1.30982 0.876444 0
M  V30 2909 C 273.219 1.19658 1.62373 0
M  V30 2910 C 273.532 -0.245636 1.94052 0
M  V30 2911 O 274.738 -0.48049 2.67214 0
M  V30 2912 C 273.194 2.09433 2.92687 0
M  V30 2913 C 272.802 3.58613 2.68516 0
M  V30 2914 C 274.546 2.06893 3.70669 0
M  V30 2915 C 272.453 4.40416 3.94699 0
M  V30 2916 H 271.383 0.444268 0.609214 0
M  V30 2917 H 274.034 1.55791 0.969605 0
M  V30 2918 H 272.416 1.66191 3.59439 0
M  V30 2919 H 273.59 4.10058 2.10212 0
M  V30 2920 H 271.905 3.63063 2.03898 0
M  V30 2921 H 274.502 2.65258 4.64265 0
M  V30 2922 H 274.845 1.05448 4.02724 0
M  V30 2923 H 275.378 2.48301 3.10792 0
M  V30 2924 H 272.117 5.42591 3.67798 0
M  V30 2925 H 271.637 3.93731 4.52477 0
M  V30 2926 H 273.316 4.52294 4.62644 0
M  V30 2927 N 273.449 -1.08991 1.13837 0
M  V30 2928 C 274.397 -2.17841 0.815347 0
M  V30 2929 C 275.391 -1.68164 -0.204233 0
M  V30 2930 O 276.597 -1.79897 -0.0609304 0
M  V30 2931 H 272.972 -0.710654 0.245915 0
M  V30 2932 H 274.943 -2.42315 1.74143 0
M  V30 2933 C 273.692 -3.46381 0.302614 0
M  V30 2934 H 273.015 -3.84979 1.0785 0
M  V30 2935 H 274.455 -4.23844 0.115074 0
M  V30 2936 C 272.914 -3.22556 -0.972591 0
M  V30 2937 O 273.444 -3.45599 -2.04754 0
M  V30 2938 N 271.65 -2.76134 -0.905455 0
M  V30 2939 H 271.197 -2.57582 -0.0305421 0
M  V30 2940 H 271.155 -2.60571 -1.75926 0
M  V30 2941 N 274.927 -0.932562 -1.27047 0
M  V30 2942 C 275.89 -0.440064 -2.24936 0
M  V30 2943 C 276.89 0.444071 -1.54547 0
M  V30 2944 O 278.08 0.244465 -1.72476 0
M  V30 2945 C 275.212 0.36678 -3.38921 0
M  V30 2946 H 276.405 -1.305 -2.70018 0
M  V30 2947 H 273.958 -0.713707 -1.39054 0
M  V30 2948 H 274.693 1.25033 -2.99228 0
M  V30 2949 H 274.478 -0.267204 -3.91188 0
M  V30 2950 H 275.968 0.701567 -4.11665 0
M  V30 2951 N 276.405 1.4127 -0.698611 0
M  V30 2952 C 277.355 2.27997 -0.0119836 0
M  V30 2953 C 278.339 1.42363 0.749765 0
M  V30 2954 O 279.531 1.65607 0.624758 0
M  V30 2955 C 276.66 3.30702 0.921458 0
M  V30 2956 C 275.746 4.23814 0.155796 0
M  V30 2957 N 276.137 4.98572 -0.852015 0
M  V30 2958 C 274.435 4.44284 0.390836 0
M  V30 2959 C 275.136 5.66744 -1.3106 0
M  V30 2960 N 274.112 5.39867 -0.635944 0
M  V30 2961 H 277.914 2.83232 -0.784649 0
M  V30 2962 H 275.428 1.53518 -0.529711 0
M  V30 2963 H 277.425 3.91661 1.42854 0
M  V30 2964 H 276.085 2.77028 1.69369 0
M  V30 2965 H 277.096 5.03024 -1.23235 0
M  V30 2966 H 273.773 4.01614 1.14071 0
M  V30 2967 H 275.163 6.36672 -2.14707 0
M  V30 2968 N 277.883 0.443576 1.51229 0
M  V30 2969 C 279.299 0.0962001 1.5931 0
M  V30 2970 C 279.499 -1.39501 1.45402 0
M  V30 2971 O 278.555 -2.16557 1.29843 0
M  V30 2972 C 279.868 0.621875 2.94199 0
M  V30 2973 C 281.416 0.582865 3.07525 0
M  V30 2974 C 281.891 1.08562 4.44948 0
M  V30 2975 N 283.382 1.04387 4.51284 0
M  V30 2976 C 284.117 1.40368 5.55954 0
M  V30 2977 N 283.613 1.83664 6.68011 0
M  V30 2978 N 285.406 1.32145 5.46346 0
M  V30 2979 H 277.557 1.41376 1.58514 0
M  V30 2980 H 279.82 0.582965 0.747567 0
M  V30 2981 H 279.526 1.66546 3.09767 0
M  V30 2982 H 279.4 0.0502125 3.77167 0
M  V30 2983 H 281.787 -0.451749 2.91622 0
M  V30 2984 H 281.868 1.191 2.26382 0
M  V30 2985 H 281.512 2.11873 4.61598 0
M  V30 2986 H 281.442 0.453956 5.2464 0
M  V30 2987 H 283.933 0.725986 3.70861 0
M  V30 2988 H 284.246 2.0934 7.43906 0
M  V30 2989 H 282.591 1.87596 6.69203 0
M  V30 2990 H 285.782 0.981808 4.57688 0
M  V30 2991 H 285.955 1.60514 6.27805 0
M  V30 2992 N 279.361 -1.56624 0.175154 0
M  V30 2993 C 280.586 -2.01813 -0.478137 0
M  V30 2994 C 281.011 -1.05457 -1.55757 0
M  V30 2995 O 280.369 -0.0347439 -1.81267 0
M  V30 2996 C 280.417 -3.45581 -1.02987 0
M  V30 2997 O 279.521 -3.52305 -2.14371 0
M  V30 2998 H 278.862 -0.65413 -0.114059 0
M  V30 2999 H 281.392 -2.02673 0.280173 0
M  V30 3000 H 281.402 -3.84965 -1.35151 0
M  V30 3001 H 280.077 -4.1521 -0.239556 0
M  V30 3002 H 278.654 -3.24783 -1.83222 0
M  V30 3003 N 280.839 0.0985539 -1.57292 0
M  V30 3004 C 282.069 0.815135 -1.8984 0
M  V30 3005 C 282.477 1.7297 -0.766679 0
M  V30 3006 O 281.82 1.81698 0.270483 0
M  V30 3007 C 281.882 1.6842 -3.17608 0
M  V30 3008 C 281.546 0.94182 -4.4719 0
M  V30 3009 C 282.543 0.273212 -5.19182 0
M  V30 3010 C 280.228 0.916927 -4.9386 0
M  V30 3011 C 282.222 -0.410361 -6.36078 0
M  V30 3012 C 279.909 0.229567 -6.10669 0
M  V30 3013 C 280.907 -0.432902 -6.81627 0
M  V30 3014 O 280.595 -1.10925 -7.9621 0
M  V30 3015 H 280.327 0.238501 -0.632529 0
M  V30 3016 H 282.881 0.0812659 -2.05239 0
M  V30 3017 H 281.111 2.46022 -2.98345 0
M  V30 3018 H 282.8 2.27704 -3.36015 0
M  V30 3019 H 283.566 0.283927 -4.84168 0
M  V30 3020 H 279.445 1.42201 -4.3852 0
M  V30 3021 H 282.989 -0.928013 -6.914 0
M  V30 3022 H 278.886 0.216686 -6.45136 0
M  V30 3023 H 279.654 -1.01579 -8.12172 0
M  V30 3024 N 282.317 1.53212 0.369288 0
M  V30 3025 C 283.247 1.82365 1.45826 0
M  V30 3026 C 284.228 0.676907 1.56051 0
M  V30 3027 O 285.413 0.926401 1.70679 0
M  V30 3028 C 282.543 2.01023 2.83208 0
M  V30 3029 C 281.497 3.1678 2.8781 0
M  V30 3030 C 280.823 3.20724 4.27832 0
M  V30 3031 C 282.123 4.55447 2.55667 0
M  V30 3032 H 283.817 2.73559 1.21678 0
M  V30 3033 H 281.363 1.3163 0.583911 0
M  V30 3034 H 283.316 2.20001 3.59413 0
M  V30 3035 H 282.04 1.06536 3.08736 0
M  V30 3036 H 280.699 2.97616 2.14056 0
M  V30 3037 H 280.347 2.23882 4.50429 0
M  V30 3038 H 280.047 3.98496 4.31827 0
M  V30 3039 H 281.571 3.41881 5.05915 0
M  V30 3040 H 282.985 4.74611 3.21586 0
M  V30 3041 H 281.382 5.35432 2.70984 0
M  V30 3042 H 282.452 4.60812 1.5093 0
M  V30 3043 N 283.795 -0.628877 1.44509 0
M  V30 3044 C 285.206 -1.21054 1.42137 0
M  V30 3045 C 285.557 -1.95715 0.137881 0
M  V30 3046 O 284.682 -2.02554 -0.761645 0
M  V30 3047 C 285.277 -2.20189 2.57493 0
M  V30 3048 C 283.836 -2.73777 2.58308 0
M  V30 3049 C 282.983 -1.48813 2.33987 0
M  V30 3050 H 285.934 -0.41942 1.53057 0
M  V30 3051 H 285.955 -3.02833 2.30375 0
M  V30 3052 H 285.467 -1.6582 3.50892 0
M  V30 3053 H 283.568 -3.32142 1.68856 0
M  V30 3054 H 283.681 -3.19662 3.56865 0
M  V30 3055 H 282.045 -1.77024 1.83124 0
M  V30 3056 H 282.828 -0.963442 3.29504 0
M  V30 3057 N 285.273 -1.31445 -0.869486 0
M  V30 3058 C 286.521 -1.20918 -1.61936 0
M  V30 3059 C 286.842 0.232683 -1.93607 0
M  V30 3060 O 286.112 1.15352 -1.58338 0
M  V30 3061 H 284.692 -0.44454 -0.600328 0
M  V30 3062 H 287.354 -1.64776 -1.0409 0
M  V30 3063 H 286.45 -1.78124 -2.56278 0
M  V30 3064 N 286.751 1.08385 -1.14413 0
M  V30 3065 C 287.683 2.1519 -0.789036 0
M  V30 3066 C 288.696 1.61638 0.19417 0
M  V30 3067 O 289.885 1.78479 -0.0275711 0
M  V30 3068 C 286.985 3.38565 -0.15058 0
M  V30 3069 C 286.158 4.21501 -1.16857 0
M  V30 3070 C 285.217 5.23277 -0.553832 0
M  V30 3071 O 284.243 5.56041 -1.21686 0
M  V30 3072 N 285.445 5.76629 0.669296 0
M  V30 3073 H 288.21 2.46257 -1.70814 0
M  V30 3074 H 285.771 1.24198 -1.03858 0
M  V30 3075 H 287.763 4.03777 0.273181 0
M  V30 3076 H 286.333 3.05299 0.671667 0
M  V30 3077 H 285.553 3.52265 -1.76926 0
M  V30 3078 H 286.841 4.73731 -1.85624 0
M  V30 3079 H 286.239 5.52243 1.22654 0
M  V30 3080 H 284.796 6.43521 1.03556 0
M  V30 3081 N 288.23 0.939286 1.26551 0
M  V30 3082 C 289.476 0.596234 1.94465 0
M  V30 3083 C 289.831 -0.855013 1.72358 0
M  V30 3084 O 289.124 -1.6034 1.04889 0
M  V30 3085 C 289.318 0.872106 3.46596 0
M  V30 3086 C 289.147 2.34862 3.83497 0
M  V30 3087 C 287.917 3.00344 4.06352 0
M  V30 3088 C 290.115 3.32697 3.92195 0
M  V30 3089 N 288.097 4.38027 4.30123 0
M  V30 3090 C 289.468 4.55631 4.20476 0
M  V30 3091 C 291.523 3.27747 3.74815 0
M  V30 3092 C 290.226 5.74233 4.33185 0
M  V30 3093 C 292.252 4.45672 3.88755 0
M  V30 3094 C 291.614 5.67388 4.17433 0
M  V30 3095 H 287.713 0.268515 0.734455 0
M  V30 3096 H 290.297 1.2083 1.5267 0
M  V30 3097 H 288.468 0.289102 3.87323 0
M  V30 3098 H 290.2 0.490513 4.01716 0
M  V30 3099 H 286.955 2.50969 4.01636 0
M  V30 3100 H 287.379 5.09288 4.46044 0
M  V30 3101 H 292.021 2.34703 3.51673 0
M  V30 3102 H 289.739 6.67731 4.55149 0
M  V30 3103 H 293.325 4.43372 3.76713 0
M  V30 3104 H 292.205 6.57115 4.27983 0
M  V30 3105 N 289.708 -1.40897 0.706093 0
M  V30 3106 C 290.954 -2.01352 0.241889 0
M  V30 3107 C 291.287 -1.55832 -1.15888 0
M  V30 3108 O 290.562 -0.774145 -1.7843 0
M  V30 3109 C 290.845 -3.58752 0.311311 0
M  V30 3110 C 290.698 -4.1437 1.74978 0
M  V30 3111 C 292.017 -4.38914 -0.322922 0
M  V30 3112 H 289.136 -0.731562 0.0893687 0
M  V30 3113 H 291.778 -1.67504 0.896802 0
M  V30 3114 H 289.928 -3.87718 -0.246302 0
M  V30 3115 H 291.6 -3.96239 2.36205 0
M  V30 3116 H 289.843 -3.69016 2.28057 0
M  V30 3117 H 290.514 -5.23532 1.74981 0
M  V30 3118 H 292.99 -4.15822 0.152089 0
M  V30 3119 H 291.866 -5.48358 -0.243855 0
M  V30 3120 H 292.127 -4.19176 -1.40513 0
M  V30 3121 N 291.186 -0.45159 -1.50991 0
M  V30 3122 C 292.416 0.108177 -2.06317 0
M  V30 3123 C 292.824 1.35774 -1.31765 0
M  V30 3124 O 292.167 1.79838 -0.374694 0
M  V30 3125 C 292.229 0.481659 -3.56259 0
M  V30 3126 C 291.893 -0.663114 -4.52163 0
M  V30 3127 C 292.89 -1.53947 -4.96585 0
M  V30 3128 C 290.575 -0.8479 -4.95092 0
M  V30 3129 C 292.569 -2.58518 -5.82621 0
M  V30 3130 C 290.256 -1.89686 -5.80915 0
M  V30 3131 C 291.254 -2.76388 -6.24579 0
M  V30 3132 O 290.942 -3.79482 -7.08695 0
M  V30 3133 H 290.674 0.00499183 -0.675982 0
M  V30 3134 H 293.228 -0.633659 -1.95381 0
M  V30 3135 H 291.458 1.27641 -3.65027 0
M  V30 3136 H 293.147 0.974233 -3.94035 0
M  V30 3137 H 293.913 -1.4083 -4.64103 0
M  V30 3138 H 289.792 -0.18258 -4.60638 0
M  V30 3139 H 293.336 -3.26224 -6.16623 0
M  V30 3140 H 289.233 -2.02817 -6.12809 0
M  V30 3141 H 290.001 -3.76234 -7.26905 0
M  V30 3142 N 292.664 1.56529 -0.183458 0
M  V30 3143 C 293.594 2.21549 0.737456 0
M  V30 3144 C 294.575 1.17489 1.23005 0
M  V30 3145 O 295.76 1.45959 1.281 0
M  V30 3146 C 292.89 2.86575 1.96194 0
M  V30 3147 C 291.844 3.96778 1.60473 0
M  V30 3148 C 291.17 4.48911 2.90487 0
M  V30 3149 C 292.47 5.15767 0.823497 0
M  V30 3150 H 294.164 2.98761 0.195453 0
M  V30 3151 H 291.71 1.43702 0.0925686 0
M  V30 3152 H 293.663 3.30739 2.61131 0
M  V30 3153 H 292.387 2.06749 2.52828 0
M  V30 3154 H 291.046 3.53286 0.978997 0
M  V30 3155 H 290.694 3.65862 3.45186 0
M  V30 3156 H 290.394 5.23265 2.67335 0
M  V30 3157 H 291.918 4.95771 3.56432 0
M  V30 3158 H 293.332 5.56549 1.37571 0
M  V30 3159 H 291.729 5.96114 0.690551 0
M  V30 3160 H 292.799 4.84574 -0.177782 0
M  V30 3161 N 294.142 -0.090211 1.57342 0
M  V30 3162 C 295.105 -1.09335 2.01441 0
M  V30 3163 C 296.105 -1.32666 0.908641 0
M  V30 3164 O 297.295 -1.28697 1.174 0
M  V30 3165 C 294.427 -2.44136 2.3793 0
M  V30 3166 H 295.62 -0.713662 2.91285 0
M  V30 3167 H 293.173 -0.335404 1.52659 0
M  V30 3168 H 293.908 -2.86972 1.51055 0
M  V30 3169 H 293.693 -2.28548 3.18603 0
M  V30 3170 H 295.183 -3.16277 2.72688 0
M  V30 3171 N 295.62 -1.53406 -0.361157 0
M  V30 3172 C 296.583 -1.79479 -1.42548 0
M  V30 3173 C 297.583 -0.665327 -1.4639 0
M  V30 3174 O 298.773 -0.933549 -1.47073 0
M  V30 3175 C 295.905 -1.92087 -2.8163 0
M  V30 3176 H 297.098 -2.74538 -1.20701 0
M  V30 3177 H 294.651 -1.4455 -0.594546 0
M  V30 3178 H 295.386 -0.991099 -3.08784 0
M  V30 3179 H 295.171 -2.74241 -2.80239 0
M  V30 3180 H 296.661 -2.13836 -3.58697 0
M  V30 3181 N 297.098 0.621204 -1.44841 0
M  V30 3182 C 298.326 1.40752 -1.51646 0
M  V30 3183 C 298.741 1.88246 -0.144549 0
M  V30 3184 O 298.098 1.61422 0.851416 0
M  V30 3185 C 298.149 2.62119 -2.4895 0
M  V30 3186 O 297.87 2.16602 -3.80808 0
M  V30 3187 C 299.371 3.55135 -2.65319 0
M  V30 3188 H 296.591 0.431325 -0.514004 0
M  V30 3189 H 299.135 0.758835 -1.899 0
M  V30 3190 H 297.29 3.23058 -2.13805 0
M  V30 3191 H 297.704 2.95358 -4.33433 0
M  V30 3192 H 299.178 4.36874 -3.37409 0
M  V30 3193 H 299.655 4.04592 -1.70886 0
M  V30 3194 H 300.261 3.00058 -3.01405 0
M  V30 3195 N 298.576 1.31904 0.862503 0
M  V30 3196 C 299.806 1.24817 1.64634 0
M  V30 3197 C 300.214 -0.187579 1.88268 0
M  V30 3198 O 299.557 -1.13253 1.44635 0
M  V30 3199 C 299.619 1.92996 3.03303 0
M  V30 3200 C 299.283 3.42336 3.02746 0
M  V30 3201 C 300.28 4.37956 2.80162 0
M  V30 3202 C 297.965 3.84147 3.2363 0
M  V30 3203 C 299.959 5.73361 2.78453 0
M  V30 3204 C 297.646 5.19663 3.21549 0
M  V30 3205 C 298.644 6.14081 2.98988 0
M  V30 3206 O 298.332 7.47118 2.96766 0
M  V30 3207 H 298.064 0.432222 0.519769 0
M  V30 3208 H 300.618 1.7445 1.08427 0
M  V30 3209 H 298.848 1.37922 3.61268 0
M  V30 3210 H 300.537 1.79723 3.63943 0
M  V30 3211 H 301.303 4.06981 2.63802 0
M  V30 3212 H 297.182 3.11083 3.40218 0
M  V30 3213 H 300.726 6.4703 2.60763 0
M  V30 3214 H 296.623 5.5027 3.37451 0
M  V30 3215 H 297.391 7.56382 3.12775 0
M  V30 3216 N 300.054 -1.07777 1.14986 0
M  V30 3217 C 301.331 -1.7699 0.832695 0
M  V30 3218 C 301.711 -2.001 -0.672561 0
M  V30 3219 O 301.059 -1.61598 -1.6155 0
M  V30 3220 C 301.269 -3.08139 1.63863 0
M  V30 3221 C 302.617 -3.8256 1.84208 0
M  V30 3222 O 303.641 -3.17939 1.60603 0
M  V30 3223 O 302.5 -4.98612 2.23714 0
M  V30 3224 H 299.594 -0.768389 0.305791 0
M  V30 3225 H 302.14 -1.14182 1.25541 0
M  V30 3226 H 300.912 -2.86909 2.6608 0
M  V30 3227 H 300.535 -3.78678 1.21197 0
M  V30 3228 N 301.532 -0.945985 -1.26051 0
M  V30 3229 C 302.78 -0.594941 -1.93145 0
M  V30 3230 C 303.101 0.86953 -1.7454 0
M  V30 3231 O 302.371 1.61838 -1.10387 0
M  V30 3232 H 300.951 -0.217044 -0.714773 0
M  V30 3233 H 303.613 -1.20235 -1.53393 0
M  V30 3234 H 302.709 -0.816835 -3.01221 0
M  V30 3235 N 303.011 1.40521 -0.713556 0
M  V30 3236 C 303.943 2.29191 -0.0203126 0
M  V30 3237 C 304.956 1.45723 0.725864 0
M  V30 3238 O 306.145 1.69033 0.573581 0
M  V30 3239 C 303.245 3.2395 0.995486 0
M  V30 3240 C 302.418 4.36262 0.315256 0
M  V30 3241 C 301.477 5.11474 1.23616 0
M  V30 3242 O 300.503 5.64606 0.721719 0
M  V30 3243 N 301.705 5.20638 2.56743 0
M  V30 3244 H 304.47 2.89327 -0.781652 0
M  V30 3245 H 302.031 1.51869 -0.561022 0
M  V30 3246 H 304.023 3.71137 1.61368 0
M  V30 3247 H 302.593 2.64995 1.6582 0
M  V30 3248 H 301.813 3.91228 -0.483106 0
M  V30 3249 H 303.101 5.08558 -0.157004 0
M  V30 3250 H 302.499 4.7895 3.01037 0
M  V30 3251 H 301.056 5.71339 3.13712 0
M  V30 3252 N 304.489 0.459591 1.5075 0
M  V30 3253 C 305.736 -0.0993495 2.02256 0
M  V30 3254 C 306.064 -1.40751 1.34237 0
M  V30 3255 O 305.319 -1.90379 0.453228 0
M  V30 3256 C 305.618 -0.342866 3.55752 0
M  V30 3257 C 305.284 0.88218 4.42186 0
M  V30 3258 C 303.946 1.21808 4.65528 0
M  V30 3259 C 306.298 1.69837 4.92752 0
M  V30 3260 C 303.626 2.37045 5.36681 0
M  V30 3261 C 305.978 2.84192 5.65171 0
M  V30 3262 C 304.642 3.1821 5.8677 0
M  V30 3263 H 303.912 -0.0363545 0.740108 0
M  V30 3264 H 306.559 0.611329 1.8148 0
M  V30 3265 H 304.864 -1.13567 3.7498 0
M  V30 3266 H 306.561 -0.789121 3.93159 0
M  V30 3267 H 303.151 0.610467 4.2423 0
M  V30 3268 H 307.335 1.45205 4.74583 0
M  V30 3269 H 302.591 2.63689 5.51614 0
M  V30 3270 H 306.765 3.4779 6.03337 0
M  V30 3271 H 304.392 4.07613 6.41682 0
M  V30 3272 N 305.967 -1.56429 0.191757 0
M  V30 3273 C 306.9 -2.14829 -0.76967 0
M  V30 3274 C 307.878 -1.08405 -1.2119 0
M  V30 3275 O 309.062 -1.36498 -1.30002 0
M  V30 3276 C 306.189 -2.70446 -2.03903 0
M  V30 3277 C 305.235 -3.89428 -1.7392 0
M  V30 3278 S 306.068 -5.28048 -0.890265 0
M  V30 3279 C 307.224 -5.87085 -2.16984 0
M  V30 3280 H 307.457 -2.96042 -0.273204 0
M  V30 3281 H 304.99 -1.54383 -0.0231975 0
M  V30 3282 H 306.948 -3.03134 -2.76803 0
M  V30 3283 H 305.609 -1.89281 -2.50662 0
M  V30 3284 H 304.802 -4.26742 -2.68155 0
M  V30 3285 H 304.404 -3.57732 -1.09103 0
M  V30 3286 H 306.696 -6.01244 -3.12269 0
M  V30 3287 H 307.639 -6.83747 -1.84108 0
M  V30 3288 H 308.047 -5.15663 -2.29678 0
M  V30 3289 N 307.445 0.0818655 -1.57387 0
M  V30 3290 C 308.392 1.09834 -2.0299 0
M  V30 3291 C 309.362 1.39043 -0.908639 0
M  V30 3292 O 310.547 1.50282 -1.17559 0
M  V30 3293 C 307.687 2.40971 -2.47037 0
M  V30 3294 C 306.8 2.18379 -3.7274 0
M  V30 3295 C 305.935 3.43008 -4.0561 0
M  V30 3296 C 304.974 3.15736 -5.24383 0
M  V30 3297 N 304.111 4.32667 -5.52941 0
M  V30 3298 H 308.951 0.702472 -2.89602 0
M  V30 3299 H 306.488 0.33531 -1.43227 0
M  V30 3300 H 308.446 3.1752 -2.70623 0
M  V30 3301 H 307.076 2.78379 -1.63417 0
M  V30 3302 H 306.128 1.32569 -3.56552 0
M  V30 3303 H 307.44 1.94227 -4.59431 0
M  V30 3304 H 306.594 4.27958 -4.30043 0
M  V30 3305 H 305.333 3.70225 -3.17466 0
M  V30 3306 H 304.338 2.2918 -4.99757 0
M  V30 3307 H 305.563 2.8985 -6.14136 0
M  V30 3308 H 303.509 4.59935 -4.67756 0
M  V30 3309 H 303.426 4.11753 -6.34031 0
M  V30 3310 H 304.694 5.18644 -5.81918 0
M  V30 3311 N 308.923 1.53595 0.353017 0
M  V30 3312 C 309.853 1.83902 1.43883 0
M  V30 3313 C 310.834 0.693421 1.55324 0
M  V30 3314 O 312.019 0.944452 1.69687 0
M  V30 3315 C 309.149 2.04016 2.8106 0
M  V30 3316 C 308.103 3.19814 2.84434 0
M  V30 3317 C 307.429 3.25244 4.24406 0
M  V30 3318 C 308.729 4.58133 2.50822 0
M  V30 3319 H 310.423 2.74835 1.1877 0
M  V30 3320 H 307.969 1.32242 0.569917 0
M  V30 3321 H 309.922 2.238 3.57059 0
M  V30 3322 H 308.646 1.09804 3.07588 0
M  V30 3323 H 307.305 2.9987 2.10887 0
M  V30 3324 H 306.953 2.28646 4.48029 0
M  V30 3325 H 306.653 4.03054 4.27576 0
M  V30 3326 H 308.177 3.47228 5.0226 0
M  V30 3327 H 309.591 4.77995 3.16534 0
M  V30 3328 H 307.988 5.38276 2.6529 0
M  V30 3329 H 309.058 4.62387 1.46034 0
M  V30 3330 N 310.401 -0.613514 1.45168 0
M  V30 3331 C 311.631 -1.39743 1.52169 0
M  V30 3332 C 312.039 -1.88596 0.151086 0
M  V30 3333 O 311.382 -1.6251 -0.856521 0
M  V30 3334 C 311.444 -2.64035 2.43979 0
M  V30 3335 C 311.108 -2.36861 3.90827 0
M  V30 3336 C 312.105 -1.97591 4.80889 0
M  V30 3337 C 309.79 -2.49956 4.35692 0
M  V30 3338 C 311.784 -1.71768 6.1382 0
M  V30 3339 C 309.471 -2.23747 5.68665 0
M  V30 3340 C 310.469 -1.84714 6.57548 0
M  V30 3341 O 310.157 -1.58809 7.88058 0
M  V30 3342 H 309.889 -0.434382 0.517966 0
M  V30 3343 H 312.443 -0.75587 1.90986 0
M  V30 3344 H 310.673 -3.3089 2.00122 0
M  V30 3345 H 312.362 -3.26069 2.41731 0
M  V30 3346 H 313.128 -1.87015 4.47493 0
M  V30 3347 H 309.007 -2.79305 3.66756 0
M  V30 3348 H 312.551 -1.41227 6.83155 0
M  V30 3349 H 308.448 -2.33938 6.01617 0
M  V30 3350 H 309.216 -1.7291 8.00028 0
M  V30 3351 N 311.879 -1.3236 -0.855495 0
M  V30 3352 C 313.125 -1.23054 -1.612 0
M  V30 3353 C 313.458 0.207404 -1.93089 0
M  V30 3354 O 312.733 1.14432 -1.57275 0
M  V30 3355 C 313.016 -2.08937 -2.93287 0
M  V30 3356 C 312.869 -3.61105 -2.68185 0
M  V30 3357 C 314.188 -1.94986 -3.94549 0
M  V30 3358 H 311.307 -0.448364 -0.584926 0
M  V30 3359 H 313.949 -1.62297 -0.987917 0
M  V30 3360 H 312.099 -1.75599 -3.46551 0
M  V30 3361 H 313.771 -4.04652 -2.21483 0
M  V30 3362 H 312.014 -3.83813 -2.02164 0
M  V30 3363 H 312.685 -4.16522 -3.62234 0
M  V30 3364 H 315.161 -2.24189 -3.5054 0
M  V30 3365 H 314.037 -2.57356 -4.84829 0
M  V30 3366 H 314.298 -0.917263 -4.3248 0
M  V30 3367 N 313.357 1.07166 -1.15556 0
M  V30 3368 C 314.305 2.16517 -0.8499 0
M  V30 3369 C 315.299 1.68468 0.177454 0
M  V30 3370 O 316.505 1.79971 0.0323026 0
M  V30 3371 H 312.88 0.706652 -0.25719 0
M  V30 3372 H 314.851 2.39514 -1.77976 0
M  V30 3373 C 313.6 3.45855 -0.357682 0
M  V30 3374 H 312.923 3.83214 -1.13961 0
M  V30 3375 H 314.363 4.23607 -0.182489 0
M  V30 3376 C 312.822 3.24062 0.921152 0
M  V30 3377 O 313.352 3.48813 1.9923 0
M  V30 3378 N 311.558 2.77539 0.86141 0
M  V30 3379 H 311.105 2.57598 -0.0104408 0
M  V30 3380 H 311.063 2.63337 1.71758 0
M  V30 3381 N 314.835 0.952656 1.25548 0
M  V30 3382 C 316.083 0.605176 1.92826 0
M  V30 3383 C 316.404 -0.860261 1.74999 0
M  V30 3384 O 315.674 -1.6125 1.11244 0
M  V30 3385 H 314.254 0.220832 0.713612 0
M  V30 3386 H 316.916 1.21047 1.52754 0
M  V30 3387 H 316.012 0.832798 3.00784 0
M  V30 3388 N 316.313 -1.40141 0.720998 0
M  V30 3389 C 317.276 -2.29058 0.0805834 0
M  V30 3390 C 318.276 -1.45632 -0.681758 0
M  V30 3391 O 319.466 -1.6648 -0.512856 0
M  V30 3392 C 316.598 -3.28925 -0.895593 0
M  V30 3393 H 317.791 -2.87191 0.863793 0
M  V30 3394 H 315.344 -1.48553 0.485975 0
M  V30 3395 H 316.079 -2.75822 -1.70566 0
M  V30 3396 H 315.864 -3.90519 -0.351766 0
M  V30 3397 H 317.354 -3.95494 -1.34069 0
M  V30 3398 N 317.792 -0.46758 -1.50504 0
M  V30 3399 C 318.724 0.364655 -2.26281 0
M  V30 3400 C 319.737 0.960151 -1.31472 0
M  V30 3401 O 320.926 0.849153 -1.57008 0
M  V30 3402 C 318.026 1.52509 -3.02645 0
M  V30 3403 C 317.199 1.04302 -4.24782 0
M  V30 3404 C 316.258 2.07709 -4.8347 0
M  V30 3405 O 315.284 1.65913 -5.44483 0
M  V30 3406 N 316.486 3.40485 -4.70159 0
M  V30 3407 H 319.251 -0.28495 -2.98342 0
M  V30 3408 H 316.812 -0.298163 -1.59131 0
M  V30 3409 H 318.804 2.21371 -3.38787 0
M  V30 3410 H 317.374 2.07945 -2.33404 0
M  V30 3411 H 316.594 0.180393 -3.93787 0
M  V30 3412 H 317.882 0.698798 -5.03978 0
M  V30 3413 H 317.28 3.77155 -4.21629 0
M  V30 3414 H 315.837 4.05156 -5.1058 0
M  V30 3415 N 319.27 1.56325 -0.20005 0
M  V30 3416 C 320.516 1.98012 0.438059 0
M  V30 3417 C 320.849 1.08702 1.60927 0
M  V30 3418 O 320.124 0.140064 1.93995 0
M  V30 3419 C 320.407 3.48841 0.893419 0
M  V30 3420 C 320.26 4.48928 -0.279947 0
M  V30 3421 C 321.579 4.03498 1.75719 0
M  V30 3422 H 318.698 0.719918 0.157757 0
M  V30 3423 H 321.34 1.87743 -0.291968 0
M  V30 3424 H 319.49 3.57723 1.51547 0
M  V30 3425 H 321.162 4.52079 -0.91772 0
M  V30 3426 H 319.405 4.23694 -0.930919 0
M  V30 3427 H 320.076 5.5194 0.0812601 0
M  V30 3428 H 322.552 3.97427 1.23253 0
M  V30 3429 H 321.428 5.09393 2.04476 0
M  V30 3430 H 321.689 3.4906 2.71311 0
M  V30 3431 N 320.748 -0.0735177 1.57428 0
M  V30 3432 C 321.711 -1.07192 2.02589 0
M  V30 3433 C 322.711 -1.31695 0.922661 0
M  V30 3434 O 323.901 -1.27445 1.18758 0
M  V30 3435 C 321.033 -2.41599 2.40506 0
M  V30 3436 H 322.226 -0.682727 2.92025 0
M  V30 3437 H 319.779 -0.319193 1.53006 0
M  V30 3438 H 320.514 -2.85354 1.5409 0
M  V30 3439 H 320.299 -2.25156 3.21009 0
M  V30 3440 H 321.789 -3.13367 2.76027 0
M  V30 3441 N 322.226 -1.5378 -0.344866 0
M  V30 3442 C 323.454 -1.74899 -1.10534 0
M  V30 3443 C 323.869 -0.487534 -1.82397 0
M  V30 3444 O 323.226 0.540741 -1.74305 0
M  V30 3445 C 323.277 -2.92822 -2.11984 0
M  V30 3446 O 322.998 -4.14089 -1.43044 0
M  V30 3447 C 324.499 -3.25982 -3.00417 0
M  V30 3448 H 321.719 -0.584426 -0.329678 0
M  V30 3449 H 324.263 -2.006 -0.397474 0
M  V30 3450 H 322.418 -2.69457 -2.78338 0
M  V30 3451 H 322.832 -4.80272 -2.10805 0
M  V30 3452 H 324.306 -4.11848 -3.67539 0
M  V30 3453 H 324.783 -2.42228 -3.66363 0
M  V30 3454 H 325.389 -3.51349 -2.39654 0
M  V30 3455 N 323.704 0.605807 -1.45491 0
M  V30 3456 C 324.929 1.39625 -1.53361 0
M  V30 3457 C 325.354 1.87351 -0.167645 0
M  V30 3458 O 324.712 1.60243 0.848051 0
M  V30 3459 C 324.76 2.57559 -2.5238 0
M  V30 3460 O 323.864 3.58248 -2.04285 0
M  V30 3461 H 323.205 0.416771 -0.516912 0
M  V30 3462 H 325.735 0.737103 -1.90861 0
M  V30 3463 H 325.745 3.0478 -2.71244 0
M  V30 3464 H 324.42 2.22171 -3.51586 0
M  V30 3465 H 322.997 3.17664 -1.95305 0
M  V30 3466 N 325.182 1.32811 0.848464 0
M  V30 3467 C 326.43 1.23479 1.59991 0
M  V30 3468 C 326.751 -0.201853 1.93952 0
M  V30 3469 O 326.021 -1.12818 1.60153 0
M  V30 3470 H 324.601 0.454034 0.593179 0
M  V30 3471 H 327.263 1.66412 1.01455 0
M  V30 3472 H 326.359 1.82178 2.53412 0
M  V30 3473 N 326.66 -1.06551 1.16123 0
M  V30 3474 C 327.57 -2.17484 0.879662 0
M  V30 3475 C 328.586 -1.73377 -0.147104 0
M  V30 3476 O 329.762 -2.01379 0.0289128 0
M  V30 3477 C 326.827 -3.44591 0.381829 0
M  V30 3478 C 325.888 -4.0322 1.4735 0
M  V30 3479 C 325.121 -5.24261 0.999324 0
M  V30 3480 O 325.344 -5.70198 -0.151957 0
M  V30 3481 O 324.278 -5.74775 1.78653 0
M  V30 3482 H 328.104 -2.44075 1.80724 0
M  V30 3483 H 325.689 -1.16042 0.940992 0
M  V30 3484 H 327.571 -4.21254 0.111053 0
M  V30 3485 H 326.246 -3.19532 -0.51777 0
M  V30 3486 H 325.153 -3.2806 1.79798 0
M  V30 3487 H 326.486 -4.32568 2.34831 0
M  V30 3488 N 328.138 -0.959301 -1.25041 0
M  V30 3489 C 329.07 -0.440543 -2.24926 0
M  V30 3490 C 330.083 0.446131 -1.56568 0
M  V30 3491 O 331.272 0.253657 -1.76689 0
M  V30 3492 C 328.372 0.38412 -3.36716 0
M  V30 3493 C 327.545 -0.490658 -4.34639 0
M  V30 3494 C 326.604 0.276587 -5.25473 0
M  V30 3495 O 325.63 -0.326614 -5.68262 0
M  V30 3496 N 326.832 1.56844 -5.5891 0
M  V30 3497 H 329.597 -1.29931 -2.70071 0
M  V30 3498 H 327.158 -0.830181 -1.38995 0
M  V30 3499 H 329.15 0.905228 -3.94446 0
M  V30 3500 H 327.72 1.14377 -2.90924 0
M  V30 3501 H 326.94 -1.19282 -3.7572 0
M  V30 3502 H 328.228 -1.08756 -4.97041 0
M  V30 3503 H 327.626 2.08036 -5.26059 0
M  V30 3504 H 326.183 2.03541 -6.19205 0
M  V30 3505 N 329.616 1.39756 -0.72842 0
M  V30 3506 C 330.862 2.00942 -0.273892 0
M  V30 3507 C 331.195 1.57656 1.13394 0
M  V30 3508 O 330.47 0.802434 1.77176 0
M  V30 3509 C 330.753 3.58211 -0.368346 0
M  V30 3510 C 330.606 4.11534 -1.81548 0
M  V30 3511 C 331.925 4.39372 0.253054 0
M  V30 3512 H 329.044 0.730047 -0.100996 0
M  V30 3513 H 331.686 1.66056 -0.923337 0
M  V30 3514 H 329.836 3.88061 0.184588 0
M  V30 3515 H 331.508 3.92431 -2.42478 0
M  V30 3516 H 329.751 3.65341 -2.33898 0
M  V30 3517 H 330.422 5.20682 -1.83288 0
M  V30 3518 H 332.898 4.15527 -0.218224 0
M  V30 3519 H 331.774 5.48677 0.156585 0
M  V30 3520 H 332.035 4.21358 1.33826 0
M  V30 3521 N 331.094 0.475555 1.50254 0
M  V30 3522 C 332.342 -0.077738 2.0195 0
M  V30 3523 C 332.663 -1.39813 1.35931 0
M  V30 3524 O 331.933 -1.89249 0.506123 0
M  V30 3525 H 330.513 -0.031719 0.746326 0
M  V30 3526 H 333.175 0.626995 1.84539 0
M  V30 3527 H 332.271 -0.225995 3.11281 0
M  V30 3528 N 332.573 -1.56217 0.208337 0
M  V30 3529 C 333.821 -1.97558 -0.426076 0
M  V30 3530 C 334.142 -1.09683 -1.61229 0
M  V30 3531 O 333.412 -0.170956 -1.95153 0
M  V30 3532 H 331.992 -0.729575 -0.160405 0
M  V30 3533 H 334.654 -1.92606 0.298155 0
M  V30 3534 H 333.75 -3.02672 -0.761312 0
M  V30 3535 N 334.051 0.0651679 -1.57465 0
M  V30 3536 C 335.3 0.761916 -1.86756 0
M  V30 3537 C 335.613 1.78406 -0.801925 0
M  V30 3538 O 336.819 2.53084 -0.982885 0
M  V30 3539 C 335.275 1.40603 -3.31299 0
M  V30 3540 C 334.883 0.422115 -4.46007 0
M  V30 3541 C 336.627 2.08476 -3.69781 0
M  V30 3542 C 334.534 1.07252 -5.81593 0
M  V30 3543 H 333.464 0.288308 -0.696702 0
M  V30 3544 H 336.115 0.015344 -1.83494 0
M  V30 3545 H 334.497 2.20109 -3.29193 0
M  V30 3546 H 335.671 -0.343613 -4.59517 0
M  V30 3547 H 333.986 -0.152527 -4.16121 0
M  V30 3548 H 336.583 2.57925 -4.68379 0
M  V30 3549 H 336.926 2.88712 -2.99919 0
M  V30 3550 H 337.459 1.35792 -3.73905 0
M  V30 3551 H 334.198 0.310342 -6.54765 0
M  V30 3552 H 333.718 1.80895 -5.71872 0
M  V30 3553 H 335.397 1.59043 -6.27148 0
M  V30 3554 N 335.529 1.53961 0.336706 0
M  V30 3555 C 336.776 1.71536 1.07618 0
M  V30 3556 C 337.104 0.482125 1.8843 0
M  V30 3557 O 336.359 -0.536142 1.88213 0
M  V30 3558 C 336.658 2.93493 2.03953 0
M  V30 3559 C 336.324 4.28811 1.39399 0
M  V30 3560 C 334.986 4.65602 1.21523 0
M  V30 3561 C 337.338 5.12844 0.929541 0
M  V30 3562 C 334.666 5.84037 0.558312 0
M  V30 3563 C 337.018 6.31951 0.286505 0
M  V30 3564 C 335.682 6.67432 0.0954869 0
M  V30 3565 H 334.952 0.627696 0.393801 0
M  V30 3566 H 337.599 1.88186 0.354715 0
M  V30 3567 H 335.904 2.71475 2.82504 0
M  V30 3568 H 337.601 3.04285 2.61174 0
M  V30 3569 H 334.191 3.99858 1.54311 0
M  V30 3570 H 338.375 4.84947 1.05548 0
M  V30 3571 H 333.631 6.10097 0.398995 0
M  V30 3572 H 337.805 6.96352 -0.0814376 0
M  V30 3573 H 335.432 7.59063 -0.415579 0
M  V30 3574 N 337.007 -0.598083 1.45811 0
M  V30 3575 C 338.232 -1.3881 1.54099 0
M  V30 3576 C 338.657 -1.8726 0.177578 0
M  V30 3577 O 338.015 -1.6069 -0.839541 0
M  V30 3578 C 338.063 -2.56217 2.53743 0
M  V30 3579 O 337.167 -3.5716 2.06182 0
M  V30 3580 H 336.508 -0.414024 0.519115 0
M  V30 3581 H 339.038 -0.726971 1.91249 0
M  V30 3582 H 339.048 -3.03337 2.72856 0
M  V30 3583 H 337.723 -2.20303 3.5276 0
M  V30 3584 H 336.3 -3.16624 1.96987 0
M  V30 3585 N 338.485 -1.33259 -0.841409 0
M  V30 3586 C 339.896 -1.22066 -1.41269 0
M  V30 3587 C 340.247 0.161479 -1.95534 0
M  V30 3588 O 339.372 1.06094 -1.88608 0
M  V30 3589 C 339.967 -2.20996 -2.568 0
M  V30 3590 C 338.526 -2.13649 -3.09888 0
M  V30 3591 C 337.673 -2.08623 -1.82679 0
M  V30 3592 H 340.624 -1.44895 -0.647395 0
M  V30 3593 H 340.645 -1.81621 -3.34356 0
M  V30 3594 H 340.157 -3.2158 -2.17274 0
M  V30 3595 H 338.258 -1.16359 -3.53965 0
M  V30 3596 H 338.371 -3.04079 -3.70234 0
M  V30 3597 H 336.735 -1.54061 -2.02824 0
M  V30 3598 H 337.518 -3.1101 -1.45353 0
M  V30 3599 N 339.963 1.05934 -1.16686 0
M  V30 3600 C 340.893 2.1546 -0.899949 0
M  V30 3601 C 341.874 1.69391 0.155154 0
M  V30 3602 O 343.059 1.94199 0.00648693 0
M  V30 3603 C 340.189 3.44939 -0.404241 0
M  V30 3604 C 339.143 4.04536 -1.39767 0
M  V30 3605 C 338.469 5.29268 -0.760216 0
M  V30 3606 C 339.769 4.42893 -2.76845 0
M  V30 3607 H 341.463 2.38046 -1.81588 0
M  V30 3608 H 339.009 1.14404 -0.874514 0
M  V30 3609 H 340.962 4.20901 -0.204971 0
M  V30 3610 H 339.686 3.21983 0.547206 0
M  V30 3611 H 338.345 3.30635 -1.58355 0
M  V30 3612 H 337.993 5.02611 0.197831 0
M  V30 3613 H 337.693 5.70101 -1.42332 0
M  V30 3614 H 339.217 6.07924 -0.57105 0
M  V30 3615 H 340.631 5.09921 -2.62019 0
M  V30 3616 H 339.028 4.94721 -3.39663 0
M  V30 3617 H 340.098 3.53584 -3.31823 0
M  V30 3618 N 341.441 0.965919 1.2453 0
M  V30 3619 C 342.669 0.644385 1.96609 0
M  V30 3620 C 343.084 -0.785823 1.71669 0
M  V30 3621 O 342.441 -1.52703 0.999399 0
M  V30 3622 C 342.492 0.907375 3.49927 0
M  V30 3623 O 342.213 2.28136 3.74013 0
M  V30 3624 C 343.714 0.599784 4.39224 0
M  V30 3625 H 340.934 0.240588 0.626385 0
M  V30 3626 H 343.478 1.29337 1.58405 0
M  V30 3627 H 341.633 0.304631 3.862 0
M  V30 3628 H 342.047 2.36002 4.68405 0
M  V30 3629 H 343.521 0.834263 5.45659 0
M  V30 3630 H 343.998 -0.465921 4.36722 0
M  V30 3631 H 344.604 1.18235 4.08535 0
M  V30 3632 N 342.919 -1.39368 0.735821 0
M  V30 3633 C 343.851 -2.2913 0.0567723 0
M  V30 3634 C 344.864 -1.46859 -0.702589 0
M  V30 3635 O 346.053 -1.69925 -0.546616 0
M  V30 3636 C 343.153 -3.25492 -0.943823 0
M  V30 3637 C 342.326 -4.36709 -0.24581 0
M  V30 3638 C 341.385 -5.13376 -1.15463 0
M  V30 3639 O 340.411 -5.65683 -0.631803 0
M  V30 3640 N 341.613 -5.24656 -2.48427 0
M  V30 3641 H 344.378 -2.88047 0.827582 0
M  V30 3642 H 341.939 -1.50957 0.585112 0
M  V30 3643 H 343.931 -3.73657 -1.55443 0
M  V30 3644 H 342.501 -2.676 -1.61583 0
M  V30 3645 H 341.721 -3.9041 0.545286 0
M  V30 3646 H 343.009 -5.08244 0.237891 0
M  V30 3647 H 342.407 -4.83679 -2.93379 0
M  V30 3648 H 340.964 -5.76258 -3.04582 0
M  V30 3649 N 344.397 -0.483516 -1.5 0
M  V30 3650 C 345.344 0.304164 -2.28787 0
M  V30 3651 C 346.314 0.976114 -1.34392 0
M  V30 3652 O 347.499 0.986156 -1.63339 0
M  V30 3653 C 344.639 1.37298 -3.16612 0
M  V30 3654 C 343.752 0.714561 -4.26049 0
M  V30 3655 C 342.887 1.76232 -5.01114 0
M  V30 3656 C 341.926 1.08483 -6.0241 0
M  V30 3657 N 341.063 2.076 -6.70706 0
M  V30 3658 H 345.903 -0.373981 -2.95644 0
M  V30 3659 H 343.44 -0.196275 -1.45785 0
M  V30 3660 H 345.398 2.00445 -3.65893 0
M  V30 3661 H 344.028 2.02012 -2.51776 0
M  V30 3662 H 343.08 -0.0297798 -3.80388 0
M  V30 3663 H 344.392 0.180383 -4.98474 0
M  V30 3664 H 343.546 2.46929 -5.54176 0
M  V30 3665 H 342.285 2.33033 -4.28424 0
M  V30 3666 H 341.29 0.363545 -5.48597 0
M  V30 3667 H 342.515 0.523551 -6.77079 0
M  V30 3668 H 340.461 2.63394 -6.00799 0
M  V30 3669 H 340.378 1.59201 -7.39047 0
M  V30 3670 H 341.646 2.77639 -7.2838 0
M  V30 3671 N 345.875 1.56104 -0.216619 0
M  V30 3672 C 347.115 2.00074 0.418322 0
M  V30 3673 C 347.479 1.10098 1.57297 0
M  V30 3674 O 348.68 1.43393 2.27359 0
M  V30 3675 C 346.951 3.47231 0.846477 0
M  V30 3676 S 348.51 4.13223 1.47622 0
M  V30 3677 H 345.328 0.698457 0.132962 0
M  V30 3678 H 347.93 1.92784 -0.324748 0
M  V30 3679 H 346.634 4.104 -0.0036319 0
M  V30 3680 H 346.165 3.58384 1.62248 0
M  V30 3681 H 348.18 4.12005 2.76526 0
M  V30 3682 N 347.353 -0.0568162 1.57498 0
M  V30 3683 C 348.3 -1.06591 2.04712 0
M  V30 3684 C 349.27 -1.3758 0.930644 0
M  V30 3685 O 350.455 -1.48392 1.19935 0
M  V30 3686 C 347.595 -2.3701 2.50839 0
M  V30 3687 C 346.708 -2.12421 3.76167 0
M  V30 3688 C 345.843 -3.36511 4.11015 0
M  V30 3689 C 344.882 -3.07353 5.2934 0
M  V30 3690 N 344.019 -4.23816 5.59754 0
M  V30 3691 H 348.859 -0.65631 2.90683 0
M  V30 3692 H 346.396 -0.312481 1.43743 0
M  V30 3693 H 348.354 -3.13175 2.7564 0
M  V30 3694 H 346.984 -2.75744 1.67825 0
M  V30 3695 H 346.036 -1.2688 3.58616 0
M  V30 3696 H 347.348 -1.86894 4.62463 0
M  V30 3697 H 346.502 -4.21062 4.36797 0
M  V30 3698 H 345.241 -3.65128 3.23315 0
M  V30 3699 H 344.246 -2.212 5.03339 0
M  V30 3700 H 345.471 -2.80043 6.1867 0
M  V30 3701 H 343.417 -4.52436 4.75014 0
M  V30 3702 H 343.334 -4.01614 6.40501 0
M  V30 3703 H 344.602 -5.0932 5.90096 0
M  V30 3704 N 348.832 -1.54138 -0.328536 0
M  V30 3705 C 350.078 -1.7236 -1.06865 0
M  V30 3706 C 350.411 -0.493231 -1.87832 0
M  V30 3707 O 349.686 0.5098 -1.877 0
M  V30 3708 C 349.969 -2.99621 -1.99747 0
M  V30 3709 C 349.822 -4.32899 -1.22143 0
M  V30 3710 C 351.141 -3.22615 -2.99345 0
M  V30 3711 H 348.26 -0.627151 -0.387105 0
M  V30 3712 H 350.902 -1.86827 -0.345767 0
M  V30 3713 H 349.052 -2.87418 -2.61387 0
M  V30 3714 H 350.724 -4.56978 -0.630017 0
M  V30 3715 H 348.967 -4.30628 -0.523628 0
M  V30 3716 H 349.638 -5.18154 -1.90318 0
M  V30 3717 H 352.114 -3.34248 -2.47826 0
M  V30 3718 H 350.99 -4.13027 -3.61524 0
M  V30 3719 H 351.251 -2.3961 -3.71536 0
M  V30 3720 N 350.31 0.590341 -1.46126 0
M  V30 3721 C 351.24 1.71032 -1.58966 0
M  V30 3722 C 352.221 1.64302 -0.440335 0
M  V30 3723 O 353.406 1.82436 -0.665634 0
M  V30 3724 C 350.536 3.09665 -1.57241 0
M  V30 3725 C 349.49 3.31221 -2.71066 0
M  V30 3726 C 348.816 4.70303 -2.54399 0
M  V30 3727 C 350.116 3.19796 -4.1295 0
M  V30 3728 H 351.81 1.60543 -2.52718 0
M  V30 3729 H 349.356 0.770933 -1.21625 0
M  V30 3730 H 351.309 3.87831 -1.64819 0
M  V30 3731 H 350.033 3.21036 -0.600289 0
M  V30 3732 H 348.692 2.55452 -2.62944 0
M  V30 3733 H 348.34 4.78429 -1.55288 0
M  V30 3734 H 348.04 4.85679 -3.30741 0
M  V30 3735 H 349.564 5.50647 -2.63857 0
M  V30 3736 H 350.978 3.87815 -4.22223 0
M  V30 3737 H 349.375 3.46696 -4.89818 0
M  V30 3738 H 350.445 2.16983 -4.33643 0
M  V30 3739 N 351.788 1.33704 0.83433 0
M  V30 3740 C 352.721 1.18675 1.94914 0
M  V30 3741 C 353.699 0.0811145 1.62398 0
M  V30 3742 O 354.883 0.244186 1.86912 0
M  V30 3743 C 352.01 0.821231 3.28593 0
M  V30 3744 C 351.056 1.93501 3.80079 0
M  V30 3745 S 351.889 3.54671 4.01209 0
M  V30 3746 C 353.045 3.20136 5.37833 0
M  V30 3747 H 353.278 2.13043 2.07364 0
M  V30 3748 H 350.811 1.18598 0.988624 0
M  V30 3749 H 352.769 0.617123 4.05835 0
M  V30 3750 H 351.43 -0.103927 3.13928 0
M  V30 3751 H 350.623 1.63273 4.76821 0
M  V30 3752 H 350.225 2.09601 3.09747 0
M  V30 3753 H 352.517 2.71242 6.20833 0
M  V30 3754 H 353.46 4.15975 5.73036 0
M  V30 3755 H 353.868 2.56613 5.02802 0
M  V30 3756 N 353.266 -1.05314 1.17247 0
M  V30 3757 C 354.196 -2.1498 0.911362 0
M  V30 3758 C 355.177 -1.69471 -0.146169 0
M  V30 3759 O 356.362 -1.942 0.003812 0
M  V30 3760 C 353.492 -3.4472 0.422528 0
M  V30 3761 C 352.446 -4.03789 1.4191 0
M  V30 3762 C 351.772 -5.28858 0.788274 0
M  V30 3763 C 353.072 -4.41418 2.7919 0
M  V30 3764 H 354.766 -2.3708 1.82848 0
M  V30 3765 H 352.312 -1.13938 0.880569 0
M  V30 3766 H 354.265 -4.20787 0.227289 0
M  V30 3767 H 352.989 -3.22269 -0.530123 0
M  V30 3768 H 351.648 -3.2979 1.60106 0
M  V30 3769 H 351.296 -5.02709 -0.171173 0
M  V30 3770 H 350.996 -5.69338 1.45353 0
M  V30 3771 H 352.52 -6.07612 0.603282 0
M  V30 3772 H 353.934 -5.08524 2.64719 0
M  V30 3773 H 352.331 -4.92913 3.42282 0
M  V30 3774 H 353.401 -3.51819 3.33693 0
M  V30 3775 N 354.744 -0.972509 -1.24016 0
M  V30 3776 C 355.992 -0.635776 -1.91839 0
M  V30 3777 C 356.313 0.832312 -1.76345 0
M  V30 3778 O 355.583 1.5946 -1.13795 0
M  V30 3779 H 354.163 -0.232157 -0.710009 0
M  V30 3780 H 356.825 -1.23462 -1.50809 0
M  V30 3781 H 355.921 -0.880545 -2.99421 0
M  V30 3782 N 356.222 1.38976 -0.743202 0
M  V30 3783 C 357.47 1.99948 -0.29417 0
M  V30 3784 C 357.791 1.59279 1.12495 0
M  V30 3785 O 357.061 0.844808 1.76748 0
M  V30 3786 H 355.641 0.739473 -0.105774 0
M  V30 3787 H 358.303 1.699 -0.954986 0
M  V30 3788 H 357.399 3.10142 -0.349056 0
M  V30 3789 N 357.7 0.491464 1.49741 0
M  V30 3790 C 358.925 -0.0557177 2.07325 0
M  V30 3791 C 359.35 -1.30925 1.35056 0
M  V30 3792 O 358.708 -1.76733 0.404365 0
M  V30 3793 C 358.756 -0.302074 3.59333 0
M  V30 3794 O 357.86 -1.37868 3.88672 0
M  V30 3795 H 357.201 0.0219956 0.663636 0
M  V30 3796 H 359.731 0.688352 1.92673 0
M  V30 3797 H 359.741 -0.536464 4.04458 0
M  V30 3798 H 358.416 0.61383 4.11345 0
M  V30 3799 H 356.993 -1.12999 3.55367 0
M  V30 3800 N 359.178 -1.55987 0.224894 0
M  V30 3801 C 360.141 -2.19178 -0.670348 0
M  V30 3802 C 361.141 -1.15461 -1.11917 0
M  V30 3803 O 362.331 -1.40675 -1.02743 0
M  V30 3804 C 359.463 -2.81777 -1.9187 0
M  V30 3805 H 360.656 -2.99662 -0.119364 0
M  V30 3806 H 358.209 -1.5628 -0.0247128 0
M  V30 3807 H 358.944 -2.05172 -2.51147 0
M  V30 3808 H 358.729 -3.57732 -1.60531 0
M  V30 3809 H 360.219 -3.30205 -2.55645 0
M  V30 3810 N 360.656 0.0484629 -1.57525 0
M  V30 3811 C 361.586 1.0549 -2.08313 0
M  V30 3812 C 362.567 1.38929 -0.981463 0
M  V30 3813 O 363.752 1.48151 -1.25558 0
M  V30 3814 C 360.882 2.36162 -2.54646 0
M  V30 3815 C 359.836 2.17016 -3.68901 0
M  V30 3816 C 359.162 3.53278 -4.01371 0
M  V30 3817 C 360.462 1.57219 -4.98076 0
M  V30 3818 H 362.156 0.632195 -2.92649 0
M  V30 3819 H 359.702 0.302654 -1.40784 0
M  V30 3820 H 361.655 3.06882 -2.88793 0
M  V30 3821 H 360.379 2.80456 -1.67368 0
M  V30 3822 H 359.038 1.48733 -3.35073 0
M  V30 3823 H 358.686 3.95185 -3.11188 0
M  V30 3824 H 358.386 3.41299 -4.78318 0
M  V30 3825 H 359.91 4.25391 -4.38035 0
M  V30 3826 H 361.324 2.17832 -5.30304 0
M  V30 3827 H 359.721 1.55871 -5.79503 0
M  V30 3828 H 360.791 0.535956 -4.81929 0
M  V30 3829 N 362.134 1.5431 0.320358 0
M  V30 3830 C 363.082 1.84647 1.4145 0
M  V30 3831 C 364.076 0.718624 1.53402 0
M  V30 3832 O 365.282 0.902335 1.5575 0
M  V30 3833 H 361.657 0.585349 0.472091 0
M  V30 3834 H 363.628 2.7614 1.13089 0
M  V30 3835 C 362.377 2.09341 2.77617 0
M  V30 3836 H 361.7 2.9559 2.69196 0
M  V30 3837 H 363.14 2.3452 3.53237 0
M  V30 3838 C 361.599 0.885939 3.25043 0
M  V30 3839 O 362.129 0.0967891 4.01583 0
M  V30 3840 N 360.335 0.696682 2.82125 0
M  V30 3841 H 359.882 1.34006 2.2 0
M  V30 3842 H 359.84 -0.109712 3.14209 0
M  V30 3843 N 363.613 -0.582584 1.46437 0
M  V30 3844 C 364.563 -1.68654 1.53426 0
M  V30 3845 C 365.547 -1.55971 0.395194 0
M  V30 3846 O 366.739 -1.64884 0.643612 0
M  V30 3847 C 363.868 -3.07439 1.52762 0
M  V30 3848 C 362.954 -3.25418 2.71963 0
M  V30 3849 N 363.345 -3.13556 3.96883 0
M  V30 3850 C 361.643 -3.56357 2.68189 0
M  V30 3851 C 362.344 -3.33543 4.76575 0
M  V30 3852 N 361.32 -3.58704 4.08451 0
M  V30 3853 H 365.122 -1.58014 2.47808 0
M  V30 3854 H 362.636 -0.786617 1.42078 0
M  V30 3855 H 364.633 -3.86671 1.55857 0
M  V30 3856 H 363.293 -3.1921 0.594573 0
M  V30 3857 H 364.304 -2.9142 4.28129 0
M  V30 3858 H 360.981 -3.74812 1.83908 0
M  V30 3859 H 362.371 -3.29555 5.85528 0
M  V30 3860 N 365.091 -1.34144 -0.827227 0
M  V30 3861 C 366.039 -1.25364 -1.95925 0
M  V30 3862 C 367.033 -0.152608 -1.68711 0
M  V30 3863 O 368.239 -0.317311 -1.77181 0
M  V30 3864 H 364.614 -0.389342 -0.643364 0
M  V30 3865 H 366.585 -2.21045 -2.00454 0
M  V30 3866 C 365.334 -1.02158 -3.32354 0
M  V30 3867 H 364.657 -1.86111 -3.5384 0
M  V30 3868 H 366.097 -1.00048 -4.12027 0
M  V30 3869 C 364.556 0.275244 -3.35774 0
M  V30 3870 O 365.086 1.27806 -3.80826 0
M  V30 3871 N 363.292 0.306853 -2.88975 0
M  V30 3872 H 362.839 -0.509777 -2.52506 0
M  V30 3873 H 362.797 1.17432 -2.91646 0
M  V30 3874 N 366.569 1.04691 -1.17803 0
M  V30 3875 C 367.799 1.81183 -0.992788 0
M  V30 3876 C 368.207 1.8347 0.462098 0
M  V30 3877 O 367.55 1.2643 1.33271 0
M  V30 3878 C 367.612 3.28363 -1.46349 0
M  V30 3879 C 367.276 3.49749 -2.94151 0
M  V30 3880 C 368.273 3.41456 -3.92051 0
M  V30 3881 C 365.958 3.76548 -3.32441 0
M  V30 3882 C 367.952 3.59656 -5.26238 0
M  V30 3883 C 365.639 3.94396 -4.66792 0
M  V30 3884 C 366.637 3.8595 -5.635 0
M  V30 3885 O 366.325 4.03294 -6.9542 0
M  V30 3886 H 366.057 0.577622 -0.351182 0
M  V30 3887 H 368.611 1.32876 -1.5663 0
M  V30 3888 H 366.841 3.77609 -0.833574 0
M  V30 3889 H 368.53 3.86395 -1.24313 0
M  V30 3890 H 369.296 3.20723 -3.63815 0
M  V30 3891 H 365.175 3.82224 -2.57732 0
M  V30 3892 H 368.719 3.52979 -6.01707 0
M  V30 3893 H 364.616 4.14622 -4.94731 0
M  V30 3894 H 365.384 4.2049 -7.02232 0
M  V30 3895 N 368.047 0.979072 1.23499 0
M  V30 3896 C 369.463 0.687475 1.44034 0
M  V30 3897 C 369.663 -0.746801 1.8715 0
M  V30 3898 O 368.719 -1.51939 2.0167 0
M  V30 3899 C 370.032 1.68127 2.49307 0
M  V30 3900 C 371.58 1.69516 2.63122 0
M  V30 3901 C 372.055 2.67723 3.71603 0
M  V30 3902 N 373.546 2.66233 3.79044 0
M  V30 3903 C 374.281 3.38891 4.62537 0
M  V30 3904 N 373.777 4.21103 5.50131 0
M  V30 3905 N 375.57 3.27661 4.56721 0
M  V30 3906 H 367.721 1.90559 0.938135 0
M  V30 3907 H 369.984 0.821051 0.473897 0
M  V30 3908 H 369.69 2.70693 2.2454 0
M  V30 3909 H 369.564 1.46306 3.4767 0
M  V30 3910 H 371.951 0.676561 2.8724 0
M  V30 3911 H 372.032 1.95404 1.65079 0
M  V30 3912 H 371.676 3.69724 3.48233 0
M  V30 3913 H 371.606 2.39111 4.69184 0
M  V30 3914 H 374.097 2.06568 3.16446 0
M  V30 3915 H 374.41 4.73403 6.10827 0
M  V30 3916 H 372.755 4.25195 5.49759 0
M  V30 3917 H 375.946 2.62887 3.87309 0
M  V30 3918 H 376.119 3.84547 5.21562 0
M  V30 3919 N 369.525 -1.3858 0.750561 0
M  V30 3920 C 370.773 -1.99789 0.30477 0
M  V30 3921 C 371.094 -1.59874 -1.11649 0
M  V30 3922 O 370.364 -0.85417 -1.76297 0
M  V30 3923 H 368.944 -0.738902 0.109694 0
M  V30 3924 H 371.606 -1.69391 0.963983 0
M  V30 3925 H 370.702 -3.09952 0.365499 0
M  V30 3926 N 371.003 -0.499398 -1.49478 0
M  V30 3927 C 372.233 0.0424839 -2.06556 0
M  V30 3928 C 372.641 1.31514 -1.36018 0
M  V30 3929 O 371.984 1.78555 -0.431718 0
M  V30 3930 C 372.046 0.368074 -3.57611 0
M  V30 3931 C 371.71 -0.806631 -4.49825 0
M  V30 3932 C 372.707 -1.69667 -4.91436 0
M  V30 3933 C 370.392 -1.00498 -4.92144 0
M  V30 3934 C 372.386 -2.76923 -5.74101 0
M  V30 3935 C 370.073 -2.08072 -5.74586 0
M  V30 3936 C 371.071 -2.96119 -6.15469 0
M  V30 3937 O 370.759 -4.01836 -6.96264 0
M  V30 3938 H 370.491 -0.0165165 -0.675798 0
M  V30 3939 H 373.045 -0.695497 -1.93267 0
M  V30 3940 H 371.275 1.15963 -3.68903 0
M  V30 3941 H 372.964 0.848381 -3.96935 0
M  V30 3942 H 373.73 -1.55524 -4.59388 0
M  V30 3943 H 369.609 -0.329036 -4.59824 0
M  V30 3944 H 373.153 -3.45676 -6.05932 0
M  V30 3945 H 369.05 -2.22211 -6.06047 0
M  V30 3946 H 369.818 -3.9917 -7.14567 0
M  V30 3947 N 372.481 1.55866 -0.233164 0
M  V30 3948 C 373.73 1.97779 0.39579 0
M  V30 3949 C 374.043 1.12419 1.60066 0
M  V30 3950 O 375.249 1.44283 2.29988 0
M  V30 3951 C 373.705 3.5188 0.755556 0
M  V30 3952 C 373.313 4.45959 -0.427152 0
M  V30 3953 C 375.057 4.02479 1.34946 0
M  V30 3954 C 372.964 5.91383 -0.0443043 0
M  V30 3955 H 371.894 0.738592 0.15165 0
M  V30 3956 H 374.545 1.80486 -0.331212 0
M  V30 3957 H 372.927 3.64816 1.5403 0
M  V30 3958 H 374.101 4.44776 -1.20462 0
M  V30 3959 H 372.416 4.05765 -0.935068 0
M  V30 3960 H 375.013 5.08637 1.649 0
M  V30 3961 H 375.356 3.49014 2.26925 0
M  V30 3962 H 375.889 3.92813 0.62791 0
M  V30 3963 H 372.628 6.48857 -0.930874 0
M  V30 3964 H 372.148 5.95734 0.697238 0
M  V30 3965 H 373.827 6.45893 0.378334 0
M  V30 3966 N 373.959 -0.0401083 1.57549 0
M  V30 3967 C 374.869 -1.06133 2.0922 0
M  V30 3968 C 375.885 -1.40356 1.0284 0
M  V30 3969 O 377.061 -1.49897 1.34509 0
M  V30 3970 C 374.126 -2.34658 2.55218 0
M  V30 3971 C 373.187 -2.07117 3.76033 0
M  V30 3972 C 372.42 -3.29514 4.19829 0
M  V30 3973 O 372.643 -4.39794 3.63232 0
M  V30 3974 O 371.577 -3.15863 5.12362 0
M  V30 3975 H 375.403 -0.652244 2.96613 0
M  V30 3976 H 372.988 -0.256368 1.47184 0
M  V30 3977 H 374.87 -3.10239 2.85184 0
M  V30 3978 H 373.545 -2.74883 1.70941 0
M  V30 3979 H 372.452 -1.29139 3.51104 0
M  V30 3980 H 373.785 -1.71754 4.61261 0
M  V30 3981 N 375.437 -1.54477 -0.31217 0
M  V30 3982 C 376.387 -1.81037 -1.38598 0
M  V30 3983 C 377.371 -0.666941 -1.46426 0
M  V30 3984 O 378.563 -0.927269 -1.50767 0
M  V30 3985 C 375.692 -2.05127 -2.75277 0
M  V30 3986 C 374.778 -3.25624 -2.71716 0
M  V30 3987 N 375.169 -4.46428 -2.37773 0
M  V30 3988 C 373.467 -3.27427 -3.02833 0
M  V30 3989 C 374.168 -5.28406 -2.43232 0
M  V30 3990 N 373.144 -4.6586 -2.80135 0
M  V30 3991 H 376.946 -2.7201 -1.11301 0
M  V30 3992 H 374.46 -1.53826 -0.520705 0
M  V30 3993 H 376.457 -2.22299 -3.52688 0
M  V30 3994 H 375.117 -1.15416 -3.03495 0
M  V30 3995 H 376.128 -4.73227 -2.1042 0
M  V30 3996 H 372.805 -2.47786 -3.36018 0
M  V30 3997 H 374.195 -6.34903 -2.19882 0
M  V30 3998 N 376.915 0.57481 -1.46744 0
M  V30 3999 C 378.162 1.33272 -1.52462 0
M  V30 4000 C 378.49 1.93669 -0.179572 0
M  V30 4001 O 377.745 1.7743 0.825664 0
M  V30 4002 C 378.044 2.476 -2.57738 0
M  V30 4003 C 377.71 2.05146 -4.01529 0
M  V30 4004 C 376.372 1.93284 -4.40676 0
M  V30 4005 C 378.724 1.72506 -4.91824 0
M  V30 4006 C 376.052 1.47049 -5.67973 0
M  V30 4007 C 378.404 1.27748 -6.19567 0
M  V30 4008 C 377.068 1.14468 -6.57612 0
M  V30 4009 H 376.338 0.487678 -0.557899 0
M  V30 4010 H 378.985 0.646456 -1.80259 0
M  V30 4011 H 377.29 3.21708 -2.23632 0
M  V30 4012 H 378.987 3.05807 -2.5939 0
M  V30 4013 H 375.577 2.15316 -3.7059 0
M  V30 4014 H 379.761 1.80552 -4.62293 0
M  V30 4015 H 375.017 1.35417 -5.96215 0
M  V30 4016 H 379.191 1.01547 -6.88957 0
M  V30 4017 H 376.818 0.78419 -7.56145 0
M  V30 4018 N 378.394 1.34581 0.820102 0
M  V30 4019 C 379.619 1.30333 1.61332 0
M  V30 4020 C 380.044 -0.119339 1.87721 0
M  V30 4021 O 379.402 -1.08197 1.45475 0
M  V30 4022 C 379.45 2.10258 2.92957 0
M  V30 4023 O 378.554 1.47404 3.85157 0
M  V30 4024 H 377.895 0.447488 0.490561 0
M  V30 4025 H 380.425 1.77425 1.01889 0
M  V30 4026 H 380.435 2.21718 3.42498 0
M  V30 4027 H 379.11 3.13693 2.73074 0
M  V30 4028 H 377.687 1.44703 3.43679 0
M  V30 4029 N 379.872 -1.04064 1.18357 0
M  V30 4030 C 380.802 -2.14001 0.934113 0
M  V30 4031 C 381.783 -1.69616 -0.128186 0
M  V30 4032 O 382.968 -1.94185 0.0244093 0
M  V30 4033 C 380.098 -3.44253 0.459066 0
M  V30 4034 C 379.052 -4.02261 1.46185 0
M  V30 4035 C 378.378 -5.27992 0.844322 0
M  V30 4036 C 379.678 -4.38432 2.83856 0
M  V30 4037 H 381.372 -2.35127 1.85352 0
M  V30 4038 H 378.918 -1.12998 0.892604 0
M  V30 4039 H 380.871 -4.20522 0.271907 0
M  V30 4040 H 379.595 -3.22813 -0.495912 0
M  V30 4041 H 378.254 -3.28074 1.63595 0
M  V30 4042 H 377.902 -5.02862 -0.117845 0
M  V30 4043 H 377.602 -5.67765 1.51384 0
M  V30 4044 H 379.126 -6.06938 0.667693 0
M  V30 4045 H 380.54 -5.05688 2.70098 0
M  V30 4046 H 378.937 -4.89254 3.47491 0
M  V30 4047 H 380.007 -3.4826 3.37406 0
M  V30 4048 N 381.35 -0.985608 -1.22978 0
M  V30 4049 C 382.596 -0.667998 -1.92118 0
M  V30 4050 C 382.951 0.790454 -1.75413 0
M  V30 4051 O 382.244 1.56336 -1.10768 0
M  V30 4052 C 382.438 -1.00014 -3.43121 0
M  V30 4053 C 382.267 -2.48933 -3.74516 0
M  V30 4054 C 381.037 -3.15218 -3.94925 0
M  V30 4055 C 383.235 -3.47024 -3.79577 0
M  V30 4056 N 381.217 -4.53689 -4.13569 0
M  V30 4057 C 382.588 -4.70923 -4.03276 0
M  V30 4058 C 384.643 -3.41432 -3.62393 0
M  V30 4059 C 383.346 -5.89914 -4.11574 0
M  V30 4060 C 385.372 -4.59793 -3.71947 0
M  V30 4061 C 384.734 -5.82489 -3.96088 0
M  V30 4062 H 380.833 -0.295589 -0.723983 0
M  V30 4063 H 383.417 -1.26413 -1.4808 0
M  V30 4064 H 381.588 -0.432655 -3.85983 0
M  V30 4065 H 383.32 -0.63927 -3.99619 0
M  V30 4066 H 380.075 -2.65702 -3.92045 0
M  V30 4067 H 380.499 -5.25492 -4.26834 0
M  V30 4068 H 385.141 -2.47594 -3.4272 0
M  V30 4069 H 382.859 -6.84164 -4.30053 0
M  V30 4070 H 386.445 -4.57048 -3.59998 0
M  V30 4071 H 385.325 -6.72546 -4.033 0
M  V30 4072 N 382.828 1.3818 -0.7579 0
M  V30 4073 C 383.775 2.30416 -0.133057 0
M  V30 4074 C 384.745 1.50398 0.704957 0
M  V30 4075 O 385.93 1.79014 0.660192 0
M  V30 4076 C 383.07 3.36834 0.750813 0
M  V30 4077 C 382.183 4.31879 -0.102297 0
M  V30 4078 C 381.318 5.25368 0.784979 0
M  V30 4079 C 380.357 6.12058 -0.0715046 0
M  V30 4080 N 379.494 6.97832 0.772972 0
M  V30 4081 H 384.334 2.83274 -0.925186 0
M  V30 4082 H 381.871 1.39461 -0.467866 0
M  V30 4083 H 383.829 3.97145 1.27794 0
M  V30 4084 H 382.459 2.85374 1.50868 0
M  V30 4085 H 381.511 3.72991 -0.747095 0
M  V30 4086 H 382.823 4.92921 -0.763552 0
M  V30 4087 H 381.977 5.90818 1.37911 0
M  V30 4088 H 380.716 4.64703 1.47996 0
M  V30 4089 H 379.721 5.456 -0.678272 0
M  V30 4090 H 380.946 6.74793 -0.763606 0
M  V30 4091 H 378.892 6.3971 1.45282 0
M  V30 4092 H 378.809 7.55812 0.168709 0
M  V30 4093 H 380.077 7.67687 1.35194 0
M  V30 4094 N 384.306 0.507319 1.49211 0
M  V30 4095 C 385.552 -0.0350047 2.0277 0
M  V30 4096 C 385.885 -1.3606 1.38569 0
M  V30 4097 O 385.16 -1.87321 0.523542 0
M  V30 4098 C 385.443 -0.180916 3.59645 0
M  V30 4099 C 385.296 1.16825 4.34364 0
M  V30 4100 C 386.615 -0.918558 4.30407 0
M  V30 4101 H 383.734 -0.0112473 0.736914 0
M  V30 4102 H 386.376 0.659956 1.7817 0
M  V30 4103 H 384.526 -0.772826 3.80736 0
M  V30 4104 H 386.198 1.79952 4.24753 0
M  V30 4105 H 384.441 1.75594 3.96673 0
M  V30 4106 H 385.112 1.01939 5.42506 0
M  V30 4107 H 387.588 -0.41649 4.1401 0
M  V30 4108 H 386.464 -0.989505 5.39907 0
M  V30 4109 H 386.725 -1.96373 3.96093 0
M  V30 4110 N 385.784 -1.5574 0.241426 0
M  V30 4111 C 386.747 -2.19877 -0.647063 0
M  V30 4112 C 387.747 -1.16642 -1.10686 0
M  V30 4113 O 388.937 -1.41757 -1.01245 0
M  V30 4114 C 386.069 -2.83797 -1.88871 0
M  V30 4115 H 387.262 -2.99772 -0.087574 0
M  V30 4116 H 384.815 -1.56298 -0.00813574 0
M  V30 4117 H 385.55 -2.07824 -2.48957 0
M  V30 4118 H 385.335 -3.59414 -1.56728 0
M  V30 4119 H 386.825 -3.32898 -2.52129 0
M  V30 4120 N 387.262 0.0317525 -1.57568 0
M  V30 4121 C 388.678 0.38735 -1.54828 0
M  V30 4122 C 388.878 1.7677 -0.967187 0
M  V30 4123 O 387.934 2.45581 -0.587063 0
M  V30 4124 C 389.247 0.291667 -2.99282 0
M  V30 4125 C 390.795 0.368946 -3.10818 0
M  V30 4126 C 391.27 0.302741 -4.56998 0
M  V30 4127 N 392.761 0.361617 -4.61786 0
M  V30 4128 C 393.496 0.333238 -5.72431 0
M  V30 4129 N 392.992 0.257308 -6.92322 0
M  V30 4130 N 394.785 0.382769 -5.60795 0
M  V30 4131 H 386.936 -0.871609 -1.93692 0
M  V30 4132 H 389.199 -0.331161 -0.888277 0
M  V30 4133 H 388.905 -0.656794 -3.45513 0
M  V30 4134 H 388.779 1.08638 -3.61217 0
M  V30 4135 H 391.166 1.30784 -2.64536 0
M  V30 4136 H 391.247 -0.455066 -2.5172 0
M  V30 4137 H 390.891 -0.632473 -5.03947 0
M  V30 4138 H 390.821 1.14482 -5.14005 0
M  V30 4139 H 393.312 0.422923 -3.75526 0
M  V30 4140 H 393.625 0.24068 -7.72425 0
M  V30 4141 H 391.97 0.223396 -6.94641 0
M  V30 4142 H 395.161 0.44006 -4.66027 0
M  V30 4143 H 395.334 0.357184 -6.47015 0
M  V30 4144 N 388.74 1.54641 0.303973 0
M  V30 4145 C 389.968 1.77768 1.05858 0
M  V30 4146 C 390.383 0.535722 1.8104 0
M  V30 4147 O 389.74 -0.494337 1.75677 0
M  V30 4148 C 389.791 2.9834 2.04146 0
M  V30 4149 O 389.512 4.17736 1.32015 0
M  V30 4150 C 391.013 3.33832 2.91669 0
M  V30 4151 H 388.233 0.592961 0.314067 0
M  V30 4152 H 390.777 2.01583 0.344149 0
M  V30 4153 H 388.932 2.76742 2.71096 0
M  V30 4154 H 389.346 4.85693 1.97998 0
M  V30 4155 H 390.82 4.21448 3.56491 0
M  V30 4156 H 391.297 2.51857 3.59812 0
M  V30 4157 H 391.903 3.57579 2.30254 0
M  V30 4158 N 390.218 -0.567019 1.47046 0
M  V30 4159 C 391.15 -1.68985 1.54844 0
M  V30 4160 C 392.163 -1.56869 0.435431 0
M  V30 4161 O 393.352 -1.64006 0.70457 0
M  V30 4162 C 390.452 -3.07373 1.42742 0
M  V30 4163 C 389.625 -3.45339 2.6844 0
M  V30 4164 C 388.684 -4.62849 2.50314 0
M  V30 4165 O 387.71 -4.67922 3.24095 0
M  V30 4166 N 388.912 -5.58726 1.57499 0
M  V30 4167 H 391.677 -1.62745 2.51663 0
M  V30 4168 H 389.238 -0.753411 1.43302 0
M  V30 4169 H 391.23 -3.83803 1.28365 0
M  V30 4170 H 389.8 -3.07893 0.540445 0
M  V30 4171 H 389.02 -2.58455 2.97648 0
M  V30 4172 H 390.308 -3.67476 3.51907 0
M  V30 4173 H 389.706 -5.57376 0.966876 0
M  V30 4174 H 388.263 -6.34523 1.49078 0
M  V30 4175 N 391.696 -1.35014 -0.812953 0
M  V30 4176 C 393.112 -1.14914 -1.10757 0
M  V30 4177 C 393.312 0.0426818 -2.01455 0
M  V30 4178 O 392.368 0.715212 -2.42159 0
M  V30 4179 C 393.681 -2.44911 -1.74468 0
M  V30 4180 C 395.229 -2.5106 -1.86917 0
M  V30 4181 C 395.704 -3.81085 -2.54044 0
M  V30 4182 N 397.195 -3.82301 -2.61535 0
M  V30 4183 C 397.93 -4.79634 -3.14227 0
M  V30 4184 N 397.426 -5.87353 -3.67407 0
M  V30 4185 N 399.219 -4.67078 -3.12721 0
M  V30 4186 H 391.37 -2.1136 -0.20989 0
M  V30 4187 H 393.633 -0.935128 -0.155692 0
M  V30 4188 H 393.339 -3.32267 -1.15289 0
M  V30 4189 H 393.213 -2.58989 -2.74234 0
M  V30 4190 H 395.6 -1.64137 -2.45241 0
M  V30 4191 H 395.681 -2.40901 -0.860242 0
M  V30 4192 H 395.325 -4.68402 -1.96372 0
M  V30 4193 H 395.255 -3.88529 -3.55461 0
M  V30 4194 H 397.746 -3.04465 -2.23851 0
M  V30 4195 H 398.059 -6.57624 -4.05894 0
M  V30 4196 H 396.404 -5.91054 -3.65623 0
M  V30 4197 H 399.595 -3.82067 -2.70449 0
M  V30 4198 H 399.768 -5.43098 -3.53481 0
M  V30 4199 N 393.175 1.03435 -1.18907 0
M  V30 4200 C 394.085 2.15075 -0.937015 0
M  V30 4201 C 395.101 1.73706 0.101085 0
M  V30 4202 O 396.277 2.01232 -0.0822948 0
M  V30 4203 C 393.342 3.43458 -0.473057 0
M  V30 4204 C 392.403 3.99172 -1.57989 0
M  V30 4205 C 391.636 5.21427 -1.13797 0
M  V30 4206 O 391.859 5.704 0.000725941 0
M  V30 4207 O 390.793 5.69837 -1.9383 0
M  V30 4208 H 394.619 2.39198 -1.87131 0
M  V30 4209 H 392.204 1.13506 -0.971427 0
M  V30 4210 H 394.086 4.20811 -0.222702 0
M  V30 4211 H 392.761 3.20793 0.432869 0
M  V30 4212 H 391.668 3.23178 -1.88433 0
M  V30 4213 H 393.001 4.2619 -2.46217 0
M  V30 4214 N 394.653 0.992116 1.22453 0
M  V30 4215 C 395.902 0.662992 1.90492 0
M  V30 4216 C 396.215 -0.808407 1.78113 0
M  V30 4217 O 397.421 -1.24908 2.41061 0
M  V30 4218 C 395.877 1.1353 3.41524 0
M  V30 4219 C 395.485 2.63187 3.62542 0
M  V30 4220 C 397.229 0.880465 4.15269 0
M  V30 4221 C 395.136 3.04024 5.0727 0
M  V30 4222 H 394.066 0.244278 0.713333 0
M  V30 4223 H 396.717 1.20157 1.38688 0
M  V30 4224 H 395.099 0.52485 3.92506 0
M  V30 4225 H 396.273 3.2957 3.22056 0
M  V30 4226 H 394.588 2.86543 3.02129 0
M  V30 4227 H 397.185 1.16128 5.21937 0
M  V30 4228 H 397.528 -0.183408 4.15896 0
M  V30 4229 H 398.061 1.45307 3.70312 0
M  V30 4230 H 394.8 4.09584 5.11782 0
M  V30 4231 H 394.32 2.42343 5.48662 0
M  V30 4232 H 395.999 2.95282 5.75689 0
M  V30 4233 N 396.131 -1.37776 0.765217 0
M  V30 4234 C 397.061 -2.32945 0.160953 0
M  V30 4235 C 398.042 -1.55454 -0.690516 0
M  V30 4236 O 399.227 -1.83721 -0.629318 0
M  V30 4237 C 396.357 -3.39669 -0.724031 0
M  V30 4238 C 395.311 -4.27992 0.0256173 0
M  V30 4239 C 394.637 -5.25673 -0.978383 0
M  V30 4240 C 395.937 -5.08309 1.20082 0
M  V30 4241 H 397.631 -2.83728 0.955969 0
M  V30 4242 H 395.177 -1.36416 0.461149 0
M  V30 4243 H 397.13 -4.05219 -1.15652 0
M  V30 4244 H 395.854 -2.87396 -1.5515 0
M  V30 4245 H 394.513 -3.63964 0.438812 0
M  V30 4246 H 394.161 -4.69682 -1.80022 0
M  V30 4247 H 393.861 -5.85625 -0.481378 0
M  V30 4248 H 395.385 -5.94098 -1.40995 0
M  V30 4249 H 396.799 -5.67034 0.845307 0
M  V30 4250 H 395.196 -5.77554 1.62947 0
M  V30 4251 H 396.266 -4.41365 2.00811 0
M  V30 4252 N 397.609 -0.515225 -1.4894 0
M  V30 4253 C 398.834 0.022727 -2.07388 0
M  V30 4254 C 399.259 1.2876 -1.37122 0
M  V30 4255 O 398.617 1.76067 -0.432431 0
M  V30 4256 C 398.665 0.244869 -3.59768 0
M  V30 4257 O 397.769 1.31667 -3.90817 0
M  V30 4258 H 397.11 -0.0325506 -0.663202 0
M  V30 4259 H 399.64 -0.718918 -1.91553 0
M  V30 4260 H 399.65 0.47205 -4.0526 0
M  V30 4261 H 398.325 -0.679194 -4.10317 0
M  V30 4262 H 396.902 1.07331 -3.5712 0
M  V30 4263 N 399.087 1.5561 -0.249682 0
M  V30 4264 C 400.364 1.90932 0.424761 0
M  V30 4265 C 400.744 1.17078 1.75658 0
M  V30 4266 O 400.092 0.289176 2.26663 0
M  V30 4267 C 400.302 3.43975 0.590109 0
M  V30 4268 C 401.65 4.15281 0.884714 0
M  V30 4269 O 402.674 3.49729 0.67587 0
M  V30 4270 O 401.533 5.31236 1.28259 0
M  V30 4271 H 398.627 0.794815 0.228468 0
M  V30 4272 H 401.173 1.67135 -0.293954 0
M  V30 4273 H 399.945 3.89748 -0.34818 0
M  V30 4274 H 399.568 3.73644 1.35926 0
M  V30 4275 N 400.565 -0.0233959 1.57583 0
M  V30 4276 C 401.498 -1.05549 2.02323 0
M  V30 4277 C 402.476 -1.34843 0.908626 0
M  V30 4278 O 403.66 -1.47404 1.17491 0
M  V30 4279 C 400.787 -2.38885 2.40108 0
M  V30 4280 C 399.833 -2.2541 3.62067 0
M  V30 4281 S 400.666 -1.60217 5.1097 0
M  V30 4282 C 401.822 -2.95032 5.52003 0
M  V30 4283 H 402.055 -0.674435 2.89549 0
M  V30 4284 H 399.588 -0.23355 1.52623 0
M  V30 4285 H 401.546 -3.15562 2.62547 0
M  V30 4286 H 400.207 -2.74137 1.53323 0
M  V30 4287 H 399.4 -3.23854 3.86179 0
M  V30 4288 H 399.002 -1.56876 3.39508 0
M  V30 4289 H 401.294 -3.91357 5.53033 0
M  V30 4290 H 402.237 -2.75646 6.52246 0
M  V30 4291 H 402.645 -2.97865 4.79517 0
M  V30 4292 N 402.043 -1.548 -0.295768 0
M  V30 4293 C 402.953 -1.89177 -1.38742 0
M  V30 4294 C 403.969 -0.786481 -1.55211 0
M  V30 4295 O 405.145 -1.08344 -1.69775 0
M  V30 4296 C 402.21 -2.13663 -2.73036 0
M  V30 4297 C 401.271 -3.37349 -2.65508 0
M  V30 4298 C 400.504 -3.60658 -3.93398 0
M  V30 4299 O 400.727 -2.86882 -4.93006 0
M  V30 4300 O 399.661 -4.54179 -3.94975 0
M  V30 4301 H 403.487 -2.82059 -1.12589 0
M  V30 4302 H 401.072 -1.41056 -0.492295 0
M  V30 4303 H 402.954 -2.3094 -3.52484 0
M  V30 4304 H 401.629 -1.23967 -2.99022 0
M  V30 4305 H 400.536 -3.25431 -1.84514 0
M  V30 4306 H 401.869 -4.27192 -2.44474 0
M  V30 4307 N 403.521 0.559213 -1.47345 0
M  V30 4308 C 404.749 1.34194 -1.57479 0
M  V30 4309 C 405.164 1.87463 -0.224261 0
M  V30 4310 O 404.521 1.64888 0.782185 0
M  V30 4311 C 404.572 2.51324 -2.59843 0
M  V30 4312 O 404.293 2.00256 -3.89653 0
M  V30 4313 C 405.794 3.43563 -2.80142 0
M  V30 4314 H 403.014 0.409136 -0.531835 0
M  V30 4315 H 405.558 0.677609 -1.92947 0
M  V30 4316 H 403.713 3.13699 -2.27314 0
M  V30 4317 H 404.127 2.76708 -4.4557 0
M  V30 4318 H 405.601 4.2217 -3.55635 0
M  V30 4319 H 406.078 3.9698 -1.87892 0
M  V30 4320 H 406.684 2.87005 -3.1386 0
M  V30 4321 N 404.999 1.35443 0.805782 0
M  V30 4322 C 405.949 1.24972 1.90699 0
M  V30 4323 C 406.933 0.144806 1.60247 0
M  V30 4324 O 408.125 0.376102 1.72958 0
M  V30 4325 C 405.254 1.02475 3.27649 0
M  V30 4326 C 404.34 2.17361 3.64164 0
M  V30 4327 N 404.731 3.42591 3.72109 0
M  V30 4328 C 403.029 2.08765 3.94123 0
M  V30 4329 C 403.73 4.18144 4.04389 0
M  V30 4330 N 402.706 3.4691 4.18515 0
M  V30 4331 H 406.508 2.19852 1.95044 0
M  V30 4332 H 404.022 1.27928 1.00041 0
M  V30 4333 H 406.019 0.930617 4.06381 0
M  V30 4334 H 404.679 0.0848009 3.24589 0
M  V30 4335 H 405.69 3.76932 3.55166 0
M  V30 4336 H 402.367 1.22629 3.99084 0
M  V30 4337 H 403.757 5.26367 4.17597 0
M  V30 4338 N 406.477 -1.02803 1.19454 0
M  V30 4339 C 407.725 -1.75869 0.995722 0
M  V30 4340 C 408.046 -1.89138 -0.474543 0
M  V30 4341 O 407.316 -1.42558 -1.34366 0
M  V30 4342 H 405.896 -0.651511 0.365435 0
M  V30 4343 H 408.558 -1.24004 1.50363 0
M  V30 4344 H 407.654 -2.76661 1.44447 0
M  V30 4345 N 407.956 -0.998596 -1.21925 0
M  V30 4346 C 408.919 -0.558679 -2.22287 0
M  V30 4347 C 409.919 0.361525 -1.56683 0
M  V30 4348 O 411.109 0.152695 -1.73529 0
M  V30 4349 C 408.241 0.18661 -3.40389 0
M  V30 4350 H 409.434 -1.4463 -2.62721 0
M  V30 4351 H 406.987 -0.786413 -1.35075 0
M  V30 4352 H 407.722 1.08996 -3.05435 0
M  V30 4353 H 407.507 -0.474188 -3.89222 0
M  V30 4354 H 408.997 0.482367 -4.14805 0
M  V30 4355 N 409.434 1.37368 -0.772513 0
M  V30 4356 C 410.384 2.27613 -0.132823 0
M  V30 4357 C 411.368 1.46138 0.673247 0
M  V30 4358 O 412.56 1.68686 0.536095 0
M  V30 4359 C 409.689 3.35122 0.744864 0
M  V30 4360 C 408.775 4.24044 -0.0690771 0
M  V30 4361 N 409.166 4.93355 -1.1151 0
M  V30 4362 C 407.464 4.45731 0.154782 0
M  V30 4363 C 408.165 5.59 -1.60917 0
M  V30 4364 N 407.141 5.35737 -0.921222 0
M  V30 4365 H 410.943 2.78675 -0.933681 0
M  V30 4366 H 408.457 1.50494 -0.610342 0
M  V30 4367 H 410.454 3.98683 1.21892 0
M  V30 4368 H 409.114 2.85616 1.54446 0
M  V30 4369 H 410.125 4.95785 -1.49726 0
M  V30 4370 H 406.802 4.07096 0.926224 0
M  V30 4371 H 408.192 6.24395 -2.48153 0
M  V30 4372 N 410.912 0.523116 1.48665 0
M  V30 4373 C 412.14 -0.0096312 2.06898 0
M  V30 4374 C 412.555 -1.28784 1.38059 0
M  V30 4375 O 411.912 -1.76453 0.465893 0
M  V30 4376 C 411.963 -0.244386 3.60673 0
M  V30 4377 O 411.684 0.983172 4.26925 0
M  V30 4378 C 413.185 -0.818289 4.35682 0
M  V30 4379 H 410.405 0.0304161 0.67031 0
M  V30 4380 H 412.949 0.726799 1.91149 0
M  V30 4381 H 411.104 -0.930847 3.76051 0
M  V30 4382 H 411.518 0.759653 5.1897 0
M  V30 4383 H 412.992 -0.93201 5.44075 0
M  V30 4384 H 413.469 -1.82153 3.99646 0
M  V30 4385 H 414.075 -0.168609 4.24966 0
M  V30 4386 N 412.39 -1.55475 0.257931 0
M  V30 4387 C 413.353 -2.20551 -0.623706 0
M  V30 4388 C 414.353 -1.17809 -1.09443 0
M  V30 4389 O 415.543 -1.42823 -0.997362 0
M  V30 4390 C 412.675 -2.85784 -1.8585 0
M  V30 4391 H 413.868 -2.99848 -0.0557743 0
M  V30 4392 H 411.421 -1.56298 0.0084422 0
M  V30 4393 H 412.156 -2.10453 -2.46739 0
M  V30 4394 H 411.941 -3.61057 -1.52907 0
M  V30 4395 H 413.431 -3.35553 -2.48584 0
M  V30 4396 N 413.868 0.0150385 -1.57593 0
M  V30 4397 C 414.798 1.01047 -2.10503 0
M  V30 4398 C 415.779 1.36816 -1.01071 0
M  V30 4399 O 416.964 1.45455 -1.28672 0
M  V30 4400 C 414.094 2.30708 -2.59598 0
M  V30 4401 C 413.048 2.09142 -3.73421 0
M  V30 4402 C 412.374 3.44685 -4.08774 0
M  V30 4403 C 413.674 1.46619 -5.01298 0
M  V30 4404 H 415.368 0.569978 -2.93925 0
M  V30 4405 H 412.914 0.272724 -1.41394 0
M  V30 4406 H 414.867 3.00687 -2.95238 0
M  V30 4407 H 413.591 2.76843 -1.73279 0
M  V30 4408 H 412.25 1.41592 -3.38153 0
M  V30 4409 H 411.898 3.88495 -3.195 0
M  V30 4410 H 411.598 3.31077 -4.8545 0
M  V30 4411 H 413.122 4.16004 -4.4696 0
M  V30 4412 H 414.536 2.06535 -5.34805 0
M  V30 4413 H 412.933 1.43544 -5.82679 0
M  V30 4414 H 414.003 0.433611 -4.82957 0
M  V30 4415 N 415.346 1.54954 0.287554 0
M  V30 4416 C 416.757 1.65732 0.859634 0
M  V30 4417 C 417.108 0.574767 1.87592 0
M  V30 4418 O 416.233 -0.286299 2.14498 0
M  V30 4419 C 416.828 3.00438 1.56597 0
M  V30 4420 C 415.387 3.13292 2.08627 0
M  V30 4421 C 414.534 2.61473 0.923416 0
M  V30 4422 H 417.485 1.5857 0.0642338 0
M  V30 4423 H 417.506 2.92613 2.43224 0
M  V30 4424 H 417.018 3.79207 0.826053 0
M  V30 4425 H 415.119 2.39268 2.85625 0
M  V30 4426 H 415.232 4.19647 2.31157 0
M  V30 4427 H 413.596 2.18264 1.31275 0
M  V30 4428 H 414.379 3.42733 0.197241 0
M  V30 4429 N 416.824 -0.551391 1.4764 0
M  V30 4430 C 417.756 -1.67333 1.56628 0
M  V30 4431 C 418.769 -1.56398 0.452045 0
M  V30 4432 O 419.958 -1.6325 0.721926 0
M  V30 4433 C 417.058 -3.05841 1.45994 0
M  V30 4434 C 416.231 -3.42472 2.72088 0
M  V30 4435 C 415.29 -4.60168 2.55209 0
M  V30 4436 O 414.316 -4.64458 3.2904 0
M  V30 4437 N 415.518 -5.57024 1.63416 0
M  V30 4438 H 418.283 -1.60066 2.53375 0
M  V30 4439 H 415.844 -0.738169 1.44093 0
M  V30 4440 H 417.836 -3.8242 1.32428 0
M  V30 4441 H 416.406 -3.07302 0.573071 0
M  V30 4442 H 415.626 -2.55284 3.00373 0
M  V30 4443 H 416.914 -3.63723 3.55785 0
M  V30 4444 H 416.312 -5.56319 1.02594 0
M  V30 4445 H 414.869 -6.32906 1.558 0
M  V30 4446 N 418.302 -1.35869 -0.798587 0
M  V30 4447 C 419.232 -1.32118 -1.92528 0
M  V30 4448 C 420.213 -0.194209 -1.68988 0
M  V30 4449 O 421.398 -0.390426 -1.90235 0
M  V30 4450 C 418.528 -1.10047 -3.29404 0
M  V30 4451 C 417.482 -2.19471 -3.67446 0
M  V30 4452 C 416.808 -1.82555 -5.02571 0
M  V30 4453 C 418.108 -3.61495 -3.76987 0
M  V30 4454 H 419.802 -2.26394 -1.95924 0
M  V30 4455 H 417.348 -1.08981 -0.94123 0
M  V30 4456 H 419.301 -1.06061 -4.07835 0
M  V30 4457 H 418.025 -0.122195 -3.26371 0
M  V30 4458 H 416.684 -2.22568 -2.91306 0
M  V30 4459 H 416.332 -0.833249 -4.9605 0
M  V30 4460 H 416.032 -2.5581 -5.28995 0
M  V30 4461 H 417.556 -1.80108 -5.83432 0
M  V30 4462 H 418.97 -3.60676 -4.4563 0
M  V30 4463 H 417.367 -4.33577 -4.14887 0
M  V30 4464 H 418.437 -3.97065 -2.78329 0
M  V30 4465 N 419.78 1.02168 -1.19998 0
M  V30 4466 C 420.71 2.12488 -0.96804 0
M  V30 4467 C 421.691 1.69799 0.101185 0
M  V30 4468 O 422.876 1.94121 -0.0552993 0
M  V30 4469 C 420.006 3.43479 -0.513776 0
M  V30 4470 C 418.96 3.99884 -1.52566 0
M  V30 4471 C 418.286 5.26582 -0.928214 0
M  V30 4472 C 419.586 4.33861 -2.90795 0
M  V30 4473 H 421.28 2.32149 -1.89069 0
M  V30 4474 H 418.826 1.11564 -0.910468 0
M  V30 4475 H 420.779 4.20036 -0.338774 0
M  V30 4476 H 419.503 3.23561 0.444493 0
M  V30 4477 H 418.162 3.25429 -1.68794 0
M  V30 4478 H 417.81 5.02986 0.0378289 0
M  V30 4479 H 417.51 5.65284 -1.60397 0
M  V30 4480 H 419.034 6.05799 -0.764167 0
M  V30 4481 H 420.448 5.01327 -2.78109 0
M  V30 4482 H 418.845 4.83664 -3.55231 0
M  V30 4483 H 419.915 3.42848 -3.42904 0
M  V30 4484 N 421.258 1.00505 1.21394 0
M  V30 4485 C 422.188 0.585684 2.26035 0
M  V30 4486 C 423.169 -0.393525 1.65485 0
M  V30 4487 O 424.354 -0.281497 1.92149 0
M  V30 4488 C 421.484 -0.0884283 3.47187 0
M  V30 4489 C 420.438 0.810567 4.20254 0
M  V30 4490 C 419.764 0.00286382 5.347 0
M  V30 4491 C 421.064 2.1132 4.77641 0
M  V30 4492 H 422.758 1.46039 2.61368 0
M  V30 4493 H 420.304 0.703648 1.25638 0
M  V30 4494 H 422.257 -0.393286 4.19561 0
M  V30 4495 H 420.981 -0.997766 3.10986 0
M  V30 4496 H 419.64 1.09925 3.49731 0
M  V30 4497 H 419.288 -0.907765 4.94741 0
M  V30 4498 H 418.988 0.601444 5.84514 0
M  V30 4499 H 420.512 -0.295808 6.09883 0
M  V30 4500 H 421.926 1.87148 5.41893 0
M  V30 4501 H 420.323 2.66164 5.37845 0
M  V30 4502 H 421.393 2.78393 3.9702 0
M  V30 4503 N 422.737 -1.36956 0.779787 0
M  V30 4504 C 423.669 -2.28833 0.129639 0
M  V30 4505 C 424.682 -1.4902 -0.655511 0
M  V30 4506 O 425.871 -1.71578 -0.492279 0
M  V30 4507 C 422.971 -3.2833 -0.839792 0
M  V30 4508 C 422.144 -4.3727 -0.10675 0
M  V30 4509 C 421.203 -5.16789 -0.990717 0
M  V30 4510 O 420.229 -5.67406 -0.451516 0
M  V30 4511 N 421.431 -5.32294 -2.3161 0
M  V30 4512 H 424.196 -2.85268 0.918803 0
M  V30 4513 H 421.757 -1.49019 0.632841 0
M  V30 4514 H 423.749 -3.78413 -1.43477 0
M  V30 4515 H 422.319 -2.72605 -1.52988 0
M  V30 4516 H 421.539 -3.88478 0.669216 0
M  V30 4517 H 422.827 -5.07229 0.399464 0
M  V30 4518 H 422.225 -4.92768 -2.77843 0
M  V30 4519 H 420.782 -5.85656 -2.86095 0
M  V30 4520 N 424.215 -0.530993 -1.48385 0
M  V30 4521 C 425.125 0.23503 -2.3342 0
M  V30 4522 C 426.141 0.93801 -1.46552 0
M  V30 4523 O 427.317 0.912745 -1.7953 0
M  V30 4524 C 424.382 1.26778 -3.22689 0
M  V30 4525 C 423.443 0.575038 -4.25431 0
M  V30 4526 C 422.676 1.55858 -5.10435 0
M  V30 4527 O 422.899 2.79129 -4.97437 0
M  V30 4528 O 421.833 1.09742 -5.91811 0
M  V30 4529 H 425.659 -0.461794 -3.00169 0
M  V30 4530 H 423.244 -0.291903 -1.46521 0
M  V30 4531 H 425.126 1.86457 -3.77904 0
M  V30 4532 H 423.801 1.94699 -2.586 0
M  V30 4533 H 422.708 -0.0622782 -3.74048 0
M  V30 4534 H 424.041 -0.062253 -4.92161 0
M  V30 4535 N 425.693 1.55336 -0.266172 0
M  V30 4536 C 426.641 2.23587 0.641228 0
M  V30 4537 C 427.635 1.22986 1.16494 0
M  V30 4538 O 428.841 1.40943 1.1196 0
M  V30 4539 H 425.216 0.717452 0.225315 0
M  V30 4540 H 427.187 2.9837 0.0426561 0
M  V30 4541 C 425.936 2.96369 1.81826 0
M  V30 4542 H 425.259 3.73563 1.42445 0
M  V30 4543 H 426.699 3.47459 2.42998 0
M  V30 4544 C 425.158 2.0133 2.70125 0
M  V30 4545 O 425.688 1.55875 3.70224 0
M  V30 4546 N 423.894 1.6802 2.37102 0
M  V30 4547 H 423.441 2.05181 1.55751 0
M  V30 4548 H 423.399 1.047 2.96454 0
M  V30 4549 N 427.171 -0.0066808 1.57599 0
M  V30 4550 C 428.417 -0.68835 1.91398 0
M  V30 4551 C 428.772 -1.7175 0.86716 0
M  V30 4552 O 428.065 -1.91215 -0.121475 0
M  V30 4553 C 428.259 -1.37939 3.29708 0
M  V30 4554 C 428.088 -0.418689 4.47747 0
M  V30 4555 C 426.858 -0.031526 5.0529 0
M  V30 4556 C 429.056 0.312301 5.13351 0
M  V30 4557 N 427.038 0.928088 6.06844 0
M  V30 4558 C 428.409 1.12682 6.09674 0
M  V30 4559 C 430.464 0.376853 4.96472 0
M  V30 4560 C 429.167 2 6.90936 0
M  V30 4561 C 431.193 1.23723 5.78314 0
M  V30 4562 C 430.555 2.03962 6.74225 0
M  V30 4563 H 426.654 -0.225292 0.748844 0
M  V30 4564 H 429.238 0.0520973 1.9463 0
M  V30 4565 H 427.409 -2.09017 3.27363 0
M  V30 4566 H 429.141 -2.01522 3.50957 0
M  V30 4567 H 425.896 -0.398485 4.71921 0
M  V30 4568 H 426.32 1.40307 6.62301 0
M  V30 4569 H 430.962 -0.22921 4.22178 0
M  V30 4570 H 428.68 2.61676 7.64559 0
M  V30 4571 H 432.266 1.291 5.67296 0
M  V30 4572 H 431.146 2.69461 7.36451 0
M  V30 4573 N 428.649 -1.55105 -0.279332 0
M  V30 4574 C 429.926 -1.66119 -1.03267 0
M  V30 4575 C 430.306 -0.523525 -2.04505 0
M  V30 4576 O 429.654 0.477194 -2.23462 0
M  V30 4577 C 429.864 -3.05067 -1.69515 0
M  V30 4578 C 431.212 -3.62606 -2.20912 0
M  V30 4579 O 432.236 -3.07659 -1.79512 0
M  V30 4580 O 431.095 -4.58861 -2.96831 0
M  V30 4581 H 428.189 -0.674429 -0.478618 0
M  V30 4582 H 430.735 -1.67446 -0.275694 0
M  V30 4583 H 429.507 -3.79311 -0.9612 0
M  V30 4584 H 429.13 -3.07611 -2.51915 0
M  V30 4585 N 430.127 0.543554 -1.4793 0
M  V30 4586 C 431.075 1.67039 -1.61866 0
M  V30 4587 C 432.069 1.62294 -0.48549 0
M  V30 4588 O 433.275 1.67315 -0.66376 0
M  V30 4589 H 429.65 0.552954 -0.509652 0
M  V30 4590 H 431.621 1.52426 -2.56533 0
M  V30 4591 C 430.37 3.05357 -1.6629 0
M  V30 4592 H 429.693 3.09696 -2.5284 0
M  V30 4593 H 431.133 3.83855 -1.80088 0
M  V30 4594 C 429.592 3.34531 -0.398861 0
M  V30 4595 O 430.122 3.98649 0.494162 0
M  V30 4596 N 428.328 2.89299 -0.2747 0
M  V30 4597 H 427.875 2.37298 -1.00236 0
M  V30 4598 H 427.833 3.09188 0.570075 0
M  V30 4599 N 431.605 1.3629 0.791371 0
M  V30 4600 C 432.851 1.30605 1.55146 0
M  V30 4601 C 433.184 -0.115042 1.93859 0
M  V30 4602 O 432.459 -1.06798 1.62556 0
M  V30 4603 C 432.742 2.22692 2.82985 0
M  V30 4604 C 432.595 3.73489 2.50651 0
M  V30 4605 C 433.914 2.13588 3.84796 0
M  V30 4606 H 431.033 0.475761 0.562868 0
M  V30 4607 H 433.675 1.66825 0.909358 0
M  V30 4608 H 431.825 1.91933 3.37778 0
M  V30 4609 H 433.497 4.14758 2.01924 0
M  V30 4610 H 431.74 3.93021 1.83622 0
M  V30 4611 H 432.411 4.3333 3.41949 0
M  V30 4612 H 434.887 2.40659 3.39445 0
M  V30 4613 H 433.763 2.80195 4.71998 0
M  V30 4614 H 434.024 1.12256 4.27611 0
M  V30 4615 N 433.083 -1.0153 1.20538 0
M  V30 4616 C 434.03 -2.10098 0.955383 0
M  V30 4617 C 435 -1.65702 -0.114878 0
M  V30 4618 O 436.185 -1.90776 0.0301118 0
M  V30 4619 C 433.325 -3.41236 0.514969 0
M  V30 4620 C 432.438 -3.99102 1.65353 0
M  V30 4621 C 431.573 -5.18306 1.16329 0
M  V30 4622 C 430.612 -5.68258 2.27485 0
M  V30 4623 N 429.749 -6.78722 1.7967 0
M  V30 4624 H 434.589 -2.30818 1.88486 0
M  V30 4625 H 432.126 -1.13189 0.939499 0
M  V30 4626 H 434.084 -4.16504 0.240935 0
M  V30 4627 H 432.714 -3.20585 -0.377512 0
M  V30 4628 H 431.766 -3.20918 2.04245 0
M  V30 4629 H 433.078 -4.32177 2.49047 0
M  V30 4630 H 432.232 -6.00782 0.845302 0
M  V30 4631 H 430.971 -4.86799 0.296254 0
M  V30 4632 H 429.976 -4.84385 2.60099 0
M  V30 4633 H 431.201 -6.01798 3.14667 0
M  V30 4634 H 429.147 -6.49042 0.95295 0
M  V30 4635 H 429.064 -7.10996 2.56944 0
M  V30 4636 H 430.332 -7.64759 1.50875 0
M  V30 4637 N 434.561 -1.01147 -1.20859 0
M  V30 4638 C 435.511 -0.548247 -2.2131 0
M  V30 4639 C 436.495 0.393646 -1.5601 0
M  V30 4640 O 437.687 0.217445 -1.75659 0
M  V30 4641 C 434.816 0.117252 -3.431 0
M  V30 4642 C 433.902 -0.846043 -4.15575 0
M  V30 4643 N 434.293 -2.00149 -4.64515 0
M  V30 4644 C 432.591 -0.665783 -4.41003 0
M  V30 4645 C 433.292 -2.60764 -5.19978 0
M  V30 4646 N 432.268 -1.88868 -5.09735 0
M  V30 4647 H 436.07 -1.42921 -2.56809 0
M  V30 4648 H 433.584 -0.876142 -1.36739 0
M  V30 4649 H 435.581 0.46662 -4.1428 0
M  V30 4650 H 434.241 0.994115 -3.09107 0
M  V30 4651 H 435.252 -2.38162 -4.5989 0
M  V30 4652 H 431.929 0.163456 -4.1718 0
M  V30 4653 H 433.319 -3.58519 -5.68255 0
M  V30 4654 N 436.039 1.36541 -0.78704 0
M  V30 4655 C 437.002 2.28413 -0.189778 0
M  V30 4656 C 438.002 1.48719 0.611499 0
M  V30 4657 O 439.192 1.68737 0.432842 0
M  V30 4658 C 436.324 3.32824 0.737638 0
M  V30 4659 H 437.517 2.82743 -0.999831 0
M  V30 4660 H 435.07 1.46065 -0.556298 0
M  V30 4661 H 435.805 2.83646 1.57212 0
M  V30 4662 H 435.59 3.91752 0.165044 0
M  V30 4663 H 437.08 4.0144 1.15047 0
M  V30 4664 N 437.518 0.538854 1.48102 0
M  V30 4665 C 438.764 0.0161732 2.03394 0
M  V30 4666 C 439.119 -1.31154 1.40771 0
M  V30 4667 O 438.412 -1.83613 0.547421 0
M  V30 4668 C 438.606 -0.153808 3.57069 0
M  V30 4669 C 438.435 1.15588 4.34591 0
M  V30 4670 C 437.205 1.71818 4.75191 0
M  V30 4671 C 439.403 2.06867 4.70861 0
M  V30 4672 N 437.385 2.96983 5.37284 0
M  V30 4673 C 438.756 3.16609 5.33066 0
M  V30 4674 C 440.811 2.07085 4.52791 0
M  V30 4675 C 439.514 4.26645 5.79109 0
M  V30 4676 C 441.54 3.16121 4.99821 0
M  V30 4677 C 440.902 4.24582 5.62058 0
M  V30 4678 H 437.001 0.0476346 0.780548 0
M  V30 4679 H 439.585 0.722094 1.80815 0
M  V30 4680 H 437.756 -0.828825 3.79454 0
M  V30 4681 H 439.488 -0.676896 3.98999 0
M  V30 4682 H 436.243 1.25845 4.56574 0
M  V30 4683 H 436.667 3.60732 5.72889 0
M  V30 4684 H 441.309 1.24522 4.04047 0
M  V30 4685 H 439.027 5.0998 6.26854 0
M  V30 4686 H 442.613 3.17355 4.87624 0
M  V30 4687 H 441.493 5.07562 5.97788 0
M  V30 4688 N 438.996 -1.55193 0.274407 0
M  V30 4689 C 440.221 -2.04446 -0.348824 0
M  V30 4690 C 440.646 -1.15149 -1.48735 0
M  V30 4691 O 440.004 -0.149952 -1.80679 0
M  V30 4692 C 440.052 -3.51431 -0.808009 0
M  V30 4693 O 439.156 -3.65225 -1.91531 0
M  V30 4694 H 438.497 -0.66006 -0.0722276 0
M  V30 4695 H 441.027 -2.00481 0.408498 0
M  V30 4696 H 441.037 -3.92781 -1.10395 0
M  V30 4697 H 439.712 -4.15892 0.0249865 0
M  V30 4698 H 438.289 -3.35778 -1.62196 0
M  V30 4699 N 440.474 -0.00167713 -1.576 0
M  V30 4700 C 441.885 0.54091 -1.78693 0
M  V30 4701 C 442.236 1.7386 -0.909247 0
M  V30 4702 O 441.361 2.16109 -0.112176 0
M  V30 4703 C 441.956 0.98806 -3.24072 0
M  V30 4704 C 440.515 1.47594 -3.46256 0
M  V30 4705 C 439.662 0.42792 -2.73978 0
M  V30 4706 H 442.613 -0.22784 -1.57056 0
M  V30 4707 H 442.634 1.85398 -3.32277 0
M  V30 4708 H 442.146 0.116164 -3.87926 0
M  V30 4709 H 440.247 2.36868 -2.87618 0
M  V30 4710 H 440.36 1.50225 -4.54939 0
M  V30 4711 H 438.724 0.889934 -2.38647 0
M  V30 4712 H 439.507 -0.435038 -3.40532 0
M  V30 4713 N 441.952 1.55251 0.271103 0
M  V30 4714 C 442.885 1.83191 1.36075 0
M  V30 4715 C 443.863 0.685091 1.47463 0
M  V30 4716 O 445.047 0.928292 1.64058 0
M  V30 4717 C 442.174 1.99521 2.73696 0
M  V30 4718 C 441.22 3.22081 2.79582 0
M  V30 4719 S 442.053 4.79388 2.38636 0
M  V30 4720 C 443.209 4.98693 3.78228 0
M  V30 4721 H 443.442 2.75327 1.12171 0
M  V30 4722 H 440.975 1.47046 0.470833 0
M  V30 4723 H 442.933 2.09613 3.52948 0
M  V30 4724 H 441.594 1.0827 2.9485 0
M  V30 4725 H 440.787 3.304 3.80594 0
M  V30 4726 H 440.389 3.10589 2.08352 0
M  V30 4727 H 442.681 4.84551 4.73515 0
M  V30 4728 H 443.624 6.00738 3.7486 0
M  V30 4729 H 444.032 4.26665 3.69618 0
M  V30 4730 N 443.43 -0.535701 1.48216 0
M  V30 4731 C 444.377 -1.64083 1.62312 0
M  V30 4732 C 445.347 -1.59448 0.465365 0
M  V30 4733 O 446.532 -1.77959 0.688135 0
M  V30 4734 C 443.672 -3.0236 1.66349 0
M  V30 4735 C 442.785 -3.17273 2.93193 0
M  V30 4736 C 441.92 -4.46075 2.88427 0
M  V30 4737 C 440.959 -4.54496 4.1 0
M  V30 4738 N 440.096 -5.7468 4.03345 0
M  V30 4739 H 444.936 -1.51374 2.5669 0
M  V30 4740 H 442.473 -0.737059 1.27302 0
M  V30 4741 H 444.431 -3.82461 1.66672 0
M  V30 4742 H 443.061 -3.13854 0.754672 0
M  V30 4743 H 442.113 -2.30462 3.02641 0
M  V30 4744 H 443.425 -3.19357 3.83162 0
M  V30 4745 H 442.579 -5.3446 2.87119 0
M  V30 4746 H 441.318 -4.46504 1.96177 0
M  V30 4747 H 440.323 -3.64519 4.11589 0
M  V30 4748 H 441.548 -4.5581 5.03402 0
M  V30 4749 H 439.494 -5.76017 3.13912 0
M  V30 4750 H 439.411 -5.78234 4.87013 0
M  V30 4751 H 440.679 -6.65367 4.06087 0
M  V30 4752 N 444.908 -1.36708 -0.784132 0
M  V30 4753 C 446.185 -1.21776 -1.53069 0
M  V30 4754 C 446.565 0.193876 -2.10208 0
M  V30 4755 O 445.913 1.20012 -1.94446 0
M  V30 4756 C 446.123 -2.30395 -2.62143 0
M  V30 4757 C 447.471 -2.67325 -3.29882 0
M  V30 4758 O 448.495 -2.29478 -2.7243 0
M  V30 4759 O 447.354 -3.32485 -4.33724 0
M  V30 4760 H 444.448 -0.474459 -0.677361 0
M  V30 4761 H 446.994 -1.48454 -0.82216 0
M  V30 4762 H 445.766 -3.2498 -2.17953 0
M  V30 4763 H 445.389 -2.05112 -3.40609 0
M  V30 4764 N 446.386 1.0089 -1.21074 0
M  V30 4765 C 447.634 1.74262 -1.02358 0
M  V30 4766 C 447.955 1.89869 0.444393 0
M  V30 4767 O 447.225 1.44677 1.32081 0
M  V30 4768 H 445.805 0.645615 -0.375754 0
M  V30 4769 H 448.467 1.21596 -1.52317 0
M  V30 4770 H 447.563 2.74328 -1.4883 0
M  V30 4771 N 447.864 1.01787 1.20321 0
M  V30 4772 C 449.089 0.727009 1.9424 0
M  V30 4773 C 449.514 -0.706179 1.74341 0
M  V30 4774 O 448.872 -1.48609 1.03852 0
M  V30 4775 C 448.92 1.06958 3.44372 0
M  V30 4776 O 448.024 0.181983 4.11998 0
M  V30 4777 H 447.365 0.269626 0.606793 0
M  V30 4778 H 449.895 1.36158 1.52716 0
M  V30 4779 H 449.905 1.02182 3.94997 0
M  V30 4780 H 448.58 2.11378 3.58179 0
M  V30 4781 H 447.157 0.287378 3.71791 0
M  V30 4782 N 449.342 -1.36122 0.79427 0
M  V30 4783 C 450.567 -2.03891 0.379871 0
M  V30 4784 C 450.992 -1.59488 -0.997251 0
M  V30 4785 O 450.35 -0.765652 -1.64339 0
M  V30 4786 C 450.398 -3.57687 0.457442 0
M  V30 4787 O 449.502 -4.08931 -0.5338 0
M  V30 4788 H 448.843 -0.6443 0.160541 0
M  V30 4789 H 451.373 -1.73976 1.07673 0
M  V30 4790 H 451.383 -4.06721 0.322792 0
M  V30 4791 H 450.058 -3.89357 1.46199 0
M  V30 4792 H 448.635 -3.71154 -0.360409 0
M  V30 4793 N 450.82 -0.546701 -1.47814 0
M  V30 4794 C 452.231 -0.110564 -1.86372 0
M  V30 4795 C 452.582 1.31678 -1.45449 0
M  V30 4796 O 451.707 1.98889 -0.852758 0
M  V30 4797 C 452.302 -0.193873 -3.38245 0
M  V30 4798 C 450.861 0.187164 -3.75934 0
M  V30 4799 C 450.008 -0.546166 -2.71868 0
M  V30 4800 H 452.959 -0.757022 -1.39481 0
M  V30 4801 H 452.98 0.590218 -3.75895 0
M  V30 4802 H 452.492 -1.23282 -3.67999 0
M  V30 4803 H 450.593 1.22762 -3.51796 0
M  V30 4804 H 450.706 -0.164083 -4.78819 0
M  V30 4805 H 449.07 0.00953904 -2.54698 0
M  V30 4806 H 449.853 -1.58606 -3.04465 0
M  V30 4807 N 452.299 1.55045 -0.282633 0
M  V30 4808 C 453.246 2.22822 0.601566 0
M  V30 4809 C 454.216 1.20431 1.14392 0
M  V30 4810 O 455.401 1.48996 1.19184 0
M  V30 4811 C 452.541 2.95873 1.77632 0
M  V30 4812 C 451.654 4.12999 1.26711 0
M  V30 4813 C 450.789 4.73676 2.40426 0
M  V30 4814 C 449.828 5.82981 1.86545 0
M  V30 4815 N 448.965 6.3769 2.93762 0
M  V30 4816 H 453.805 2.97995 0.0169528 0
M  V30 4817 H 451.342 1.471 -0.00339964 0
M  V30 4818 H 453.3 3.36447 2.46697 0
M  V30 4819 H 451.93 2.2311 2.33285 0
M  V30 4820 H 450.982 3.77494 0.469314 0
M  V30 4821 H 452.294 4.91803 0.832518 0
M  V30 4822 H 451.448 5.17008 3.17471 0
M  V30 4823 H 450.187 3.94164 2.87203 0
M  V30 4824 H 449.192 5.39092 1.07983 0
M  V30 4825 H 450.417 6.64366 1.40694 0
M  V30 4826 H 448.363 5.61069 3.39908 0
M  V30 4827 H 448.28 7.11788 2.54744 0
M  V30 4828 H 449.548 6.8568 3.7076 0
M  V30 4829 N 453.777 0.010035 1.57597 0
M  V30 4830 C 455.023 -0.673697 1.91283 0
M  V30 4831 C 455.356 -1.72863 0.884979 0
M  V30 4832 O 454.631 -1.94268 -0.0949487 0
M  V30 4833 C 454.914 -1.30766 3.35518 0
M  V30 4834 C 454.767 -0.263578 4.49027 0
M  V30 4835 C 456.086 -2.23105 3.79358 0
M  V30 4836 H 453.205 -0.243439 0.695634 0
M  V30 4837 H 455.847 0.0633864 1.89894 0
M  V30 4838 H 453.997 -1.93588 3.36832 0
M  V30 4839 H 455.669 0.365738 4.59848 0
M  V30 4840 H 453.912 0.413077 4.31829 0
M  V30 4841 H 454.583 -0.746398 5.4693 0
M  V30 4842 H 457.059 -1.70289 3.79659 0
M  V30 4843 H 455.935 -2.64424 4.81011 0
M  V30 4844 H 456.196 -3.11433 3.13787 0
M  V30 4845 N 455.255 -1.55392 -0.262866 0
M  V30 4846 C 456.165 -1.92077 -1.34698 0
M  V30 4847 C 457.181 -0.819227 -1.53508 0
M  V30 4848 O 458.357 -1.11921 -1.67439 0
M  V30 4849 C 455.422 -2.19407 -2.68443 0
M  V30 4850 C 454.483 -3.42905 -2.58292 0
M  V30 4851 C 453.716 -3.68921 -3.85659 0
M  V30 4852 O 453.939 -2.97275 -4.8681 0
M  V30 4853 O 452.873 -4.62455 -3.85252 0
M  V30 4854 H 456.699 -2.84384 -1.06581 0
M  V30 4855 H 454.284 -1.42069 -0.462264 0
M  V30 4856 H 456.166 -2.38365 -3.47506 0
M  V30 4857 H 454.841 -1.30282 -2.96325 0
M  V30 4858 H 453.748 -3.29272 -1.7757 0
M  V30 4859 H 455.081 -4.32282 -2.35358 0
M  V30 4860 N 456.733 0.527833 -1.48498 0
M  V30 4861 C 457.98 1.28354 -1.56625 0
M  V30 4862 C 458.308 1.93 -0.241096 0
M  V30 4863 O 457.563 1.79967 0.768798 0
M  V30 4864 C 457.862 2.39275 -2.65485 0
M  V30 4865 C 457.528 1.92268 -4.07853 0
M  V30 4866 C 456.19 1.79166 -4.46602 0
M  V30 4867 C 458.542 1.56771 -4.97064 0
M  V30 4868 C 455.87 1.28905 -5.72364 0
M  V30 4869 C 458.222 1.07972 -6.23318 0
M  V30 4870 C 456.886 0.934887 -6.60921 0
M  V30 4871 H 456.156 0.469682 -0.573131 0
M  V30 4872 H 458.803 0.588781 -1.82224 0
M  V30 4873 H 457.108 3.1443 -2.33754 0
M  V30 4874 H 458.805 2.974 -2.68988 0
M  V30 4875 H 455.395 2.03417 -3.77252 0
M  V30 4876 H 459.579 1.65753 -4.67803 0
M  V30 4877 H 454.835 1.16381 -6.00221 0
M  V30 4878 H 459.009 0.795775 -6.91838 0
M  V30 4879 H 456.636 0.543231 -7.58257 0
M  V30 4880 N 458.211 1.37122 0.776871 0
M  V30 4881 C 459.436 1.354 1.57104 0
M  V30 4882 C 459.861 -0.0595562 1.88006 0
M  V30 4883 O 459.219 -1.03514 1.48844 0
M  V30 4884 C 459.267 2.19472 2.8612 0
M  V30 4885 O 458.371 1.59582 3.80273 0
M  V30 4886 H 457.712 0.462869 0.476076 0
M  V30 4887 H 460.242 1.80577 0.961932 0
M  V30 4888 H 460.252 2.32502 3.35271 0
M  V30 4889 H 458.927 3.22222 2.62956 0
M  V30 4890 H 457.504 1.55564 3.38902 0
M  V30 4891 N 459.689 -1.00246 1.21608 0
M  V30 4892 C 460.637 -2.11193 0.97469 0
M  V30 4893 C 461.631 -1.69216 -0.0789303 0
M  V30 4894 O 462.837 -1.79853 0.0726806 0
M  V30 4895 H 459.212 -0.690455 0.297953 0
M  V30 4896 H 461.183 -2.2873 1.91638 0
M  V30 4897 C 459.932 -3.43182 0.558717 0
M  V30 4898 H 459.255 -3.75918 1.3611 0
M  V30 4899 H 460.695 -4.21823 0.429154 0
M  V30 4900 C 459.154 -3.28882 -0.730648 0
M  V30 4901 O 459.684 -3.59835 -1.78554 0
M  V30 4902 N 457.89 -2.8209 -0.698131 0
M  V30 4903 H 457.437 -2.57099 0.16061 0
M  V30 4904 H 457.395 -2.72903 -1.56113 0
M  V30 4905 N 461.167 -1.02423 -1.1978 0
M  V30 4906 C 462.13 -0.605703 -2.21052 0
M  V30 4907 C 463.13 0.328209 -1.57415 0
M  V30 4908 O 464.32 0.115853 -1.73814 0
M  V30 4909 C 461.452 0.114366 -3.40708 0
M  V30 4910 H 462.645 -1.5017 -2.59594 0
M  V30 4911 H 460.198 -0.814888 -1.33376 0
M  V30 4912 H 460.933 1.02492 -3.07678 0
M  V30 4913 H 460.718 -0.556641 -3.88129 0
M  V30 4914 H 462.208 0.394272 -4.15735 0
M  V30 4915 N 462.645 1.35699 -0.801477 0
M  V30 4916 C 463.595 2.2728 -0.181073 0
M  V30 4917 C 464.579 1.47533 0.642098 0
M  V30 4918 O 465.771 1.69785 0.500193 0
M  V30 4919 C 462.9 3.36626 0.673612 0
M  V30 4920 C 461.986 4.23802 -0.159008 0
M  V30 4921 N 462.377 4.90879 -1.2195 0
M  V30 4922 C 460.675 4.45959 0.0602005 0
M  V30 4923 C 461.376 5.5546 -1.72738 0
M  V30 4924 N 460.352 5.33663 -1.03465 0
M  V30 4925 H 464.154 2.76632 -0.992582 0
M  V30 4926 H 461.668 1.49166 -0.642127 0
M  V30 4927 H 463.665 4.01179 1.13408 0
M  V30 4928 H 462.325 2.88828 1.48353 0
M  V30 4929 H 463.336 4.92497 -1.60209 0
M  V30 4930 H 460.013 4.08969 0.839664 0
M  V30 4931 H 461.403 6.18991 -2.61342 0
M  V30 4932 N 464.123 0.554532 1.47522 0
M  V30 4933 C 465.371 0.0294208 2.02079 0
M  V30 4934 C 465.692 -1.32411 1.43151 0
M  V30 4935 O 464.962 -1.863 0.605728 0
M  V30 4936 H 463.542 0.00788672 0.746958 0
M  V30 4937 H 466.204 0.723934 1.80956 0
M  V30 4938 H 465.3 -0.0606745 3.12041 0
M  V30 4939 N 465.601 -1.54893 0.290851 0
M  V30 4940 C 466.848 -1.99933 -0.321391 0
M  V30 4941 C 467.176 -1.17927 -1.54672 0
M  V30 4942 O 466.431 -0.240902 -1.94212 0
M  V30 4943 C 466.73 -3.49815 -0.732397 0
M  V30 4944 C 466.396 -4.4921 0.390056 0
M  V30 4945 C 465.058 -4.76107 0.698223 0
M  V30 4946 C 467.41 -5.08453 1.14562 0
M  V30 4947 C 464.738 -5.59514 1.76526 0
M  V30 4948 C 467.09 -5.9302 2.2025 0
M  V30 4949 C 465.754 -6.18232 2.51684 0
M  V30 4950 H 465.024 -0.731608 -0.117605 0
M  V30 4951 H 467.671 -1.87107 0.407839 0
M  V30 4952 H 465.976 -3.60199 -1.54155 0
M  V30 4953 H 467.673 -3.82083 -1.21712 0
M  V30 4954 H 464.263 -4.28372 0.13976 0
M  V30 4955 H 468.447 -4.87683 0.920801 0
M  V30 4956 H 463.703 -5.77289 2.01364 0
M  V30 4957 H 467.877 -6.37955 2.7926 0
M  V30 4958 H 465.504 -6.82653 3.34499 0
M  V30 4959 N 467.08 -0.0183926 -1.57589 0
M  V30 4960 C 468.01 0.965596 -2.12599 0
M  V30 4961 C 468.991 1.34641 -1.0395 0
M  V30 4962 O 470.176 1.42693 -1.31729 0
M  V30 4963 C 467.306 2.25149 -2.64434 0
M  V30 4964 C 466.26 2.01175 -3.77773 0
M  V30 4965 C 465.586 3.35937 -4.15994 0
M  V30 4966 C 466.886 1.35953 -5.04296 0
M  V30 4967 H 468.58 0.507504 -2.95067 0
M  V30 4968 H 466.126 0.242671 -1.41941 0
M  V30 4969 H 468.079 2.94357 -3.01549 0
M  V30 4970 H 466.803 2.73105 -1.79112 0
M  V30 4971 H 465.462 1.34388 -3.4108 0
M  V30 4972 H 465.11 3.81631 -3.27669 0
M  V30 4973 H 464.81 3.20705 -4.92364 0
M  V30 4974 H 466.334 4.0643 -4.55683 0
M  V30 4975 H 467.748 1.95144 -5.39065 0
M  V30 4976 H 466.145 1.31152 -5.85593 0
M  V30 4977 H 467.215 0.331071 -4.83768 0
M  V30 4978 N 468.558 1.5553 0.254621 0
M  V30 4979 C 469.488 1.9268 1.31897 0
M  V30 4980 C 470.469 0.790797 1.506 0
M  V30 4981 O 471.654 1.05045 1.63337 0
M  V30 4982 C 468.784 2.21477 2.67517 0
M  V30 4983 C 467.738 3.37256 2.63519 0
M  V30 4984 C 467.064 3.51576 4.02862 0
M  V30 4985 C 468.364 4.73157 2.21179 0
M  V30 4986 H 470.058 2.81832 1.01051 0
M  V30 4987 H 467.604 1.35599 0.484662 0
M  V30 4988 H 469.557 2.46055 3.42104 0
M  V30 4989 H 468.281 1.29144 2.99982 0
M  V30 4990 H 466.94 3.12675 1.9139 0
M  V30 4991 H 466.588 2.56676 4.32581 0
M  V30 4992 H 466.288 4.2943 4.01078 0
M  V30 4993 H 467.812 3.78467 4.79161 0
M  V30 4994 H 469.226 4.97158 2.85494 0
M  V30 4995 H 467.623 5.54058 2.30521 0
M  V30 4996 H 468.693 4.70739 1.16332 0
M  V30 4997 N 470.036 -0.519951 1.48776 0
M  V30 4998 C 471.313 -1.28123 1.47797 0
M  V30 4999 C 471.693 -2.10196 0.195157 0
M  V30 5000 O 471.041 -2.13167 -0.822925 0
M  V30 5001 C 471.251 -2.15413 2.74587 0
M  V30 5002 C 472.599 -2.75225 3.23321 0
M  V30 5003 O 473.623 -2.25694 2.75574 0
M  V30 5004 O 472.482 -3.65346 4.06429 0
M  V30 5005 H 469.576 -0.578793 0.590701 0
M  V30 5006 H 472.122 -0.535779 1.6102 0
M  V30 5007 H 470.894 -1.54617 3.59457 0
M  V30 5008 H 470.517 -2.97186 2.64132 0
M  V30 5009 N 471.514 -1.37532 -0.769588 0
M  V30 5010 C 472.742 -1.36059 -1.55871 0
M  V30 5011 C 473.157 0.053544 -1.88724 0
M  V30 5012 O 472.514 1.01591 -1.5161 0
M  V30 5013 C 472.565 -2.20107 -2.86767 0
M  V30 5014 O 472.286 -3.56009 -2.55321 0
M  V30 5015 C 473.787 -2.26636 -3.80987 0
M  V30 5016 H 471.007 -0.465967 -0.482821 0
M  V30 5017 H 473.551 -1.80901 -0.953686 0
M  V30 5018 H 471.706 -1.78768 -3.43687 0
M  V30 5019 H 472.12 -4.0009 -3.39158 0
M  V30 5020 H 473.594 -2.89763 -4.69831 0
M  V30 5021 H 474.071 -1.2754 -4.20274 0
M  V30 5022 H 474.677 -2.68296 -3.29996 0
M  V30 5023 N 472.992 0.995999 -1.22138 0
M  V30 5024 C 474.217 1.77601 -1.0711 0
M  V30 5025 C 474.642 1.84339 0.374264 0
M  V30 5026 O 474 1.29359 1.27028 0
M  V30 5027 C 474.048 3.18897 -1.68336 0
M  V30 5028 O 473.152 4.01663 -0.934928 0
M  V30 5029 H 472.493 0.547011 -0.376397 0
M  V30 5030 H 475.023 1.25137 -1.6187 0
M  V30 5031 H 475.033 3.69539 -1.72931 0
M  V30 5032 H 473.708 3.13308 -2.73516 0
M  V30 5033 H 472.285 3.60204 -0.964751 0
M  V30 5034 N 474.47 1.03057 1.19235 0
M  V30 5035 C 475.4 0.633497 2.24742 0
M  V30 5036 C 476.381 -0.358335 1.66283 0
M  V30 5037 O 477.566 -0.240676 1.92703 0
M  V30 5038 C 474.696 -0.0147648 3.47297 0
M  V30 5039 C 473.65 0.899527 4.18441 0
M  V30 5040 C 472.976 0.116281 5.34574 0
M  V30 5041 C 474.276 2.21404 4.73051 0
M  V30 5042 H 475.97 1.5155 2.58211 0
M  V30 5043 H 473.516 0.73014 1.24117 0
M  V30 5044 H 475.469 -0.304202 4.20301 0
M  V30 5045 H 474.193 -0.931577 3.13032 0
M  V30 5046 H 472.852 1.17319 3.47321 0
M  V30 5047 H 472.5 -0.802619 4.96555 0
M  V30 5048 H 472.2 0.725293 5.83107 0
M  V30 5049 H 473.724 -0.166376 6.10373 0
M  V30 5050 H 475.138 1.98601 5.37802 0
M  V30 5051 H 473.535 2.77512 5.32078 0
M  V30 5052 H 474.605 2.86752 3.91026 0
M  V30 5053 N 475.948 -1.35272 0.808662 0
M  V30 5054 C 476.858 -2.33546 0.222079 0
M  V30 5055 C 477.874 -1.6196 -0.636011 0
M  V30 5056 O 479.05 -1.93822 -0.547274 0
M  V30 5057 C 476.115 -3.41148 -0.61795 0
M  V30 5058 C 475.176 -4.28507 0.260875 0
M  V30 5059 C 474.409 -5.3097 -0.539156 0
M  V30 5060 O 474.632 -5.42123 -1.77367 0
M  V30 5061 O 473.566 -6.01858 0.0710526 0
M  V30 5062 H 477.392 -2.85515 1.03512 0
M  V30 5063 H 474.977 -1.38079 0.570495 0
M  V30 5064 H 476.859 -4.06889 -1.09634 0
M  V30 5065 H 475.534 -2.91447 -1.40855 0
M  V30 5066 H 474.441 -3.6574 0.786451 0
M  V30 5067 H 475.774 -4.81611 1.01547 0
M  V30 5068 N 477.426 -0.562348 -1.47226 0
M  V30 5069 C 478.837 -0.130325 -1.86245 0
M  V30 5070 C 479.188 1.30128 -1.46838 0
M  V30 5071 O 478.313 1.97974 -0.873805 0
M  V30 5072 C 478.908 -0.229738 -3.3802 0
M  V30 5073 C 477.467 0.14728 -3.76112 0
M  V30 5074 C 476.614 -0.574971 -2.71274 0
M  V30 5075 H 479.565 -0.771773 -1.3867 0
M  V30 5076 H 479.586 0.550316 -3.76499 0
M  V30 5077 H 479.098 -1.27178 -3.66671 0
M  V30 5078 H 477.199 1.19023 -3.53078 0
M  V30 5079 H 477.312 -0.214858 -4.78618 0
M  V30 5080 H 475.676 -0.0174756 -2.54694 0
M  V30 5081 H 476.459 -1.61827 -3.02766 0
M  V30 5082 N 478.904 1.54736 -0.299062 0
M  V30 5083 C 480.315 1.8569 0.193971 0
M  V30 5084 C 480.666 1.22101 1.53577 0
M  V30 5085 O 479.791 0.51799 2.10109 0
M  V30 5086 C 480.386 3.36895 0.358733 0
M  V30 5087 C 478.945 3.67887 0.795986 0
M  V30 5088 C 478.092 2.77131 -0.096807 0
M  V30 5089 H 481.043 1.49934 -0.520134 0
M  V30 5090 H 481.064 3.61294 1.19361 0
M  V30 5091 H 480.576 3.83148 -0.617998 0
M  V30 5092 H 478.677 3.27151 1.78334 0
M  V30 5093 H 478.79 4.75114 0.616718 0
M  V30 5094 H 477.154 2.51153 0.423581 0
M  V30 5095 H 477.937 3.26204 -1.06986 0
M  V30 5096 N 480.382 0.0267497 1.57577 0
M  V30 5097 C 481.312 -0.954308 2.13108 0
M  V30 5098 C 482.293 -1.34088 1.04663 0
M  V30 5099 O 483.478 -1.41992 1.32484 0
M  V30 5100 C 480.608 -2.23744 2.65624 0
M  V30 5101 C 479.562 -1.99168 3.78835 0
M  V30 5102 C 478.888 -3.33726 4.17769 0
M  V30 5103 C 480.188 -1.33277 5.0501 0
M  V30 5104 H 481.882 -0.491848 2.95332 0
M  V30 5105 H 479.428 -0.23514 1.42067 0
M  V30 5106 H 481.381 -2.92754 3.03106 0
M  V30 5107 H 480.105 -2.72151 1.80558 0
M  V30 5108 H 478.764 -1.32577 3.41788 0
M  V30 5109 H 478.412 -3.79888 3.29688 0
M  V30 5110 H 478.112 -3.18089 4.94058 0
M  V30 5111 H 479.636 -4.04008 4.57832 0
M  V30 5112 H 481.05 -1.92283 5.40093 0
M  V30 5113 H 479.447 -1.28045 5.8628 0
M  V30 5114 H 480.517 -0.305411 4.83937 0
M  V30 5115 N 481.861 -1.55662 -0.24637 0
M  V30 5116 C 483.101 -1.79283 -0.981685 0
M  V30 5117 C 483.465 -0.596356 -1.82504 0
M  V30 5118 O 484.666 -0.711342 -2.59217 0
M  V30 5119 C 482.937 -3.07648 -1.819 0
M  V30 5120 S 484.496 -3.52491 -2.61334 0
M  V30 5121 H 481.314 -0.629676 -0.330196 0
M  V30 5122 H 483.916 -1.93901 -0.249498 0
M  V30 5123 H 482.62 -3.92794 -1.18915 0
M  V30 5124 H 482.151 -2.95768 -2.59393 0
M  V30 5125 H 484.166 -3.13866 -3.84321 0
M  V30 5126 N 483.339 0.512053 -1.4905 0
M  V30 5127 C 484.587 1.26436 -1.57665 0
M  V30 5128 C 484.908 1.93255 -0.260293 0
M  V30 5129 O 484.178 1.82206 0.719564 0
M  V30 5130 H 482.758 0.469658 -0.580888 0
M  V30 5131 H 485.42 0.594398 -1.85615 0
M  V30 5132 H 484.516 2.03417 -2.36702 0
M  V30 5133 N 484.817 1.37938 0.762283 0
M  V30 5134 C 485.749 1.30349 1.88525 0
M  V30 5135 C 486.762 0.217402 1.61342 0
M  V30 5136 O 487.951 0.474291 1.72084 0
M  V30 5137 C 485.051 0.994844 3.23969 0
M  V30 5138 C 484.224 2.18829 3.78725 0
M  V30 5139 C 483.283 1.84844 4.92665 0
M  V30 5140 O 482.309 2.57244 5.07754 0
M  V30 5141 N 483.511 0.798201 5.74986 0
M  V30 5142 H 486.276 2.27114 1.95549 0
M  V30 5143 H 483.837 1.31686 0.941825 0
M  V30 5144 H 485.829 0.748168 3.97724 0
M  V30 5145 H 484.399 0.115446 3.12387 0
M  V30 5146 H 483.619 2.59615 2.96637 0
M  V30 5147 H 484.907 2.98497 4.1204 0
M  V30 5148 H 484.305 0.197611 5.65355 0
M  V30 5149 H 482.862 0.611396 6.48926 0
M  V30 5150 N 486.295 -0.989507 1.22664 0
M  V30 5151 C 487.523 -1.76496 1.07967 0
M  V30 5152 C 487.938 -1.85148 -0.369543 0
M  V30 5153 O 487.295 -1.32408 -1.25596 0
M  V30 5154 C 487.346 -3.19642 1.68853 0
M  V30 5155 O 487.067 -3.11453 3.08105 0
M  V30 5156 C 488.568 -4.13621 1.59475 0
M  V30 5157 H 485.788 -0.55418 0.378319 0
M  V30 5158 H 488.332 -1.24378 1.62328 0
M  V30 5159 H 486.487 -3.68816 1.18547 0
M  V30 5160 H 486.901 -4.01499 3.37489 0
M  V30 5161 H 488.375 -5.11801 2.06795 0
M  V30 5162 H 488.852 -4.35718 0.55191 0
M  V30 5163 H 489.458 -3.70346 2.09103 0
M  V30 5164 N 487.773 -1.03688 -1.18687 0
M  V30 5165 C 488.703 -0.645407 -2.24403 0
M  V30 5166 C 489.684 0.349511 -1.66471 0
M  V30 5167 O 490.869 0.230453 -1.92828 0
M  V30 5168 C 487.999 -0.00365337 -3.473 0
M  V30 5169 C 486.953 -0.921705 -4.17958 0
M  V30 5170 C 486.279 -0.144629 -5.34504 0
M  V30 5171 C 487.579 -2.23909 -4.71871 0
M  V30 5172 H 489.273 -1.52917 -2.57404 0
M  V30 5173 H 486.819 -0.736711 -1.23728 0
M  V30 5174 H 488.772 0.281908 -4.20456 0
M  V30 5175 H 487.496 0.914963 -3.13522 0
M  V30 5176 H 486.155 -1.19159 -3.46694 0
M  V30 5177 H 485.803 0.776274 -4.96974 0
M  V30 5178 H 485.503 -0.756206 -5.82714 0
M  V30 5179 H 487.027 0.134004 -6.10453 0
M  V30 5180 H 488.441 -2.0145 -5.36741 0
M  V30 5181 H 486.838 -2.8033 -5.30599 0
M  V30 5182 H 487.908 -2.88822 -3.895 0
M  V30 5183 N 489.251 1.34841 -0.815825 0
M  V30 5184 C 490.491 2.00321 -0.406297 0
M  V30 5185 C 490.855 1.63293 1.00992 0
M  V30 5186 O 492.056 2.21563 1.52195 0
M  V30 5187 C 490.327 3.52421 -0.594469 0
M  V30 5188 S 491.886 4.37926 -0.276735 0
M  V30 5189 H 488.704 0.694155 -0.153848 0
M  V30 5190 H 491.306 1.64263 -1.06009 0
M  V30 5191 H 490.01 3.76858 -1.625 0
M  V30 5192 H 489.541 3.9333 0.0743157 0
M  V30 5193 H 491.556 4.87743 0.912215 0
M  V30 5194 N 490.729 0.570148 1.46925 0
M  V30 5195 C 492.006 -0.0153259 1.95594 0
M  V30 5196 C 492.386 -1.47232 1.51281 0
M  V30 5197 O 491.734 -2.15574 0.757624 0
M  V30 5198 C 491.944 0.143624 3.48704 0
M  V30 5199 C 493.292 0.00494484 4.246 0
M  V30 5200 O 494.316 0.0718214 3.56128 0
M  V30 5201 O 493.175 -0.141175 5.46318 0
M  V30 5202 H 490.269 -0.0568819 0.825041 0
M  V30 5203 H 492.815 0.637583 1.57267 0
M  V30 5204 H 491.587 1.15699 3.73804 0
M  V30 5205 H 491.21 -0.5463 3.93829 0
M  V30 5206 N 492.207 -1.54576 0.307264 0
M  V30 5207 C 493.155 -2.25208 -0.581723 0
M  V30 5208 C 494.149 -1.26031 -1.13192 0
M  V30 5209 O 495.355 -1.43862 -1.08184 0
M  V30 5210 H 491.73 -0.723173 -0.206214 0
M  V30 5211 H 493.701 -2.98378 0.0364663 0
M  V30 5212 C 492.45 -3.01086 -1.73904 0
M  V30 5213 H 491.773 -3.77208 -1.32491 0
M  V30 5214 H 493.213 -3.5378 -2.33701 0
M  V30 5215 C 491.672 -2.08422 -2.64692 0
M  V30 5216 O 492.202 -1.65636 -3.65961 0
M  V30 5217 N 490.408 -1.74247 -2.32564 0
M  V30 5218 H 489.955 -2.09238 -1.50257 0
M  V30 5219 H 489.913 -1.12524 -2.93574 0
M  V30 5220 N 493.685 -0.035106 -1.57561 0
M  V30 5221 C 494.913 0.652258 -1.9635 0
M  V30 5222 C 495.328 1.65317 -0.911897 0
M  V30 5223 O 494.685 1.82194 0.105657 0
M  V30 5224 C 494.736 1.35337 -3.35211 0
M  V30 5225 O 494.457 0.392548 -4.36338 0
M  V30 5226 C 495.958 2.13199 -3.88666 0
M  V30 5227 H 493.178 0.179444 -0.646561 0
M  V30 5228 H 495.722 -0.0966459 -2.04271 0
M  V30 5229 H 493.877 2.05362 -3.28489 0
M  V30 5230 H 494.291 0.891097 -5.16875 0
M  V30 5231 H 495.765 2.577 -4.88154 0
M  V30 5232 H 496.242 2.97353 -3.23231 0
M  V30 5233 H 496.848 1.48118 -3.98674 0
M  V30 5234 N 495.163 1.55791 0.238111 0
M  V30 5235 C 496.073 1.94196 1.31625 0
M  V30 5236 C 497.089 0.843545 1.52185 0
M  V30 5237 O 498.265 1.1457 1.65637 0
M  V30 5238 C 495.33 2.2365 2.64918 0
M  V30 5239 C 494.391 3.46971 2.52804 0
M  V30 5240 C 493.624 3.7501 3.79741 0
M  V30 5241 O 493.847 3.04982 4.82019 0
M  V30 5242 O 492.781 4.68525 3.77846 0
M  V30 5243 H 496.607 2.86044 1.02043 0
M  V30 5244 H 494.192 1.42786 0.439603 0
M  V30 5245 H 496.074 2.43863 3.4367 0
M  V30 5246 H 494.749 1.34979 2.94215 0
M  V30 5247 H 493.656 3.32055 1.72309 0
M  V30 5248 H 494.989 4.35971 2.28451 0
M  V30 5249 N 496.642 -0.504142 1.49319 0
M  V30 5250 C 497.888 -1.26033 1.58882 0
M  V30 5251 C 498.221 -1.92268 0.273274 0
M  V30 5252 O 497.496 -1.80567 -0.72291 0
M  V30 5253 C 497.779 -2.32976 2.7458 0
M  V30 5254 C 497.632 -1.71263 4.1592 0
M  V30 5255 C 498.951 -3.34561 2.85932 0
M  V30 5256 H 496.07 -0.456863 0.578312 0
M  V30 5257 H 498.712 -0.558965 1.81592 0
M  V30 5258 H 496.862 -2.92796 2.55348 0
M  V30 5259 H 498.534 -1.15294 4.4666 0
M  V30 5260 H 496.777 -1.01686 4.21714 0
M  V30 5261 H 497.448 -2.48816 4.92742 0
M  V30 5262 H 499.924 -2.84727 3.0343 0
M  V30 5263 H 498.8 -4.06754 3.68568 0
M  V30 5264 H 499.061 -3.96695 1.95154 0
M  V30 5265 N 498.12 -1.38341 -0.754957 0
M  V30 5266 C 499.369 -1.33791 -1.5094 0
M  V30 5267 C 499.682 0.0699267 -1.95475 0
M  V30 5268 O 500.888 0.237956 -2.70455 0
M  V30 5269 C 499.344 -2.34934 -2.72643 0
M  V30 5270 C 498.952 -3.81332 -2.35138 0
M  V30 5271 C 500.696 -2.39425 -3.50536 0
M  V30 5272 C 498.603 -4.74164 -3.53444 0
M  V30 5273 H 497.533 -0.497314 -0.566741 0
M  V30 5274 H 500.184 -1.63888 -0.825403 0
M  V30 5275 H 498.566 -1.97878 -3.43017 0
M  V30 5276 H 499.74 -4.27319 -1.7244 0
M  V30 5277 H 498.055 -3.79946 -1.70382 0
M  V30 5278 H 500.652 -3.0598 -4.38498 0
M  V30 5279 H 500.995 -1.41278 -3.91594 0
M  V30 5280 H 501.528 -2.75274 -2.87174 0
M  V30 5281 H 498.267 -5.73501 -3.17453 0
M  V30 5282 H 497.787 -4.3287 -4.15191 0
M  V30 5283 H 499.466 -4.92111 -4.20043 0
M  V30 5284 N 499.598 0.982988 -1.23187 0
M  V30 5285 C 500.561 2.05649 -1.01198 0
M  V30 5286 C 501.561 1.6078 0.0252464 0
M  V30 5287 O 502.751 1.72878 -0.214243 0
M  V30 5288 C 499.883 3.36744 -0.530656 0
M  V30 5289 H 501.076 2.2659 -1.96461 0
M  V30 5290 H 498.629 1.15602 -1.05195 0
M  V30 5291 H 499.364 3.21492 0.425873 0
M  V30 5292 H 499.149 3.7065 -1.2791 0
M  V30 5293 H 500.639 4.15705 -0.397366 0
M  V30 5294 N 501.076 1.04316 1.18135 0
M  V30 5295 C 502.301 0.768047 1.92655 0
M  V30 5296 C 502.726 -0.66904 1.758 0
M  V30 5297 O 502.084 -1.46372 1.06981 0
M  V30 5298 C 502.132 1.14239 3.42026 0
M  V30 5299 O 501.236 0.269333 4.1152 0
M  V30 5300 H 500.577 0.282436 0.600937 0
M  V30 5301 H 503.107 1.39367 1.49793 0
M  V30 5302 H 503.117 1.10538 3.92741 0
M  V30 5303 H 501.792 2.18928 3.53615 0
M  V30 5304 H 500.369 0.366175 3.71098 0
M  V30 5305 N 502.554 -1.34406 0.822964 0
M  V30 5306 C 503.784 -2.02214 0.423424 0
M  V30 5307 C 504.192 -1.62124 -0.975322 0
M  V30 5308 O 503.535 -0.822452 -1.6426 0
M  V30 5309 C 503.597 -3.56721 0.446107 0
M  V30 5310 C 503.261 -4.20136 1.79819 0
M  V30 5311 C 504.258 -4.4065 2.75904 0
M  V30 5312 C 501.943 -4.56906 2.08669 0
M  V30 5313 C 503.937 -4.9706 3.99012 0
M  V30 5314 C 501.624 -5.13026 3.32036 0
M  V30 5315 C 502.622 -5.33047 4.27024 0
M  V30 5316 O 502.31 -5.87979 5.48211 0
M  V30 5317 H 502.042 -0.654748 0.168169 0
M  V30 5318 H 504.596 -1.72659 1.11257 0
M  V30 5319 H 502.826 -3.85537 -0.299734 0
M  V30 5320 H 504.515 -4.05845 0.0666114 0
M  V30 5321 H 505.281 -4.12607 2.54912 0
M  V30 5322 H 501.16 -4.40626 1.35535 0
M  V30 5323 H 504.704 -5.12603 4.73164 0
M  V30 5324 H 500.601 -5.40498 3.52891 0
M  V30 5325 H 501.369 -6.06413 5.49732 0
M  V30 5326 N 504.032 -0.577932 -1.46621 0
M  V30 5327 C 504.98 0.170882 -2.31971 0
M  V30 5328 C 505.974 0.889086 -1.44193 0
M  V30 5329 O 507.18 0.808017 -1.60845 0
M  V30 5330 H 503.555 0.0739763 -0.748353 0
M  V30 5331 H 505.526 -0.567856 -2.92947 0
M  V30 5332 C 504.275 1.17438 -3.27267 0
M  V30 5333 H 503.598 0.63116 -3.94787 0
M  V30 5334 H 505.038 1.66882 -3.89778 0
M  V30 5335 C 503.497 2.23292 -2.52274 0
M  V30 5336 O 504.027 3.30567 -2.28229 0
M  V30 5337 N 502.233 1.97772 -2.12919 0
M  V30 5338 H 501.78 1.10545 -2.32675 0
M  V30 5339 H 501.738 2.68809 -1.63062 0
M  V30 5340 N 505.51 1.54411 -0.315457 0
M  V30 5341 C 506.442 2.21527 0.588067 0
M  V30 5342 C 507.455 1.21263 1.08624 0
M  V30 5343 O 508.644 1.47777 1.00121 0
M  V30 5344 C 505.744 2.85963 1.81875 0
M  V30 5345 C 504.917 4.12291 1.46063 0
M  V30 5346 C 503.976 4.60396 2.54799 0
M  V30 5347 O 503.002 5.25265 2.19283 0
M  V30 5348 N 504.204 4.33935 3.85591 0
M  V30 5349 H 506.969 2.99697 0.013414 0
M  V30 5350 H 504.53 1.61308 -0.138295 0
M  V30 5351 H 506.522 3.15071 2.53993 0
M  V30 5352 H 505.092 2.11548 2.30144 0
M  V30 5353 H 504.312 3.90036 0.571445 0
M  V30 5354 H 505.6 4.9452 1.19695 0
M  V30 5355 H 504.998 3.81996 4.17248 0
M  V30 5356 H 503.555 4.67718 4.53964 0
M  V30 5357 N 506.988 0.0434614 1.5754 0
M  V30 5358 C 507.918 -0.931651 2.14109 0
M  V30 5359 C 508.899 -1.32971 1.06079 0
M  V30 5360 O 510.084 -1.40579 1.33982 0
M  V30 5361 C 507.214 -2.20914 2.67982 0
M  V30 5362 C 506.168 -1.95139 3.80926 0
M  V30 5363 C 505.494 -3.29276 4.21285 0
M  V30 5364 C 506.794 -1.27913 5.06395 0
M  V30 5365 H 508.488 -0.460497 2.95837 0
M  V30 5366 H 506.034 -0.220058 1.42309 0
M  V30 5367 H 507.987 -2.89522 3.06194 0
M  V30 5368 H 506.711 -2.70221 1.83434 0
M  V30 5369 H 505.37 -1.28945 3.43175 0
M  V30 5370 H 505.018 -3.76369 3.33699 0
M  V30 5371 H 504.718 -3.12831 4.97404 0
M  V30 5372 H 506.242 -3.99129 4.62091 0
M  V30 5373 H 507.656 -1.86544 5.42102 0
M  V30 5374 H 506.053 -1.2182 5.87605 0
M  V30 5375 H 507.123 -0.254066 4.84234 0
M  V30 5376 N 508.466 -1.55915 -0.229846 0
M  V30 5377 C 509.691 -1.8296 -0.976743 0
M  V30 5378 C 510.116 -0.622735 -1.77493 0
M  V30 5379 O 509.474 0.428431 -1.76165 0
M  V30 5380 C 509.522 -3.07916 -1.8767 0
M  V30 5381 O 508.626 -2.86028 -2.97088 0
M  V30 5382 H 507.967 -0.603453 -0.277021 0
M  V30 5383 H 510.497 -2.0312 -0.245669 0
M  V30 5384 H 510.507 -3.37802 -2.2881 0
M  V30 5385 H 509.182 -3.95389 -1.28996 0
M  V30 5386 H 507.759 -2.67355 -2.59954 0
M  V30 5387 N 509.944 0.496216 -1.49584 0
M  V30 5388 C 511.169 1.27865 -1.63295 0
M  V30 5389 C 511.594 1.85592 -0.306156 0
M  V30 5390 O 510.952 1.66092 0.726851 0
M  V30 5391 C 511 2.38128 -2.7079 0
M  V30 5392 O 510.104 3.42108 -2.30296 0
M  V30 5393 H 509.445 0.377279 -0.546403 0
M  V30 5394 H 511.975 0.593497 -1.95803 0
M  V30 5395 H 511.985 2.8382 -2.93104 0
M  V30 5396 H 510.66 1.95479 -3.67098 0
M  V30 5397 H 509.237 3.02301 -2.18331 0
M  V30 5398 N 511.423 1.38739 0.74761 0
M  V30 5399 C 512.67 1.35274 1.50689 0
M  V30 5400 C 512.998 -0.0553359 1.94421 0
M  V30 5401 O 512.253 -1.03365 1.66175 0
M  V30 5402 C 512.552 2.25992 2.7688 0
M  V30 5403 C 512.218 3.73854 2.5208 0
M  V30 5404 C 510.88 4.14145 2.45025 0
M  V30 5405 C 513.232 4.67427 2.30568 0
M  V30 5406 C 510.56 5.4609 2.14483 0
M  V30 5407 C 512.912 5.99635 2.01545 0
M  V30 5408 C 511.576 6.39004 1.92951 0
M  V30 5409 H 510.846 0.495003 0.55141 0
M  V30 5410 H 513.493 1.71145 0.859158 0
M  V30 5411 H 511.798 1.83196 3.46333 0
M  V30 5412 H 513.495 2.20611 3.34861 0
M  V30 5413 H 510.085 3.41913 2.58444 0
M  V30 5414 H 514.269 4.3714 2.34994 0
M  V30 5415 H 509.525 5.75528 2.06342 0
M  V30 5416 H 513.699 6.71678 1.83906 0
M  V30 5417 H 511.326 7.41165 1.6905 0
M  V30 5418 N 512.901 -0.976442 1.23707 0
M  V30 5419 C 514.317 -1.24341 1.00058 0
M  V30 5420 C 514.517 -1.99315 -0.295932 0
M  V30 5421 O 513.573 -2.3123 -1.01435 0
M  V30 5422 C 514.886 -2.03909 2.21001 0
M  V30 5423 C 516.434 -2.17034 2.25534 0
M  V30 5424 C 516.909 -2.99994 3.46075 0
M  V30 5425 N 518.4 -3.07578 3.46338 0
M  V30 5426 C 519.135 -3.72104 4.36264 0
M  V30 5427 N 518.631 -4.3842 5.36432 0
M  V30 5428 N 520.424 -3.69029 4.23998 0
M  V30 5429 H 512.575 -0.47428 2.07037 0
M  V30 5430 H 514.838 -0.272167 0.908091 0
M  V30 5431 H 514.544 -1.56198 3.15111 0
M  V30 5432 H 514.418 -3.04654 2.22409 0
M  V30 5433 H 516.805 -2.63951 1.31961 0
M  V30 5434 H 516.886 -1.15664 2.28156 0
M  V30 5435 H 516.53 -2.53772 4.39957 0
M  V30 5436 H 516.46 -4.01541 3.40694 0
M  V30 5437 H 518.951 -2.60397 2.73865 0
M  V30 5438 H 519.264 -4.85447 6.013 0
M  V30 5439 H 517.609 -4.37116 5.40328 0
M  V30 5440 H 520.8 -3.16392 3.44984 0
M  V30 5441 H 520.973 -4.19034 4.94282 0
M  V30 5442 N 514.379 -1.04941 -1.1758 0
M  V30 5443 C 515.311 -0.606174 -2.21039 0
M  V30 5444 C 516.324 0.328763 -1.59446 0
M  V30 5445 O 517.513 0.121895 -1.78083 0
M  V30 5446 C 514.613 0.133294 -3.38638 0
M  V30 5447 C 513.786 -0.811711 -4.29802 0
M  V30 5448 C 512.845 -0.113958 -5.26077 0
M  V30 5449 O 511.871 -0.747237 -5.64274 0
M  V30 5450 N 513.073 1.14953 -5.69004 0
M  V30 5451 H 515.838 -1.49606 -2.59689 0
M  V30 5452 H 513.399 -0.930997 -1.32454 0
M  V30 5453 H 515.391 0.610144 -4.00074 0
M  V30 5454 H 513.961 0.924816 -2.98607 0
M  V30 5455 H 513.181 -1.46824 -3.65837 0
M  V30 5456 H 514.469 -1.45326 -4.87604 0
M  V30 5457 H 513.867 1.68441 -5.40041 0
M  V30 5458 H 512.424 1.57049 -6.32597 0
M  V30 5459 N 515.857 1.33968 -0.830081 0
M  V30 5460 C 517.268 1.80439 -0.479455 0
M  V30 5461 C 517.619 1.68756 1.00079 0
M  V30 5462 O 516.744 1.23171 1.77927 0
M  V30 5463 C 517.339 3.27611 -0.863505 0
M  V30 5464 C 515.898 3.72133 -0.565145 0
M  V30 5465 C 515.045 2.55549 -1.07657 0
M  V30 5466 H 517.996 1.21614 -1.0196 0
M  V30 5467 H 518.017 3.8012 -0.170083 0
M  V30 5468 H 517.529 3.36082 -1.94089 0
M  V30 5469 H 515.63 3.69196 0.502536 0
M  V30 5470 H 515.743 4.65963 -1.11422 0
M  V30 5471 H 514.107 2.49788 -0.497807 0
M  V30 5472 H 514.89 2.66786 -2.16055 0
M  V30 5473 N 517.335 0.585699 1.46312 0
M  V30 5474 C 518.282 -0.145835 2.30339 0
M  V30 5475 C 519.252 -0.881215 1.40797 0
M  V30 5476 O 520.437 -0.871293 1.69744 0
M  V30 5477 C 517.577 -1.15161 3.25318 0
M  V30 5478 C 516.69 -0.419367 4.2996 0
M  V30 5479 C 515.825 -1.41293 5.12064 0
M  V30 5480 C 514.864 -0.667261 6.08452 0
M  V30 5481 N 514.001 -1.60903 6.83414 0
M  V30 5482 H 518.841 0.576755 2.92365 0
M  V30 5483 H 516.378 0.296237 1.44086 0
M  V30 5484 H 518.336 -1.74763 3.78832 0
M  V30 5485 H 516.966 -1.84188 2.65094 0
M  V30 5486 H 516.018 0.291751 3.7928 0
M  V30 5487 H 517.33 0.163433 4.98532 0
M  V30 5488 H 516.484 -2.08167 5.6987 0
M  V30 5489 H 515.223 -2.02966 4.43459 0
M  V30 5490 H 514.228 0.0152356 5.49798 0
M  V30 5491 H 515.453 -0.0558817 6.79077 0
M  V30 5492 H 513.399 -2.21381 6.17516 0
M  V30 5493 H 513.316 -1.07911 7.48259 0
M  V30 5494 H 514.584 -2.26802 7.45775 0
M  V30 5495 N 518.813 -1.54241 0.323641 0
M  V30 5496 C 520.059 -2.00867 -0.279323 0
M  V30 5497 C 520.392 -1.21146 -1.5178 0
M  V30 5498 O 519.667 -0.29378 -1.92269 0
M  V30 5499 C 519.95 -3.54837 -0.613387 0
M  V30 5500 C 519.803 -4.45284 0.635803 0
M  V30 5501 C 521.122 -4.16186 -1.43099 0
M  V30 5502 H 518.241 -0.730177 -0.100049 0
M  V30 5503 H 520.883 -1.84829 0.440235 0
M  V30 5504 H 519.033 -3.68634 -1.22641 0
M  V30 5505 H 520.705 -4.43357 1.27406 0
M  V30 5506 H 518.948 -4.14956 1.26466 0
M  V30 5507 H 519.619 -5.5084 0.357597 0
M  V30 5508 H 522.095 -4.05964 -0.912814 0
M  V30 5509 H 520.971 -5.24031 -1.6335 0
M  V30 5510 H 521.232 -3.69516 -2.42715 0
M  V30 5511 N 520.291 -0.0518155 -1.57515 0
M  V30 5512 C 521.537 0.622745 -1.93002 0
M  V30 5513 C 521.87 1.70456 -0.930499 0
M  V30 5514 O 521.145 1.94452 0.0434086 0
M  V30 5515 C 521.428 1.21824 -3.38867 0
M  V30 5516 C 521.281 0.144434 -4.49568 0
M  V30 5517 C 522.6 2.12968 -3.8514 0
M  V30 5518 H 519.719 0.22491 -0.701844 0
M  V30 5519 H 522.361 -0.113711 -1.89659 0
M  V30 5520 H 520.511 1.8459 -3.41846 0
M  V30 5521 H 522.183 -0.48753 -4.58717 0
M  V30 5522 H 520.426 -0.527424 -4.30582 0
M  V30 5523 H 521.097 0.601127 -5.48717 0
M  V30 5524 H 523.573 1.60163 -3.8404 0
M  V30 5525 H 522.449 2.51578 -4.87852 0
M  V30 5526 H 522.71 3.03004 -3.21934 0
M  V30 5527 N 521.769 1.56035 0.221574 0
M  V30 5528 C 523.185 1.49026 0.571271 0
M  V30 5529 C 523.385 0.746912 1.87146 0
M  V30 5530 O 522.441 0.286566 2.50869 0
M  V30 5531 C 523.754 2.93579 0.650522 0
M  V30 5532 C 525.302 3.04099 0.741151 0
M  V30 5533 C 525.777 4.5001 0.851747 0
M  V30 5534 N 527.268 4.54053 0.915968 0
M  V30 5535 C 528.003 5.64232 1.02125 0
M  V30 5536 N 527.499 6.84164 1.09049 0
M  V30 5537 N 529.292 5.52084 1.05639 0
M  V30 5538 H 521.443 2.02791 -0.63162 0
M  V30 5539 H 523.706 0.921736 -0.221602 0
M  V30 5540 H 523.412 3.50912 -0.235253 0
M  V30 5541 H 523.286 3.45476 1.51413 0
M  V30 5542 H 525.673 2.4683 1.61737 0
M  V30 5543 H 525.754 2.55371 -0.148128 0
M  V30 5544 H 525.398 5.07896 -0.0200117 0
M  V30 5545 H 525.328 4.96444 1.75644 0
M  V30 5546 H 527.819 3.67683 0.872782 0
M  V30 5547 H 528.132 7.63883 1.1706 0
M  V30 5548 H 526.477 6.86875 1.05962 0
M  V30 5549 H 529.668 4.57317 0.998953 0
M  V30 5550 H 529.841 6.37983 1.13498 0
M  V30 5551 N 523.247 -0.488276 1.49845 0
M  V30 5552 C 524.477 -1.26344 1.63465 0
M  V30 5553 C 524.885 -1.86637 0.310379 0
M  V30 5554 O 524.228 -1.69184 -0.715712 0
M  V30 5555 C 524.29 -2.42407 2.65479 0
M  V30 5556 C 523.954 -2.02886 4.09495 0
M  V30 5557 C 524.951 -1.56124 4.95904 0
M  V30 5558 C 522.636 -2.12131 4.55308 0
M  V30 5559 C 524.63 -1.19129 6.26169 0
M  V30 5560 C 522.317 -1.74747 5.85582 0
M  V30 5561 C 523.315 -1.28322 6.70837 0
M  V30 5562 O 523.003 -0.914491 7.98682 0
M  V30 5563 H 522.735 -0.388921 0.552916 0
M  V30 5564 H 525.289 -0.591288 1.96705 0
M  V30 5565 H 523.519 -3.12739 2.27445 0
M  V30 5566 H 525.208 -3.04409 2.68495 0
M  V30 5567 H 525.974 -1.48417 4.61733 0
M  V30 5568 H 521.853 -2.47217 3.89107 0
M  V30 5569 H 525.397 -0.828211 6.92666 0
M  V30 5570 H 521.294 -1.82109 6.19279 0
M  V30 5571 H 522.062 -1.04485 8.11804 0
M  V30 5572 N 524.725 -1.39134 -0.740242 0
M  V30 5573 C 526.141 -1.20623 -1.0451 0
M  V30 5574 C 526.341 -0.0641651 -2.01398 0
M  V30 5575 O 525.397 0.585843 -2.4561 0
M  V30 5576 C 526.71 -2.53815 -1.6124 0
M  V30 5577 C 528.258 -2.60615 -1.73346 0
M  V30 5578 C 528.733 -3.94015 -2.33486 0
M  V30 5579 N 530.224 -3.95627 -2.40902 0
M  V30 5580 C 530.959 -4.95616 -2.88361 0
M  V30 5581 N 530.455 -6.06003 -3.35756 0
M  V30 5582 N 532.248 -4.82998 -2.87523 0
M  V30 5583 H 524.399 -2.12176 -0.0975576 0
M  V30 5584 H 526.662 -0.942066 -0.105904 0
M  V30 5585 H 526.368 -3.37911 -0.975144 0
M  V30 5586 H 526.242 -2.73162 -2.6012 0
M  V30 5587 H 528.629 -1.76906 -2.36195 0
M  V30 5588 H 528.71 -2.45123 -0.731336 0
M  V30 5589 H 528.354 -4.78153 -1.71267 0
M  V30 5590 H 528.284 -4.06825 -3.34366 0
M  V30 5591 H 530.775 -3.15903 -2.07398 0
M  V30 5592 H 531.088 -6.78215 -3.70464 0
M  V30 5593 H 529.433 -6.09604 -3.33778 0
M  V30 5594 H 532.624 -3.95866 -2.49816 0
M  V30 5595 H 532.797 -5.61072 -3.24196 0
M  V30 5596 N 526.204 0.969867 -1.24223 0
M  V30 5597 C 527.45 1.7151 -1.08223 0
M  V30 5598 C 527.783 1.90478 0.37838 0
M  V30 5599 O 527.058 1.4647 1.27971 0
M  V30 5600 C 527.341 3.10714 -1.82013 0
M  V30 5601 C 527.194 2.9925 -3.35811 0
M  V30 5602 C 528.513 4.10332 -1.59108 0
M  V30 5603 H 525.632 0.622499 -0.394543 0
M  V30 5604 H 528.274 1.1284 -1.52863 0
M  V30 5605 H 526.424 3.608 -1.44068 0
M  V30 5606 H 528.096 2.56608 -3.83341 0
M  V30 5607 H 526.339 2.35512 -3.64303 0
M  V30 5608 H 527.01 3.97857 -3.82641 0
M  V30 5609 H 529.486 3.69097 -1.92111 0
M  V30 5610 H 528.362 5.05804 -2.13198 0
M  V30 5611 H 528.623 4.38926 -0.528832 0
M  V30 5612 N 527.682 1.05563 1.17022 0
M  V30 5613 C 528.928 0.769074 1.87652 0
M  V30 5614 C 529.261 -0.702326 1.81055 0
M  V30 5615 O 528.536 -1.5139 1.22112 0
M  V30 5616 C 528.819 1.25492 3.37526 0
M  V30 5617 C 528.672 2.78953 3.52853 0
M  V30 5618 C 529.991 0.856919 4.31677 0
M  V30 5619 H 527.11 0.280854 0.681388 0
M  V30 5620 H 529.752 1.31027 1.37593 0
M  V30 5621 H 527.902 0.794516 3.80289 0
M  V30 5622 H 529.574 3.33146 3.19079 0
M  V30 5623 H 527.817 3.18046 2.95007 0
M  V30 5624 H 528.488 3.08011 4.58076 0
M  V30 5625 H 530.964 1.25334 3.96775 0
M  V30 5626 H 529.84 1.22443 5.35069 0
M  V30 5627 H 530.101 -0.238787 4.41455 0
M  V30 5628 N 529.16 -1.33526 0.837174 0
M  V30 5629 C 530.108 -2.31168 0.257698 0
M  V30 5630 C 531.102 -1.5806 -0.609388 0
M  V30 5631 O 532.308 -1.72941 -0.499139 0
M  V30 5632 H 528.683 -0.74922 0.0646058 0
M  V30 5633 H 530.654 -2.77552 1.09578 0
M  V30 5634 C 529.403 -3.4326 -0.553887 0
M  V30 5635 H 528.726 -3.99665 0.104008 0
M  V30 5636 H 530.166 -4.13782 -0.925219 0
M  V30 5637 C 528.625 -2.88965 -1.73207 0
M  V30 5638 O 529.155 -2.85013 -2.83073 0
M  V30 5639 N 527.361 -2.45596 -1.55342 0
M  V30 5640 H 526.908 -2.49009 -0.659705 0
M  V30 5641 H 526.866 -2.0962 -2.34322 0
M  V30 5642 N 530.638 -0.59345 -1.46 0
M  V30 5643 C 531.568 0.121192 -2.33185 0
M  V30 5644 C 532.549 0.872977 -1.4599 0
M  V30 5645 O 533.734 0.846321 -1.74789 0
M  V30 5646 C 530.864 1.12844 -3.28456 0
M  V30 5647 C 529.818 0.4908 -4.25177 0
M  V30 5648 C 529.144 1.60529 -5.10034 0
M  V30 5649 C 530.444 -0.578949 -5.19081 0
M  V30 5650 H 532.138 -0.606767 -2.93187 0
M  V30 5651 H 529.684 -0.293242 -1.40983 0
M  V30 5652 H 531.637 1.63684 -3.88311 0
M  V30 5653 H 530.361 1.88681 -2.66584 0
M  V30 5654 H 529.02 0.00339328 -3.666 0
M  V30 5655 H 528.668 2.35359 -4.44539 0
M  V30 5656 H 528.368 1.18422 -5.75543 0
M  V30 5657 H 529.892 2.11623 -5.72755 0
M  V30 5658 H 531.306 -0.155199 -5.7309 0
M  V30 5659 H 529.703 -0.920947 -5.92991 0
M  V30 5660 H 530.773 -1.46109 -4.62364 0
M  V30 5661 N 532.116 1.54067 -0.331816 0
M  V30 5662 C 533.346 2.04833 0.269605 0
M  V30 5663 C 533.754 1.20714 1.45687 0
M  V30 5664 O 533.097 0.232539 1.82222 0
M  V30 5665 C 533.159 3.51386 0.759499 0
M  V30 5666 C 532.823 4.55971 -0.306557 0
M  V30 5667 C 533.82 5.07126 -1.14538 0
M  V30 5668 C 531.505 5.00216 -0.457116 0
M  V30 5669 C 533.499 6.01096 -2.12042 0
M  V30 5670 C 531.186 5.93999 -1.43556 0
M  V30 5671 C 532.184 6.44326 -2.26568 0
M  V30 5672 O 531.872 7.36267 -3.22749 0
M  V30 5673 H 531.604 0.673509 0.0579763 0
M  V30 5674 H 534.158 1.99748 -0.478521 0
M  V30 5675 H 532.388 3.53896 1.55867 0
M  V30 5676 H 534.077 3.85184 1.28017 0
M  V30 5677 H 534.843 4.73716 -1.04009 0
M  V30 5678 H 530.722 4.60652 0.179142 0
M  V30 5679 H 534.266 6.40302 -2.76873 0
M  V30 5680 H 530.163 6.26825 -1.54146 0
M  V30 5681 H 530.931 7.54165 -3.18083 0
M  V30 5682 N 533.594 0.0601682 1.57485 0
M  V30 5683 C 534.504 -0.926121 2.15546 0
M  V30 5684 C 535.52 -1.33532 1.11558 0
M  V30 5685 O 536.696 -1.4104 1.4377 0
M  V30 5686 C 533.761 -2.17952 2.69625 0
M  V30 5687 C 532.822 -1.82783 3.88444 0
M  V30 5688 C 532.055 -3.02148 4.39935 0
M  V30 5689 O 532.278 -4.15803 3.90466 0
M  V30 5690 O 531.212 -2.82639 5.31412 0
M  V30 5691 H 535.038 -0.462289 3.00161 0
M  V30 5692 H 532.623 -0.162246 1.48516 0
M  V30 5693 H 534.505 -2.91474 3.04337 0
M  V30 5694 H 533.18 -2.63456 1.88077 0
M  V30 5695 H 532.087 -1.06549 3.58606 0
M  V30 5696 H 533.42 -1.42072 4.7125 0
M  V30 5697 N 535.072 -1.5615 -0.213296 0
M  V30 5698 C 536.349 -1.70349 -0.961281 0
M  V30 5699 C 536.729 -0.609791 -2.02101 0
M  V30 5700 O 536.077 0.381987 -2.25285 0
M  V30 5701 C 536.287 -3.11982 -1.56424 0
M  V30 5702 C 537.635 -3.71649 -2.05334 0
M  V30 5703 O 538.659 -3.14995 -1.66302 0
M  V30 5704 O 537.518 -4.71038 -2.77102 0
M  V30 5705 H 534.612 -0.694121 -0.449582 0
M  V30 5706 H 537.158 -1.68464 -0.204426 0
M  V30 5707 H 535.93 -3.83046 -0.799457 0
M  V30 5708 H 535.553 -3.18019 -2.38641 0
M  V30 5709 N 536.55 0.480323 -1.50102 0
M  V30 5710 C 537.827 1.24159 -1.51142 0
M  V30 5711 C 538.207 2.09605 -0.250818 0
M  V30 5712 O 537.555 2.15274 0.766118 0
M  V30 5713 C 537.765 2.08057 -2.80202 0
M  V30 5714 C 539.113 2.66556 -3.30504 0
M  V30 5715 O 540.137 2.18308 -2.81461 0
M  V30 5716 O 538.996 3.54442 -4.15973 0
M  V30 5717 H 536.09 0.562928 -0.605839 0
M  V30 5718 H 538.636 0.492899 -1.62384 0
M  V30 5719 H 537.408 1.45032 -3.6343 0
M  V30 5720 H 537.031 2.90079 -2.71919 0
M  V30 5721 N 538.028 1.39524 0.732853 0
M  V30 5722 C 538.978 1.34905 1.83806 0
M  V30 5723 C 539.962 0.229546 1.59254 0
M  V30 5724 O 541.154 0.467255 1.70721 0
M  V30 5725 C 538.283 1.19699 3.21756 0
M  V30 5726 C 537.369 2.36359 3.5213 0
M  V30 5727 N 537.76 3.61834 3.53426 0
M  V30 5728 C 536.058 2.29363 3.82503 0
M  V30 5729 C 536.759 4.38992 3.81655 0
M  V30 5730 N 535.735 3.68606 3.99538 0
M  V30 5731 H 539.537 2.29882 1.83116 0
M  V30 5732 H 537.051 1.33051 0.931194 0
M  V30 5733 H 539.048 1.14472 4.00876 0
M  V30 5734 H 537.708 0.256739 3.23683 0
M  V30 5735 H 538.719 3.95228 3.34686 0
M  V30 5736 H 535.396 1.43612 3.92023 0
M  V30 5737 H 536.786 5.47763 3.89108 0
M  V30 5738 N 539.506 -0.963266 1.24736 0
M  V30 5739 C 540.453 -2.05857 1.04363 0
M  V30 5740 C 541.423 -1.6604 -0.0444951 0
M  V30 5741 O 542.608 -1.90477 0.110999 0
M  V30 5742 C 539.748 -3.38745 0.659235 0
M  V30 5743 C 538.861 -3.9173 1.82131 0
M  V30 5744 C 537.996 -5.12906 1.38208 0
M  V30 5745 C 537.035 -5.58098 2.51382 0
M  V30 5746 N 536.172 -6.7049 2.08295 0
M  V30 5747 H 541.012 -2.22616 1.98107 0
M  V30 5748 H 538.549 -1.09103 0.986661 0
M  V30 5749 H 540.507 -4.15107 0.417371 0
M  V30 5750 H 539.137 -3.21898 -0.241201 0
M  V30 5751 H 538.189 -3.11966 2.17672 0
M  V30 5752 H 539.501 -4.21225 2.67153 0
M  V30 5753 H 538.655 -5.96657 1.09935 0
M  V30 5754 H 537.394 -4.85105 0.502456 0
M  V30 5755 H 536.399 -4.72917 2.80409 0
M  V30 5756 H 537.624 -5.87911 3.39909 0
M  V30 5757 H 535.57 -6.44416 1.22737 0
M  V30 5758 H 535.487 -6.99458 2.86869 0
M  V30 5759 H 536.755 -7.57672 1.83175 0
M  V30 5760 N 540.985 -1.06182 -1.16461 0
M  V30 5761 C 541.933 -0.665716 -2.2287 0
M  V30 5762 C 542.927 0.317822 -1.66392 0
M  V30 5763 O 544.133 0.182807 -1.79069 0
M  V30 5764 H 540.508 -0.197148 -0.725697 0
M  V30 5765 H 542.479 -1.57307 -2.53569 0
M  V30 5766 C 541.228 -0.0669803 -3.47635 0
M  V30 5767 H 540.551 -0.814899 -3.91407 0
M  V30 5768 H 541.991 0.172669 -4.23648 0
M  V30 5769 C 540.45 1.18913 -3.15216 0
M  V30 5770 O 540.98 2.27723 -3.30916 0
M  V30 5771 N 539.186 1.09066 -2.69357 0
M  V30 5772 H 538.733 0.20518 -2.56782 0
M  V30 5773 H 538.691 1.93195 -2.48039 0
M  V30 5774 N 542.463 1.3308 -0.844243 0
M  V30 5775 C 543.874 1.7992 -0.498566 0
M  V30 5776 C 544.225 1.69808 0.982834 0
M  V30 5777 O 543.35 1.25051 1.7661 0
M  V30 5778 C 543.945 3.26677 -0.898204 0
M  V30 5779 C 542.504 3.71513 -0.604583 0
M  V30 5780 C 541.651 2.54393 -1.10362 0
M  V30 5781 H 544.602 1.20526 -1.03244 0
M  V30 5782 H 544.623 3.79918 -0.21039 0
M  V30 5783 H 544.135 3.34004 -1.97643 0
M  V30 5784 H 542.236 3.69708 0.46335 0
M  V30 5785 H 542.349 4.64755 -1.16358 0
M  V30 5786 H 540.713 2.49246 -0.524273 0
M  V30 5787 H 541.496 2.6448 -2.18873 0
M  V30 5788 N 543.941 0.601185 1.45683 0
M  V30 5789 C 545.169 0.100054 2.06658 0
M  V30 5790 C 545.584 -1.21285 1.44691 0
M  V30 5791 O 544.941 -1.73735 0.558772 0
M  V30 5792 C 544.992 -0.0528579 3.61461 0
M  V30 5793 O 544.713 1.20809 4.21114 0
M  V30 5794 C 546.214 -0.586193 4.39407 0
M  V30 5795 H 543.434 0.065905 0.667756 0
M  V30 5796 H 545.978 0.827101 1.87028 0
M  V30 5797 H 544.133 -0.730203 3.80456 0
M  V30 5798 H 544.547 1.03368 5.14213 0
M  V30 5799 H 546.021 -0.642297 5.4825 0
M  V30 5800 H 546.498 -1.60713 4.0874 0
M  V30 5801 H 547.104 0.0568935 4.25262 0
M  V30 5802 N 545.419 -1.53889 0.339982 0
M  V30 5803 C 546.665 -2.01152 -0.258003 0
M  V30 5804 C 546.998 -1.22749 -1.50487 0
M  V30 5805 O 546.273 -0.314156 -1.91946 0
M  V30 5806 C 546.556 -3.55468 -0.575717 0
M  V30 5807 C 546.409 -4.44584 0.682996 0
M  V30 5808 C 547.728 -4.1768 -1.38677 0
M  V30 5809 H 544.847 -0.731198 -0.0922992 0
M  V30 5810 H 547.489 -1.84352 0.459814 0
M  V30 5811 H 545.639 -3.69914 -1.18725 0
M  V30 5812 H 547.311 -4.41981 1.32102 0
M  V30 5813 H 545.554 -4.13592 1.3086 0
M  V30 5814 H 546.225 -5.5043 0.416001 0
M  V30 5815 H 548.701 -4.0691 -0.869705 0
M  V30 5816 H 547.577 -5.25734 -1.57783 0
M  V30 5817 H 547.838 -3.72069 -2.38782 0
M  V30 5818 N 546.897 -0.0685191 -1.57451 0
M  V30 5819 C 548.125 0.610462 -1.97689 0
M  V30 5820 C 548.54 1.63346 -0.946758 0
M  V30 5821 O 547.897 1.82377 0.0669868 0
M  V30 5822 C 547.948 1.28196 -3.38006 0
M  V30 5823 O 547.669 0.299906 -4.37072 0
M  V30 5824 C 549.17 2.04907 -3.931 0
M  V30 5825 H 546.39 0.165689 -0.650222 0
M  V30 5826 H 548.934 -0.139953 -2.04021 0
M  V30 5827 H 547.089 1.98348 -3.32771 0
M  V30 5828 H 547.503 0.78126 -5.18649 0
M  V30 5829 H 548.977 2.47287 -4.93511 0
M  V30 5830 H 549.454 2.9043 -3.29465 0
M  V30 5831 H 550.06 1.39629 -4.01726 0
M  V30 5832 N 548.375 1.56261 0.205012 0
M  V30 5833 C 549.791 1.49623 0.555433 0
M  V30 5834 C 549.991 0.766719 1.86343 0
M  V30 5835 O 549.047 0.313158 2.50551 0
M  V30 5836 C 550.36 2.94253 0.619347 0
M  V30 5837 C 551.908 3.04868 0.708855 0
M  V30 5838 C 552.383 4.50888 0.803969 0
M  V30 5839 N 553.874 4.54999 0.867758 0
M  V30 5840 C 554.609 5.65284 0.96135 0
M  V30 5841 N 554.105 6.85282 1.01786 0
M  V30 5842 N 555.898 5.53174 0.997771 0
M  V30 5843 H 548.049 2.0211 -0.653094 0
M  V30 5844 H 550.312 0.919333 -0.231366 0
M  V30 5845 H 550.018 3.50643 -0.272458 0
M  V30 5846 H 549.892 3.47063 1.47741 0
M  V30 5847 H 552.279 2.48532 1.5911 0
M  V30 5848 H 552.36 2.55199 -0.175205 0
M  V30 5849 H 552.004 5.07846 -0.0738798 0
M  V30 5850 H 551.934 4.98279 1.70369 0
M  V30 5851 H 554.425 3.68588 0.833735 0
M  V30 5852 H 554.738 7.65081 1.08951 0
M  V30 5853 H 553.083 6.8796 0.986706 0
M  V30 5854 H 556.274 4.5835 0.950392 0
M  V30 5855 H 556.447 6.39151 1.06725 0
M  V30 5856 N 549.853 -0.472356 1.50355 0
M  V30 5857 C 550.763 -1.59637 1.7191 0
M  V30 5858 C 551.779 -1.63247 0.602195 0
M  V30 5859 O 552.955 -1.81139 0.880369 0
M  V30 5860 C 550.02 -2.9586 1.80742 0
M  V30 5861 C 549.081 -3.02649 3.04471 0
M  V30 5862 C 548.314 -4.32374 3.12872 0
M  V30 5863 O 548.537 -5.22807 2.28099 0
M  V30 5864 O 547.471 -4.44728 4.05587 0
M  V30 5865 H 551.297 -1.44373 2.67189 0
M  V30 5866 H 548.882 -0.651717 1.34436 0
M  V30 5867 H 550.764 -3.7677 1.88739 0
M  V30 5868 H 549.439 -3.11325 0.88647 0
M  V30 5869 H 548.346 -2.20821 3.01975 0
M  V30 5870 H 549.679 -2.92119 3.9614 0
M  V30 5871 N 551.331 -1.39911 -0.725443 0
M  V30 5872 C 552.263 -1.35301 -1.85003 0
M  V30 5873 C 553.276 -0.260102 -1.60709 0
M  V30 5874 O 554.465 -0.519749 -1.70766 0
M  V30 5875 C 551.565 -1.08039 -3.21218 0
M  V30 5876 C 550.738 -2.28793 -3.7279 0
M  V30 5877 C 549.797 -1.97841 -4.87591 0
M  V30 5878 O 548.823 -2.70616 -5.00755 0
M  V30 5879 N 550.025 -0.950367 -5.72668 0
M  V30 5880 H 552.79 -2.32218 -1.89459 0
M  V30 5881 H 550.351 -1.34137 -0.90658 0
M  V30 5882 H 552.343 -0.853354 -3.95601 0
M  V30 5883 H 550.913 -0.198229 -3.11971 0
M  V30 5884 H 550.133 -2.67388 -2.8965 0
M  V30 5885 H 551.421 -3.09317 -4.03981 0
M  V30 5886 H 550.819 -0.347436 -5.64632 0
M  V30 5887 H 549.376 -0.783232 -6.47077 0
M  V30 5888 N 552.809 0.956637 -1.25245 0
M  V30 5889 C 554.055 1.70352 -1.10036 0
M  V30 5890 C 554.388 1.90869 0.358156 0
M  V30 5891 O 553.663 1.47819 1.26411 0
M  V30 5892 C 553.946 3.08766 -1.85298 0
M  V30 5893 C 553.799 2.95672 -3.38966 0
M  V30 5894 C 555.118 4.08622 -1.63451 0
M  V30 5895 H 552.237 0.618279 -0.401123 0
M  V30 5896 H 554.879 1.11212 -1.54051 0
M  V30 5897 H 553.029 3.59252 -1.47887 0
M  V30 5898 H 554.701 2.52527 -3.86041 0
M  V30 5899 H 552.944 2.31634 -3.6678 0
M  V30 5900 H 553.615 3.93776 -3.86839 0
M  V30 5901 H 556.091 3.67038 -1.96015 0
M  V30 5902 H 554.967 5.03514 -2.18551 0
M  V30 5903 H 555.228 4.3834 -0.575357 0
M  V30 5904 N 554.287 1.06798 1.15896 0
M  V30 5905 C 555.564 0.701057 1.82605 0
M  V30 5906 C 555.944 -0.817066 1.94646 0
M  V30 5907 O 555.292 -1.72933 1.49353 0
M  V30 5908 C 555.502 1.40895 3.19296 0
M  V30 5909 C 556.85 1.55744 3.95005 0
M  V30 5910 O 557.874 1.36927 3.28831 0
M  V30 5911 O 556.733 1.86658 5.13635 0
M  V30 5912 H 553.827 0.248791 0.78869 0
M  V30 5913 H 556.373 1.16857 1.23055 0
M  V30 5914 H 555.145 2.4439 3.05596 0
M  V30 5915 H 554.768 0.931847 3.86526 0
M  V30 5916 N 555.766 -1.3263 0.851289 0
M  V30 5917 C 557.013 -1.97368 0.453023 0
M  V30 5918 C 557.341 -1.67384 -0.990596 0
M  V30 5919 O 556.596 -0.952665 -1.70947 0
M  V30 5920 C 556.895 -3.51713 0.635015 0
M  V30 5921 C 556.561 -4.01676 2.04859 0
M  V30 5922 C 555.223 -4.15031 2.43522 0
M  V30 5923 C 557.575 -4.28206 2.97135 0
M  V30 5924 C 554.903 -4.52257 3.73739 0
M  V30 5925 C 557.255 -4.66889 4.26846 0
M  V30 5926 C 555.919 -4.7845 4.65448 0
M  V30 5927 H 555.189 -0.722219 0.165773 0
M  V30 5928 H 557.836 -1.58092 1.0807 0
M  V30 5929 H 556.141 -3.91726 -0.0759081 0
M  V30 5930 H 557.838 -3.99823 0.306964 0
M  V30 5931 H 554.428 -3.91764 1.73836 0
M  V30 5932 H 558.612 -4.174 2.68498 0
M  V30 5933 H 553.868 -4.59402 4.03435 0
M  V30 5934 H 558.042 -4.86372 4.98413 0
M  V30 5935 H 555.669 -5.07052 5.66395 0
M  V30 5936 N 557.244 -0.608902 -1.45362 0
M  V30 5937 C 558.176 0.147318 -2.28726 0
M  V30 5938 C 559.189 0.830468 -1.40025 0
M  V30 5939 O 560.378 0.695636 -1.64387 0
M  V30 5940 C 557.478 1.22968 -3.15804 0
M  V30 5941 C 556.651 0.633391 -4.3279 0
M  V30 5942 C 555.71 1.60682 -5.01067 0
M  V30 5943 O 554.736 1.13261 -5.57818 0
M  V30 5944 N 555.938 2.94123 -5.00472 0
M  V30 5945 H 558.703 -0.568014 -2.94268 0
M  V30 5946 H 556.264 -0.448479 -1.55564 0
M  V30 5947 H 558.256 1.88072 -3.58345 0
M  V30 5948 H 556.826 1.84752 -2.52162 0
M  V30 5949 H 556.046 -0.195762 -3.93714 0
M  V30 5950 H 557.334 0.215255 -5.08344 0
M  V30 5951 H 556.732 3.3525 -4.55657 0
M  V30 5952 H 555.289 3.54646 -5.46872 0
M  V30 5953 N 558.722 1.53707 -0.348139 0
M  V30 5954 C 559.672 2.2193 0.522592 0
M  V30 5955 C 560.656 1.20831 1.06248 0
M  V30 5956 O 561.848 1.46357 0.995415 0
M  V30 5957 C 558.977 2.99904 1.6707 0
M  V30 5958 C 558.063 4.08364 1.14454 0
M  V30 5959 N 558.454 5.04656 0.339958 0
M  V30 5960 C 556.752 4.22757 1.421 0
M  V30 5961 C 557.453 5.81675 0.0538806 0
M  V30 5962 N 556.429 5.39739 0.646776 0
M  V30 5963 H 560.231 2.93733 -0.099135 0
M  V30 5964 H 557.745 1.61656 -0.15524 0
M  V30 5965 H 559.742 3.47284 2.30651 0
M  V30 5966 H 558.402 2.29629 2.29566 0
M  V30 5967 H 559.413 5.17896 -0.0193552 0
M  V30 5968 H 556.09 3.63704 2.05002 0
M  V30 5969 H 557.48 6.69256 -0.595443 0
M  V30 5970 N 560.2 0.0768682 1.57412 0
M  V30 5971 C 561.15 -0.898795 2.09537 0
M  V30 5972 C 562.134 -1.25556 1.0062 0
M  V30 5973 O 563.326 -1.23369 1.26921 0
M  V30 5974 C 560.455 -2.16453 2.66464 0
M  V30 5975 C 559.541 -1.83401 3.82393 0
M  V30 5976 N 559.932 -1.20823 4.91157 0
M  V30 5977 C 558.23 -2.13121 3.91785 0
M  V30 5978 C 558.931 -1.05976 5.71965 0
M  V30 5979 N 557.907 -1.57113 5.204 0
M  V30 5980 H 561.709 -0.410718 2.91016 0
M  V30 5981 H 559.223 -0.126878 1.61904 0
M  V30 5982 H 561.22 -2.87274 3.02125 0
M  V30 5983 H 559.88 -2.65844 1.86433 0
M  V30 5984 H 560.891 -0.877249 5.10416 0
M  V30 5985 H 557.568 -2.64854 3.22736 0
M  V30 5986 H 558.958 -0.571809 6.69462 0
M  V30 5987 N 561.678 -1.56367 -0.196722 0
M  V30 5988 C 562.61 -1.90941 -1.26784 0
M  V30 5989 C 563.623 -0.799928 -1.41792 0
M  V30 5990 O 564.812 -1.07833 -1.42247 0
M  V30 5991 C 561.912 -2.12477 -2.6402 0
M  V30 5992 C 561.085 -3.43616 -2.70641 0
M  V30 5993 C 560.144 -3.54284 -3.89062 0
M  V30 5994 O 559.17 -4.2712 -3.76241 0
M  V30 5995 N 560.372 -2.87252 -5.04447 0
M  V30 5996 H 563.137 -2.83417 -0.974417 0
M  V30 5997 H 560.698 -1.57215 -0.386649 0
M  V30 5998 H 562.69 -2.16904 -3.41665 0
M  V30 5999 H 561.26 -1.26508 -2.85857 0
M  V30 6000 H 560.48 -3.51072 -1.79283 0
M  V30 6001 H 561.768 -4.29958 -2.72054 0
M  V30 6002 H 561.166 -2.27901 -5.17762 0
M  V30 6003 H 559.723 -2.97308 -5.80044 0
M  V30 6004 N 563.156 0.464375 -1.50603 0
M  V30 6005 C 564.086 1.56944 -1.72889 0
M  V30 6006 C 565.067 1.59979 -0.577997 0
M  V30 6007 O 566.252 1.76138 -0.817855 0
M  V30 6008 C 563.382 2.95225 -1.8292 0
M  V30 6009 C 562.336 3.07056 -2.98162 0
M  V30 6010 C 561.662 4.47051 -2.93343 0
M  V30 6011 C 562.962 2.83648 -4.38567 0
M  V30 6012 H 564.656 1.38547 -2.65415 0
M  V30 6013 H 562.202 0.665082 -1.27721 0
M  V30 6014 H 564.155 3.72467 -1.97095 0
M  V30 6015 H 562.879 3.14793 -0.870209 0
M  V30 6016 H 561.538 2.32248 -2.83648 0
M  V30 6017 H 561.186 4.63547 -1.95276 0
M  V30 6018 H 560.886 4.55902 -3.70712 0
M  V30 6019 H 562.41 5.26304 -3.09575 0
M  V30 6020 H 563.824 3.50636 -4.53572 0
M  V30 6021 H 562.221 3.03937 -5.17438 0
M  V30 6022 H 563.291 1.79451 -4.50472 0
M  V30 6023 N 564.634 1.40294 0.718013 0
M  V30 6024 C 565.597 1.4012 1.81381 0
M  V30 6025 C 566.597 0.295405 1.58063 0
M  V30 6026 O 567.787 0.554187 1.6515 0
M  V30 6027 C 564.919 1.19056 3.19435 0
M  V30 6028 H 566.112 2.37645 1.82933 0
M  V30 6029 H 563.665 1.26107 0.923405 0
M  V30 6030 H 564.4 0.222809 3.23534 0
M  V30 6031 H 564.185 1.99152 3.37758 0
M  V30 6032 H 565.675 1.21716 3.99468 0
M  V30 6033 N 566.112 -0.949982 1.2575 0
M  V30 6034 C 567.022 -2.08109 1.08295 0
M  V30 6035 C 568.038 -1.7399 0.0188181 0
M  V30 6036 O 569.214 -2.00187 0.220724 0
M  V30 6037 C 566.279 -3.39383 0.708534 0
M  V30 6038 C 565.34 -3.8734 1.85111 0
M  V30 6039 C 564.573 -5.12349 1.49447 0
M  V30 6040 O 564.796 -5.6905 0.392212 0
M  V30 6041 O 563.73 -5.5513 2.32624 0
M  V30 6042 H 567.556 -2.25738 2.03165 0
M  V30 6043 H 565.141 -1.06545 1.04731 0
M  V30 6044 H 567.023 -4.18277 0.512061 0
M  V30 6045 H 565.698 -3.23013 -0.210854 0
M  V30 6046 H 564.605 -3.09429 2.10248 0
M  V30 6047 H 565.938 -4.08216 2.74991 0
M  V30 6048 N 567.59 -1.07411 -1.15328 0
M  V30 6049 C 568.553 -0.698914 -2.18284 0
M  V30 6050 C 569.553 0.261149 -1.58665 0
M  V30 6051 O 570.743 0.0420277 -1.74149 0
M  V30 6052 C 567.875 -0.0302427 -3.40887 0
M  V30 6053 H 569.068 -1.61045 -2.52991 0
M  V30 6054 H 566.621 -0.870724 -1.298 0
M  V30 6055 H 567.356 0.893505 -3.11748 0
M  V30 6056 H 567.141 -0.720759 -3.85419 0
M  V30 6057 H 568.631 0.21759 -4.17033 0
M  V30 6058 N 569.068 1.32177 -0.85831 0
M  V30 6059 C 570.315 1.97125 -0.463484 0
M  V30 6060 C 570.643 1.67907 0.981705 0
M  V30 6061 O 569.898 0.961717 1.70439 0
M  V30 6062 C 570.197 3.51372 -0.653658 0
M  V30 6063 C 569.863 4.00584 -2.06987 0
M  V30 6064 C 568.525 4.13733 -2.4572 0
M  V30 6065 C 570.877 4.26624 -2.99402 0
M  V30 6066 C 568.205 4.50268 -3.76132 0
M  V30 6067 C 570.557 4.64618 -4.29316 0
M  V30 6068 C 569.221 4.75975 -4.67979 0
M  V30 6069 H 568.491 0.72133 -0.169601 0
M  V30 6070 H 571.138 1.57517 -1.08907 0
M  V30 6071 H 569.443 3.91761 0.0551328 0
M  V30 6072 H 571.14 3.99655 -0.328163 0
M  V30 6073 H 567.73 3.90837 -1.75911 0
M  V30 6074 H 571.914 4.1597 -2.70708 0
M  V30 6075 H 567.17 4.57256 -4.05865 0
M  V30 6076 H 571.344 4.83722 -5.00985 0
M  V30 6077 H 568.971 5.04041 -5.69076 0
M  V30 6078 N 570.547 0.616602 1.45037 0
M  V30 6079 C 571.494 -0.0969439 2.30596 0
M  V30 6080 C 572.464 -0.851151 1.42635 0
M  V30 6081 O 573.649 -0.835092 1.71554 0
M  V30 6082 C 570.789 -1.08234 3.27688 0
M  V30 6083 C 569.902 -0.328072 4.30752 0
M  V30 6084 C 569.037 -1.30399 5.14946 0
M  V30 6085 C 568.076 -0.538049 6.09731 0
M  V30 6086 N 567.213 -1.46371 6.86673 0
M  V30 6087 H 572.053 0.63864 2.91076 0
M  V30 6088 H 569.59 0.326733 1.43425 0
M  V30 6089 H 571.548 -1.66688 3.82454 0
M  V30 6090 H 570.178 -1.78523 2.68941 0
M  V30 6091 H 569.23 0.372136 3.78575 0
M  V30 6092 H 570.542 0.269142 4.98073 0
M  V30 6093 H 569.696 -1.96032 5.74157 0
M  V30 6094 H 568.435 -1.93514 4.47665 0
M  V30 6095 H 567.44 0.131852 5.49642 0
M  V30 6096 H 568.665 0.0881732 6.79043 0
M  V30 6097 H 566.611 -2.08233 6.22073 0
M  V30 6098 H 566.528 -0.920152 7.50379 0
M  V30 6099 H 567.796 -2.10932 7.50418 0
M  V30 6100 N 572.025 -1.5352 0.356285 0
M  V30 6101 C 572.957 -2.23009 -0.529127 0
M  V30 6102 C 573.97 -1.241 -1.05371 0
M  V30 6103 O 575.159 -1.50379 -0.961679 0
M  V30 6104 C 572.259 -2.90685 -1.74229 0
M  V30 6105 C 571.432 -4.16019 -1.35081 0
M  V30 6106 C 570.491 -4.66989 -2.42502 0
M  V30 6107 O 569.517 -5.30895 -2.05279 0
M  V30 6108 N 570.719 -4.44006 -3.7395 0
M  V30 6109 H 573.484 -2.99627 0.0660501 0
M  V30 6110 H 571.045 -1.60885 0.181014 0
M  V30 6111 H 573.037 -3.21695 -2.4555 0
M  V30 6112 H 571.607 -2.17575 -2.24454 0
M  V30 6113 H 570.827 -3.91414 -0.467833 0
M  V30 6114 H 572.115 -4.9752 -1.06542 0
M  V30 6115 H 571.513 -3.92924 -4.06973 0
M  V30 6116 H 570.07 -4.7959 -4.41403 0
M  V30 6117 N 573.503 -0.0852151 -1.57369 0
M  V30 6118 C 574.733 0.588605 -1.98038 0
M  V30 6119 C 575.141 1.62869 -0.962817 0
M  V30 6120 O 574.484 1.83611 0.057134 0
M  V30 6121 C 574.546 1.30303 -3.35054 0
M  V30 6122 C 574.21 0.414855 -4.55113 0
M  V30 6123 C 575.207 -0.333011 -5.18832 0
M  V30 6124 C 572.892 0.335804 -5.01176 0
M  V30 6125 C 574.886 -1.14801 -6.26976 0
M  V30 6126 C 572.573 -0.482857 -6.09189 0
M  V30 6127 C 573.571 -1.22342 -6.71953 0
M  V30 6128 O 573.259 -2.02855 -7.77885 0
M  V30 6129 H 572.991 0.163249 -0.655992 0
M  V30 6130 H 575.545 -0.1582 -2.0479 0
M  V30 6131 H 573.775 2.0962 -3.24956 0
M  V30 6132 H 575.464 1.87041 -3.60237 0
M  V30 6133 H 576.23 -0.281611 -4.84182 0
M  V30 6134 H 572.109 0.901869 -4.52092 0
M  V30 6135 H 575.653 -1.72654 -6.75897 0
M  V30 6136 H 571.55 -0.535773 -6.43273 0
M  V30 6137 H 572.318 -1.95432 -7.94826 0
M  V30 6138 N 574.981 1.5647 0.188427 0
M  V30 6139 C 575.929 1.95971 1.25293 0
M  V30 6140 C 576.923 0.846047 1.4676 0
M  V30 6141 O 578.129 1.03109 1.47542 0
M  V30 6142 H 574.504 0.623253 0.420784 0
M  V30 6143 H 576.475 2.84731 0.892792 0
M  V30 6144 C 575.224 2.32116 2.58877 0
M  V30 6145 H 574.547 3.17341 2.43176 0
M  V30 6146 H 575.987 2.63613 3.3209 0
M  V30 6147 C 574.446 1.15823 3.16365 0
M  V30 6148 O 574.976 0.436785 3.99318 0
M  V30 6149 N 573.182 0.933278 2.75206 0
M  V30 6150 H 572.729 1.52169 2.07852 0
M  V30 6151 H 572.687 0.156976 3.14008 0
M  V30 6152 N 576.459 -0.456382 1.50847 0
M  V30 6153 C 577.708 -1.2042 1.61808 0
M  V30 6154 C 578.021 -1.9278 0.330932 0
M  V30 6155 O 579.227 -2.69612 0.319643 0
M  V30 6156 C 577.683 -2.18891 2.85683 0
M  V30 6157 C 577.291 -1.52267 4.2133 0
M  V30 6158 C 579.035 -2.94224 3.05994 0
M  V30 6159 C 576.942 -2.4911 5.36375 0
M  V30 6160 H 575.872 -0.453177 0.602616 0
M  V30 6161 H 578.523 -0.473144 1.77295 0
M  V30 6162 H 576.905 -2.95351 2.63787 0
M  V30 6163 H 578.079 -0.814949 4.53536 0
M  V30 6164 H 576.394 -0.891594 4.06743 0
M  V30 6165 H 578.991 -3.66732 3.89117 0
M  V30 6166 H 579.334 -3.54469 2.18306 0
M  V30 6167 H 579.867 -2.24874 3.28141 0
M  V30 6168 H 576.606 -1.93582 6.26264 0
M  V30 6169 H 576.126 -3.17991 5.08569 0
M  V30 6170 H 577.805 -3.10637 5.67551 0
M  V30 6171 N 577.937 -1.40673 -0.710563 0
M  V30 6172 C 579.162 -1.42741 -1.50465 0
M  V30 6173 C 579.587 -0.0302116 -1.88076 0
M  V30 6174 O 578.945 0.962945 -1.53613 0
M  V30 6175 C 578.993 -2.32873 -2.75322 0
M  V30 6176 O 578.097 -1.77544 -3.72226 0
M  V30 6177 H 577.438 -0.485056 -0.45345 0
M  V30 6178 H 579.968 -1.84961 -0.874681 0
M  V30 6179 H 579.978 -2.48233 -3.23797 0
M  V30 6180 H 578.653 -3.34401 -2.47283 0
M  V30 6181 H 577.23 -1.71556 -3.31093 0
M  V30 6182 N 579.415 0.9433 -1.26252 0
M  V30 6183 C 580.661 1.69226 -1.12846 0
M  V30 6184 C 581.016 1.8963 0.325282 0
M  V30 6185 O 580.309 1.46435 1.23561 0
M  V30 6186 C 580.503 3.07073 -1.82868 0
M  V30 6187 C 580.332 3.00118 -3.34902 0
M  V30 6188 C 579.102 3.03251 -4.04186 0
M  V30 6189 C 581.3 2.80418 -4.31127 0
M  V30 6190 N 579.282 2.86573 -5.42908 0
M  V30 6191 C 580.653 2.72287 -5.5701 0
M  V30 6192 C 582.708 2.65185 -4.21404 0
M  V30 6193 C 581.411 2.50479 -6.74279 0
M  V30 6194 C 583.437 2.4475 -5.38378 0
M  V30 6195 C 582.799 2.37349 -6.63208 0
M  V30 6196 H 578.898 0.626716 -0.467708 0
M  V30 6197 H 581.482 1.11645 -1.5951 0
M  V30 6198 H 579.653 3.62797 -1.38682 0
M  V30 6199 H 581.385 3.70816 -1.62103 0
M  V30 6200 H 578.14 3.12882 -3.55531 0
M  V30 6201 H 578.564 2.81408 -6.15742 0
M  V30 6202 H 583.206 2.69675 -3.25631 0
M  V30 6203 H 580.924 2.4473 -7.70151 0
M  V30 6204 H 584.51 2.33872 -5.32724 0
M  V30 6205 H 583.39 2.21746 -7.52196 0
M  V30 6206 N 580.893 1.08022 1.14757 0
M  V30 6207 C 581.803 0.718292 2.23333 0
M  V30 6208 C 582.819 -0.273477 1.71837 0
M  V30 6209 O 583.995 -0.118406 2.01052 0
M  V30 6210 C 581.06 0.128855 3.4646 0
M  V30 6211 C 580.121 1.17473 4.12915 0
M  V30 6212 C 579.354 0.61333 5.30164 0
M  V30 6213 O 579.577 -0.568458 5.6756 0
M  V30 6214 O 578.511 1.3615 5.86299 0
M  V30 6215 H 582.337 1.62394 2.56636 0
M  V30 6216 H 579.922 0.853628 1.22611 0
M  V30 6217 H 581.804 -0.197249 4.20938 0
M  V30 6218 H 580.479 -0.750014 3.14891 0
M  V30 6219 H 579.386 1.5533 3.40328 0
M  V30 6220 H 580.719 2.02574 4.48581 0
M  V30 6221 N 582.371 -1.3172 0.865308 0
M  V30 6222 C 583.301 -2.31109 0.333302 0
M  V30 6223 C 584.282 -1.60148 -0.573301 0
M  V30 6224 O 585.467 -1.87882 -0.491305 0
M  V30 6225 C 582.597 -3.44104 -0.470078 0
M  V30 6226 C 581.551 -4.26623 0.343021 0
M  V30 6227 C 580.877 -5.31482 -0.585756 0
M  V30 6228 C 582.177 -4.98001 1.57456 0
M  V30 6229 H 583.871 -2.75855 1.1638 0
M  V30 6230 H 581.417 -1.3262 0.561069 0
M  V30 6231 H 583.37 -4.12682 -0.852752 0
M  V30 6232 H 582.094 -2.98112 -1.33404 0
M  V30 6233 H 580.753 -3.59707 0.707583 0
M  V30 6234 H 580.401 -4.81741 -1.44686 0
M  V30 6235 H 580.101 -5.87582 -0.0456494 0
M  V30 6236 H 581.625 -6.0292 -0.965375 0
M  V30 6237 H 583.039 -5.59201 1.26359 0
M  V30 6238 H 581.436 -5.63876 2.05339 0
M  V30 6239 H 582.506 -4.25253 2.32997 0
M  V30 6240 N 583.85 -0.624285 -1.44708 0
M  V30 6241 C 585.127 -0.0572781 -1.95516 0
M  V30 6242 C 585.507 1.41516 -1.56641 0
M  V30 6243 O 584.855 2.12614 -0.837111 0
M  V30 6244 C 585.065 -0.272944 -3.47931 0
M  V30 6245 C 586.413 -0.162529 -4.24289 0
M  V30 6246 O 587.437 -0.203946 -3.55616 0
M  V30 6247 O 586.296 -0.0616847 -5.46465 0
M  V30 6248 H 583.389 0.0262219 -0.826584 0
M  V30 6249 H 585.936 -0.695512 -1.54793 0
M  V30 6250 H 584.707 -1.29492 -3.69253 0
M  V30 6251 H 584.331 0.399756 -3.95585 0
M  V30 6252 N 585.328 1.53329 -0.364422 0
M  V30 6253 C 586.574 2.01537 0.225969 0
M  V30 6254 C 586.907 1.25128 1.48515 0
M  V30 6255 O 586.182 0.344653 1.91422 0
M  V30 6256 C 586.465 3.56339 0.519092 0
M  V30 6257 C 586.318 4.43441 -0.753639 0
M  V30 6258 C 587.637 4.19833 1.32015 0
M  V30 6259 H 584.756 0.732573 0.0806548 0
M  V30 6260 H 587.398 1.83597 -0.489084 0
M  V30 6261 H 585.548 3.71756 1.12825 0
M  V30 6262 H 587.22 4.39823 -1.39116 0
M  V30 6263 H 585.463 4.11457 -1.37424 0
M  V30 6264 H 586.134 5.49699 -0.503517 0
M  V30 6265 H 588.61 4.08242 0.804859 0
M  V30 6266 H 587.486 5.28177 1.49399 0
M  V30 6267 H 587.747 3.75821 2.32832 0
M  V30 6268 N 586.806 0.0935595 1.57322 0
M  V30 6269 C 587.736 -0.863062 2.16964 0
M  V30 6270 C 588.717 -1.29528 1.10256 0
M  V30 6271 O 589.902 -1.36245 1.38387 0
M  V30 6272 C 587.032 -2.12276 2.74875 0
M  V30 6273 C 585.986 -1.82921 3.86942 0
M  V30 6274 C 585.312 -3.15707 4.31548 0
M  V30 6275 C 586.612 -1.11737 5.10208 0
M  V30 6276 H 588.306 -0.366145 2.97153 0
M  V30 6277 H 585.852 -0.174673 1.42937 0
M  V30 6278 H 587.805 -2.79634 3.1525 0
M  V30 6279 H 586.529 -2.64248 1.91938 0
M  V30 6280 H 585.188 -1.17961 3.47103 0
M  V30 6281 H 584.836 -3.65563 3.45504 0
M  V30 6282 H 584.536 -2.96849 5.07104 0
M  V30 6283 H 586.06 -3.84226 4.74555 0
M  V30 6284 H 587.474 -1.69203 5.47762 0
M  V30 6285 H 585.871 -1.03064 5.91183 0
M  V30 6286 H 586.941 -0.0998818 4.84797 0
M  V30 6287 N 588.284 -1.56567 -0.180126 0
M  V30 6288 C 589.194 -1.98947 -1.24327 0
M  V30 6289 C 590.21 -0.899446 -1.4895 0
M  V30 6290 O 591.386 -1.20639 -1.61271 0
M  V30 6291 C 588.451 -2.33328 -2.56435 0
M  V30 6292 C 587.512 -3.56114 -2.39752 0
M  V30 6293 C 586.745 -3.88845 -3.65561 0
M  V30 6294 O 586.968 -3.22662 -4.70368 0
M  V30 6295 O 585.902 -4.82226 -3.60197 0
M  V30 6296 H 589.728 -2.89634 -0.913565 0
M  V30 6297 H 587.313 -1.44319 -0.386306 0
M  V30 6298 H 589.195 -2.5645 -3.34382 0
M  V30 6299 H 587.87 -1.45806 -2.89002 0
M  V30 6300 H 586.777 -3.38221 -1.59866 0
M  V30 6301 H 588.11 -4.4415 -2.12113 0
M  V30 6302 N 589.762 0.448376 -1.51087 0
M  V30 6303 C 591.008 1.20049 -1.6345 0
M  V30 6304 C 591.341 1.91121 -0.344444 0
M  V30 6305 O 590.616 1.83125 0.655396 0
M  V30 6306 C 590.899 2.22624 -2.83038 0
M  V30 6307 C 590.752 1.55708 -4.21989 0
M  V30 6308 C 592.071 3.23718 -2.98152 0
M  V30 6309 H 589.19 0.435085 -0.59487 0
M  V30 6310 H 591.832 0.491183 -1.83541 0
M  V30 6311 H 589.982 2.83117 -2.66039 0
M  V30 6312 H 591.654 0.986367 -4.50631 0
M  V30 6313 H 589.897 0.859647 -4.25197 0
M  V30 6314 H 590.568 2.30357 -5.01637 0
M  V30 6315 H 593.044 2.73269 -3.13788 0
M  V30 6316 H 591.92 3.92795 -3.83411 0
M  V30 6317 H 592.181 3.89179 -2.09743 0
M  V30 6318 N 591.24 1.41047 0.703093 0
M  V30 6319 C 592.465 1.43537 1.49706 0
M  V30 6320 C 592.89 0.0401853 1.88057 0
M  V30 6321 O 592.248 -0.954785 1.54122 0
M  V30 6322 C 592.296 2.3433 2.74084 0
M  V30 6323 O 591.4 1.79515 3.71279 0
M  V30 6324 H 590.741 0.487454 0.450871 0
M  V30 6325 H 593.271 1.85422 0.86486 0
M  V30 6326 H 593.281 2.49947 3.22476 0
M  V30 6327 H 591.956 3.35708 2.45506 0
M  V30 6328 H 590.533 1.7331 3.30179 0
M  V30 6329 N 592.718 -0.936591 1.26751 0
M  V30 6330 C 593.666 -2.0573 1.08527 0
M  V30 6331 C 594.66 -1.69397 0.0108784 0
M  V30 6332 O 595.866 -1.79215 0.167915 0
M  V30 6333 H 592.241 -0.673691 0.334133 0
M  V30 6334 H 594.212 -2.1825 2.03493 0
M  V30 6335 C 592.961 -3.39738 0.739845 0
M  V30 6336 H 592.284 -3.68174 1.55845 0
M  V30 6337 H 593.724 -4.18955 0.652149 0
M  V30 6338 C 592.183 -3.32292 -0.555288 0
M  V30 6339 O 592.713 -3.68794 -1.59229 0
M  V30 6340 N 590.919 -2.85394 -0.54762 0
M  V30 6341 H 590.466 -2.55886 0.296667 0
M  V30 6342 H 590.424 -2.80795 -1.41427 0
M  V30 6343 N 594.196 -1.08629 -1.14182 0
M  V30 6344 C 595.421 -0.83902 -1.89671 0
M  V30 6345 C 595.846 0.603332 -1.78161 0
M  V30 6346 O 595.204 1.42301 -1.12339 0
M  V30 6347 C 595.252 -1.26854 -3.37551 0
M  V30 6348 O 594.356 -0.42188 -4.10236 0
M  V30 6349 H 593.697 -0.304545 -0.590041 0
M  V30 6350 H 596.227 -1.4483 -1.44518 0
M  V30 6351 H 596.237 -1.25038 -3.88368 0
M  V30 6352 H 594.912 -2.31901 -3.45246 0
M  V30 6353 H 593.489 -0.503654 -3.69483 0
M  V30 6354 N 595.674 1.31259 -0.872281 0
M  V30 6355 C 596.899 2.0133 -0.498099 0
M  V30 6356 C 597.324 1.65031 0.902568 0
M  V30 6357 O 596.682 0.860164 1.59596 0
M  V30 6358 C 596.73 3.54411 -0.665205 0
M  V30 6359 O 595.834 4.11347 0.294473 0
M  V30 6360 H 595.175 0.633844 -0.197832 0
M  V30 6361 H 597.705 1.67402 -1.17633 0
M  V30 6362 H 597.715 4.04147 -0.559373 0
M  V30 6363 H 596.39 3.80171 -1.68651 0
M  V30 6364 H 594.967 3.72624 0.143403 0
M  V30 6365 N 597.152 0.631951 1.44375 0
M  V30 6366 C 598.082 -0.0593243 2.33425 0
M  V30 6367 C 599.063 -0.833964 1.48253 0
M  V30 6368 O 600.248 -0.799682 1.76971 0
M  V30 6369 C 597.378 -1.04096 3.31333 0
M  V30 6370 C 596.332 -0.377899 4.26328 0
M  V30 6371 C 595.658 -1.4695 5.14111 0
M  V30 6372 C 596.958 0.716371 5.17364 0
M  V30 6373 H 598.652 0.684287 2.91475 0
M  V30 6374 H 596.198 0.330518 1.40156 0
M  V30 6375 H 598.151 -1.53331 3.92514 0
M  V30 6376 H 596.875 -1.81547 2.71493 0
M  V30 6377 H 595.534 0.0938054 3.6648 0
M  V30 6378 H 595.182 -2.2349 4.50623 0
M  V30 6379 H 594.882 -1.03121 5.78481 0
M  V30 6380 H 596.406 -1.96363 5.78164 0
M  V30 6381 H 597.82 0.307089 5.72477 0
M  V30 6382 H 596.217 1.07784 5.90341 0
M  V30 6383 H 597.287 1.58316 4.58327 0
M  V30 6384 N 598.631 -1.53133 0.372548 0
M  V30 6385 C 600.047 -1.59585 0.02178 0
M  V30 6386 C 600.247 -1.38736 -1.46132 0
M  V30 6387 O 599.303 -1.19599 -2.22379 0
M  V30 6388 C 600.616 -2.9678 0.483959 0
M  V30 6389 C 602.164 -3.09909 0.438775 0
M  V30 6390 C 602.639 -4.49527 0.876876 0
M  V30 6391 N 604.13 -4.55663 0.832214 0
M  V30 6392 C 604.865 -5.61896 1.14281 0
M  V30 6393 N 604.361 -6.75852 1.52303 0
M  V30 6394 N 606.154 -5.51916 1.06515 0
M  V30 6395 H 598.305 -1.64936 1.33827 0
M  V30 6396 H 600.568 -0.773947 0.547458 0
M  V30 6397 H 600.274 -3.17198 1.51915 0
M  V30 6398 H 600.148 -3.7699 -0.125784 0
M  V30 6399 H 602.535 -2.89197 -0.587294 0
M  V30 6400 H 602.616 -2.31691 1.0841 0
M  V30 6401 H 602.26 -4.70979 1.90109 0
M  V30 6402 H 602.19 -5.26186 0.208727 0
M  V30 6403 H 604.681 -3.73844 0.552195 0
M  V30 6404 H 604.994 -7.52862 1.7441 0
M  V30 6405 H 603.339 -6.77226 1.56175 0
M  V30 6406 H 606.53 -4.6177 0.767235 0
M  V30 6407 H 606.703 -6.34609 1.31053 0
M  V30 6408 N 600.109 -0.101901 -1.5727 0
M  V30 6409 C 601.525 0.254739 -1.57554 0
M  V30 6410 C 601.725 1.67937 -1.11352 0
M  V30 6411 O 600.781 2.39722 -0.793081 0
M  V30 6412 C 602.094 0.036975 -3.00677 0
M  V30 6413 C 603.642 0.104199 -3.12827 0
M  V30 6414 C 604.117 -0.0856565 -4.5792 0
M  V30 6415 N 605.608 -0.0310498 -4.6319 0
M  V30 6416 C 606.343 -0.153099 -5.73196 0
M  V30 6417 N 605.839 -0.330364 -6.92012 0
M  V30 6418 N 607.632 -0.0938854 -5.62022 0
M  V30 6419 H 599.783 -1.03263 -1.85609 0
M  V30 6420 H 602.046 -0.405251 -0.857016 0
M  V30 6421 H 601.752 -0.947254 -3.38703 0
M  V30 6422 H 601.626 0.776335 -3.69124 0
M  V30 6423 H 604.013 1.07894 -2.74669 0
M  V30 6424 H 604.094 -0.666762 -2.46957 0
M  V30 6425 H 603.738 -1.05729 -4.96773 0
M  V30 6426 H 603.668 0.705082 -5.21858 0
M  V30 6427 H 606.159 0.103141 -3.77759 0
M  V30 6428 H 606.472 -0.41482 -7.71686 0
M  V30 6429 H 604.817 -0.366119 -6.94035 0
M  V30 6430 H 608.008 0.0435168 -4.6808 0
M  V30 6431 H 608.181 -0.19245 -6.47714 0
M  V30 6432 N 601.587 1.56661 0.17182 0
M  V30 6433 C 603.003 1.50768 0.52357 0
M  V30 6434 C 603.203 0.806072 1.84675 0
M  V30 6435 O 602.259 0.366233 2.4983 0
M  V30 6436 C 603.572 2.955 0.556793 0
M  V30 6437 C 605.12 3.06303 0.644029 0
M  V30 6438 C 605.595 4.52492 0.708148 0
M  V30 6439 N 607.086 4.56737 0.771051 0
M  V30 6440 C 607.821 5.67196 0.841229 0
M  V30 6441 N 607.317 6.87287 0.872272 0
M  V30 6442 N 609.11 5.55165 0.88021 0
M  V30 6443 H 601.261 2.00679 -0.695817 0
M  V30 6444 H 603.524 0.914219 -0.250814 0
M  V30 6445 H 603.23 3.49986 -0.346774 0
M  V30 6446 H 603.104 3.50119 1.40346 0
M  V30 6447 H 605.491 2.51851 1.53802 0
M  V30 6448 H 605.572 2.5477 -0.229297 0
M  V30 6449 H 605.216 5.07575 -0.181585 0
M  V30 6450 H 605.146 5.01781 1.59761 0
M  V30 6451 H 607.637 3.70274 0.755364 0
M  V30 6452 H 607.95 7.6722 0.92698 0
M  V30 6453 H 606.295 6.89898 0.840557 0
M  V30 6454 H 609.486 4.60263 0.852956 0
M  V30 6455 H 609.659 6.41271 0.931439 0
M  V30 6456 N 603.065 -0.440357 1.51323 0
M  V30 6457 C 603.995 -1.54174 1.75364 0
M  V30 6458 C 604.976 -1.59039 0.603375 0
M  V30 6459 O 606.161 -1.74815 0.845774 0
M  V30 6460 C 603.291 -2.92277 1.87593 0
M  V30 6461 C 602.245 -3.02274 3.03009 0
M  V30 6462 C 601.571 -4.42327 3.00418 0
M  V30 6463 C 602.871 -2.76634 4.43024 0
M  V30 6464 H 604.565 -1.34307 2.67585 0
M  V30 6465 H 602.111 -0.644678 1.28763 0
M  V30 6466 H 604.064 -3.69284 2.02995 0
M  V30 6467 H 602.788 -3.13369 0.920179 0
M  V30 6468 H 601.447 -2.27706 2.87307 0
M  V30 6469 H 601.095 -4.60382 2.02626 0
M  V30 6470 H 600.795 -4.49946 3.77918 0
M  V30 6471 H 602.319 -5.21312 3.17909 0
M  V30 6472 H 603.733 -3.43376 4.59093 0
M  V30 6473 H 602.13 -2.95666 5.22208 0
M  V30 6474 H 603.2 -1.72262 4.5327 0
M  V30 6475 N 604.543 -1.41418 -0.695603 0
M  V30 6476 C 605.792 -1.40073 -1.4513 0
M  V30 6477 C 606.105 -0.0130439 -1.95596 0
M  V30 6478 O 607.311 0.123032 -2.71221 0
M  V30 6479 C 605.767 -2.46286 -2.62433 0
M  V30 6480 C 605.375 -3.90962 -2.18753 0
M  V30 6481 C 607.119 -2.54077 -3.40066 0
M  V30 6482 C 605.026 -4.88728 -3.33015 0
M  V30 6483 H 603.956 -0.520903 -0.545138 0
M  V30 6484 H 606.607 -1.67242 -0.75515 0
M  V30 6485 H 604.989 -2.12248 -3.34315 0
M  V30 6486 H 606.163 -4.34248 -1.54161 0
M  V30 6487 H 604.478 -3.86831 -1.54114 0
M  V30 6488 H 607.075 -3.24303 -4.25125 0
M  V30 6489 H 607.418 -1.5776 -3.8525 0
M  V30 6490 H 607.951 -2.87206 -2.75241 0
M  V30 6491 H 604.69 -5.86449 -2.92844 0
M  V30 6492 H 604.21 -4.50091 -3.96457 0
M  V30 6493 H 605.889 -5.09483 -3.98793 0
M  V30 6494 N 606.021 0.929856 -1.27246 0
M  V30 6495 C 606.951 2.04722 -1.12299 0
M  V30 6496 C 607.932 1.70082 -0.0250464 0
M  V30 6497 O 609.117 1.93176 -0.199141 0
M  V30 6498 C 606.247 3.38721 -0.767145 0
M  V30 6499 C 605.201 3.87466 -1.81808 0
M  V30 6500 C 604.527 5.18246 -1.31626 0
M  V30 6501 C 605.827 4.11095 -3.22177 0
M  V30 6502 H 607.521 2.17485 -2.05769 0
M  V30 6503 H 605.067 1.04503 -0.990715 0
M  V30 6504 H 607.02 4.16366 -0.649413 0
M  V30 6505 H 605.744 3.25967 0.203259 0
M  V30 6506 H 604.403 3.12012 -1.92468 0
M  V30 6507 H 604.051 5.01881 -0.335378 0
M  V30 6508 H 603.751 5.51829 -2.01887 0
M  V30 6509 H 605.275 5.98462 -1.21143 0
M  V30 6510 H 606.689 4.79316 -3.1453 0
M  V30 6511 H 605.086 4.55982 -3.90129 0
M  V30 6512 H 606.156 3.16468 -3.67391 0
M  V30 6513 N 607.499 1.09233 1.13605 0
M  V30 6514 C 608.462 0.733553 2.17144 0
M  V30 6515 C 609.462 -0.235873 1.59061 0
M  V30 6516 O 610.652 -0.0143167 1.74194 0
M  V30 6517 C 607.784 0.084471 3.40795 0
M  V30 6518 H 608.977 1.65049 2.50397 0
M  V30 6519 H 606.53 0.891264 1.28399 0
M  V30 6520 H 607.265 -0.843795 3.1313 0
M  V30 6521 H 607.05 0.781985 3.84223 0
M  V30 6522 H 608.54 -0.151216 4.17326 0
M  V30 6523 N 608.977 -1.30795 0.87923 0
M  V30 6524 C 609.925 -2.30231 0.331112 0
M  V30 6525 C 610.919 -1.59918 -0.558794 0
M  V30 6526 O 612.125 -1.74441 -0.443866 0
M  V30 6527 H 608.5 -0.746785 0.088409 0
M  V30 6528 H 610.471 -2.73925 1.18353 0
M  V30 6529 C 609.22 -3.44848 -0.444401 0
M  V30 6530 H 608.543 -3.99131 0.231106 0
M  V30 6531 H 609.983 -4.16516 -0.793109 0
M  V30 6532 C 608.442 -2.94329 -1.63926 0
M  V30 6533 O 608.972 -2.93875 -2.73862 0
M  V30 6534 N 607.178 -2.50413 -1.4745 0
M  V30 6535 H 606.725 -2.50982 -0.58015 0
M  V30 6536 H 606.683 -2.16969 -2.27534 0
M  V30 6537 N 610.455 -0.639598 -1.44038 0
M  V30 6538 C 611.695 -0.150902 -2.03842 0
M  V30 6539 C 612.059 1.20744 -1.49281 0
M  V30 6540 O 613.26 1.78875 -2.00642 0
M  V30 6541 C 611.531 -0.146114 -3.57101 0
M  V30 6542 S 613.09 0.276725 -4.37927 0
M  V30 6543 H 609.908 -0.0652447 -0.708 0
M  V30 6544 H 612.51 -0.844886 -1.76301 0
M  V30 6545 H 611.214 -1.13769 -3.94316 0
M  V30 6546 H 610.745 0.568846 -3.89266 0
M  V30 6547 H 612.76 1.51893 -4.7238 0
M  V30 6548 N 611.933 1.52934 -0.380664 0
M  V30 6549 C 613.21 1.93845 0.261417 0
M  V30 6550 C 613.59 1.31544 1.65104 0
M  V30 6551 O 612.938 0.480234 2.23397 0
M  V30 6552 C 613.148 3.47739 0.296466 0
M  V30 6553 C 614.496 4.21284 0.529578 0
M  V30 6554 O 615.52 3.54199 0.377041 0
M  V30 6555 O 614.379 5.40195 0.827753 0
M  V30 6556 H 611.473 0.811318 0.160285 0
M  V30 6557 H 614.019 1.64042 -0.434544 0
M  V30 6558 H 612.791 3.85395 -0.67724 0
M  V30 6559 H 612.414 3.8382 1.0377 0
M  V30 6560 N 613.412 0.11024 1.57214 0
M  V30 6561 C 614.661 -0.549638 1.94067 0
M  V30 6562 C 614.974 -1.68388 0.995234 0
M  V30 6563 O 616.18 -2.40593 1.25807 0
M  V30 6564 C 614.636 -1.02912 3.44873 0
M  V30 6565 C 614.244 0.0761861 4.47935 0
M  V30 6566 C 615.988 -1.66087 3.9066 0
M  V30 6567 C 613.895 -0.419502 5.8991 0
M  V30 6568 H 612.825 -0.209092 0.724428 0
M  V30 6569 H 615.476 0.188683 1.82527 0
M  V30 6570 H 613.858 -1.82159 3.51616 0
M  V30 6571 H 615.032 0.852185 4.52851 0
M  V30 6572 H 613.347 0.614052 4.11847 0
M  V30 6573 H 615.944 -2.04272 4.94143 0
M  V30 6574 H 616.287 -2.53591 3.30148 0
M  V30 6575 H 616.82 -0.933959 3.86681 0
M  V30 6576 H 613.559 0.419277 6.54158 0
M  V30 6577 H 613.079 -1.16217 5.88433 0
M  V30 6578 H 614.758 -0.883577 6.40938 0
M  V30 6579 N 614.89 -1.56749 -0.16351 0
M  V30 6580 C 616.115 -1.86938 -0.898264 0
M  V30 6581 C 616.54 -0.697456 -1.74692 0
M  V30 6582 O 615.898 0.353327 -1.77824 0
M  V30 6583 C 615.946 -3.15599 -1.74441 0
M  V30 6584 O 615.05 -2.98371 -2.8469 0
M  V30 6585 H 614.391 -0.614659 -0.251178 0
M  V30 6586 H 616.921 -2.03979 -0.159298 0
M  V30 6587 H 616.931 -3.47202 -2.14277 0
M  V30 6588 H 615.606 -4.00505 -1.1211 0
M  V30 6589 H 614.183 -2.7814 -2.4838 0
M  V30 6590 N 616.368 0.432326 -1.51554 0
M  V30 6591 C 617.315 1.52512 -1.7323 0
M  V30 6592 C 618.285 1.55863 -0.5741 0
M  V30 6593 O 619.47 1.72796 -0.809093 0
M  V30 6594 C 616.61 2.90183 -1.86783 0
M  V30 6595 C 615.723 2.96322 -3.14352 0
M  V30 6596 C 614.858 4.25147 -3.18471 0
M  V30 6597 C 613.897 4.25172 -4.40335 0
M  V30 6598 N 613.034 5.45529 -4.41975 0
M  V30 6599 H 617.874 1.33332 -2.66508 0
M  V30 6600 H 615.411 0.647613 -1.32077 0
M  V30 6601 H 617.369 3.70071 -1.92623 0
M  V30 6602 H 615.999 3.0791 -0.969087 0
M  V30 6603 H 615.051 2.09066 -3.17798 0
M  V30 6604 H 616.363 2.92203 -4.04251 0
M  V30 6605 H 615.517 5.13411 -3.23255 0
M  V30 6606 H 614.256 4.31929 -2.2647 0
M  V30 6607 H 613.261 3.353 -4.35723 0
M  V30 6608 H 614.486 4.20049 -5.33606 0
M  V30 6609 H 612.432 5.53024 -3.52847 0
M  V30 6610 H 612.349 5.43311 -5.25689 0
M  V30 6611 H 613.617 6.35812 -4.50958 0
M  V30 6612 N 617.846 1.41785 0.688094 0
M  V30 6613 C 619.095 1.4084 1.44385 0
M  V30 6614 C 619.408 0.0234166 1.95586 0
M  V30 6615 O 620.614 -0.108647 2.71283 0
M  V30 6616 C 619.07 2.47675 2.61123 0
M  V30 6617 C 618.678 3.92116 2.16677 0
M  V30 6618 C 620.422 2.55877 3.38714 0
M  V30 6619 C 618.329 4.90487 3.30419 0
M  V30 6620 H 617.259 0.523787 0.542368 0
M  V30 6621 H 619.91 1.6764 0.74627 0
M  V30 6622 H 618.292 2.14018 3.33185 0
M  V30 6623 H 619.466 4.35059 1.51856 0
M  V30 6624 H 617.781 3.87642 1.5206 0
M  V30 6625 H 620.378 3.26553 4.234 0
M  V30 6626 H 620.721 1.59801 3.84408 0
M  V30 6627 H 621.254 2.88662 2.73714 0
M  V30 6628 H 617.993 5.87994 2.89729 0
M  V30 6629 H 617.513 4.52187 3.94065 0
M  V30 6630 H 619.192 5.11591 3.96085 0
M  V30 6631 N 619.324 -0.923095 1.27737 0
M  V30 6632 C 620.572 -1.66797 1.14119 0
M  V30 6633 C 620.893 -1.92479 -0.312541 0
M  V30 6634 O 620.163 -1.53432 -1.218 0
M  V30 6635 H 618.743 -0.618196 0.419336 0
M  V30 6636 H 621.405 -1.10815 1.60331 0
M  V30 6637 H 620.501 -2.63424 1.67374 0
M  V30 6638 N 620.802 -1.09834 -1.13024 0
M  V30 6639 C 622.079 -0.749225 -1.80682 0
M  V30 6640 C 622.459 0.765171 -1.96744 0
M  V30 6641 O 621.807 1.68912 -1.53886 0
M  V30 6642 C 622.017 -1.49311 -3.15448 0
M  V30 6643 C 623.365 -1.66162 -3.90737 0
M  V30 6644 O 624.389 -1.45597 -3.25085 0
M  V30 6645 O 623.248 -2.00211 -5.08505 0
M  V30 6646 H 620.342 -0.269614 -0.781817 0
M  V30 6647 H 622.888 -1.20078 -1.19914 0
M  V30 6648 H 621.66 -2.52407 -2.99009 0
M  V30 6649 H 621.283 -1.034 -3.8392 0
M  V30 6650 N 622.28 1.30327 -0.886154 0
M  V30 6651 C 623.19 2.31854 -0.357866 0
M  V30 6652 C 624.206 1.65392 0.540502 0
M  V30 6653 O 625.382 1.96683 0.433339 0
M  V30 6654 C 622.447 3.44171 0.417999 0
M  V30 6655 C 621.508 4.26257 -0.510263 0
M  V30 6656 C 620.741 5.3321 0.228669 0
M  V30 6657 O 620.964 5.51542 1.45458 0
M  V30 6658 O 619.898 6.0042 -0.421832 0
M  V30 6659 H 623.724 2.78995 -1.19982 0
M  V30 6660 H 621.309 1.34518 -0.650028 0
M  V30 6661 H 623.191 4.12588 0.857251 0
M  V30 6662 H 621.866 2.99164 1.23623 0
M  V30 6663 H 620.773 3.60533 -0.99835 0
M  V30 6664 H 622.106 4.74871 -1.29454 0
M  V30 6665 N 623.758 0.647228 1.43697 0
M  V30 6666 C 624.706 -0.0600105 2.32523 0
M  V30 6667 C 625.7 -0.819277 1.48271 0
M  V30 6668 O 626.906 -0.730356 1.64517 0
M  V30 6669 H 623.281 -0.0381872 0.75103 0
M  V30 6670 H 625.252 0.706978 2.89904 0
M  V30 6671 C 624.001 -1.0169 3.32497 0
M  V30 6672 H 623.324 -0.442083 3.97348 0
M  V30 6673 H 624.764 -1.48095 3.97296 0
M  V30 6674 C 623.223 -2.11002 2.6264 0
M  V30 6675 O 623.753 -3.19302 2.4374 0
M  V30 6676 N 621.959 -1.87388 2.22113 0
M  V30 6677 H 621.506 -0.993174 2.37684 0
M  V30 6678 H 621.464 -2.60723 1.75701 0
M  V30 6679 N 625.236 -1.5273 0.388769 0
M  V30 6680 C 626.476 -2.03483 -0.193372 0
M  V30 6681 C 626.84 -1.26897 -1.44087 0
M  V30 6682 O 628.041 -1.67773 -2.10014 0
M  V30 6683 C 626.312 -3.54488 -0.455325 0
M  V30 6684 S 627.871 -4.27069 -1.00783 0
M  V30 6685 H 624.689 -0.708907 -0.0545131 0
M  V30 6686 H 627.291 -1.8798 0.536993 0
M  V30 6687 H 625.995 -4.07817 0.459722 0
M  V30 6688 H 625.526 -3.74196 -1.21413 0
M  V30 6689 H 627.541 -4.40185 -2.29023 0
M  V30 6690 N 626.714 -0.118576 -1.57153 0
M  V30 6691 C 627.991 0.583062 -1.86708 0
M  V30 6692 C 628.371 1.84841 -1.01967 0
M  V30 6693 O 627.719 2.28288 -0.0984673 0
M  V30 6694 C 627.929 0.875912 -3.3783 0
M  V30 6695 C 629.277 1.22916 -4.0642 0
M  V30 6696 O 630.301 0.966188 -3.42846 0
M  V30 6697 O 629.16 1.72269 -5.18638 0
M  V30 6698 H 626.254 0.294185 -0.772906 0
M  V30 6699 H 628.8 -0.153048 -1.69008 0
M  V30 6700 H 627.572 -0.0207776 -3.91294 0
M  V30 6701 H 627.195 1.66719 -3.60958 0
M  V30 6702 N 628.193 1.56834 0.155195 0
M  V30 6703 C 629.604 1.72421 0.716082 0
M  V30 6704 C 629.955 0.731685 1.82046 0
M  V30 6705 O 629.08 -0.103481 2.16152 0
M  V30 6706 C 629.675 3.12629 1.30571 0
M  V30 6707 C 628.234 3.29846 1.81325 0
M  V30 6708 C 627.381 2.68359 0.698494 0
M  V30 6709 H 630.332 1.58544 -0.0703861 0
M  V30 6710 H 630.353 3.12174 2.1755 0
M  V30 6711 H 629.865 3.84844 0.501701 0
M  V30 6712 H 627.966 2.62614 2.64319 0
M  V30 6713 H 628.079 4.37727 1.9476 0
M  V30 6714 H 626.443 2.28604 1.12305 0
M  V30 6715 H 627.226 3.43171 -0.0939366 0
M  V30 6716 N 629.671 -0.424282 1.51781 0
M  V30 6717 C 630.581 -1.54087 1.76902 0
M  V30 6718 C 631.597 -1.61249 0.653826 0
M  V30 6719 O 632.773 -1.78247 0.937552 0
M  V30 6720 C 629.838 -2.8996 1.90063 0
M  V30 6721 C 628.899 -2.92809 3.13945 0
M  V30 6722 C 628.132 -4.22201 3.26469 0
M  V30 6723 O 628.355 -5.15286 2.44616 0
M  V30 6724 O 627.289 -4.31599 4.1953 0
M  V30 6725 H 631.115 -1.358 2.71647 0
M  V30 6726 H 628.7 -0.608618 1.36441 0
M  V30 6727 H 630.582 -3.70575 2.0063 0
M  V30 6728 H 629.257 -3.08347 0.985067 0
M  V30 6729 H 628.164 -2.11102 3.08847 0
M  V30 6730 H 629.497 -2.79369 4.05233 0
M  V30 6731 N 631.149 -1.42148 -0.680565 0
M  V30 6732 C 632.389 -1.4379 -1.45271 0
M  V30 6733 C 632.753 -0.0504426 -1.91934 0
M  V30 6734 O 633.954 0.0583916 -2.68737 0
M  V30 6735 C 632.225 -2.42904 -2.62168 0
M  V30 6736 S 633.784 -2.63201 -3.51099 0
M  V30 6737 H 630.602 -0.509185 -0.496237 0
M  V30 6738 H 633.204 -1.78706 -0.792744 0
M  V30 6739 H 631.908 -3.4249 -2.26116 0
M  V30 6740 H 631.439 -2.09394 -3.33043 0
M  V30 6741 H 633.454 -1.91068 -4.57938 0
M  V30 6742 N 632.627 0.916307 -1.28225 0
M  V30 6743 C 633.575 2.03977 -1.11786 0
M  V30 6744 C 634.569 1.69358 -0.0378265 0
M  V30 6745 O 635.775 1.78925 -0.196405 0
M  V30 6746 H 632.15 0.66829 -0.344809 0
M  V30 6747 H 634.121 2.14985 -2.06939 0
M  V30 6748 C 632.87 3.38518 -0.7938 0
M  V30 6749 H 632.193 3.65649 -1.61682 0
M  V30 6750 H 633.633 4.17864 -0.718719 0
M  V30 6751 C 632.092 3.33134 0.502353 0
M  V30 6752 O 632.622 3.71281 1.53341 0
M  V30 6753 N 630.828 2.86229 0.502147 0
M  V30 6754 H 630.375 2.55382 -0.337338 0
M  V30 6755 H 630.333 2.83009 1.36942 0
M  V30 6756 N 634.105 1.10431 1.1244 0
M  V30 6757 C 635.055 0.722378 2.16254 0
M  V30 6758 C 636.039 -0.268427 1.58645 0
M  V30 6759 O 637.231 -0.077169 1.76832 0
M  V30 6760 C 634.36 0.155763 3.42946 0
M  V30 6761 C 633.446 1.17361 4.07538 0
M  V30 6762 N 633.837 2.36429 4.47141 0
M  V30 6763 C 632.135 1.01412 4.34317 0
M  V30 6764 C 632.836 3.01259 4.97612 0
M  V30 6765 N 631.812 2.28777 4.93115 0
M  V30 6766 H 635.614 1.62876 2.4464 0
M  V30 6767 H 633.128 0.982031 1.29344 0
M  V30 6768 H 635.125 -0.135936 4.16678 0
M  V30 6769 H 633.785 -0.745339 3.1603 0
M  V30 6770 H 634.796 2.73954 4.39511 0
M  V30 6771 H 631.473 0.168574 4.1716 0
M  V30 6772 H 632.863 4.02541 5.37968 0
M  V30 6773 N 635.583 -1.29855 0.893053 0
M  V30 6774 C 636.811 -1.99976 0.530788 0
M  V30 6775 C 637.226 -1.66889 -0.882799 0
M  V30 6776 O 636.583 -0.910352 -1.58173 0
M  V30 6777 C 636.634 -3.54547 0.705587 0
M  V30 6778 O 636.355 -3.86458 2.06353 0
M  V30 6779 C 637.856 -4.41937 0.347387 0
M  V30 6780 H 635.076 -0.639129 0.204339 0
M  V30 6781 H 637.62 -1.65549 1.20057 0
M  V30 6782 H 635.775 -3.87311 0.0830685 0
M  V30 6783 H 636.189 -4.81146 2.08803 0
M  V30 6784 H 637.663 -5.4954 0.520557 0
M  V30 6785 H 638.14 -4.33339 -0.715139 0
M  V30 6786 H 638.746 -4.14633 0.946567 0
M  V30 6787 N 637.061 -0.65484 -1.43351 0
M  V30 6788 C 637.991 0.0221809 -2.33489 0
M  V30 6789 C 638.972 0.810272 -1.49561 0
M  V30 6790 O 640.157 0.771426 -1.78221 0
M  V30 6791 C 637.287 0.988117 -3.32947 0
M  V30 6792 C 636.241 0.310026 -4.26876 0
M  V30 6793 C 635.567 1.38752 -5.16384 0
M  V30 6794 C 636.867 -0.798589 -5.16159 0
M  V30 6795 H 638.561 -0.730571 -2.9035 0
M  V30 6796 H 636.107 -0.352773 -1.39612 0
M  V30 6797 H 638.06 1.47067 -3.94904 0
M  V30 6798 H 636.784 1.77205 -2.74346 0
M  V30 6799 H 635.443 -0.152097 -3.66284 0
M  V30 6800 H 635.091 2.16293 -4.54121 0
M  V30 6801 H 634.791 0.939051 -5.80048 0
M  V30 6802 H 636.315 1.87141 -5.81215 0
M  V30 6803 H 637.729 -0.398126 -5.71916 0
M  V30 6804 H 636.126 -1.17163 -5.88552 0
M  V30 6805 H 637.196 -1.65588 -4.55751 0
M  V30 6806 N 638.539 1.52521 -0.396863 0
M  V30 6807 C 639.767 2.06091 0.18275 0
M  V30 6808 C 640.182 1.26796 1.39886 0
M  V30 6809 O 639.539 0.316585 1.79733 0
M  V30 6810 C 639.59 3.57362 0.545377 0
M  V30 6811 O 639.311 4.33656 -0.622428 0
M  V30 6812 C 640.812 4.27305 1.18004 0
M  V30 6813 H 638.032 0.670504 0.025789 0
M  V30 6814 H 640.576 1.96561 -0.564276 0
M  V30 6815 H 638.731 3.66941 1.2423 0
M  V30 6816 H 639.145 5.23507 -0.322662 0
M  V30 6817 H 640.619 5.34366 1.38408 0
M  V30 6818 H 641.096 3.83 2.1496 0
M  V30 6819 H 641.702 4.22064 0.523671 0
M  V30 6820 N 640.017 0.126909 1.57088 0
M  V30 6821 C 641.265 -0.528123 1.95078 0
M  V30 6822 C 641.586 -1.66708 1.0116 0
M  V30 6823 O 640.856 -1.95777 0.0693527 0
M  V30 6824 H 639.436 -0.198087 0.720257 0
M  V30 6825 H 642.098 0.197703 1.93895 0
M  V30 6826 H 641.194 -0.917507 2.98309 0
M  V30 6827 N 641.495 -1.56914 -0.146875 0
M  V30 6828 C 642.445 -1.94693 -1.18653 0
M  V30 6829 C 643.429 -0.81821 -1.38543 0
M  V30 6830 O 644.621 -1.08167 -1.40103 0
M  V30 6831 C 641.75 -2.33117 -2.52014 0
M  V30 6832 C 640.836 -3.5256 -2.35717 0
M  V30 6833 N 641.227 -4.69091 -1.89175 0
M  V30 6834 C 639.525 -3.57647 -2.66467 0
M  V30 6835 C 640.226 -5.51187 -1.85924 0
M  V30 6836 N 639.202 -4.92899 -2.29242 0
M  V30 6837 H 643.004 -2.82264 -0.81879 0
M  V30 6838 H 640.518 -1.58474 -0.354929 0
M  V30 6839 H 642.515 -2.58387 -3.27172 0
M  V30 6840 H 641.175 -1.46898 -2.89571 0
M  V30 6841 H 642.186 -4.92844 -1.59139 0
M  V30 6842 H 638.863 -2.81967 -3.07898 0
M  V30 6843 H 640.253 -6.54613 -1.51431 0
M  V30 6844 N 642.974 0.416227 -1.52004 0
M  V30 6845 C 644.251 1.17637 -1.56272 0
M  V30 6846 C 644.631 2.08352 -0.339493 0
M  V30 6847 O 643.979 2.1833 0.674124 0
M  V30 6848 C 644.189 1.95986 -2.88774 0
M  V30 6849 C 645.537 2.52299 -3.41512 0
M  V30 6850 O 646.561 2.06174 -2.90467 0
M  V30 6851 O 645.42 3.3648 -4.30631 0
M  V30 6852 H 642.514 0.536726 -0.629169 0
M  V30 6853 H 645.06 0.423583 -1.64329 0
M  V30 6854 H 643.832 1.29487 -3.69254 0
M  V30 6855 H 643.455 2.78285 -2.83978 0
M  V30 6856 N 644.452 1.42507 0.673017 0
M  V30 6857 C 645.7 1.42789 1.43023 0
M  V30 6858 C 646.021 0.0459738 1.94946 0
M  V30 6859 O 645.291 -0.915765 1.73178 0
M  V30 6860 H 643.871 0.525657 0.530748 0
M  V30 6861 H 646.533 1.77944 0.795113 0
M  V30 6862 H 645.629 2.12872 2.28237 0
M  V30 6863 N 645.93 -0.909495 1.28709 0
M  V30 6864 C 647.178 -1.65577 1.15882 0
M  V30 6865 C 647.499 -1.928 -0.292108 0
M  V30 6866 O 646.769 -1.54716 -1.20166 0
M  V30 6867 H 645.349 -0.613714 0.425869 0
M  V30 6868 H 648.011 -1.09108 1.61498 0
M  V30 6869 H 647.107 -2.61634 1.70159 0
M  V30 6870 N 647.408 -1.11026 -1.11852 0
M  V30 6871 C 648.685 -0.768347 -1.79877 0
M  V30 6872 C 649.065 0.744261 -1.97545 0
M  V30 6873 O 648.413 1.67271 -1.55669 0
M  V30 6874 C 648.623 -1.52648 -3.13846 0
M  V30 6875 C 649.971 -1.70297 -3.88953 0
M  V30 6876 O 650.995 -1.49037 -3.23522 0
M  V30 6877 O 649.854 -2.05593 -5.06353 0
M  V30 6878 H 646.948 -0.277891 -0.778913 0
M  V30 6879 H 649.494 -1.21343 -1.18633 0
M  V30 6880 H 648.266 -2.55564 -2.96315 0
M  V30 6881 H 647.889 -1.07466 -3.82801 0
M  V30 6882 N 648.886 1.2938 -0.899927 0
M  V30 6883 C 650.126 1.97332 -0.532871 0
M  V30 6884 C 650.49 1.69385 0.904029 0
M  V30 6885 O 651.691 2.30793 1.37797 0
M  V30 6886 C 649.962 3.47927 -0.817393 0
M  V30 6887 S 651.521 4.3528 -0.55468 0
M  V30 6888 H 648.339 0.682966 -0.197683 0
M  V30 6889 H 650.941 1.57189 -1.16241 0
M  V30 6890 H 649.645 3.65761 -1.86138 0
M  V30 6891 H 649.176 3.93006 -0.175978 0
M  V30 6892 H 651.191 4.92557 0.600182 0
M  V30 6893 N 650.364 0.662433 1.43002 0
M  V30 6894 C 651.78 0.330835 1.56133 0
M  V30 6895 C 651.98 -1.16454 1.64441 0
M  V30 6896 O 651.036 -1.94964 1.60453 0
M  V30 6897 C 652.349 1.05029 2.81761 0
M  V30 6898 C 653.897 1.03142 2.95518 0
M  V30 6899 C 654.372 1.73196 4.2399 0
M  V30 6900 N 655.863 1.70004 4.30875 0
M  V30 6901 C 656.598 2.21074 5.29069 0
M  V30 6902 N 656.094 2.80473 6.33488 0
M  V30 6903 N 657.887 2.1152 5.20784 0
M  V30 6904 H 650.038 1.63272 1.35853 0
M  V30 6905 H 652.301 0.687149 0.653092 0
M  V30 6906 H 652.007 2.10542 2.81718 0
M  V30 6907 H 651.881 0.607664 3.72273 0
M  V30 6908 H 654.268 -0.0153339 2.95096 0
M  V30 6909 H 654.349 1.51282 2.0627 0
M  V30 6910 H 653.993 2.77833 4.25172 0
M  V30 6911 H 653.923 1.22515 5.1215 0
M  V30 6912 H 656.414 1.26667 3.56039 0
M  V30 6913 H 656.727 3.17094 7.04749 0
M  V30 6914 H 655.072 2.84538 6.34085 0
M  V30 6915 H 658.263 1.64814 4.38126 0
M  V30 6916 H 658.436 2.51629 5.97149 0
M  V30 6917 N 651.842 -1.52309 0.404946 0
M  V30 6918 C 652.792 -2.23717 -0.439864 0
M  V30 6919 C 653.776 -1.24692 -1.0169 0
M  V30 6920 O 654.968 -1.49951 -0.940409 0
M  V30 6921 C 652.097 -3.05898 -1.55825 0
M  V30 6922 C 651.183 -4.12331 -0.992188 0
M  V30 6923 N 651.574 -5.0557 -0.152424 0
M  V30 6924 C 649.872 -4.2774 -1.26312 0
M  V30 6925 C 650.573 -5.81474 0.162041 0
M  V30 6926 N 649.549 -5.41767 -0.44601 0
M  V30 6927 H 653.351 -2.93162 0.208084 0
M  V30 6928 H 650.865 -1.60969 0.215131 0
M  V30 6929 H 652.862 -3.55605 -2.17603 0
M  V30 6930 H 651.522 -2.37991 -2.20886 0
M  V30 6931 H 652.533 -5.17468 0.211556 0
M  V30 6932 H 649.21 -3.71062 -1.91362 0
M  V30 6933 H 650.6 -6.66585 0.843423 0
M  V30 6934 N 653.32 -0.135238 -1.57019 0
M  V30 6935 C 654.25 0.805235 -2.19176 0
M  V30 6936 C 655.231 1.2656 -1.13651 0
M  V30 6937 O 656.416 1.32528 -1.4195 0
M  V30 6938 C 653.546 2.04914 -2.80406 0
M  V30 6939 C 652.5 1.72598 -3.91655 0
M  V30 6940 C 651.826 3.04154 -4.39766 0
M  V30 6941 C 653.126 0.981709 -5.12991 0
M  V30 6942 H 654.82 0.287232 -2.98019 0
M  V30 6943 H 652.366 0.136714 -1.4335 0
M  V30 6944 H 654.319 2.71178 -3.22553 0
M  V30 6945 H 653.043 2.59067 -1.98877 0
M  V30 6946 H 651.702 1.08717 -3.50109 0
M  V30 6947 H 651.35 3.56274 -3.55075 0
M  V30 6948 H 651.05 2.83299 -5.14796 0
M  V30 6949 H 652.574 3.71509 -4.84576 0
M  V30 6950 H 653.988 1.5462 -5.52056 0
M  V30 6951 H 652.385 0.873533 -5.93708 0
M  V30 6952 H 653.455 -0.0286887 -4.84892 0
M  V30 6953 N 654.798 1.5699 0.138552 0
M  V30 6954 C 656.214 1.51844 0.491472 0
M  V30 6955 C 656.414 0.845063 1.82923 0
M  V30 6956 O 655.47 0.419143 2.48997 0
M  V30 6957 C 656.783 2.96615 0.493987 0
M  V30 6958 C 658.331 3.076 0.578913 0
M  V30 6959 C 658.806 4.53893 0.612009 0
M  V30 6960 N 660.297 4.5827 0.673997 0
M  V30 6961 C 661.032 5.68852 0.720729 0
M  V30 6962 N 660.528 6.88982 0.726292 0
M  V30 6963 N 662.321 5.56908 0.762253 0
M  V30 6964 H 654.472 1.99158 -0.738228 0
M  V30 6965 H 656.735 0.908693 -0.270149 0
M  V30 6966 H 656.441 3.49172 -0.420933 0
M  V30 6967 H 656.315 3.53017 1.32887 0
M  V30 6968 H 658.702 2.55057 1.48425 0
M  V30 6969 H 658.783 2.54227 -0.283286 0
M  V30 6970 H 658.427 5.07076 -0.289208 0
M  V30 6971 H 658.357 5.05057 1.49082 0
M  V30 6972 H 660.848 3.71793 0.676654 0
M  V30 6973 H 661.161 7.69014 0.764032 0
M  V30 6974 H 659.506 6.91526 0.69403 0
M  V30 6975 H 662.697 4.61969 0.755135 0
M  V30 6976 H 662.87 6.43102 0.795207 0
M  V30 6977 N 656.276 -0.40816 1.52223 0
M  V30 6978 C 657.226 -1.49648 1.72016 0
M  V30 6979 C 658.21 -1.50311 0.574069 0
M  V30 6980 O 659.402 -1.56271 0.831173 0
M  V30 6981 C 656.531 -2.87566 1.87512 0
M  V30 6982 C 655.617 -2.91547 3.07995 0
M  V30 6983 N 656.008 -2.65225 4.30685 0
M  V30 6984 C 654.306 -3.22715 3.07849 0
M  V30 6985 C 655.007 -2.75799 5.12162 0
M  V30 6986 N 653.983 -3.08719 4.4743 0
M  V30 6987 H 657.785 -1.28093 2.64517 0
M  V30 6988 H 655.299 -0.61588 1.50269 0
M  V30 6989 H 657.296 -3.65899 1.99809 0
M  V30 6990 H 655.956 -3.10118 0.962114 0
M  V30 6991 H 656.967 -2.39601 4.59142 0
M  V30 6992 H 653.644 -3.50856 2.26289 0
M  V30 6993 H 655.034 -2.59155 6.1991 0
M  V30 6994 N 657.755 -1.42862 -0.66545 0
M  V30 6995 C 659.166 -1.3901 -1.24632 0
M  V30 6996 C 659.517 -0.0880285 -1.96002 0
M  V30 6997 O 658.642 0.812947 -2.0055 0
M  V30 6998 C 659.237 -2.51806 -2.2667 0
M  V30 6999 C 657.796 -2.51257 -2.80262 0
M  V30 7000 C 656.943 -2.30124 -1.5472 0
M  V30 7001 H 659.894 -1.5194 -0.458237 0
M  V30 7002 H 659.915 -2.22593 -3.08598 0
M  V30 7003 H 659.427 -3.46558 -1.74697 0
M  V30 7004 H 657.528 -1.60349 -3.36332 0
M  V30 7005 H 657.641 -3.48614 -3.28641 0
M  V30 7006 H 656.005 -1.7856 -1.81627 0
M  V30 7007 H 656.788 -3.26945 -1.04699 0
M  V30 7008 N 659.233 0.902656 -1.29189 0
M  V30 7009 C 660.196 1.98797 -1.14071 0
M  V30 7010 C 661.196 1.60615 -0.0770549 0
M  V30 7011 O 662.386 1.71165 -0.323753 0
M  V30 7012 C 659.518 3.32688 -0.743739 0
M  V30 7013 H 660.711 2.13637 -2.10473 0
M  V30 7014 H 658.264 1.08678 -1.12334 0
M  V30 7015 H 658.999 3.23549 0.220554 0
M  V30 7016 H 658.784 3.61765 -1.51223 0
M  V30 7017 H 660.274 4.12337 -0.660935 0
M  V30 7018 N 660.711 1.11618 1.11262 0
M  V30 7019 C 661.958 0.86618 1.8304 0
M  V30 7020 C 662.286 -0.608149 1.84748 0
M  V30 7021 O 661.541 -1.46508 1.29745 0
M  V30 7022 C 661.84 1.37529 3.2988 0
M  V30 7023 C 661.506 2.86317 3.4833 0
M  V30 7024 C 660.168 3.26945 3.53073 0
M  V30 7025 C 662.52 3.82136 3.54431 0
M  V30 7026 C 659.848 4.62117 3.61475 0
M  V30 7027 C 662.2 5.17128 3.64365 0
M  V30 7028 C 660.864 5.57312 3.67369 0
M  V30 7029 H 660.134 0.316958 0.66979 0
M  V30 7030 H 662.781 1.3949 1.31205 0
M  V30 7031 H 661.086 0.766842 3.84222 0
M  V30 7032 H 662.783 1.15817 3.83911 0
M  V30 7033 H 659.373 2.53889 3.45309 0
M  V30 7034 H 663.557 3.51847 3.50025 0
M  V30 7035 H 658.813 4.92655 3.62079 0
M  V30 7036 H 662.987 5.91208 3.68029 0
M  V30 7037 H 660.614 6.62045 3.73632 0
M  V30 7038 N 662.189 -1.289 0.906776 0
M  V30 7039 C 663.435 -1.95558 0.53712 0
M  V30 7040 C 663.768 -1.71262 -0.915582 0
M  V30 7041 O 663.043 -1.02961 -1.65013 0
M  V30 7042 C 663.326 -3.50198 0.838645 0
M  V30 7043 C 663.179 -3.83923 2.34357 0
M  V30 7044 C 664.498 -4.38861 0.329988 0
M  V30 7045 H 661.617 -0.710289 0.196617 0
M  V30 7046 H 664.259 -1.52392 1.13475 0
M  V30 7047 H 662.409 -3.87096 0.330024 0
M  V30 7048 H 664.081 -3.56933 2.92227 0
M  V30 7049 H 662.324 -3.31215 2.80141 0
M  V30 7050 H 662.995 -4.91883 2.5051 0
M  V30 7051 H 665.471 -4.08996 0.765609 0
M  V30 7052 H 664.347 -5.45931 0.570105 0
M  V30 7053 H 664.608 -4.35352 -0.769511 0
M  V30 7054 N 663.667 -0.670007 -1.42649 0
M  V30 7055 C 664.614 0.0112928 -2.30797 0
M  V30 7056 C 665.584 0.797627 -1.45695 0
M  V30 7057 O 666.769 0.770845 -1.74535 0
M  V30 7058 C 663.909 0.95998 -3.31479 0
M  V30 7059 C 663.022 0.167975 -4.31673 0
M  V30 7060 C 662.157 1.11198 -5.19431 0
M  V30 7061 C 661.196 0.311381 -6.11307 0
M  V30 7062 N 660.333 1.20784 -6.91633 0
M  V30 7063 H 665.173 -0.746231 -2.88505 0
M  V30 7064 H 662.71 -0.379739 -1.42114 0
M  V30 7065 H 664.668 1.52379 -3.88377 0
M  V30 7066 H 663.298 1.68419 -2.75382 0
M  V30 7067 H 662.35 -0.512385 -3.76933 0
M  V30 7068 H 663.662 -0.453814 -4.96731 0
M  V30 7069 H 662.816 1.74587 -5.81037 0
M  V30 7070 H 661.555 1.76766 -4.54538 0
M  V30 7071 H 660.56 -0.335758 -5.48774 0
M  V30 7072 H 661.785 -0.340135 -6.78248 0
M  V30 7073 H 659.731 1.85001 -6.29373 0
M  V30 7074 H 659.648 0.64102 -7.53277 0
M  V30 7075 H 660.916 1.82936 -7.5773 0
M  V30 7076 N 665.145 1.52092 -0.413018 0
M  V30 7077 C 666.092 2.27119 0.410558 0
M  V30 7078 C 667.062 1.29692 1.03774 0
M  V30 7079 O 668.247 1.58561 1.06128 0
M  V30 7080 C 665.387 3.09863 1.51918 0
M  V30 7081 C 664.5 4.22252 0.912528 0
M  V30 7082 C 663.635 4.92348 1.99417 0
M  V30 7083 C 662.674 5.96694 1.36466 0
M  V30 7084 N 661.811 6.60292 2.38661 0
M  V30 7085 H 666.651 2.97067 -0.235661 0
M  V30 7086 H 664.188 1.46542 -0.128055 0
M  V30 7087 H 666.146 3.56144 2.17295 0
M  V30 7088 H 664.776 2.42078 2.13537 0
M  V30 7089 H 663.828 3.80113 0.147697 0
M  V30 7090 H 665.14 4.9709 0.412717 0
M  V30 7091 H 664.294 5.42054 2.72512 0
M  V30 7092 H 663.033 4.17087 2.52764 0
M  V30 7093 H 662.038 5.46304 0.61906 0
M  V30 7094 H 663.263 6.73899 0.838827 0
M  V30 7095 H 661.209 5.87858 2.91134 0
M  V30 7096 H 661.126 7.30816 1.93503 0
M  V30 7097 H 662.394 7.14635 3.11314 0
M  V30 7098 N 666.623 0.143563 1.56945 0
M  V30 7099 C 667.555 -0.828353 2.13708 0
M  V30 7100 C 668.568 -1.21313 1.08568 0
M  V30 7101 O 669.757 -1.1578 1.35857 0
M  V30 7102 C 666.857 -2.12248 2.64204 0
M  V30 7103 C 666.03 -1.90561 3.93707 0
M  V30 7104 C 665.089 -3.03931 4.29549 0
M  V30 7105 O 664.115 -2.75772 4.97934 0
M  V30 7106 N 665.317 -4.31016 3.88852 0
M  V30 7107 H 668.082 -0.343242 2.97728 0
M  V30 7108 H 665.643 -0.0401152 1.6185 0
M  V30 7109 H 667.635 -2.87132 2.85197 0
M  V30 7110 H 666.205 -2.52033 1.84928 0
M  V30 7111 H 665.425 -0.997327 3.81375 0
M  V30 7112 H 666.713 -1.73405 4.78339 0
M  V30 7113 H 666.111 -4.56762 3.33743 0
M  V30 7114 H 664.668 -5.02691 4.14903 0
M  V30 7115 N 668.101 -1.57061 -0.130224 0
M  V30 7116 C 669.051 -1.95941 -1.16582 0
M  V30 7117 C 670.035 -0.832858 -1.37667 0
M  V30 7118 O 671.227 -1.09647 -1.38948 0
M  V30 7119 C 668.356 -2.35777 -2.49528 0
M  V30 7120 C 667.442 -3.5504 -2.31964 0
M  V30 7121 N 667.833 -4.71071 -1.84189 0
M  V30 7122 C 666.131 -3.60453 -2.62659 0
M  V30 7123 C 666.832 -5.53128 -1.80068 0
M  V30 7124 N 665.808 -4.95303 -2.24001 0
M  V30 7125 H 669.61 -2.83117 -0.788806 0
M  V30 7126 H 667.124 -1.58842 -0.3381 0
M  V30 7127 H 669.121 -2.61843 -3.24413 0
M  V30 7128 H 667.781 -1.49961 -2.87996 0
M  V30 7129 H 668.792 -4.94504 -1.53903 0
M  V30 7130 H 665.469 -2.85217 -3.0489 0
M  V30 7131 H 666.859 -6.56182 -1.4448 0
M  V30 7132 N 669.579 0.400081 -1.52437 0
M  V30 7133 C 670.527 1.50851 -1.7705 0
M  V30 7134 C 671.521 1.56928 -0.637969 0
M  V30 7135 O 672.727 1.60226 -0.820212 0
M  V30 7136 H 669.102 0.50186 -0.560036 0
M  V30 7137 H 671.073 1.27281 -2.69893 0
M  V30 7138 C 669.822 2.88117 -1.94638 0
M  V30 7139 H 669.145 2.84187 -2.81208 0
M  V30 7140 H 670.585 3.64942 -2.15855 0
M  V30 7141 C 669.044 3.29206 -0.715899 0
M  V30 7142 O 669.574 4.01544 0.111944 0
M  V30 7143 N 667.78 2.85363 -0.549191 0
M  V30 7144 H 667.327 2.26664 -1.22397 0
M  V30 7145 H 667.285 3.13214 0.27278 0
M  V30 7146 N 671.057 1.43213 0.657864 0
M  V30 7147 C 672.305 1.44298 1.41501 0
M  V30 7148 C 672.626 0.0666478 1.94886 0
M  V30 7149 O 671.896 -0.897345 1.74139 0
M  V30 7150 H 670.476 0.531257 0.525143 0
M  V30 7151 H 673.138 1.78777 0.776195 0
M  V30 7152 H 672.234 2.1528 2.25966 0
M  V30 7153 N 672.536 -0.895792 1.29666 0
M  V30 7154 C 673.782 -1.64908 1.18039 0
M  V30 7155 C 674.115 -1.9236 -0.266682 0
M  V30 7156 O 673.39 -1.53682 -1.19214 0
M  V30 7157 C 673.673 -2.99574 1.99819 0
M  V30 7158 C 673.526 -2.79163 3.52687 0
M  V30 7159 C 674.845 -4.00358 1.82761 0
M  V30 7160 H 671.964 -0.598437 0.430165 0
M  V30 7161 H 674.606 -1.03736 1.59182 0
M  V30 7162 H 672.756 -3.51786 1.64859 0
M  V30 7163 H 674.428 -2.33821 3.9765 0
M  V30 7164 H 672.671 -2.13871 3.77414 0
M  V30 7165 H 673.342 -3.74871 4.05186 0
M  V30 7166 H 675.818 -3.57268 2.13304 0
M  V30 7167 H 674.694 -4.92514 2.42325 0
M  V30 7168 H 674.955 -4.35096 0.783839 0
M  V30 7169 N 674.014 -1.12206 -1.10668 0
M  V30 7170 C 675.254 -0.885935 -1.84202 0
M  V30 7171 C 675.618 0.577849 -1.83098 0
M  V30 7172 O 676.819 0.931051 -2.5216 0
M  V30 7173 C 675.09 -1.44197 -3.2702 0
M  V30 7174 S 676.649 -1.34402 -4.1771 0
M  V30 7175 H 673.467 -0.319653 -0.635093 0
M  V30 7176 H 676.069 -1.43112 -1.33189 0
M  V30 7177 H 674.773 -2.50096 -3.25392 0
M  V30 7178 H 674.304 -0.894173 -3.83103 0
M  V30 7179 H 676.319 -0.313873 -4.95206 0
M  V30 7180 N 675.492 1.28418 -0.913599 0
M  V30 7181 C 676.769 1.89977 -0.465619 0
M  V30 7182 C 677.149 1.82813 1.05559 0
M  V30 7183 O 676.497 1.26397 1.90358 0
M  V30 7184 C 676.707 3.34492 -0.995813 0
M  V30 7185 C 678.055 4.11468 -1.04782 0
M  V30 7186 O 679.079 3.43451 -0.944445 0
M  V30 7187 O 677.938 5.33046 -1.20518 0
M  V30 7188 H 675.032 0.813734 -0.147532 0
M  V30 7189 H 677.578 1.36786 -1.00437 0
M  V30 7190 H 676.35 3.33929 -2.03978 0
M  V30 7191 H 675.973 3.95181 -0.437878 0
M  V30 7192 N 676.97 0.677563 1.42291 0
M  V30 7193 C 677.903 -0.0492638 2.28147 0
M  V30 7194 C 678.881 -0.805936 1.41221 0
M  V30 7195 O 680.065 -0.80049 1.70659 0
M  V30 7196 C 677.192 -1.07697 3.21122 0
M  V30 7197 C 676.238 -0.41556 4.24471 0
M  V30 7198 S 677.071 0.828876 5.29046 0
M  V30 7199 C 678.227 -0.197687 6.25588 0
M  V30 7200 H 678.46 0.678965 2.89443 0
M  V30 7201 H 675.993 0.467201 1.47162 0
M  V30 7202 H 677.951 -1.66482 3.75225 0
M  V30 7203 H 676.612 -1.77766 2.58956 0
M  V30 7204 H 675.805 -1.19112 4.89723 0
M  V30 7205 H 675.407 0.0987632 3.7387 0
M  V30 7206 H 677.699 -1.05656 6.69211 0
M  V30 7207 H 678.642 0.420437 7.06851 0
M  V30 7208 H 679.05 -0.544401 5.61869 0
M  V30 7209 N 678.448 -1.51871 0.421078 0
M  V30 7210 C 679.725 -1.9447 -0.20993 0
M  V30 7211 C 680.105 -1.35875 -1.61558 0
M  V30 7212 O 679.453 -0.539294 -2.22045 0
M  V30 7213 C 679.663 -3.48402 -0.204165 0
M  V30 7214 C 681.011 -4.2254 -0.417696 0
M  V30 7215 O 682.035 -3.55074 -0.282999 0
M  V30 7216 O 680.894 -5.422 -0.684239 0
M  V30 7217 H 677.988 -0.815283 -0.138718 0
M  V30 7218 H 680.534 -1.62832 0.477884 0
M  V30 7219 H 679.306 -3.83464 0.779183 0
M  V30 7220 H 678.929 -3.86436 -0.935576 0
M  V30 7221 N 679.926 -0.151884 -1.56866 0
M  V30 7222 C 681.166 0.500695 -1.98173 0
M  V30 7223 C 681.53 1.61715 -1.03499 0
M  V30 7224 O 682.731 2.33093 -1.33869 0
M  V30 7225 C 681.002 0.989333 -3.43434 0
M  V30 7226 S 682.561 1.64583 -4.06765 0
M  V30 7227 H 679.379 0.16173 -0.692361 0
M  V30 7228 H 681.981 -0.244754 -1.93962 0
M  V30 7229 H 680.685 0.166072 -4.10064 0
M  V30 7230 H 680.216 1.76929 -3.51368 0
M  V30 7231 H 682.231 2.93326 -4.00218 0
M  V30 7232 N 681.404 1.57128 0.121893 0
M  V30 7233 C 682.352 2.01109 1.16868 0
M  V30 7234 C 683.346 0.907532 1.43039 0
M  V30 7235 O 684.552 1.09274 1.43036 0
M  V30 7236 H 680.927 0.640539 0.393971 0
M  V30 7237 H 682.898 2.88261 0.771224 0
M  V30 7238 C 681.647 2.42887 2.48799 0
M  V30 7239 H 680.97 3.2737 2.29498 0
M  V30 7240 H 682.41 2.77461 3.20611 0
M  V30 7241 C 680.869 1.29137 3.11168 0
M  V30 7242 O 681.399 0.605756 3.97106 0
M  V30 7243 N 679.605 1.04916 2.71 0
M  V30 7244 H 679.152 1.60848 2.01211 0
M  V30 7245 H 679.11 0.290016 3.1306 0
M  V30 7246 N 682.882 -0.391992 1.52647 0
M  V30 7247 C 684.112 -1.15692 1.71169 0
M  V30 7248 C 684.52 -1.84285 0.428444 0
M  V30 7249 O 683.863 -1.73393 -0.606669 0
M  V30 7250 C 683.925 -2.25033 2.80357 0
M  V30 7251 C 683.589 -1.76433 4.21569 0
M  V30 7252 C 684.586 -1.2427 5.0483 0
M  V30 7253 C 682.271 -1.82746 4.67877 0
M  V30 7254 C 684.265 -0.790657 6.32477 0
M  V30 7255 C 681.952 -1.37153 5.9551 0
M  V30 7256 C 682.95 -0.853997 6.7764 0
M  V30 7257 O 682.638 -0.404708 8.02881 0
M  V30 7258 H 682.37 -0.35297 0.576531 0
M  V30 7259 H 684.924 -0.464994 2.00067 0
M  V30 7260 H 683.154 -2.97641 2.46874 0
M  V30 7261 H 684.843 -2.86718 2.87311 0
M  V30 7262 H 685.609 -1.18752 4.70237 0
M  V30 7263 H 681.488 -2.21971 4.04042 0
M  V30 7264 H 685.032 -0.386024 6.96531 0
M  V30 7265 H 680.929 -1.42356 6.29607 0
M  V30 7266 H 681.697 -0.526459 8.16805 0
M  V30 7267 N 684.36 -1.4356 -0.65026 0
M  V30 7268 C 685.27 -1.514 -1.79207 0
M  V30 7269 C 686.286 -0.400895 -1.69319 0
M  V30 7270 O 687.462 -0.655458 -1.90436 0
M  V30 7271 C 684.527 -1.43737 -3.155 0
M  V30 7272 C 683.588 -2.65743 -3.37163 0
M  V30 7273 C 682.821 -2.58436 -4.66954 0
M  V30 7274 O 683.044 -1.63374 -5.46503 0
M  V30 7275 O 681.978 -3.48984 -4.90402 0
M  V30 7276 H 685.804 -2.47825 -1.75547 0
M  V30 7277 H 683.389 -1.25594 -0.809111 0
M  V30 7278 H 685.271 -1.41916 -3.96784 0
M  V30 7279 H 683.946 -0.504488 -3.19745 0
M  V30 7280 H 682.853 -2.73136 -2.55632 0
M  V30 7281 H 684.186 -3.58014 -3.37768 0
M  V30 7282 N 685.838 0.888903 -1.30139 0
M  V30 7283 C 687.254 1.17153 -1.08385 0
M  V30 7284 C 687.454 2.0088 0.157925 0
M  V30 7285 O 686.51 2.37668 0.852652 0
M  V30 7286 C 687.823 1.882 -2.34523 0
M  V30 7287 C 689.371 2.00981 -2.39949 0
M  V30 7288 C 689.846 2.75441 -3.65918 0
M  V30 7289 N 691.337 2.82989 -3.66704 0
M  V30 7290 C 692.072 3.41167 -4.60861 0
M  V30 7291 N 691.568 4.00425 -5.6536 0
M  V30 7292 N 693.361 3.38944 -4.48412 0
M  V30 7293 H 685.512 0.33053 -2.09812 0
M  V30 7294 H 687.775 0.208964 -0.924683 0
M  V30 7295 H 687.481 1.34119 -3.25123 0
M  V30 7296 H 687.355 2.88609 -2.42868 0
M  V30 7297 H 689.742 2.54234 -1.4983 0
M  V30 7298 H 689.823 0.996725 -2.35582 0
M  V30 7299 H 689.467 2.22861 -4.56394 0
M  V30 7300 H 689.397 3.77118 -3.67546 0
M  V30 7301 H 691.888 2.40912 -2.91153 0
M  V30 7302 H 692.201 4.42871 -6.33313 0
M  V30 7303 H 690.546 3.98856 -5.69157 0
M  V30 7304 H 693.737 2.91875 -3.6596 0
M  V30 7305 H 693.91 3.83989 -5.21974 0
M  V30 7306 N 687.317 1.12792 1.10072 0
M  V30 7307 C 688.564 0.885545 1.82111 0
M  V30 7308 C 688.892 -0.588519 1.85383 0
M  V30 7309 O 688.147 -1.45124 1.31292 0
M  V30 7310 C 688.446 1.4102 3.28403 0
M  V30 7311 C 688.112 2.89995 3.45273 0
M  V30 7312 C 686.774 3.30671 3.49585 0
M  V30 7313 C 689.126 3.85874 3.50358 0
M  V30 7314 C 686.454 4.65925 3.56553 0
M  V30 7315 C 688.806 5.20963 3.58859 0
M  V30 7316 C 687.47 5.61177 3.61437 0
M  V30 7317 H 686.74 0.324044 0.666391 0
M  V30 7318 H 689.387 1.40874 1.29718 0
M  V30 7319 H 687.692 0.807551 3.83387 0
M  V30 7320 H 689.389 1.19882 3.82661 0
M  V30 7321 H 685.979 2.57537 3.42597 0
M  V30 7322 H 690.163 3.5554 3.46273 0
M  V30 7323 H 685.419 4.96468 3.56833 0
M  V30 7324 H 689.593 5.95079 3.61738 0
M  V30 7325 H 687.22 6.6597 3.66589 0
M  V30 7326 N 688.795 -1.27931 0.920396 0
M  V30 7327 C 689.743 -2.29061 0.404191 0
M  V30 7328 C 690.737 -1.61615 -0.507634 0
M  V30 7329 O 691.943 -1.75765 -0.388144 0
M  V30 7330 H 688.318 -0.743594 0.112123 0
M  V30 7331 H 690.289 -2.70021 1.27008 0
M  V30 7332 C 689.038 -3.46088 -0.334466 0
M  V30 7333 H 688.361 -3.98194 0.35797 0
M  V30 7334 H 689.801 -4.18829 -0.660196 0
M  V30 7335 C 688.26 -2.99396 -1.54479 0
M  V30 7336 O 688.79 -3.02439 -2.64374 0
M  V30 7337 N 686.996 -2.54978 -1.39408 0
M  V30 7338 H 686.543 -2.52701 -0.500009 0
M  V30 7339 H 686.501 -2.24098 -2.20516 0
M  V30 7340 N 690.273 -0.685099 -1.4193 0
M  V30 7341 C 691.52 -0.211658 -2.01391 0
M  V30 7342 C 691.848 1.18526 -1.54214 0
M  V30 7343 O 691.103 1.81189 -0.739519 0
M  V30 7344 C 691.402 -0.206154 -3.56805 0
M  V30 7345 C 691.068 -1.54915 -4.23453 0
M  V30 7346 C 689.73 -1.91684 -4.41373 0
M  V30 7347 C 692.082 -2.43317 -4.60919 0
M  V30 7348 C 689.41 -3.16461 -4.94034 0
M  V30 7349 C 691.762 -3.67415 -5.14965 0
M  V30 7350 C 690.426 -4.04341 -5.31098 0
M  V30 7351 H 689.696 -0.0774511 -0.736941 0
M  V30 7352 H 692.343 -0.882121 -1.69973 0
M  V30 7353 H 690.648 0.547841 -3.87951 0
M  V30 7354 H 692.345 0.17753 -4.00607 0
M  V30 7355 H 688.935 -1.25314 -4.09871 0
M  V30 7356 H 693.119 -2.16192 -4.46738 0
M  V30 7357 H 688.375 -3.45078 -5.04709 0
M  V30 7358 H 692.549 -4.3611 -5.42938 0
M  V30 7359 H 690.176 -5.01101 -5.71666 0
M  V30 7360 N 691.751 1.51645 -0.429126 0
M  V30 7361 C 693.028 1.94579 0.199614 0
M  V30 7362 C 693.408 1.3673 1.60836 0
M  V30 7363 O 692.756 0.551062 2.21756 0
M  V30 7364 C 692.966 3.48506 0.185685 0
M  V30 7365 C 694.314 4.22756 0.395282 0
M  V30 7366 O 695.338 3.55219 0.264165 0
M  V30 7367 O 694.197 5.42555 0.655475 0
M  V30 7368 H 691.291 0.816007 0.134393 0
M  V30 7369 H 693.837 1.62577 -0.486513 0
M  V30 7370 H 692.609 3.83045 -0.799508 0
M  V30 7371 H 692.232 3.86927 0.91507 0
M  V30 7372 N 693.229 0.160201 1.56784 0
M  V30 7373 C 694.477 -0.486625 1.96154 0
M  V30 7374 C 694.798 -1.64525 1.04673 0
M  V30 7375 O 694.068 -1.95586 0.110864 0
M  V30 7376 H 692.648 -0.182764 0.724297 0
M  V30 7377 H 695.31 0.238787 1.93432 0
M  V30 7378 H 694.406 -0.854025 3.00188 0
M  V30 7379 N 694.707 -1.5719 -0.113559 0
M  V30 7380 C 695.955 -1.84772 -0.818761 0
M  V30 7381 C 696.276 -0.746196 -1.80158 0
M  V30 7382 O 695.546 0.229305 -1.94553 0
M  V30 7383 H 694.126 -0.681737 -0.305359 0
M  V30 7384 H 696.788 -1.94645 -0.0995845 0
M  V30 7385 H 695.884 -2.80878 -1.36067 0
M  V30 7386 N 696.185 0.383891 -1.52853 0
M  V30 7387 C 697.095 1.49343 -1.80925 0
M  V30 7388 C 698.111 1.59458 -0.696348 0
M  V30 7389 O 699.287 1.75698 -0.984481 0
M  V30 7390 C 696.352 2.84819 -1.97684 0
M  V30 7391 C 695.413 2.84382 -3.21598 0
M  V30 7392 C 694.646 4.13397 -3.37548 0
M  V30 7393 O 694.869 5.08619 -2.58192 0
M  V30 7394 O 693.803 4.20325 -4.30826 0
M  V30 7395 H 697.629 1.2855 -2.75152 0
M  V30 7396 H 695.214 0.572229 -1.38007 0
M  V30 7397 H 697.096 3.65125 -2.10385 0
M  V30 7398 H 695.771 3.05627 -1.06647 0
M  V30 7399 H 694.678 2.0284 -3.14336 0
M  V30 7400 H 696.011 2.68526 -4.12498 0
M  V30 7401 N 697.663 1.43903 0.642637 0
M  V30 7402 C 698.903 1.47591 1.41408 0
M  V30 7403 C 699.267 0.101313 1.91733 0
M  V30 7404 O 700.468 0.0128797 2.68797 0
M  V30 7405 C 698.739 2.4977 2.55636 0
M  V30 7406 S 700.298 2.72417 3.43998 0
M  V30 7407 H 697.116 0.522163 0.482563 0
M  V30 7408 H 699.718 1.80745 0.745085 0
M  V30 7409 H 698.422 3.48365 2.16956 0
M  V30 7410 H 697.953 2.1815 3.27375 0
M  V30 7411 H 699.968 2.03142 4.52712 0
M  V30 7412 N 699.141 -0.881989 1.30609 0
M  V30 7413 C 700.381 -1.64817 1.20891 0
M  V30 7414 C 700.745 -1.90593 -0.232043 0
M  V30 7415 O 701.946 -2.64964 -0.452516 0
M  V30 7416 C 700.217 -2.95006 2.01758 0
M  V30 7417 S 701.776 -3.85953 2.08771 0
M  V30 7418 H 698.594 -0.565651 0.430767 0
M  V30 7419 H 701.196 -1.04665 1.65122 0
M  V30 7420 H 699.9 -2.73973 3.0556 0
M  V30 7421 H 699.431 -3.60189 1.582 0
M  V30 7422 H 701.446 -4.81037 1.21727 0
M  V30 7423 N 700.619 -1.13374 -1.09472 0
M  V30 7424 C 701.896 -0.806329 -1.78207 0
M  V30 7425 C 702.276 0.702191 -1.99079 0
M  V30 7426 O 701.624 1.63931 -1.59182 0
M  V30 7427 C 701.834 -1.59271 -3.10538 0
M  V30 7428 C 703.182 -1.78509 -3.85253 0
M  V30 7429 O 704.206 -1.55866 -3.20288 0
M  V30 7430 O 703.065 -2.16287 -5.01879 0
M  V30 7431 H 700.159 -0.29435 -0.772843 0
M  V30 7432 H 702.705 -1.23833 -1.16033 0
M  V30 7433 H 701.477 -2.61792 -2.90828 0
M  V30 7434 H 701.1 -1.15562 -3.80436 0
M  V30 7435 N 702.098 1.27442 -0.927168 0
M  V30 7436 C 703.509 1.76385 -0.611979 0
M  V30 7437 C 703.86 1.75715 0.872853 0
M  V30 7438 O 702.985 1.3603 1.683 0
M  V30 7439 C 703.58 3.20303 -1.10414 0
M  V30 7440 C 702.139 3.66916 -0.839628 0
M  V30 7441 C 701.286 2.46859 -1.26317 0
M  V30 7442 H 704.237 1.13716 -1.107 0
M  V30 7443 H 704.258 3.77811 -0.451578 0
M  V30 7444 H 703.77 3.20759 -2.18484 0
M  V30 7445 H 701.871 3.71906 0.227292 0
M  V30 7446 H 701.984 4.56415 -1.45679 0
M  V30 7447 H 700.348 2.45407 -0.681723 0
M  V30 7448 H 701.131 2.50025 -2.3525 0
M  V30 7449 N 703.576 0.692616 1.41565 0
M  V30 7450 C 704.486 0.0258451 2.34586 0
M  V30 7451 C 705.502 -0.769324 1.56069 0
M  V30 7452 O 706.678 -0.707563 1.88562 0
M  V30 7453 C 703.743 -0.901289 3.3478 0
M  V30 7454 C 702.804 -0.0986579 4.29187 0
M  V30 7455 C 702.037 -0.981634 5.24595 0
M  V30 7456 O 702.26 -2.22115 5.25377 0
M  V30 7457 O 701.194 -0.432892 6.00341 0
M  V30 7458 H 705.02 0.792537 2.93177 0
M  V30 7459 H 702.605 0.452935 1.42369 0
M  V30 7460 H 704.487 -1.43302 3.96286 0
M  V30 7461 H 703.162 -1.64752 2.78637 0
M  V30 7462 H 702.069 0.477604 3.71039 0
M  V30 7463 H 703.402 0.608848 4.8842 0
M  V30 7464 N 705.054 -1.51416 0.437162 0
M  V30 7465 C 706.303 -2.01275 -0.130865 0
M  V30 7466 C 706.616 -1.32593 -1.438 0
M  V30 7467 O 707.822 -1.7342 -2.08897 0
M  V30 7468 C 706.278 -3.5878 -0.283763 0
M  V30 7469 C 705.886 -4.36399 1.01293 0
M  V30 7470 C 707.63 -4.16786 -0.805569 0
M  V30 7471 C 705.537 -5.85608 0.825687 0
M  V30 7472 H 704.467 -0.752157 -0.0526818 0
M  V30 7473 H 707.118 -1.74524 0.566896 0
M  V30 7474 H 705.5 -3.81976 -1.04452 0
M  V30 7475 H 706.674 -4.24948 1.78201 0
M  V30 7476 H 704.989 -3.89843 1.46326 0
M  V30 7477 H 707.586 -5.25972 -0.962146 0
M  V30 7478 H 707.929 -3.75949 -1.78796 0
M  V30 7479 H 708.462 -3.97666 -0.103125 0
M  V30 7480 H 705.201 -6.30857 1.78045 0
M  V30 7481 H 704.721 -5.99723 0.0964029 0
M  V30 7482 H 706.4 -6.45226 0.478815 0
M  V30 7483 N 706.532 -0.168513 -1.56696 0
M  V30 7484 C 707.76 0.483503 -2.01171 0
M  V30 7485 C 708.175 1.56994 -1.04872 0
M  V30 7486 O 707.532 1.82434 -0.0491337 0
M  V30 7487 C 707.583 1.0644 -3.45475 0
M  V30 7488 O 707.304 0.0213375 -4.38095 0
M  V30 7489 C 708.805 1.79493 -4.05336 0
M  V30 7490 H 706.025 0.124002 -0.659443 0
M  V30 7491 H 708.569 -0.269419 -2.02717 0
M  V30 7492 H 706.724 1.76784 -3.44712 0
M  V30 7493 H 707.138 0.449837 -5.22567 0
M  V30 7494 H 708.612 2.15401 -5.08238 0
M  V30 7495 H 709.089 2.68889 -3.47269 0
M  V30 7496 H 709.695 1.13798 -4.09793 0
M  V30 7497 N 708.01 1.57248 0.105221 0
M  V30 7498 C 708.958 2.02337 1.14728 0
M  V30 7499 C 709.952 0.922652 1.42069 0
M  V30 7500 O 711.158 1.10785 1.41869 0
M  V30 7501 H 707.533 0.644682 0.387155 0
M  V30 7502 H 709.504 2.89063 0.740607 0
M  V30 7503 C 708.253 2.45513 2.46209 0
M  V30 7504 H 707.576 3.29785 2.26013 0
M  V30 7505 H 709.016 2.80846 3.1765 0
M  V30 7506 C 707.475 1.3243 3.09781 0
M  V30 7507 O 708.005 0.647841 3.96442 0
M  V30 7508 N 706.211 1.07785 2.69872 0
M  V30 7509 H 705.758 1.62973 1.99493 0
M  V30 7510 H 705.716 0.323204 3.12734 0
M  V30 7511 N 709.488 -0.375779 1.53054 0
M  V30 7512 C 710.734 -1.12114 1.68992 0
M  V30 7513 C 711.067 -1.8926 0.435238 0
M  V30 7514 O 710.342 -1.86044 -0.567278 0
M  V30 7515 C 710.625 -2.08867 2.93337 0
M  V30 7516 C 710.478 -1.35397 4.28938 0
M  V30 7517 C 711.797 -3.09124 3.13257 0
M  V30 7518 H 708.916 -0.406207 0.614951 0
M  V30 7519 H 711.558 -0.403054 1.85676 0
M  V30 7520 H 709.708 -2.70102 2.79244 0
M  V30 7521 H 711.38 -0.770242 4.54824 0
M  V30 7522 H 709.623 -0.655801 4.28814 0
M  V30 7523 H 710.294 -2.06161 5.12056 0
M  V30 7524 H 712.77 -2.57987 3.26469 0
M  V30 7525 H 711.646 -3.74054 4.01715 0
M  V30 7526 H 711.907 -3.78729 2.28072 0
M  V30 7527 N 710.966 -1.44241 -0.634997 0
M  V30 7528 C 712.194 -1.50296 -1.42193 0
M  V30 7529 C 712.609 -0.12658 -1.88375 0
M  V30 7530 O 711.966 0.86678 -1.60603 0
M  V30 7531 C 712.017 -2.46437 -2.64482 0
M  V30 7532 O 711.738 -3.78724 -2.20226 0
M  V30 7533 C 713.239 -2.61918 -3.57651 0
M  V30 7534 H 710.459 -0.509865 -0.43621 0
M  V30 7535 H 713.003 -1.89167 -0.776921 0
M  V30 7536 H 711.158 -2.10712 -3.25083 0
M  V30 7537 H 711.572 -4.30595 -2.9948 0
M  V30 7538 H 713.046 -3.33225 -4.40074 0
M  V30 7539 H 713.523 -1.67017 -4.06204 0
M  V30 7540 H 714.129 -2.98528 -3.02921 0
M  V30 7541 N 712.444 0.87505 -1.31075 0
M  V30 7542 C 713.376 1.98773 -1.14114 0
M  V30 7543 C 714.389 1.62595 -0.0816119 0
M  V30 7544 O 715.578 1.75449 -0.32861 0
M  V30 7545 C 712.678 3.31159 -0.720224 0
M  V30 7546 C 711.851 3.9571 -1.86366 0
M  V30 7547 C 710.91 5.06407 -1.42965 0
M  V30 7548 O 709.936 5.27501 -2.13848 0
M  V30 7549 N 711.138 5.79649 -0.314194 0
M  V30 7550 H 713.903 2.1387 -2.09951 0
M  V30 7551 H 711.464 1.04873 -1.23342 0
M  V30 7552 H 713.456 4.0259 -0.412687 0
M  V30 7553 H 712.026 3.12257 0.146396 0
M  V30 7554 H 711.246 3.17324 -2.33879 0
M  V30 7555 H 712.534 4.35576 -2.62966 0
M  V30 7556 H 711.932 5.65025 0.276228 0
M  V30 7557 H 710.489 6.51766 -0.0661641 0
M  V30 7558 N 713.922 1.13953 1.08869 0
M  V30 7559 C 715.15 0.92817 1.84912 0
M  V30 7560 C 715.565 -0.523197 1.81406 0
M  V30 7561 O 714.922 -1.36237 1.21432 0
M  V30 7562 C 714.973 1.41509 3.32652 0
M  V30 7563 O 714.694 2.80959 3.36145 0
M  V30 7564 C 716.195 1.243 4.25517 0
M  V30 7565 H 713.415 0.330612 0.583898 0
M  V30 7566 H 715.959 1.51349 1.37527 0
M  V30 7567 H 714.114 0.872648 3.77444 0
M  V30 7568 H 714.528 3.02704 4.28335 0
M  V30 7569 H 716.002 1.63237 5.27312 0
M  V30 7570 H 716.479 0.18532 4.38809 0
M  V30 7571 H 717.085 1.77375 3.86546 0
M  V30 7572 N 715.4 -1.26948 0.933913 0
M  V30 7573 C 716.64 -1.9585 0.585003 0
M  V30 7574 C 717.004 -1.71722 -0.858802 0
M  V30 7575 O 718.205 -2.34366 -1.31629 0
M  V30 7576 C 716.476 -3.45638 0.909352 0
M  V30 7577 S 718.035 -4.33656 0.669892 0
M  V30 7578 H 714.853 -0.677485 0.215721 0
M  V30 7579 H 717.455 -1.54051 1.20368 0
M  V30 7580 H 716.159 -3.60697 1.9577 0
M  V30 7581 H 715.69 -3.92401 0.280115 0
M  V30 7582 H 717.705 -4.93975 -0.469378 0
M  V30 7583 N 716.879 -0.700114 -1.41195 0
M  V30 7584 C 718.126 -0.233006 -2.01155 0
M  V30 7585 C 718.454 1.16883 -1.55462 0
M  V30 7586 O 717.709 1.80395 -0.758695 0
M  V30 7587 C 718.008 -0.243986 -3.56566 0
M  V30 7588 C 717.674 -1.59397 -4.21786 0
M  V30 7589 C 716.336 -1.96355 -4.39316 0
M  V30 7590 C 718.688 -2.48192 -4.58312 0
M  V30 7591 C 716.016 -3.21683 -4.9065 0
M  V30 7592 C 718.368 -3.72857 -5.11039 0
M  V30 7593 C 717.032 -4.09951 -5.26779 0
M  V30 7594 H 716.302 -0.085263 -0.736078 0
M  V30 7595 H 718.949 -0.9001 -1.69028 0
M  V30 7596 H 717.254 0.506663 -3.8851 0
M  V30 7597 H 718.951 0.135031 -4.00773 0
M  V30 7598 H 715.541 -1.29654 -4.08519 0
M  V30 7599 H 719.725 -2.20918 -4.4442 0
M  V30 7600 H 714.981 -3.50412 -5.01021 0
M  V30 7601 H 719.155 -4.41844 -5.38282 0
M  V30 7602 H 716.782 -5.07136 -5.66319 0
M  V30 7603 N 718.357 1.51182 -0.445186 0
M  V30 7604 C 719.634 1.9478 0.178965 0
M  V30 7605 C 720.014 1.38428 1.59376 0
M  V30 7606 O 719.362 0.574552 2.21159 0
M  V30 7607 C 719.572 3.48683 0.148711 0
M  V30 7608 C 720.92 4.23152 0.35042 0
M  V30 7609 O 721.944 3.55479 0.226474 0
M  V30 7610 O 720.803 5.4322 0.597893 0
M  V30 7611 H 717.897 0.817387 0.12573 0
M  V30 7612 H 720.443 1.62051 -0.503729 0
M  V30 7613 H 719.215 3.82176 -0.84009 0
M  V30 7614 H 718.838 3.87875 0.873979 0
M  V30 7615 N 719.835 0.176821 1.56605 0
M  V30 7616 C 721.246 -0.338963 1.83597 0
M  V30 7617 C 721.597 -1.62677 1.09684 0
M  V30 7618 O 720.722 -2.13524 0.351661 0
M  V30 7619 C 721.317 -0.62177 3.33046 0
M  V30 7620 C 719.876 -1.08198 3.60514 0
M  V30 7621 C 719.023 -0.120774 2.77037 0
M  V30 7622 H 721.974 0.400978 1.53551 0
M  V30 7623 H 721.995 -1.47321 3.50823 0
M  V30 7624 H 721.507 0.315692 3.86814 0
M  V30 7625 H 719.608 -2.03435 3.12162 0
M  V30 7626 H 719.721 -0.987329 4.68816 0
M  V30 7627 H 718.085 -0.619192 2.47059 0
M  V30 7628 H 718.868 0.810806 3.33588 0
M  V30 7629 N 721.313 -1.57302 -0.09688 0
M  V30 7630 C 722.59 -1.7701 -0.832272 0
M  V30 7631 C 722.97 -0.758025 -1.97021 0
M  V30 7632 O 722.318 0.213824 -2.27497 0
M  V30 7633 C 722.528 -3.22725 -1.32851 0
M  V30 7634 C 723.876 -3.85856 -1.772 0
M  V30 7635 O 724.9 -3.26464 -1.42478 0
M  V30 7636 O 723.759 -4.90295 -2.41398 0
M  V30 7637 H 720.853 -0.725558 -0.396856 0
M  V30 7638 H 723.399 -1.69516 -0.0789005 0
M  V30 7639 H 722.171 -3.87921 -0.51312 0
M  V30 7640 H 721.794 -3.34845 -2.14394 0
M  V30 7641 N 722.791 0.367657 -1.53252 0
M  V30 7642 C 724.016 1.13566 -1.73544 0
M  V30 7643 C 724.441 1.82329 -0.462344 0
M  V30 7644 O 723.799 1.71655 0.583472 0
M  V30 7645 C 723.847 2.14322 -2.89997 0
M  V30 7646 O 722.951 3.21359 -2.58461 0
M  V30 7647 H 722.292 0.329614 -0.576412 0
M  V30 7648 H 724.822 0.425417 -2.00128 0
M  V30 7649 H 724.832 2.57958 -3.16104 0
M  V30 7650 H 723.507 1.63664 -3.82344 0
M  V30 7651 H 722.084 2.8271 -2.43165 0
M  V30 7652 N 724.269 1.44576 0.627338 0
M  V30 7653 C 725.68 1.42266 1.20902 0
M  V30 7654 C 726.031 0.139964 1.957 0
M  V30 7655 O 725.156 -0.759489 2.02634 0
M  V30 7656 C 725.751 2.57727 2.19914 0
M  V30 7657 C 724.31 2.58599 2.73502 0
M  V30 7658 C 723.457 2.34145 1.48564 0
M  V30 7659 H 726.408 1.53102 0.417791 0
M  V30 7660 H 726.429 2.30697 3.02588 0
M  V30 7661 H 725.941 3.51068 1.65447 0
M  V30 7662 H 724.042 1.6921 3.31962 0
M  V30 7663 H 724.155 3.57205 3.19282 0
M  V30 7664 H 722.519 1.83313 1.76829 0
M  V30 7665 H 723.302 3.29606 0.959935 0
M  V30 7666 N 725.747 -0.868086 1.31537 0
M  V30 7667 C 726.697 -1.96321 1.1594 0
M  V30 7668 C 727.681 -1.60748 0.0698962 0
M  V30 7669 O 728.873 -1.74524 0.295011 0
M  V30 7670 C 726.002 -3.32073 0.870789 0
M  V30 7671 C 725.088 -3.73907 2.00136 0
M  V30 7672 N 725.479 -3.87685 3.24859 0
M  V30 7673 C 723.777 -4.03433 1.90152 0
M  V30 7674 C 724.478 -4.23454 3.98825 0
M  V30 7675 N 723.454 -4.34242 3.27009 0
M  V30 7676 H 727.256 -2.05088 2.10514 0
M  V30 7677 H 724.77 -1.059 1.23122 0
M  V30 7678 H 726.767 -4.10279 0.740034 0
M  V30 7679 H 725.427 -3.24631 -0.0667068 0
M  V30 7680 H 726.438 -3.72363 3.59953 0
M  V30 7681 H 723.115 -4.0437 1.03879 0
M  V30 7682 H 724.505 -4.41696 5.06314 0
M  V30 7683 N 727.225 -1.14528 -1.08264 0
M  V30 7684 C 728.641 -0.885976 -1.3275 0
M  V30 7685 C 728.841 0.472096 -1.95892 0
M  V30 7686 O 727.897 1.21606 -2.21288 0
M  V30 7687 C 729.21 -2.01982 -2.22764 0
M  V30 7688 C 730.758 -2.05329 -2.36239 0
M  V30 7689 C 731.233 -3.1801 -3.29596 0
M  V30 7690 N 732.724 -3.17598 -3.37173 0
M  V30 7691 C 733.459 -4.01426 -4.09444 0
M  V30 7692 N 732.955 -4.95297 -4.8441 0
M  V30 7693 N 734.748 -3.89482 -4.0529 0
M  V30 7694 H 726.899 -2.01996 -0.656607 0
M  V30 7695 H 729.162 -0.880274 -0.351884 0
M  V30 7696 H 728.868 -2.99964 -1.83615 0
M  V30 7697 H 728.742 -1.94421 -3.23234 0
M  V30 7698 H 731.129 -1.07953 -2.74646 0
M  V30 7699 H 731.21 -2.1696 -1.35506 0
M  V30 7700 H 730.854 -4.15633 -2.9191 0
M  V30 7701 H 730.784 -3.03616 -4.30261 0
M  V30 7702 H 733.275 -2.4961 -2.83731 0
M  V30 7703 H 733.588 -5.55723 -5.37021 0
M  V30 7704 H 731.933 -4.99293 -4.83457 0
M  V30 7705 H 735.124 -3.15465 -3.45832 0
M  V30 7706 H 735.297 -4.55039 -4.6135 0
M  V30 7707 N 728.703 1.26451 -0.940633 0
M  V30 7708 C 729.666 2.24651 -0.454378 0
M  V30 7709 C 730.666 1.54826 0.434222 0
M  V30 7710 O 731.856 1.72628 0.233477 0
M  V30 7711 C 728.988 3.39148 0.345192 0
M  V30 7712 H 730.181 2.69182 -1.32217 0
M  V30 7713 H 727.734 1.38596 -0.722547 0
M  V30 7714 H 728.469 3.00018 1.23125 0
M  V30 7715 H 728.254 3.9101 -0.292107 0
M  V30 7716 H 729.744 4.12103 0.675341 0
M  V30 7717 N 730.181 0.707592 1.40822 0
M  V30 7718 C 731.411 0.252706 2.05049 0
M  V30 7719 C 731.819 -1.10758 1.53393 0
M  V30 7720 O 731.162 -1.70567 0.682097 0
M  V30 7721 C 731.224 0.146001 3.59203 0
M  V30 7722 C 730.888 1.44027 4.33711 0
M  V30 7723 C 731.885 2.38058 4.62195 0
M  V30 7724 C 729.57 1.69698 4.72766 0
M  V30 7725 C 731.564 3.56013 5.28709 0
M  V30 7726 C 729.251 2.87936 5.39014 0
M  V30 7727 C 730.249 3.80915 5.66915 0
M  V30 7728 O 729.937 4.9708 6.31796 0
M  V30 7729 H 729.669 0.112784 0.666525 0
M  V30 7730 H 732.223 0.96417 1.81364 0
M  V30 7731 H 730.453 -0.621338 3.81676 0
M  V30 7732 H 732.142 -0.273275 4.04979 0
M  V30 7733 H 732.908 2.19487 4.32493 0
M  V30 7734 H 728.787 0.981835 4.50423 0
M  V30 7735 H 732.331 4.28604 5.50404 0
M  V30 7736 H 728.228 3.06419 5.68135 0
M  V30 7737 H 728.996 4.97053 6.50293 0
M  V30 7738 N 731.66 -1.50943 0.453197 0
M  V30 7739 C 732.59 -2.31005 -0.34044 0
M  V30 7740 C 733.571 -1.37112 -1.00669 0
M  V30 7741 O 734.756 -1.66033 -1.0073 0
M  V30 7742 C 731.886 -3.16358 -1.433 0
M  V30 7743 C 730.84 -4.18658 -0.889363 0
M  V30 7744 C 730.166 -4.92633 -2.07887 0
M  V30 7745 C 731.466 -5.22227 0.0871142 0
M  V30 7746 H 733.16 -2.97601 0.327723 0
M  V30 7747 H 730.706 -1.43119 0.159054 0
M  V30 7748 H 732.659 -3.71155 -1.99555 0
M  V30 7749 H 731.383 -2.47613 -2.12968 0
M  V30 7750 H 730.042 -3.64936 -0.348915 0
M  V30 7751 H 729.69 -4.20376 -2.76211 0
M  V30 7752 H 729.39 -5.61819 -1.72143 0
M  V30 7753 H 730.914 -5.50258 -2.64666 0
M  V30 7754 H 732.328 -5.72001 -0.385656 0
M  V30 7755 H 730.725 -5.99032 0.357926 0
M  V30 7756 H 731.795 -4.74077 1.01879 0
M  V30 7757 N 733.138 -0.185124 -1.56509 0
M  V30 7758 C 734.415 0.503348 -1.89013 0
M  V30 7759 C 734.795 1.80349 -1.09715 0
M  V30 7760 O 734.143 2.27665 -0.195203 0
M  V30 7761 C 734.353 0.731839 -3.41241 0
M  V30 7762 C 735.701 1.05568 -4.11267 0
M  V30 7763 O 736.725 0.819906 -3.46635 0
M  V30 7764 O 735.584 1.50116 -5.25478 0
M  V30 7765 H 732.678 0.261139 -0.784688 0
M  V30 7766 H 735.224 -0.224592 -1.68207 0
M  V30 7767 H 733.996 -0.18672 -3.90854 0
M  V30 7768 H 733.619 1.5126 -3.67704 0
M  V30 7769 N 734.616 1.57351 0.0885366 0
M  V30 7770 C 735.862 1.86696 0.791996 0
M  V30 7771 C 736.195 0.775148 1.78059 0
M  V30 7772 O 735.47 -0.216247 1.93294 0
M  V30 7773 C 735.753 3.26684 1.51491 0
M  V30 7774 C 735.606 4.465 0.543858 0
M  V30 7775 C 736.925 3.64664 2.46391 0
M  V30 7776 H 734.044 0.679049 0.286463 0
M  V30 7777 H 736.686 1.89919 0.0554866 0
M  V30 7778 H 734.836 3.24067 2.14273 0
M  V30 7779 H 736.508 4.61235 -0.0774597 0
M  V30 7780 H 734.751 4.33567 -0.142228 0
M  V30 7781 H 735.422 5.41192 1.08696 0
M  V30 7782 H 737.898 3.68267 1.93698 0
M  V30 7783 H 736.774 4.63534 2.93986 0
M  V30 7784 H 737.035 2.93698 3.30445 0
M  V30 7785 N 736.094 -0.359525 1.53444 0
M  V30 7786 C 737.042 -1.46104 1.80987 0
M  V30 7787 C 738.036 -1.55181 0.679351 0
M  V30 7788 O 739.242 -1.57995 0.862405 0
M  V30 7789 H 735.617 -0.486835 0.573145 0
M  V30 7790 H 737.588 -1.2008 2.73173 0
M  V30 7791 C 736.337 -2.82855 2.02208 0
M  V30 7792 H 735.66 -2.76631 2.88644 0
M  V30 7793 H 737.1 -3.59091 2.25455 0
M  V30 7794 C 735.559 -3.27192 0.802931 0
M  V30 7795 O 736.089 -4.017 -0.00544286 0
M  V30 7796 N 734.295 -2.83807 0.624657 0
M  V30 7797 H 733.842 -2.23339 1.28364 0
M  V30 7798 H 733.8 -3.13828 -0.189641 0
M  V30 7799 N 737.572 -1.44907 -0.619662 0
M  V30 7800 C 738.482 -1.55168 -1.75955 0
M  V30 7801 C 739.498 -0.43672 -1.6843 0
M  V30 7802 O 740.674 -0.695704 -1.89002 0
M  V30 7803 C 737.739 -1.50397 -3.12381 0
M  V30 7804 C 736.8 -2.72835 -3.31451 0
M  V30 7805 C 736.033 -2.68283 -4.61368 0
M  V30 7806 O 736.256 -1.74929 -5.42914 0
M  V30 7807 O 735.19 -3.59308 -4.82889 0
M  V30 7808 H 739.016 -2.51493 -1.7025 0
M  V30 7809 H 736.601 -1.27282 -0.782289 0
M  V30 7810 H 738.483 -1.50301 -3.93685 0
M  V30 7811 H 737.158 -0.572197 -3.18603 0
M  V30 7812 H 736.065 -2.78496 -2.49781 0
M  V30 7813 H 737.398 -3.65098 -3.30098 0
M  V30 7814 N 739.05 0.861098 -1.31996 0
M  V30 7815 C 739.98 1.98482 -1.22993 0
M  V30 7816 C 740.961 1.6971 -0.115168 0
M  V30 7817 O 742.146 1.91849 -0.30126 0
M  V30 7818 C 739.276 3.34179 -0.945615 0
M  V30 7819 C 738.23 3.77284 -2.02091 0
M  V30 7820 C 737.556 5.1054 -1.58912 0
M  V30 7821 C 738.856 3.93439 -3.43515 0
M  V30 7822 H 740.55 2.06271 -2.17008 0
M  V30 7823 H 738.096 0.991043 -1.04472 0
M  V30 7824 H 740.049 4.12338 -0.869206 0
M  V30 7825 H 738.773 3.26586 0.0301849 0
M  V30 7826 H 737.432 3.01371 -2.08737 0
M  V30 7827 H 737.08 4.99397 -0.600942 0
M  V30 7828 H 736.78 5.40352 -2.30854 0
M  V30 7829 H 738.304 5.91199 -1.52696 0
M  V30 7830 H 739.718 4.6197 -3.39495 0
M  V30 7831 H 738.115 4.34661 -4.13751 0
M  V30 7832 H 739.185 2.96548 -3.8365 0
M  V30 7833 N 740.528 1.15101 1.07655 0
M  V30 7834 C 741.475 0.844958 2.14777 0
M  V30 7835 C 742.445 -0.200798 1.64882 0
M  V30 7836 O 743.63 -0.0690278 1.90675 0
M  V30 7837 C 740.77 0.337018 3.4345 0
M  V30 7838 C 739.883 1.44398 4.07153 0
M  V30 7839 C 739.018 0.892487 5.23649 0
M  V30 7840 C 738.057 1.9766 5.79307 0
M  V30 7841 N 737.194 1.44171 6.87138 0
M  V30 7842 H 742.034 1.76242 2.40297 0
M  V30 7843 H 739.571 0.879435 1.17917 0
M  V30 7844 H 741.529 0.024256 4.17193 0
M  V30 7845 H 740.159 -0.543531 3.18191 0
M  V30 7846 H 739.211 1.87299 3.31094 0
M  V30 7847 H 740.523 2.26262 4.4453 0
M  V30 7848 H 739.677 0.532083 6.04362 0
M  V30 7849 H 738.416 0.0429854 4.87681 0
M  V30 7850 H 737.421 2.34586 4.97242 0
M  V30 7851 H 738.646 2.82982 6.17331 0
M  V30 7852 H 736.592 0.614518 6.53115 0
M  V30 7853 H 736.509 2.19665 7.23383 0
M  V30 7854 H 737.777 1.10945 7.71564 0
M  V30 7855 N 742.006 -1.2595 0.947325 0
M  V30 7856 C 742.954 -2.28152 0.452687 0
M  V30 7857 C 743.948 -1.62655 -0.473239 0
M  V30 7858 O 745.154 -1.76549 -0.350774 0
M  V30 7859 H 741.529 -0.741049 0.12787 0
M  V30 7860 H 743.5 -2.67267 1.32707 0
M  V30 7861 C 742.249 -3.46719 -0.26098 0
M  V30 7862 H 741.572 -3.97345 0.442352 0
M  V30 7863 H 743.012 -4.20135 -0.571208 0
M  V30 7864 C 741.471 -3.02605 -1.48094 0
M  V30 7865 O 742.001 -3.07979 -2.57899 0
M  V30 7866 N 740.207 -2.57877 -1.33969 0
M  V30 7867 H 739.754 -2.53704 -0.446295 0
M  V30 7868 H 739.712 -2.28725 -2.15713 0
M  V30 7869 N 743.484 -0.715051 -1.40445 0
M  V30 7870 C 744.733 -0.251322 -2.00128 0
M  V30 7871 C 745.046 1.16194 -1.57347 0
M  V30 7872 O 746.252 1.72416 -2.09726 0
M  V30 7873 C 744.708 -0.398407 -3.57688 0
M  V30 7874 C 744.316 -1.81828 -4.09442 0
M  V30 7875 C 746.06 0.00455625 -4.245 0
M  V30 7876 C 743.967 -1.91598 -5.59503 0
M  V30 7877 H 742.897 -0.0902081 -0.748584 0
M  V30 7878 H 745.548 -0.886062 -1.6069 0
M  V30 7879 H 743.93 0.304908 -3.94824 0
M  V30 7880 H 745.104 -2.55193 -3.83684 0
M  V30 7881 H 743.419 -2.17266 -3.55225 0
M  V30 7882 H 746.016 -0.0477303 -5.34679 0
M  V30 7883 H 746.359 1.04636 -4.02935 0
M  V30 7884 H 746.892 -0.649184 -3.92467 0
M  V30 7885 H 743.631 -2.93898 -5.85922 0
M  V30 7886 H 743.151 -1.22644 -5.87127 0
M  V30 7887 H 744.83 -1.68785 -6.24596 0
M  V30 7888 N 744.962 1.50701 -0.461195 0
M  V30 7889 C 745.892 2.31182 0.328184 0
M  V30 7890 C 746.873 1.37644 0.999408 0
M  V30 7891 O 748.058 1.66565 0.99848 0
M  V30 7892 C 745.188 3.17113 1.41621 0
M  V30 7893 C 744.142 4.19124 0.867148 0
M  V30 7894 C 743.468 4.93728 2.05272 0
M  V30 7895 C 744.768 5.22174 -0.114808 0
M  V30 7896 H 746.462 2.97423 -0.343501 0
M  V30 7897 H 744.008 1.43033 -0.166641 0
M  V30 7898 H 745.961 3.72208 1.97584 0
M  V30 7899 H 744.685 2.48739 2.11652 0
M  V30 7900 H 743.344 3.65116 0.329557 0
M  V30 7901 H 742.992 4.21835 2.73978 0
M  V30 7902 H 742.692 5.62724 1.69161 0
M  V30 7903 H 744.216 5.51654 2.61744 0
M  V30 7904 H 745.63 5.72198 0.355316 0
M  V30 7905 H 744.027 5.98833 -0.389689 0
M  V30 7906 H 745.097 4.7353 -1.04391 0
M  V30 7907 N 746.441 0.193421 1.56409 0
M  V30 7908 C 747.388 -0.728124 2.19014 0
M  V30 7909 C 748.358 -1.21098 1.13686 0
M  V30 7910 O 749.543 -1.27517 1.4193 0
M  V30 7911 C 746.683 -1.94277 2.8522 0
M  V30 7912 C 745.796 -1.50143 4.05069 0
M  V30 7913 C 744.931 -2.67145 4.59137 0
M  V30 7914 C 743.97 -2.19609 5.71348 0
M  V30 7915 N 743.107 -3.29782 6.19829 0
M  V30 7916 H 747.947 -0.187499 2.9741 0
M  V30 7917 H 745.484 -0.0808064 1.46878 0
M  V30 7918 H 747.442 -2.65551 3.21774 0
M  V30 7919 H 746.072 -2.45673 2.09391 0
M  V30 7920 H 745.124 -0.684624 3.74189 0
M  V30 7921 H 746.436 -1.11266 4.86232 0
M  V30 7922 H 745.59 -3.46544 4.97988 0
M  V30 7923 H 744.329 -3.09295 3.77078 0
M  V30 7924 H 743.334 -1.38664 5.32027 0
M  V30 7925 H 744.559 -1.78492 6.55223 0
M  V30 7926 H 742.505 -3.71466 5.40693 0
M  V30 7927 H 742.422 -2.95069 6.96039 0
M  V30 7928 H 743.69 -4.094 6.63334 0
M  V30 7929 N 747.919 -1.57396 -0.0801906 0
M  V30 7930 C 748.849 -2.06145 -1.09665 0
M  V30 7931 C 749.83 -0.953273 -1.40878 0
M  V30 7932 O 751.015 -1.22548 -1.50651 0
M  V30 7933 C 748.145 -2.49836 -2.41245 0
M  V30 7934 C 747.099 -3.64454 -2.24405 0
M  V30 7935 C 746.425 -3.94172 -3.61293 0
M  V30 7936 C 747.725 -4.94807 -1.67223 0
M  V30 7937 H 749.419 -2.91316 -0.691028 0
M  V30 7938 H 746.965 -1.40145 -0.330957 0
M  V30 7939 H 748.918 -2.82552 -3.12638 0
M  V30 7940 H 747.642 -1.61683 -2.83771 0
M  V30 7941 H 746.301 -3.32008 -1.55454 0
M  V30 7942 H 745.949 -3.03163 -4.01374 0
M  V30 7943 H 745.649 -4.71345 -3.50867 0
M  V30 7944 H 747.173 -4.29376 -4.3413 0
M  V30 7945 H 748.587 -5.25807 -2.28472 0
M  V30 7946 H 746.984 -5.76245 -1.67515 0
M  V30 7947 H 748.054 -4.80751 -0.632944 0
M  V30 7948 N 749.397 0.351382 -1.53633 0
M  V30 7949 C 750.674 1.10903 -1.6112 0
M  V30 7950 C 751.054 2.06725 -0.427556 0
M  V30 7951 O 750.402 2.20992 0.580916 0
M  V30 7952 C 750.612 1.83561 -2.96827 0
M  V30 7953 C 751.96 2.37587 -3.51906 0
M  V30 7954 O 752.984 1.93669 -2.9895 0
M  V30 7955 O 751.843 3.17913 -4.44515 0
M  V30 7956 H 748.937 0.509558 -0.651368 0
M  V30 7957 H 751.483 0.353504 -1.65977 0
M  V30 7958 H 750.255 1.1371 -3.74414 0
M  V30 7959 H 749.878 2.6599 -2.95525 0
M  V30 7960 N 750.875 1.45233 0.611969 0
M  V30 7961 C 752.123 1.48727 1.36838 0
M  V30 7962 C 752.444 0.128616 1.94575 0
M  V30 7963 O 751.714 -0.84149 1.76906 0
M  V30 7964 H 750.294 0.547695 0.507976 0
M  V30 7965 H 752.956 1.81156 0.718925 0
M  V30 7966 H 752.052 2.2236 2.19003 0
M  V30 7967 N 752.353 -0.854086 1.3245 0
M  V30 7968 C 753.578 -1.64597 1.26185 0
M  V30 7969 C 754.003 -1.87357 -0.167074 0
M  V30 7970 O 753.361 -1.42675 -1.11864 0
M  V30 7971 C 753.409 -2.98213 2.02734 0
M  V30 7972 O 752.513 -3.88784 1.37554 0
M  V30 7973 H 751.854 -0.50179 0.434859 0
M  V30 7974 H 754.384 -1.06372 1.74775 0
M  V30 7975 H 754.394 -3.4803 2.1293 0
M  V30 7976 H 753.069 -2.80969 3.06642 0
M  V30 7977 H 751.646 -3.4725 1.3591 0
M  V30 7978 N 753.831 -1.1567 -1.07043 0
M  V30 7979 C 755.059 -0.957471 -1.83412 0
M  V30 7980 C 755.474 0.494271 -1.82215 0
M  V30 7981 O 754.831 1.34288 -1.23584 0
M  V30 7982 C 754.882 -1.46784 -3.30359 0
M  V30 7983 O 754.603 -2.86271 -3.31633 0
M  V30 7984 C 756.104 -1.31054 -4.23485 0
M  V30 7985 H 753.324 -0.33986 -0.578564 0
M  V30 7986 H 755.868 -1.53518 -1.35102 0
M  V30 7987 H 754.023 -0.932586 -3.76007 0
M  V30 7988 H 754.437 -3.0948 -4.23465 0
M  V30 7989 H 755.911 -1.71605 -5.24648 0
M  V30 7990 H 756.388 -0.255107 -4.38458 0
M  V30 7991 H 756.994 -1.83503 -3.83676 0
M  V30 7992 N 755.309 1.25446 -0.953992 0
M  V30 7993 C 756.259 2.23627 -0.444413 0
M  V30 7994 C 757.243 1.54004 0.465993 0
M  V30 7995 O 758.435 1.74454 0.29915 0
M  V30 7996 C 755.564 3.42179 0.277175 0
M  V30 7997 C 754.65 4.1907 -0.651263 0
M  V30 7998 N 755.041 4.73346 -1.78262 0
M  V30 7999 C 753.339 4.43628 -0.459338 0
M  V30 8000 C 754.04 5.31576 -2.36224 0
M  V30 8001 N 753.016 5.17991 -1.64884 0
M  V30 8002 H 756.818 2.63197 -1.30785 0
M  V30 8003 H 754.332 1.40677 -0.811402 0
M  V30 8004 H 756.329 4.11653 0.659367 0
M  V30 8005 H 754.989 3.04134 1.13723 0
M  V30 8006 H 756 4.705 -2.1645 0
M  V30 8007 H 752.677 4.15963 0.357885 0
M  V30 8008 H 754.067 5.84361 -3.3162 0
M  V30 8009 N 756.787 0.722489 1.40064 0
M  V30 8010 C 757.717 0.0892452 2.33329 0
M  V30 8011 C 758.698 -0.737992 1.53257 0
M  V30 8012 O 759.883 -0.685516 1.81698 0
M  V30 8013 C 757.013 -0.828139 3.37282 0
M  V30 8014 C 755.967 -0.106005 4.27869 0
M  V30 8015 C 755.293 -1.13957 5.22415 0
M  V30 8016 C 756.593 1.04395 5.11761 0
M  V30 8017 H 758.287 0.868269 2.86534 0
M  V30 8018 H 755.833 0.418982 1.3777 0
M  V30 8019 H 757.786 -1.28058 4.01471 0
M  V30 8020 H 756.51 -1.63914 2.82489 0
M  V30 8021 H 755.169 0.326683 3.65142 0
M  V30 8022 H 754.817 -1.9438 4.63924 0
M  V30 8023 H 754.517 -0.661233 5.83868 0
M  V30 8024 H 756.041 -1.59197 5.89482 0
M  V30 8025 H 757.455 0.670541 5.69365 0
M  V30 8026 H 755.852 1.4511 5.82291 0
M  V30 8027 H 756.922 1.87144 4.47331 0
M  V30 8028 N 758.265 -1.50454 0.469181 0
M  V30 8029 C 759.213 -2.30101 -0.340033 0
M  V30 8030 C 760.207 -1.37306 -0.992135 0
M  V30 8031 O 761.413 -1.54506 -0.923458 0
M  V30 8032 H 757.788 -0.740941 -0.128495 0
M  V30 8033 H 759.759 -2.96315 0.352144 0
M  V30 8034 C 758.508 -3.17804 -1.41052 0
M  V30 8035 H 757.831 -3.89115 -0.918124 0
M  V30 8036 H 759.271 -3.76533 -1.94934 0
M  V30 8037 C 757.73 -2.35272 -2.4114 0
M  V30 8038 O 758.26 -2.03448 -3.4637 0
M  V30 8039 N 756.466 -1.97889 -2.1281 0
M  V30 8040 H 756.013 -2.2397 -1.27261 0
M  V30 8041 H 755.971 -1.42971 -2.80012 0
M  V30 8042 N 759.743 -0.201713 -1.56304 0
M  V30 8043 C 760.992 0.435557 -1.96941 0
M  V30 8044 C 761.305 1.62299 -1.09172 0
M  V30 8045 O 762.511 2.32849 -1.3962 0
M  V30 8046 C 760.967 0.826298 -3.50286 0
M  V30 8047 C 760.575 -0.337216 -4.46729 0
M  V30 8048 C 762.319 1.43028 -3.99679 0
M  V30 8049 C 760.226 0.0748539 -5.91353 0
M  V30 8050 H 759.156 0.1665 -0.735387 0
M  V30 8051 H 761.807 -0.294781 -1.81117 0
M  V30 8052 H 760.189 1.61349 -3.61639 0
M  V30 8053 H 761.363 -1.11476 -4.47113 0
M  V30 8054 H 759.678 -0.853126 -4.07567 0
M  V30 8055 H 762.275 1.75115 -5.05212 0
M  V30 8056 H 762.618 2.33911 -3.44371 0
M  V30 8057 H 763.151 0.706924 -3.91468 0
M  V30 8058 H 759.89 -0.799957 -6.506 0
M  V30 8059 H 759.41 0.817122 -5.94208 0
M  V30 8060 H 761.089 0.508389 -6.45 0
M  V30 8061 N 761.222 1.57436 0.0718424 0
M  V30 8062 C 762.469 1.87248 0.771007 0
M  V30 8063 C 762.797 0.793441 1.7758 0
M  V30 8064 O 762.052 -0.210565 1.94564 0
M  V30 8065 C 762.351 3.23723 1.51455 0
M  V30 8066 C 762.017 4.46194 0.649736 0
M  V30 8067 C 760.679 4.79438 0.411409 0
M  V30 8068 C 763.031 5.21176 0.05004 0
M  V30 8069 C 760.359 5.85077 -0.436096 0
M  V30 8070 C 762.711 6.27712 -0.784919 0
M  V30 8071 C 761.375 6.59457 -1.03312 0
M  V30 8072 H 760.645 0.685188 0.282132 0
M  V30 8073 H 763.292 1.91474 0.0317896 0
M  V30 8074 H 761.597 3.15287 2.32597 0
M  V30 8075 H 763.294 3.44023 2.06031 0
M  V30 8076 H 759.884 4.20175 0.84562 0
M  V30 8077 H 764.068 4.95806 0.221282 0
M  V30 8078 H 759.324 6.08071 -0.637136 0
M  V30 8079 H 763.498 6.84974 -1.25635 0
M  V30 8080 H 761.125 7.4114 -1.6916 0
M  V30 8081 N 762.7 -0.34323 1.53817 0
M  V30 8082 C 763.947 -1.08344 1.71079 0
M  V30 8083 C 764.275 -1.88633 0.474133 0
M  V30 8084 O 763.53 -1.87984 -0.544116 0
M  V30 8085 C 763.829 -2.05195 2.92626 0
M  V30 8086 C 763.495 -1.41215 4.28216 0
M  V30 8087 C 762.157 -1.23495 4.65083 0
M  V30 8088 C 764.509 -0.951273 5.12445 0
M  V30 8089 C 761.837 -0.583065 5.83796 0
M  V30 8090 C 764.189 -0.313292 6.31824 0
M  V30 8091 C 762.853 -0.123779 6.67385 0
M  V30 8092 H 762.123 -0.396458 0.626021 0
M  V30 8093 H 764.77 -0.362689 1.88034 0
M  V30 8094 H 763.075 -2.83653 2.70275 0
M  V30 8095 H 764.772 -2.62462 3.03175 0
M  V30 8096 H 761.362 -1.56005 3.992 0
M  V30 8097 H 765.546 -1.07602 4.84495 0
M  V30 8098 H 760.802 -0.424854 6.09922 0
M  V30 8099 H 764.976 0.0519179 6.96381 0
M  V30 8100 H 762.603 0.383398 7.59233 0
M  V30 8101 N 764.178 -1.45556 -0.604258 0
M  V30 8102 C 765.141 -1.54091 -1.69672 0
M  V30 8103 C 766.141 -0.420076 -1.55216 0
M  V30 8104 O 767.331 -0.683671 -1.60224 0
M  V30 8105 C 764.463 -1.44063 -3.08964 0
M  V30 8106 H 765.656 -2.51431 -1.6347 0
M  V30 8107 H 763.209 -1.33046 -0.820273 0
M  V30 8108 H 763.944 -0.479201 -3.2074 0
M  V30 8109 H 763.729 -2.25362 -3.20865 0
M  V30 8110 H 765.219 -1.53075 -3.88533 0
M  V30 8111 N 765.656 0.84705 -1.32902 0
M  V30 8112 C 766.603 1.95624 -1.22473 0
M  V30 8113 C 767.573 1.65767 -0.105178 0
M  V30 8114 O 768.758 1.88704 -0.282042 0
M  V30 8115 C 765.898 3.31434 -0.961542 0
M  V30 8116 C 765.011 3.73741 -2.1666 0
M  V30 8117 C 764.146 4.98379 -1.83825 0
M  V30 8118 C 763.185 5.33199 -3.00609 0
M  V30 8119 N 762.322 6.49014 -2.67816 0
M  V30 8120 H 767.162 2.03875 -2.17345 0
M  V30 8121 H 764.699 0.997764 -1.08088 0
M  V30 8122 H 766.657 4.09663 -0.789411 0
M  V30 8123 H 765.287 3.22762 -0.0495938 0
M  V30 8124 H 764.339 2.91102 -2.44875 0
M  V30 8125 H 765.651 3.95462 -3.03993 0
M  V30 8126 H 764.805 5.84336 -1.63208 0
M  V30 8127 H 763.544 4.78611 -0.937172 0
M  V30 8128 H 762.549 4.4575 -3.21849 0
M  V30 8129 H 763.774 5.5492 -3.9146 0
M  V30 8130 H 761.72 6.30748 -1.80258 0
M  V30 8131 H 761.637 6.7079 -3.48679 0
M  V30 8132 H 762.905 7.38103 -2.50647 0
M  V30 8133 N 767.134 1.16236 1.06428 0
M  V30 8134 C 768.359 0.967688 1.83441 0
M  V30 8135 C 768.784 -0.479167 1.81894 0
M  V30 8136 O 768.142 -1.34224 1.21875 0
M  V30 8137 C 768.19 1.49806 3.2801 0
M  V30 8138 O 767.294 0.703481 4.06356 0
M  V30 8139 H 766.635 0.344468 0.56766 0
M  V30 8140 H 769.165 1.54442 1.34197 0
M  V30 8141 H 769.175 1.51495 3.78831 0
M  V30 8142 H 767.85 2.55133 3.2845 0
M  V30 8143 H 766.427 0.756986 3.65136 0
M  V30 8144 N 768.612 -1.24939 0.960631 0
M  V30 8145 C 769.837 -1.9742 0.635608 0
M  V30 8146 C 770.262 -1.70857 -0.786737 0
M  V30 8147 O 769.62 -0.968063 -1.53291 0
M  V30 8148 C 769.668 -3.48987 0.907771 0
M  V30 8149 O 768.772 -4.12399 -0.0104053 0
M  V30 8150 H 768.113 -0.61871 0.241027 0
M  V30 8151 H 770.643 -1.58901 1.28886 0
M  V30 8152 H 770.653 -3.99334 0.836453 0
M  V30 8153 H 769.328 -3.6765 1.94439 0
M  V30 8154 H 767.905 -3.72727 0.113631 0
M  V30 8155 N 770.09 -0.729906 -1.39679 0
M  V30 8156 C 771 -0.0880322 -2.34435 0
M  V30 8157 C 772.016 0.727674 -1.58053 0
M  V30 8158 O 773.192 0.657321 -1.90371 0
M  V30 8159 C 770.257 0.812211 -3.37052 0
M  V30 8160 C 769.318 -0.0151681 -4.29297 0
M  V30 8161 C 768.551 0.842202 -5.27013 0
M  V30 8162 O 768.774 2.08108 -5.31081 0
M  V30 8163 O 767.708 0.27357 -6.01278 0
M  V30 8164 H 771.534 -0.869989 -2.90972 0
M  V30 8165 H 769.119 -0.490522 -1.41118 0
M  V30 8166 H 771.001 1.32745 -3.99946 0
M  V30 8167 H 769.676 1.57307 -2.82907 0
M  V30 8168 H 768.583 -0.575811 -3.69642 0
M  V30 8169 H 769.916 -0.738129 -4.86634 0
M  V30 8170 N 771.568 1.50203 -0.477153 0
M  V30 8171 C 772.478 2.32421 0.319027 0
M  V30 8172 C 773.494 1.43075 0.990233 0
M  V30 8173 O 774.67 1.76123 0.976873 0
M  V30 8174 C 771.735 3.17909 1.38328 0
M  V30 8175 C 770.796 4.23082 0.728036 0
M  V30 8176 C 770.029 5.04484 1.74158 0
M  V30 8177 O 770.252 4.8705 2.96881 0
M  V30 8178 O 769.186 5.8747 1.31006 0
M  V30 8179 H 773.012 3.01638 -0.353281 0
M  V30 8180 H 770.597 1.47478 -0.238891 0
M  V30 8181 H 772.479 3.70937 1.9996 0
M  V30 8182 H 771.154 2.51413 2.03895 0
M  V30 8183 H 770.061 3.7403 0.07261 0
M  V30 8184 H 771.394 4.92065 0.115216 0
M  V30 8185 N 773.046 0.209999 1.56195 0
M  V30 8186 C 773.956 -0.716459 2.23392 0
M  V30 8187 C 774.972 -1.22291 1.23778 0
M  V30 8188 O 776.148 -1.26694 1.56558 0
M  V30 8189 C 773.213 -1.91261 2.89172 0
M  V30 8190 C 772.274 -1.44927 4.04097 0
M  V30 8191 C 771.507 -2.5884 4.66731 0
M  V30 8192 O 771.73 -3.76693 4.2832 0
M  V30 8193 O 770.664 -2.30701 5.55932 0
M  V30 8194 H 774.49 -0.174089 3.03201 0
M  V30 8195 H 772.075 -0.0199505 1.49387 0
M  V30 8196 H 773.957 -2.6114 3.30733 0
M  V30 8197 H 772.632 -2.4433 2.12331 0
M  V30 8198 H 771.539 -0.718839 3.67129 0
M  V30 8199 H 772.872 -0.965084 4.82646 0
M  V30 8200 N 774.524 -1.57472 -0.0634922 0
M  V30 8201 C 775.454 -2.07297 -1.07473 0
M  V30 8202 C 776.435 -0.968162 -1.39859 0
M  V30 8203 O 777.62 -1.24139 -1.49343 0
M  V30 8204 C 774.75 -2.52381 -2.38581 0
M  V30 8205 C 773.704 -3.66813 -2.20526 0
M  V30 8206 C 773.03 -3.97982 -3.57092 0
M  V30 8207 C 774.33 -4.96553 -1.61965 0
M  V30 8208 H 776.024 -2.92033 -0.660092 0
M  V30 8209 H 773.57 -1.40488 -0.316074 0
M  V30 8210 H 775.523 -2.85852 -3.09624 0
M  V30 8211 H 774.247 -1.64684 -2.8204 0
M  V30 8212 H 772.906 -3.33639 -1.51924 0
M  V30 8213 H 772.554 -3.07403 -3.98136 0
M  V30 8214 H 772.254 -4.7504 -3.45848 0
M  V30 8215 H 773.778 -4.33956 -4.29552 0
M  V30 8216 H 775.192 -5.28201 -2.22883 0
M  V30 8217 H 773.589 -5.7799 -1.61394 0
M  V30 8218 H 774.659 -4.81396 -0.581918 0
M  V30 8219 N 776.003 0.335068 -1.53997 0
M  V30 8220 C 776.966 1.39481 -1.81872 0
M  V30 8221 C 777.966 1.4524 -0.690078 0
M  V30 8222 O 779.156 1.45467 -0.958377 0
M  V30 8223 C 776.288 2.78329 -1.9684 0
M  V30 8224 H 777.481 1.16024 -2.76547 0
M  V30 8225 H 775.034 0.569926 -1.45539 0
M  V30 8226 H 775.769 3.07058 -1.04337 0
M  V30 8227 H 775.554 2.75544 -2.78958 0
M  V30 8228 H 777.044 3.55016 -2.19894 0
M  V30 8229 N 777.481 1.45874 0.596531 0
M  V30 8230 C 778.729 1.5017 1.35253 0
M  V30 8231 C 779.05 0.149246 1.94428 0
M  V30 8232 O 778.32 -0.82268 1.77789 0
M  V30 8233 H 776.9 0.553052 0.502138 0
M  V30 8234 H 779.562 1.81908 0.699671 0
M  V30 8235 H 778.658 2.24671 2.16632 0
M  V30 8236 N 778.959 -0.83999 1.33349 0
M  V30 8237 C 780.205 -1.59753 1.24927 0
M  V30 8238 C 780.538 -1.93318 -0.184855 0
M  V30 8239 O 779.813 -1.586 -1.12589 0
M  V30 8240 C 780.096 -2.90829 2.12345 0
M  V30 8241 C 779.949 -2.63953 3.6421 0
M  V30 8242 C 781.268 -3.92246 1.99577 0
M  V30 8243 H 778.387 -0.579654 0.45516 0
M  V30 8244 H 781.029 -0.968909 1.63439 0
M  V30 8245 H 779.179 -3.44478 1.79631 0
M  V30 8246 H 780.851 -2.16745 4.07209 0
M  V30 8247 H 779.094 -1.97671 3.86146 0
M  V30 8248 H 779.765 -3.57348 4.20721 0
M  V30 8249 H 782.241 -3.479 2.28265 0
M  V30 8250 H 781.117 -4.81793 2.62996 0
M  V30 8251 H 781.378 -4.3138 0.967673 0
M  V30 8252 N 780.437 -1.16799 -1.0581 0
M  V30 8253 C 781.4 -0.881396 -2.11575 0
M  V30 8254 C 782.4 0.12574 -1.60308 0
M  V30 8255 O 783.59 -0.105716 -1.73879 0
M  V30 8256 C 780.722 -0.319037 -3.39404 0
M  V30 8257 H 781.915 -1.81907 -2.38432 0
M  V30 8258 H 779.468 -0.977597 -1.21954 0
M  V30 8259 H 780.203 0.626082 -3.18199 0
M  V30 8260 H 779.988 -1.04481 -3.77923 0
M  V30 8261 H 781.478 -0.13663 -4.17376 0
M  V30 8262 N 781.915 1.24427 -0.967243 0
M  V30 8263 C 783.143 1.96541 -0.646477 0
M  V30 8264 C 783.558 1.71753 0.783996 0
M  V30 8265 O 782.915 1.00102 1.52597 0
M  V30 8266 C 782.966 3.4983 -0.911098 0
M  V30 8267 O 782.687 3.7377 -2.28534 0
M  V30 8268 C 784.188 4.3916 -0.604458 0
M  V30 8269 H 781.408 0.626129 -0.241255 0
M  V30 8270 H 783.952 1.58268 -1.29505 0
M  V30 8271 H 782.107 3.86168 -0.308741 0
M  V30 8272 H 782.521 4.68154 -2.365 0
M  V30 8273 H 783.995 5.4557 -0.840069 0
M  V30 8274 H 784.472 4.36771 0.461273 0
M  V30 8275 H 785.078 4.08409 -1.1867 0
M  V30 8276 N 783.393 0.737304 1.3929 0
M  V30 8277 C 784.639 0.295581 2.01241 0
M  V30 8278 C 784.994 -1.10561 1.57461 0
M  V30 8279 O 784.287 -1.74346 0.7946 0
M  V30 8280 C 784.481 0.338438 3.55794 0
M  V30 8281 C 784.31 1.74225 4.14579 0
M  V30 8282 C 783.08 2.35502 4.47065 0
M  V30 8283 C 785.278 2.69623 4.37959 0
M  V30 8284 N 783.26 3.68014 4.91365 0
M  V30 8285 C 784.631 3.86873 4.84489 0
M  V30 8286 C 786.686 2.67355 4.2003 0
M  V30 8287 C 785.389 5.02193 5.14971 0
M  V30 8288 C 787.415 3.8182 4.51627 0
M  V30 8289 C 786.777 4.97806 4.98366 0
M  V30 8290 H 782.876 0.154468 0.766592 0
M  V30 8291 H 785.46 0.963768 1.69173 0
M  V30 8292 H 783.631 -0.299406 3.87244 0
M  V30 8293 H 785.363 -0.122053 4.04516 0
M  V30 8294 H 782.118 1.87406 4.34943 0
M  V30 8295 H 782.542 4.36051 5.17869 0
M  V30 8296 H 787.184 1.78876 3.83097 0
M  V30 8297 H 784.902 5.913 5.50809 0
M  V30 8298 H 788.488 3.81366 4.39376 0
M  V30 8299 H 787.368 5.84909 5.22351 0
M  V30 8300 N 784.871 -1.49948 0.485112 0
M  V30 8301 C 786.282 -1.8667 0.0334041 0
M  V30 8302 C 786.633 -1.3988 -1.37579 0
M  V30 8303 O 785.758 -0.769788 -2.02245 0
M  V30 8304 C 786.353 -3.38757 0.0538426 0
M  V30 8305 C 784.912 -3.74839 -0.342453 0
M  V30 8306 C 784.059 -2.73894 0.433281 0
M  V30 8307 H 787.01 -1.42492 0.698699 0
M  V30 8308 H 787.031 -3.73132 -0.745146 0
M  V30 8309 H 786.543 -3.72782 1.07959 0
M  V30 8310 H 784.644 -3.46419 -1.37203 0
M  V30 8311 H 784.757 -4.79088 -0.0340503 0
M  V30 8312 H 783.121 -2.54441 -0.114849 0
M  V30 8313 H 783.904 -3.10763 1.45881 0
M  V30 8314 N 786.349 -0.21828 -1.56081 0
M  V30 8315 C 787.595 0.408181 -1.99262 0
M  V30 8316 C 787.95 1.57618 -1.10337 0
M  V30 8317 O 787.243 1.90991 -0.15263 0
M  V30 8318 C 787.437 0.894782 -3.46018 0
M  V30 8319 C 787.266 -0.224528 -4.49139 0
M  V30 8320 C 786.036 -0.689843 -5.00569 0
M  V30 8321 C 788.234 -1.04165 -5.03641 0
M  V30 8322 N 786.216 -1.78455 -5.8739 0
M  V30 8323 C 787.587 -1.98529 -5.87355 0
M  V30 8324 C 789.642 -1.08146 -4.86013 0
M  V30 8325 C 788.345 -2.96549 -6.55325 0
M  V30 8326 C 790.371 -2.04982 -5.5474 0
M  V30 8327 C 789.733 -2.98086 -6.38219 0
M  V30 8328 H 785.832 0.116127 -0.77333 0
M  V30 8329 H 788.416 -0.3293 -1.91895 0
M  V30 8330 H 786.587 1.60163 -3.53839 0
M  V30 8331 H 788.319 1.49379 -3.76122 0
M  V30 8332 H 785.074 -0.279021 -4.72777 0
M  V30 8333 H 785.498 -2.33381 -6.35502 0
M  V30 8334 H 790.14 -0.375581 -4.21129 0
M  V30 8335 H 787.858 -3.68101 -7.19394 0
M  V30 8336 H 791.444 -2.08732 -5.43067 0
M  V30 8337 H 790.324 -3.71794 -6.90463 0
M  V30 8338 N 787.827 1.57504 0.0551401 0
M  V30 8339 C 789.104 1.79155 0.785048 0
M  V30 8340 C 789.484 0.809995 1.94942 0
M  V30 8341 O 788.832 -0.153432 2.27984 0
M  V30 8342 C 789.042 3.26134 1.24247 0
M  V30 8343 C 790.39 3.90419 1.66908 0
M  V30 8344 O 791.414 3.30126 1.33772 0
M  V30 8345 O 790.273 4.96523 2.28314 0
M  V30 8346 H 787.367 0.735825 0.377479 0
M  V30 8347 H 789.913 1.69666 0.0339285 0
M  V30 8348 H 788.685 3.89145 0.410089 0
M  V30 8349 H 788.308 3.40411 2.05441 0
M  V30 8350 N 789.305 -0.326896 1.54172 0
M  V30 8351 C 790.252 -1.40216 1.83325 0
M  V30 8352 C 791.222 -1.51538 0.680107 0
M  V30 8353 O 792.407 -1.66811 0.926206 0
M  V30 8354 C 789.547 -2.76626 2.0633 0
M  V30 8355 C 788.66 -2.73963 3.34019 0
M  V30 8356 C 787.795 -4.02198 3.47002 0
M  V30 8357 C 786.834 -3.93828 4.68578 0
M  V30 8358 N 785.971 -5.13787 4.78506 0
M  V30 8359 H 790.811 -1.14656 2.7506 0
M  V30 8360 H 788.348 -0.555089 1.36225 0
M  V30 8361 H 790.306 -3.55922 2.17659 0
M  V30 8362 H 788.936 -3.00503 1.1789 0
M  V30 8363 H 787.988 -1.86677 3.31445 0
M  V30 8364 H 789.3 -2.6366 4.2342 0
M  V30 8365 H 788.454 -4.89923 3.57855 0
M  V30 8366 H 787.193 -4.15302 2.55687 0
M  V30 8367 H 786.198 -3.04487 4.57786 0
M  V30 8368 H 787.423 -3.82292 5.61275 0
M  V30 8369 H 785.369 -5.27403 3.90105 0
M  V30 8370 H 785.286 -5.05807 5.61868 0
M  V30 8371 H 786.554 -6.03236 4.93686 0
M  V30 8372 N 790.784 -1.46188 -0.588786 0
M  V30 8373 C 791.694 -1.58865 -1.72624 0
M  V30 8374 C 792.71 -0.472348 -1.67466 0
M  V30 8375 O 793.886 -0.735638 -1.87484 0
M  V30 8376 C 790.951 -1.56989 -3.0912 0
M  V30 8377 C 790.012 -2.79804 -3.25589 0
M  V30 8378 C 789.245 -2.78009 -4.55573 0
M  V30 8379 O 789.468 -1.86406 -5.39082 0
M  V30 8380 O 788.402 -3.6947 -4.75159 0
M  V30 8381 H 792.228 -2.55047 -1.64878 0
M  V30 8382 H 789.813 -1.28912 -0.755115 0
M  V30 8383 H 791.695 -1.58618 -3.90408 0
M  V30 8384 H 790.37 -0.639648 -3.17317 0
M  V30 8385 H 789.277 -2.83732 -2.43818 0
M  V30 8386 H 790.61 -3.72017 -3.22279 0
M  V30 8387 N 792.262 0.832906 -1.33792 0
M  V30 8388 C 793.225 1.92471 -1.24449 0
M  V30 8389 C 794.225 1.59981 -0.162085 0
M  V30 8390 O 795.415 1.69208 -0.414029 0
M  V30 8391 C 792.547 3.28278 -0.919044 0
M  V30 8392 H 793.74 2.0218 -2.21502 0
M  V30 8393 H 791.293 1.0257 -1.17936 0
M  V30 8394 H 792.028 3.24263 0.048738 0
M  V30 8395 H 791.813 3.53241 -1.70187 0
M  V30 8396 H 793.303 4.08253 -0.878576 0
M  V30 8397 N 793.74 1.17359 1.05189 0
M  V30 8398 C 794.67 0.91365 2.14883 0
M  V30 8399 C 795.651 -0.144365 1.69486 0
M  V30 8400 O 796.836 0.00587861 1.94199 0
M  V30 8401 C 793.966 0.426196 3.44675 0
M  V30 8402 C 792.92 1.4234 4.03638 0
M  V30 8403 C 792.246 0.793902 5.28773 0
M  V30 8404 C 793.546 2.7966 4.41121 0
M  V30 8405 H 795.24 1.831 2.36885 0
M  V30 8406 H 792.786 0.881781 1.13845 0
M  V30 8407 H 794.739 0.231767 4.20762 0
M  V30 8408 H 793.463 -0.526693 3.22325 0
M  V30 8409 H 792.122 1.60457 3.2962 0
M  V30 8410 H 791.77 -0.165824 5.02727 0
M  V30 8411 H 791.47 1.45959 5.69183 0
M  V30 8412 H 792.994 0.609747 6.07548 0
M  V30 8413 H 794.408 2.6526 5.08242 0
M  V30 8414 H 792.805 3.42807 4.92548 0
M  V30 8415 H 793.875 3.34068 3.51464 0
M  V30 8416 N 795.218 -1.23913 0.973828 0
M  V30 8417 C 796.151 -2.23647 0.45355 0
M  V30 8418 C 797.129 -1.55485 -0.475724 0
M  V30 8419 O 798.313 -1.84083 -0.405689 0
M  V30 8420 C 795.44 -3.36942 -0.344594 0
M  V30 8421 C 794.486 -4.23221 0.527859 0
M  V30 8422 S 795.319 -4.97877 1.97177 0
M  V30 8423 C 796.475 -6.14627 1.18258 0
M  V30 8424 H 796.708 -2.67433 1.29873 0
M  V30 8425 H 794.241 -1.33289 0.779322 0
M  V30 8426 H 796.199 -4.02647 -0.799103 0
M  V30 8427 H 794.86 -2.91703 -1.16482 0
M  V30 8428 H 794.053 -5.03928 -0.0852555 0
M  V30 8429 H 793.655 -3.6255 0.918344 0
M  V30 8430 H 795.947 -6.76066 0.440629 0
M  V30 8431 H 796.89 -6.80311 1.96425 0
M  V30 8432 H 797.298 -5.6009 0.704256 0
M  V30 8433 N 796.696 -0.74468 -1.38897 0
M  V30 8434 C 797.646 -0.0869375 -2.27834 0
M  V30 8435 C 798.63 0.702553 -1.44751 0
M  V30 8436 O 799.822 0.569972 -1.67572 0
M  V30 8437 C 796.951 0.812232 -3.33553 0
M  V30 8438 C 796.037 0.0163713 -4.24097 0
M  V30 8439 N 796.428 -1.01547 -4.95502 0
M  V30 8440 C 794.726 0.244554 -4.45329 0
M  V30 8441 C 795.427 -1.49622 -5.62128 0
M  V30 8442 N 794.403 -0.813097 -5.37485 0
M  V30 8443 H 798.205 -0.877345 -2.80499 0
M  V30 8444 H 795.719 -0.579898 -1.51694 0
M  V30 8445 H 797.716 1.299 -3.96146 0
M  V30 8446 H 796.376 1.60169 -2.82446 0
M  V30 8447 H 797.387 -1.39707 -4.98701 0
M  V30 8448 H 794.064 1.00806 -4.05147 0
M  V30 8449 H 795.454 -2.35523 -6.29268 0
M  V30 8450 N 798.174 1.49689 -0.493057 0
M  V30 8451 C 799.104 2.31826 0.279073 0
M  V30 8452 C 800.085 1.39733 0.969987 0
M  V30 8453 O 801.27 1.68646 0.962925 0
M  V30 8454 C 798.4 3.20046 1.34862 0
M  V30 8455 C 797.354 4.20869 0.77805 0
M  V30 8456 C 796.68 4.97971 1.94753 0
M  V30 8457 C 797.98 5.21813 -0.225543 0
M  V30 8458 H 799.674 2.96627 -0.406512 0
M  V30 8459 H 797.22 1.42647 -0.196943 0
M  V30 8460 H 799.173 3.76315 1.89645 0
M  V30 8461 H 797.897 2.53172 2.06328 0
M  V30 8462 H 796.556 3.65733 0.252036 0
M  V30 8463 H 796.204 4.27552 2.64969 0
M  V30 8464 H 795.904 5.66186 1.57187 0
M  V30 8465 H 797.428 5.57082 2.49984 0
M  V30 8466 H 798.842 5.72823 0.233864 0
M  V30 8467 H 797.239 5.97872 -0.516622 0
M  V30 8468 H 798.309 4.71209 -1.14412 0
M  V30 8469 N 799.652 0.226554 1.55963 0
M  V30 8470 C 800.9 -0.402991 1.98041 0
M  V30 8471 C 801.221 -1.59938 1.11557 0
M  V30 8472 O 800.491 -1.9494 0.193719 0
M  V30 8473 H 799.071 -0.15188 0.731397 0
M  V30 8474 H 801.733 0.320613 1.92245 0
M  V30 8475 H 800.829 -0.725937 3.0354 0
M  V30 8476 N 801.13 -1.57531 -0.0467866 0
M  V30 8477 C 802.378 -1.88078 -0.739656 0
M  V30 8478 C 802.699 -0.821936 -1.76831 0
M  V30 8479 O 801.969 0.146582 -1.95351 0
M  V30 8480 H 800.549 -0.694075 -0.276169 0
M  V30 8481 H 803.211 -1.94893 -0.0169391 0
M  V30 8482 H 802.307 -2.86396 -1.24031 0
M  V30 8483 N 802.608 0.318715 -1.54344 0
M  V30 8484 C 803.857 1.05363 -1.71993 0
M  V30 8485 C 804.17 1.89018 -0.503155 0
M  V30 8486 O 805.376 2.65639 -0.561085 0
M  V30 8487 C 803.832 1.92281 -3.0423 0
M  V30 8488 C 803.44 1.13715 -4.33328 0
M  V30 8489 C 805.184 2.65479 -3.31242 0
M  V30 8490 C 803.091 1.99806 -5.56625 0
M  V30 8491 H 802.021 0.397081 -0.64097 0
M  V30 8492 H 804.672 0.311598 -1.80835 0
M  V30 8493 H 803.054 2.70402 -2.89307 0
M  V30 8494 H 804.228 0.403305 -4.59032 0
M  V30 8495 H 802.543 0.521769 -4.13118 0
M  V30 8496 H 805.14 3.30209 -4.20555 0
M  V30 8497 H 805.483 3.33374 -2.49334 0
M  V30 8498 H 806.016 1.94417 -3.47054 0
M  V30 8499 H 802.755 1.36411 -6.41149 0
M  V30 8500 H 802.275 2.70911 -5.35133 0
M  V30 8501 H 803.954 2.58277 -5.93213 0
M  V30 8502 N 804.086 1.46499 0.581025 0
M  V30 8503 C 805.332 1.52121 1.34116 0
M  V30 8504 C 805.665 0.173031 1.93428 0
M  V30 8505 O 804.94 -0.815729 1.76568 0
M  V30 8506 C 805.223 2.62108 2.46924 0
M  V30 8507 C 805.076 4.06462 1.92636 0
M  V30 8508 C 806.395 2.68167 3.48962 0
M  V30 8509 H 803.514 0.5538 0.486287 0
M  V30 8510 H 806.156 1.78443 0.652538 0
M  V30 8511 H 804.306 2.39794 3.05665 0
M  V30 8512 H 805.978 4.40068 1.3834 0
M  V30 8513 H 804.221 4.15862 1.23455 0
M  V30 8514 H 804.892 4.79152 2.74076 0
M  V30 8515 H 807.368 2.8823 3.00104 0
M  V30 8516 H 806.244 3.46942 4.2535 0
M  V30 8517 H 806.505 1.74284 4.06297 0
M  V30 8518 N 805.565 -0.825799 1.34232 0
M  V30 8519 C 806.495 -1.95151 1.28212 0
M  V30 8520 C 807.476 -1.69345 0.160123 0
M  V30 8521 O 808.661 -1.90983 0.352019 0
M  V30 8522 C 805.791 -3.31554 1.03388 0
M  V30 8523 C 804.745 -3.71793 2.12023 0
M  V30 8524 C 804.071 -5.06147 1.72392 0
M  V30 8525 C 805.371 -3.84193 3.53826 0
M  V30 8526 H 807.065 -2.00445 2.22401 0
M  V30 8527 H 804.611 -0.962996 1.07063 0
M  V30 8528 H 806.564 -4.09889 0.978225 0
M  V30 8529 H 805.288 -3.26551 0.0564142 0
M  V30 8530 H 803.947 -2.95731 2.16654 0
M  V30 8531 H 803.595 -4.97628 0.733137 0
M  V30 8532 H 803.295 -5.34041 2.451 0
M  V30 8533 H 804.819 -5.86943 1.68317 0
M  V30 8534 H 806.233 -4.52806 3.51624 0
M  V30 8535 H 804.63 -4.23538 4.2513 0
M  V30 8536 H 805.7 -2.86272 3.91377 0
M  V30 8537 N 807.043 -1.17915 -1.04565 0
M  V30 8538 C 807.991 -0.897919 -2.1457 0
M  V30 8539 C 808.985 0.139883 -1.68821 0
M  V30 8540 O 810.191 -0.00779463 -1.79998 0
M  V30 8541 H 806.566 -0.272867 -0.700748 0
M  V30 8542 H 808.537 -1.83268 -2.3549 0
M  V30 8543 C 807.286 -0.434634 -3.44973 0
M  V30 8544 H 806.609 -1.22469 -3.8058 0
M  V30 8545 H 808.049 -0.276804 -4.23095 0
M  V30 8546 C 806.508 0.848738 -3.26034 0
M  V30 8547 O 807.038 1.9141 -3.53164 0
M  V30 8548 N 805.244 0.799373 -2.79389 0
M  V30 8549 H 804.791 -0.0678192 -2.57511 0
M  V30 8550 H 804.749 1.6585 -2.67098 0
M  V30 8551 N 808.521 1.23394 -0.980386 0
M  V30 8552 C 809.932 1.73631 -0.686239 0
M  V30 8553 C 810.283 1.79259 0.797541 0
M  V30 8554 O 809.408 1.43046 1.62379 0
M  V30 8555 C 810.003 3.15332 -1.239 0
M  V30 8556 C 808.562 3.63024 -0.994494 0
M  V30 8557 C 807.709 2.41279 -1.36673 0
M  V30 8558 H 810.66 1.08918 -1.15423 0
M  V30 8559 H 810.681 3.75556 -0.611414 0
M  V30 8560 H 810.193 3.11204 -2.31892 0
M  V30 8561 H 808.294 3.72535 0.0693492 0
M  V30 8562 H 808.407 4.49825 -1.64906 0
M  V30 8563 H 806.771 2.42295 -0.785195 0
M  V30 8564 H 807.554 2.39822 -2.45642 0
M  V30 8565 N 809.999 0.752036 1.385 0
M  V30 8566 C 811.224 0.316993 2.04963 0
M  V30 8567 C 811.649 -1.04582 1.56346 0
M  V30 8568 O 811.007 -1.66616 0.714755 0
M  V30 8569 C 811.055 0.347235 3.58924 0
M  V30 8570 O 810.159 -0.659296 4.07096 0
M  V30 8571 H 809.5 0.140652 0.648932 0
M  V30 8572 H 812.03 1.02272 1.77205 0
M  V30 8573 H 812.04 0.19757 4.07521 0
M  V30 8574 H 810.715 1.34157 3.93668 0
M  V30 8575 H 809.292 -0.474371 3.6987 0
M  V30 8576 N 811.477 -1.49425 0.500989 0
M  V30 8577 C 812.724 -2.02453 -0.0435355 0
M  V30 8578 C 813.052 -1.38067 -1.36995 0
M  V30 8579 O 812.307 -0.505557 -1.89057 0
M  V30 8580 C 812.606 -3.56562 -0.24463 0
M  V30 8581 C 812.272 -4.39585 1.00379 0
M  V30 8582 C 810.934 -4.61992 1.346 0
M  V30 8583 C 813.286 -4.87881 1.83361 0
M  V30 8584 C 810.614 -5.2994 2.51755 0
M  V30 8585 C 812.966 -5.57119 2.99669 0
M  V30 8586 C 811.63 -5.77771 3.3427 0
M  V30 8587 H 810.9 -0.740829 -0.0159308 0
M  V30 8588 H 813.547 -1.79725 0.661143 0
M  V30 8589 H 811.852 -3.77969 -1.03183 0
M  V30 8590 H 813.549 -3.95185 -0.6804 0
M  V30 8591 H 810.139 -4.22385 0.727225 0
M  V30 8592 H 814.323 -4.70398 1.58237 0
M  V30 8593 H 809.579 -5.44133 2.788 0
M  V30 8594 H 813.753 -5.93516 3.64296 0
M  V30 8595 H 811.38 -6.30197 4.25154 0
M  V30 8596 N 812.955 -0.234822 -1.55841 0
M  V30 8597 C 814.185 0.397168 -2.02746 0
M  V30 8598 C 814.593 1.52951 -1.11367 0
M  V30 8599 O 813.936 1.8332 -0.118133 0
M  V30 8600 C 813.998 0.977748 -3.45948 0
M  V30 8601 C 813.662 -0.0208193 -4.56995 0
M  V30 8602 C 814.659 -0.826015 -5.13296 0
M  V30 8603 C 812.344 -0.143416 -5.02095 0
M  V30 8604 C 814.338 -1.74038 -6.1318 0
M  V30 8605 C 812.025 -1.0613 -6.01814 0
M  V30 8606 C 813.023 -1.85832 -6.57233 0
M  V30 8607 O 812.711 -2.76075 -7.55008 0
M  V30 8608 H 812.443 0.0999802 -0.668566 0
M  V30 8609 H 814.997 -0.352673 -2.0235 0
M  V30 8610 H 813.227 1.77693 -3.43456 0
M  V30 8611 H 814.916 1.51854 -3.76424 0
M  V30 8612 H 815.682 -0.741822 -4.79293 0
M  V30 8613 H 811.561 0.466857 -4.5863 0
M  V30 8614 H 815.105 -2.36291 -6.56363 0
M  V30 8615 H 811.002 -1.14646 -6.35237 0
M  V30 8616 H 811.77 -2.703 -7.7258 0
M  V30 8617 N 814.433 1.57553 0.0384317 0
M  V30 8618 C 815.681 1.88468 0.729672 0
M  V30 8619 C 816.002 0.831302 1.76393 0
M  V30 8620 O 815.272 -0.13622 1.95426 0
M  V30 8621 H 813.852 0.695529 0.272485 0
M  V30 8622 H 816.514 1.94899 0.0066032 0
M  V30 8623 H 815.61 2.8705 1.22511 0
M  V30 8624 N 815.911 -0.310526 1.54511 0
M  V30 8625 C 816.844 -1.40693 1.79668 0
M  V30 8626 C 817.822 -1.49159 0.64734 0
M  V30 8627 O 819.006 -1.66367 0.886239 0
M  V30 8628 C 816.133 -2.78685 1.92491 0
M  V30 8629 C 815.179 -2.87688 3.14861 0
M  V30 8630 S 816.012 -2.50759 4.7316 0
M  V30 8631 C 817.168 -3.90797 4.88906 0
M  V30 8632 H 817.401 -1.19142 2.72383 0
M  V30 8633 H 814.934 -0.508103 1.458 0
M  V30 8634 H 816.892 -3.58168 2.00563 0
M  V30 8635 H 815.553 -2.9751 1.00731 0
M  V30 8636 H 814.746 -3.8888 3.20607 0
M  V30 8637 H 814.348 -2.16189 3.05186 0
M  V30 8638 H 816.64 -4.85693 4.72344 0
M  V30 8639 H 817.583 -3.90027 5.91003 0
M  V30 8640 H 817.991 -3.80357 4.1712 0
M  V30 8641 N 817.389 -1.46805 -0.573248 0
M  V30 8642 C 818.8 -1.46655 -1.15539 0
M  V30 8643 C 819.151 -0.2125 -1.95046 0
M  V30 8644 O 818.276 0.683759 -2.05314 0
M  V30 8645 C 818.871 -2.65711 -2.10198 0
M  V30 8646 C 817.43 -2.68572 -2.63716 0
M  V30 8647 C 816.577 -2.39498 -1.39772 0
M  V30 8648 H 819.528 -1.54547 -0.36068 0
M  V30 8649 H 819.549 -2.41768 -2.93817 0
M  V30 8650 H 819.061 -3.56967 -1.52303 0
M  V30 8651 H 817.162 -1.81414 -3.25453 0
M  V30 8652 H 817.275 -3.68809 -3.05805 0
M  V30 8653 H 815.639 -1.89749 -1.69904 0
M  V30 8654 H 816.422 -3.32942 -0.836943 0
M  V30 8655 N 818.867 0.818669 -1.34668 0
M  V30 8656 C 820.115 1.57201 -1.27013 0
M  V30 8657 C 820.436 1.94354 0.158599 0
M  V30 8658 O 819.706 1.62626 1.09223 0
M  V30 8659 H 818.286 0.582919 -0.467135 0
M  V30 8660 H 820.948 0.977234 -1.6863 0
M  V30 8661 H 820.044 2.49291 -1.87778 0
M  V30 8662 N 820.346 1.18468 1.03938 0
M  V30 8663 C 821.296 0.880799 2.103 0
M  V30 8664 C 822.28 -0.150008 1.60199 0
M  V30 8665 O 823.472 0.054213 1.76917 0
M  V30 8666 C 820.601 0.409723 3.40846 0
M  V30 8667 C 819.687 1.47267 3.9771 0
M  V30 8668 N 820.078 2.68945 4.28371 0
M  V30 8669 C 818.376 1.33349 4.25598 0
M  V30 8670 C 819.077 3.37341 4.73894 0
M  V30 8671 N 818.053 2.64725 4.74786 0
M  V30 8672 H 821.855 1.80574 2.31884 0
M  V30 8673 H 819.369 1.07527 1.21703 0
M  V30 8674 H 821.366 0.17352 4.16539 0
M  V30 8675 H 820.026 -0.508862 3.20688 0
M  V30 8676 H 821.037 3.05801 4.17978 0
M  V30 8677 H 817.714 0.477548 4.1476 0
M  V30 8678 H 819.104 4.41338 5.06627 0
M  V30 8679 N 821.824 -1.22873 0.986916 0
M  V30 8680 C 823.052 -1.95487 0.677663 0
M  V30 8681 C 823.467 -1.72978 -0.756572 0
M  V30 8682 O 822.824 -1.02517 -1.50985 0
M  V30 8683 C 822.875 -3.48337 0.966638 0
M  V30 8684 O 822.596 -3.70087 2.34451 0
M  V30 8685 C 824.097 -4.38142 0.674248 0
M  V30 8686 H 821.317 -0.622211 0.251185 0
M  V30 8687 H 823.861 -1.56187 1.32007 0
M  V30 8688 H 822.016 -3.85628 0.370137 0
M  V30 8689 H 822.43 -4.64332 2.43918 0
M  V30 8690 H 823.904 -5.44165 0.926759 0
M  V30 8691 H 824.381 -4.3745 -0.391728 0
M  V30 8692 H 824.987 -4.06469 1.25152 0
M  V30 8693 N 823.302 -0.75937 -1.38099 0
M  V30 8694 C 824.252 -0.111098 -2.27729 0
M  V30 8695 C 825.236 0.687161 -1.45489 0
M  V30 8696 O 826.428 0.552167 -1.68167 0
M  V30 8697 C 823.557 0.776809 -3.34396 0
M  V30 8698 C 822.643 -0.0286108 -4.2409 0
M  V30 8699 N 823.034 -1.06797 -4.94397 0
M  V30 8700 C 821.332 0.197307 -4.45563 0
M  V30 8701 C 822.033 -1.55576 -5.6051 0
M  V30 8702 N 821.009 -0.870059 -5.36592 0
M  V30 8703 H 824.811 -0.907047 -2.79553 0
M  V30 8704 H 822.325 -0.595954 -1.5107 0
M  V30 8705 H 824.322 1.25691 -3.97502 0
M  V30 8706 H 822.982 1.57164 -2.84129 0
M  V30 8707 H 823.993 -1.44988 -4.97191 0
M  V30 8708 H 820.67 0.965028 -4.06194 0
M  V30 8709 H 822.06 -2.42184 -6.26735 0
M  V30 8710 N 824.78 1.49157 -0.508906 0
M  V30 8711 C 826.008 2.06879 0.0293734 0
M  V30 8712 C 826.423 1.36823 1.30095 0
M  V30 8713 O 825.78 0.449034 1.7689 0
M  V30 8714 C 825.831 3.60423 0.278791 0
M  V30 8715 O 825.552 4.27844 -0.942389 0
M  V30 8716 C 827.053 4.34881 0.859825 0
M  V30 8717 H 824.273 0.67057 -0.0240184 0
M  V30 8718 H 826.817 1.91834 -0.708526 0
M  V30 8719 H 824.972 3.75145 0.966689 0
M  V30 8720 H 825.386 5.19671 -0.710097 0
M  V30 8721 H 826.86 5.43161 0.983884 0
M  V30 8722 H 827.337 3.9789 1.85958 0
M  V30 8723 H 827.943 4.24785 0.209152 0
M  V30 8724 N 826.258 0.243083 1.55714 0
M  V30 8725 C 827.191 -0.698623 2.17243 0
M  V30 8726 C 828.169 -1.1756 1.12331 0
M  V30 8727 O 829.353 -1.25444 1.40699 0
M  V30 8728 C 826.48 -1.94901 2.77004 0
M  V30 8729 C 825.526 -1.61022 3.94936 0
M  V30 8730 S 826.359 -0.716173 5.30689 0
M  V30 8731 C 827.515 -1.97565 5.93901 0
M  V30 8732 H 827.748 -0.175724 2.9678 0
M  V30 8733 H 825.281 0.0275727 1.54375 0
M  V30 8734 H 827.239 -2.66687 3.12071 0
M  V30 8735 H 825.9 -2.44304 1.9742 0
M  V30 8736 H 825.093 -2.5398 4.35328 0
M  V30 8737 H 824.695 -0.972829 3.61126 0
M  V30 8738 H 826.987 -2.92333 6.11186 0
M  V30 8739 H 827.93 -1.61528 6.8943 0
M  V30 8740 H 828.338 -2.126 5.22935 0
M  V30 8741 N 827.736 -1.57571 -0.0300757 0
M  V30 8742 C 828.985 -1.88407 -0.720126 0
M  V30 8743 C 829.298 -0.841466 -1.76575 0
M  V30 8744 O 830.504 -1.03902 -2.50832 0
M  V30 8745 C 828.96 -3.34348 -1.33188 0
M  V30 8746 C 828.568 -4.46837 -0.32266 0
M  V30 8747 C 830.312 -3.74333 -2.00187 0
M  V30 8748 C 828.219 -5.83838 -0.942703 0
M  V30 8749 H 827.149 -0.702952 -0.272718 0
M  V30 8750 H 829.8 -1.83482 0.0255337 0
M  V30 8751 H 828.182 -3.34014 -2.12721 0
M  V30 8752 H 829.356 -4.58638 0.445887 0
M  V30 8753 H 827.671 -4.15678 0.245181 0
M  V30 8754 H 830.268 -4.74008 -2.47428 0
M  V30 8755 H 830.611 -3.06275 -2.81959 0
M  V30 8756 H 831.144 -3.76837 -1.2743 0
M  V30 8757 H 827.883 -6.55294 -0.164413 0
M  V30 8758 H 827.403 -5.75759 -1.68111 0
M  V30 8759 H 829.082 -6.30535 -1.45034 0
M  V30 8760 N 829.214 0.302327 -1.54673 0
M  V30 8761 C 830.164 1.37443 -1.81916 0
M  V30 8762 C 831.148 1.45999 -0.676251 0
M  V30 8763 O 832.34 1.50174 -0.93685 0
M  V30 8764 C 829.469 2.73966 -2.06876 0
M  V30 8765 C 828.555 2.69637 -3.27348 0
M  V30 8766 N 828.946 2.34926 -4.47933 0
M  V30 8767 C 827.244 3.00742 -3.29348 0
M  V30 8768 C 827.945 2.39862 -5.29944 0
M  V30 8769 N 826.921 2.77163 -4.67634 0
M  V30 8770 H 830.723 1.09567 -2.72713 0
M  V30 8771 H 828.237 0.5109 -1.54154 0
M  V30 8772 H 830.234 3.51265 -2.2454 0
M  V30 8773 H 828.894 3.02754 -1.17346 0
M  V30 8774 H 829.905 2.07403 -4.74557 0
M  V30 8775 H 826.582 3.34434 -2.49921 0
M  V30 8776 H 827.972 2.15835 -6.3629 0
M  V30 8777 N 830.692 1.47107 0.565454 0
M  V30 8778 C 831.602 1.61591 1.70075 0
M  V30 8779 C 832.618 0.498931 1.66693 0
M  V30 8780 O 833.794 0.765372 1.8629 0
M  V30 8781 C 830.859 1.61887 3.06583 0
M  V30 8782 C 829.92 2.84949 3.21096 0
M  V30 8783 C 829.153 2.85221 4.51093 0
M  V30 8784 O 829.376 1.94959 5.36048 0
M  V30 8785 O 828.31 3.76982 4.69221 0
M  V30 8786 H 832.136 2.57638 1.60799 0
M  V30 8787 H 829.721 1.30097 0.73451 0
M  V30 8788 H 831.603 1.64809 3.87835 0
M  V30 8789 H 830.278 0.69005 3.16259 0
M  V30 8790 H 829.185 2.87575 2.39273 0
M  V30 8791 H 830.518 3.77098 3.1632 0
M  V30 8792 N 832.17 -0.811516 1.35101 0
M  V30 8793 C 833.419 -1.56343 1.27435 0
M  V30 8794 C 833.732 -1.95019 -0.150696 0
M  V30 8795 O 834.938 -2.6924 -0.349586 0
M  V30 8796 C 833.394 -2.82124 2.23459 0
M  V30 8797 C 833.002 -2.50706 3.71283 0
M  V30 8798 C 834.746 -3.60137 2.24726 0
M  V30 8799 C 832.653 -3.72748 4.59143 0
M  V30 8800 H 831.583 -0.58682 0.473453 0
M  V30 8801 H 834.234 -0.892465 1.60335 0
M  V30 8802 H 832.616 -3.50905 1.83525 0
M  V30 8803 H 833.79 -1.89962 4.19823 0
M  V30 8804 H 832.105 -1.85947 3.72576 0
M  V30 8805 H 834.702 -4.50775 2.87587 0
M  V30 8806 H 835.045 -3.97101 1.24965 0
M  V30 8807 H 835.578 -2.98311 2.63164 0
M  V30 8808 H 832.317 -3.40896 5.59884 0
M  V30 8809 H 831.837 -4.32735 4.15332 0
M  V30 8810 H 833.516 -4.40033 4.74321 0
M  V30 8811 N 833.648 -1.19017 -1.03309 0
M  V30 8812 C 834.896 -0.988258 -1.76289 0
M  V30 8813 C 835.217 0.482557 -1.88935 0
M  V30 8814 O 834.487 1.34969 -1.41987 0
M  V30 8815 H 833.067 -0.36267 -0.653054 0
M  V30 8816 H 835.729 -1.49836 -1.2464 0
M  V30 8817 H 834.825 -1.43273 -2.77271 0
M  V30 8818 N 835.127 1.22348 -0.993418 0
M  V30 8819 C 836.077 2.221 -0.515333 0
M  V30 8820 C 837.061 1.55409 0.416762 0
M  V30 8821 O 838.253 1.75317 0.243497 0
M  V30 8822 C 835.382 3.42888 0.168173 0
M  V30 8823 C 834.468 4.16786 -0.784257 0
M  V30 8824 N 834.859 4.67435 -1.93231 0
M  V30 8825 C 833.157 4.41942 -0.600243 0
M  V30 8826 C 833.858 5.23792 -2.53016 0
M  V30 8827 N 832.834 5.12483 -1.8128 0
M  V30 8828 H 836.636 2.58902 -1.39093 0
M  V30 8829 H 834.15 1.38024 -0.855747 0
M  V30 8830 H 836.147 4.13542 0.528069 0
M  V30 8831 H 834.807 3.07598 1.03989 0
M  V30 8832 H 835.818 4.63375 -2.31309 0
M  V30 8833 H 832.495 4.16891 0.225369 0
M  V30 8834 H 833.885 5.73515 -3.50043 0
M  V30 8835 N 836.605 0.766683 1.37694 0
M  V30 8836 C 837.83 0.338715 2.04615 0
M  V30 8837 C 838.255 -1.02918 1.57447 0
M  V30 8838 O 837.613 -1.65849 0.732386 0
M  V30 8839 C 837.661 0.385284 3.58536 0
M  V30 8840 O 836.765 -0.616081 4.07772 0
M  V30 8841 H 836.106 0.147527 0.647404 0
M  V30 8842 H 838.636 1.04146 1.7611 0
M  V30 8843 H 838.646 0.240782 4.07289 0
M  V30 8844 H 837.321 1.38325 3.92223 0
M  V30 8845 H 835.898 -0.435115 3.70353 0
M  V30 8846 N 838.083 -1.48885 0.516809 0
M  V30 8847 C 839.013 -2.32241 -0.242157 0
M  V30 8848 C 839.994 -1.41258 -0.947633 0
M  V30 8849 O 841.179 -1.70156 -0.935973 0
M  V30 8850 C 838.309 -3.22151 -1.29754 0
M  V30 8851 C 837.263 -4.22053 -0.710995 0
M  V30 8852 C 836.589 -5.01007 -1.86806 0
M  V30 8853 C 837.889 -5.21388 0.30853 0
M  V30 8854 H 839.583 -2.95943 0.453651 0
M  V30 8855 H 837.129 -1.42316 0.219612 0
M  V30 8856 H 839.082 -3.79284 -1.83634 0
M  V30 8857 H 837.806 -2.56423 -2.02274 0
M  V30 8858 H 836.465 -3.66087 -0.193819 0
M  V30 8859 H 836.113 -4.31713 -2.58133 0
M  V30 8860 H 835.813 -5.68615 -1.48159 0
M  V30 8861 H 837.337 -5.60989 -2.4109 0
M  V30 8862 H 838.751 -5.73122 -0.142703 0
M  V30 8863 H 837.148 -5.96975 0.611673 0
M  V30 8864 H 838.218 -4.69329 1.21894 0
M  V30 8865 N 839.561 -0.251338 -1.55583 0
M  V30 8866 C 840.809 0.371434 -1.98657 0
M  V30 8867 C 841.13 1.58143 -1.14087 0
M  V30 8868 O 840.4 1.94607 -0.224708 0
M  V30 8869 H 838.98 0.140225 -0.733721 0
M  V30 8870 H 841.642 -0.351157 -1.9171 0
M  V30 8871 H 840.738 0.677554 -3.04657 0
M  V30 8872 N 841.039 1.57585 0.0217189 0
M  V30 8873 C 841.969 2.10073 1.01939 0
M  V30 8874 C 842.95 1.0049 1.37243 0
M  V30 8875 O 844.135 1.28055 1.45999 0
M  V30 8876 C 841.265 2.58618 2.31806 0
M  V30 8877 C 840.219 3.72531 2.10724 0
M  V30 8878 C 839.545 4.07309 3.46415 0
M  V30 8879 C 840.845 5.00672 1.48743 0
M  V30 8880 H 842.539 2.9368 0.582432 0
M  V30 8881 H 840.085 1.41277 0.278715 0
M  V30 8882 H 842.038 2.9396 3.01936 0
M  V30 8883 H 840.762 1.72104 2.77575 0
M  V30 8884 H 839.421 3.37549 1.43025 0
M  V30 8885 H 839.069 3.17851 3.89846 0
M  V30 8886 H 838.769 4.84042 3.33132 0
M  V30 8887 H 840.293 4.45192 4.17895 0
M  V30 8888 H 841.707 5.33925 2.088 0
M  V30 8889 H 840.104 5.82065 1.46013 0
M  V30 8890 H 841.174 4.82769 0.45408 0
M  V30 8891 N 842.517 -0.29412 1.54831 0
M  V30 8892 C 843.747 -1.04572 1.7818 0
M  V30 8893 C 844.155 -1.81187 0.544776 0
M  V30 8894 O 843.498 -1.769 -0.495169 0
M  V30 8895 C 843.56 -2.06748 2.94101 0
M  V30 8896 C 843.224 -1.49265 4.31936 0
M  V30 8897 C 844.221 -0.919136 5.11711 0
M  V30 8898 C 841.906 -1.52621 4.78552 0
M  V30 8899 C 843.9 -0.386824 6.36225 0
M  V30 8900 C 841.587 -0.990031 6.03027 0
M  V30 8901 C 842.585 -0.421315 6.81699 0
M  V30 8902 O 842.273 0.106713 8.03829 0
M  V30 8903 H 842.005 -0.31559 0.597812 0
M  V30 8904 H 844.559 -0.336817 2.0262 0
M  V30 8905 H 842.789 -2.81339 2.65303 0
M  V30 8906 H 844.478 -2.67865 3.04964 0
M  V30 8907 H 845.244 -0.886062 4.76837 0
M  V30 8908 H 841.123 -1.95826 4.17341 0
M  V30 8909 H 844.667 0.0577248 6.97576 0
M  V30 8910 H 840.564 -1.02027 6.37386 0
M  V30 8911 H 841.332 -0.00593526 8.185 0
M  V30 8912 N 843.995 -1.47404 -0.557645 0
M  V30 8913 C 844.945 -1.56267 -1.66026 0
M  V30 8914 C 845.929 -0.42161 -1.55278 0
M  V30 8915 O 847.121 -0.671505 -1.63768 0
M  V30 8916 C 844.25 -1.57958 -3.04802 0
M  V30 8917 C 843.336 -2.77447 -3.20755 0
M  V30 8918 N 843.727 -4.02148 -3.06775 0
M  V30 8919 C 842.025 -2.74199 -3.51754 0
M  V30 8920 C 842.726 -4.82168 -3.25406 0
M  V30 8921 N 841.702 -4.14481 -3.5172 0
M  V30 8922 H 845.504 -2.50454 -1.53785 0
M  V30 8923 H 843.018 -1.43392 -0.762388 0
M  V30 8924 H 845.015 -1.62397 -3.8397 0
M  V30 8925 H 843.675 -0.648667 -3.18155 0
M  V30 8926 H 844.686 -4.33014 -2.84111 0
M  V30 8927 H 841.363 -1.90243 -3.71637 0
M  V30 8928 H 842.753 -5.91037 -3.19569 0
M  V30 8929 N 845.473 0.80434 -1.35529 0
M  V30 8930 C 846.719 1.56385 -1.29118 0
M  V30 8931 C 847.052 1.9374 0.133536 0
M  V30 8932 O 846.327 1.6153 1.08344 0
M  V30 8933 C 846.61 2.85097 -2.19981 0
M  V30 8934 C 846.463 2.54204 -3.7108 0
M  V30 8935 C 847.782 3.86817 -2.09907 0
M  V30 8936 H 844.901 0.567382 -0.470368 0
M  V30 8937 H 847.543 0.925235 -1.6595 0
M  V30 8938 H 845.693 3.39594 -1.88701 0
M  V30 8939 H 847.365 2.05872 -4.12813 0
M  V30 8940 H 845.608 1.87364 -3.91251 0
M  V30 8941 H 846.279 3.46068 -4.30048 0
M  V30 8942 H 848.755 3.41725 -2.37409 0
M  V30 8943 H 847.631 4.7465 -2.75678 0
M  V30 8944 H 847.892 4.28663 -1.08171 0
M  V30 8945 N 846.951 1.19563 1.02676 0
M  V30 8946 C 848.198 0.999568 1.7611 0
M  V30 8947 C 848.526 -0.469432 1.8875 0
M  V30 8948 O 847.781 -1.36481 1.40255 0
M  V30 8949 C 848.08 1.61619 3.18769 0
M  V30 8950 C 847.746 3.11366 3.26132 0
M  V30 8951 C 846.408 3.52234 3.27848 0
M  V30 8952 C 848.76 4.07374 3.25109 0
M  V30 8953 C 846.088 4.87658 3.26201 0
M  V30 8954 C 848.44 5.42731 3.25002 0
M  V30 8955 C 847.104 5.83027 3.25017 0
M  V30 8956 H 846.374 0.365768 0.644434 0
M  V30 8957 H 849.021 1.48838 1.20497 0
M  V30 8958 H 847.326 1.04974 3.77476 0
M  V30 8959 H 849.023 1.43975 3.74262 0
M  V30 8960 H 845.613 2.78804 3.25525 0
M  V30 8961 H 849.797 3.76842 3.22961 0
M  V30 8962 H 845.053 5.18156 3.24537 0
M  V30 8963 H 849.227 6.16879 3.23161 0
M  V30 8964 H 846.854 6.87936 3.23494 0
M  V30 8965 N 848.429 -1.21819 0.999893 0
M  V30 8966 C 849.845 -1.42847 0.711824 0
M  V30 8967 C 850.045 -1.88391 -0.714928 0
M  V30 8968 O 849.101 -2.0422 -1.48494 0
M  V30 8969 C 850.414 -2.46417 1.72334 0
M  V30 8970 C 851.962 -2.60207 1.73958 0
M  V30 8971 C 852.437 -3.67005 2.73992 0
M  V30 8972 N 853.928 -3.7447 2.72628 0
M  V30 8973 C 854.663 -4.56718 3.46693 0
M  V30 8974 N 854.159 -5.42904 4.3038 0
M  V30 8975 N 855.952 -4.51094 3.35366 0
M  V30 8976 H 848.103 -0.905656 1.92124 0
M  V30 8977 H 850.366 -0.459893 0.828977 0
M  V30 8978 H 850.072 -2.19914 2.74465 0
M  V30 8979 H 849.946 -3.45137 1.52186 0
M  V30 8980 H 852.333 -2.8605 0.725217 0
M  V30 8981 H 852.414 -1.61739 1.98177 0
M  V30 8982 H 852.058 -3.41908 3.75582 0
M  V30 8983 H 851.988 -4.65058 2.4704 0
M  V30 8984 H 854.479 -3.12895 2.11909 0
M  V30 8985 H 854.792 -6.02704 4.83702 0
M  V30 8986 H 853.137 -5.42463 4.34464 0
M  V30 8987 H 856.328 -3.82791 2.69423 0
M  V30 8988 H 856.501 -5.1496 3.93344 0
M  V30 8989 N 849.908 -0.773975 -1.37286 0
M  V30 8990 C 851.156 -0.338636 -1.99243 0
M  V30 8991 C 851.477 1.08919 -1.61746 0
M  V30 8992 O 850.747 1.74822 -0.88397 0
M  V30 8993 H 849.327 -0.12222 -0.736934 0
M  V30 8994 H 851.989 -0.992595 -1.67731 0
M  V30 8995 H 851.085 -0.418055 -3.09287 0
M  V30 8996 N 851.386 1.48609 -0.524698 0
M  V30 8997 C 852.635 2.01696 0.0132937 0
M  V30 8998 C 852.948 1.40751 1.35825 0
M  V30 8999 O 854.154 1.85304 1.9843 0
M  V30 9000 C 852.61 3.59824 0.0741012 0
M  V30 9001 C 852.218 4.2975 -1.26564 0
M  V30 9002 C 853.962 4.20774 0.5612 0
M  V30 9003 C 851.869 5.79798 -1.16571 0
M  V30 9004 H 850.799 0.753949 0.00873931 0
M  V30 9005 H 853.45 1.70922 -0.667684 0
M  V30 9006 H 851.832 3.87416 0.820043 0
M  V30 9007 H 853.006 4.13836 -2.02674 0
M  V30 9008 H 851.321 3.80649 -1.68806 0
M  V30 9009 H 853.918 5.30687 0.653853 0
M  V30 9010 H 854.261 3.85734 1.56573 0
M  V30 9011 H 854.794 3.97591 -0.128901 0
M  V30 9012 H 851.533 6.19403 -2.14523 0
M  V30 9013 H 851.053 5.9814 -0.445894 0
M  V30 9014 H 852.732 6.41337 -0.854186 0
M  V30 9015 N 852.864 0.259585 1.55447 0
M  V30 9016 C 854.089 -0.368317 2.04103 0
M  V30 9017 C 854.514 -1.49827 1.13725 0
M  V30 9018 O 853.872 -1.80814 0.132705 0
M  V30 9019 C 853.92 -0.841506 3.50644 0
M  V30 9020 O 853.024 -1.95008 3.63381 0
M  V30 9021 H 852.365 -0.0785227 0.659341 0
M  V30 9022 H 854.895 0.389349 2.00861 0
M  V30 9023 H 854.905 -1.14138 3.9171 0
M  V30 9024 H 853.58 -0.0147001 4.15897 0
M  V30 9025 H 852.157 -1.65393 3.34215 0
M  V30 9026 N 854.342 -1.57594 -0.0133615 0
M  V30 9027 C 855.252 -2.10991 -1.02566 0
M  V30 9028 C 856.268 -1.05208 -1.3859 0
M  V30 9029 O 857.444 -1.37034 -1.47593 0
M  V30 9030 C 854.509 -2.59165 -2.30292 0
M  V30 9031 C 853.57 -3.79495 -2.00704 0
M  V30 9032 C 852.803 -4.25361 -3.22341 0
M  V30 9033 O 853.026 -3.70645 -4.33565 0
M  V30 9034 O 851.96 -5.17649 -3.07121 0
M  V30 9035 H 855.786 -2.97678 -0.601806 0
M  V30 9036 H 853.371 -1.47598 -0.23135 0
M  V30 9037 H 855.253 -2.90409 -3.05354 0
M  V30 9038 H 853.928 -1.75582 -2.71942 0
M  V30 9039 H 852.835 -3.53245 -1.23161 0
M  V30 9040 H 854.168 -4.64109 -1.639 0
M  V30 9041 N 855.82 0.285905 -1.54985 0
M  V30 9042 C 857.069 1.01691 -1.74189 0
M  V30 9043 C 857.382 1.87908 -0.543135 0
M  V30 9044 O 858.588 2.64389 -0.617305 0
M  V30 9045 C 857.044 1.85785 -3.0824 0
M  V30 9046 C 856.652 1.04497 -4.35642 0
M  V30 9047 C 858.396 2.58393 -3.36798 0
M  V30 9048 C 856.303 1.87955 -5.60738 0
M  V30 9049 H 855.233 0.383396 -0.649248 0
M  V30 9050 H 857.884 0.27317 -1.81455 0
M  V30 9051 H 856.266 2.64205 -2.94978 0
M  V30 9052 H 857.44 0.305847 -4.59784 0
M  V30 9053 H 855.755 0.434023 -4.14132 0
M  V30 9054 H 858.352 3.21214 -4.27464 0
M  V30 9055 H 858.695 3.28011 -2.56349 0
M  V30 9056 H 859.228 1.87012 -3.511 0
M  V30 9057 H 855.967 1.22781 -6.43898 0
M  V30 9058 H 855.487 2.59499 -5.40759 0
M  V30 9059 H 857.166 2.45636 -5.98558 0
M  V30 9060 N 857.298 1.47698 0.54982 0
M  V30 9061 C 858.23 1.56806 1.67166 0
M  V30 9062 C 859.243 0.453709 1.5635 0
M  V30 9063 O 860.432 0.723663 1.63173 0
M  V30 9064 C 857.532 1.4632 3.05686 0
M  V30 9065 C 856.705 2.72452 3.42182 0
M  V30 9066 C 855.764 2.55698 4.59897 0
M  V30 9067 O 854.79 3.29534 4.64108 0
M  V30 9068 N 855.992 1.64009 5.56849 0
M  V30 9069 H 858.757 2.53545 1.59797 0
M  V30 9070 H 856.318 1.44171 0.736635 0
M  V30 9071 H 858.31 1.32835 3.82279 0
M  V30 9072 H 856.88 0.57634 3.07241 0
M  V30 9073 H 856.1 3.00644 2.54964 0
M  V30 9074 H 857.388 3.56172 3.63344 0
M  V30 9075 H 856.786 1.03186 5.5621 0
M  V30 9076 H 855.343 1.56473 6.3274 0
M  V30 9077 N 858.776 -0.797141 1.35954 0
M  V30 9078 C 860.001 -1.59097 1.33053 0
M  V30 9079 C 860.426 -1.87897 -0.0874592 0
M  V30 9080 O 859.784 -1.47291 -1.05712 0
M  V30 9081 C 859.832 -2.89346 2.152 0
M  V30 9082 O 858.936 -3.826 1.5392 0
M  V30 9083 H 858.277 -0.482895 0.45575 0
M  V30 9084 H 860.807 -0.988633 1.79129 0
M  V30 9085 H 860.817 -3.38686 2.27499 0
M  V30 9086 H 859.492 -2.6771 3.18283 0
M  V30 9087 H 858.069 -3.41174 1.50516 0
M  V30 9088 N 860.254 -1.20106 -1.0204 0
M  V30 9089 C 861.494 -1.02013 -1.77123 0
M  V30 9090 C 861.858 0.440439 -1.8688 0
M  V30 9091 O 863.059 0.74144 -2.58372 0
M  V30 9092 C 861.33 -1.68058 -3.15423 0
M  V30 9093 S 862.889 -1.65016 -4.0659 0
M  V30 9094 H 859.707 -0.365882 -0.609632 0
M  V30 9095 H 862.309 -1.52597 -1.22206 0
M  V30 9096 H 861.013 -2.73544 -3.05944 0
M  V30 9097 H 860.544 -1.17589 -3.75415 0
M  V30 9098 H 862.559 -0.680341 -4.91514 0
M  V30 9099 N 861.732 1.21287 -1.00634 0
M  V30 9100 C 862.957 1.94925 -0.708441 0
M  V30 9101 C 863.382 1.73659 0.722783 0
M  V30 9102 O 862.74 1.02429 1.49593 0
M  V30 9103 C 862.788 3.45377 -1.03667 0
M  V30 9104 O 861.892 4.12153 -0.142661 0
M  V30 9105 H 861.233 0.609338 -0.263824 0
M  V30 9106 H 863.763 1.54008 -1.34695 0
M  V30 9107 H 863.773 3.95954 -0.984086 0
M  V30 9108 H 862.448 3.6018 -2.0795 0
M  V30 9109 H 861.025 3.72048 -0.251888 0
M  V30 9110 N 863.21 0.781244 1.36873 0
M  V30 9111 C 864.487 0.274217 1.93668 0
M  V30 9112 C 864.867 -1.2323 1.71399 0
M  V30 9113 O 864.215 -2.01993 1.06822 0
M  V30 9114 C 864.425 0.657939 3.42742 0
M  V30 9115 C 865.773 0.63307 4.19854 0
M  V30 9116 O 866.797 0.597909 3.51146 0
M  V30 9117 O 865.656 0.668636 5.42394 0
M  V30 9118 H 862.75 0.0658059 0.824378 0
M  V30 9119 H 865.296 0.863238 1.46104 0
M  V30 9120 H 864.068 1.69728 3.52573 0
M  V30 9121 H 863.691 0.0423678 3.97577 0
M  V30 9122 N 864.689 -1.48329 0.532571 0
M  V30 9123 C 866.1 -1.86469 0.0927749 0
M  V30 9124 C 866.451 -1.44186 -1.3306 0
M  V30 9125 O 865.576 -0.833741 -1.99694 0
M  V30 9126 C 866.171 -3.38414 0.161588 0
M  V30 9127 C 864.73 -3.75739 -0.223028 0
M  V30 9128 C 863.877 -2.72377 0.520199 0
M  V30 9129 H 866.828 -1.40197 0.743678 0
M  V30 9130 H 866.849 -3.75314 -0.626059 0
M  V30 9131 H 866.361 -3.69159 1.19765 0
M  V30 9132 H 864.462 -3.50608 -1.26113 0
M  V30 9133 H 864.575 -4.78954 0.118385 0
M  V30 9134 H 862.939 -2.54678 -0.0338425 0
M  V30 9135 H 863.722 -3.05965 1.55694 0
M  V30 9136 N 866.167 -0.267825 -1.55308 0
M  V30 9137 C 867.407 0.352316 -2.01341 0
M  V30 9138 C 867.771 1.53593 -1.1521 0
M  V30 9139 O 868.972 2.22521 -1.50791 0
M  V30 9140 C 867.243 0.731857 -3.49827 0
M  V30 9141 S 868.802 1.33956 -4.17853 0
M  V30 9142 H 865.62 0.109927 -0.702451 0
M  V30 9143 H 868.222 -0.387955 -1.91612 0
M  V30 9144 H 866.926 -0.138561 -4.10166 0
M  V30 9145 H 866.457 1.50378 -3.63525 0
M  V30 9146 H 868.472 2.62831 -4.20874 0
M  V30 9147 N 867.645 1.57599 0.00500368 0
M  V30 9148 C 868.578 2.03541 1.03181 0
M  V30 9149 C 869.556 0.924301 1.33774 0
M  V30 9150 O 870.74 1.19204 1.46023 0
M  V30 9151 C 867.867 2.42879 2.36067 0
M  V30 9152 C 866.913 3.64673 2.21169 0
M  V30 9153 S 867.746 5.12805 1.54243 0
M  V30 9154 C 868.902 5.55408 2.88569 0
M  V30 9155 H 869.135 2.90316 0.640598 0
M  V30 9156 H 866.668 1.52886 0.215722 0
M  V30 9157 H 868.626 2.66212 3.12476 0
M  V30 9158 H 867.287 1.56512 2.72329 0
M  V30 9159 H 866.48 3.89932 3.19326 0
M  V30 9160 H 866.082 3.41316 1.52904 0
M  V30 9161 H 868.374 5.57563 3.84876 0
M  V30 9162 H 869.317 6.55418 2.68016 0
M  V30 9163 H 869.725 4.82961 2.92249 0
M  V30 9164 N 869.123 -0.277682 1.55134 0
M  V30 9165 C 870.033 -1.36524 1.90783 0
M  V30 9166 C 871.049 -1.54283 0.804542 0
M  V30 9167 O 872.225 -1.68499 1.10318 0
M  V30 9168 C 869.29 -2.70524 2.16835 0
M  V30 9169 C 868.351 -2.61552 3.40424 0
M  V30 9170 C 867.584 -3.89162 3.65224 0
M  V30 9171 O 867.807 -4.89624 2.92616 0
M  V30 9172 O 866.741 -3.89647 4.58758 0
M  V30 9173 H 870.567 -1.0929 2.83354 0
M  V30 9174 H 868.152 -0.475799 1.41621 0
M  V30 9175 H 870.034 -3.49765 2.35038 0
M  V30 9176 H 868.709 -2.97555 1.27448 0
M  V30 9177 H 867.616 -1.80704 3.27562 0
M  V30 9178 H 868.949 -2.39472 4.30016 0
M  V30 9179 N 870.601 -1.47988 -0.541979 0
M  V30 9180 C 871.829 -1.59034 -1.32347 0
M  V30 9181 C 872.244 -0.246123 -1.87189 0
M  V30 9182 O 871.601 0.762889 -1.6579 0
M  V30 9183 C 871.652 -2.62759 -2.48274 0
M  V30 9184 O 871.373 -3.91963 -1.95695 0
M  V30 9185 C 872.874 -2.84133 -3.4027 0
M  V30 9186 H 870.094 -0.536574 -0.402901 0
M  V30 9187 H 872.638 -1.93725 -0.655045 0
M  V30 9188 H 870.793 -2.3096 -3.11025 0
M  V30 9189 H 871.207 -4.48769 -2.7149 0
M  V30 9190 H 872.681 -3.60538 -4.17991 0
M  V30 9191 H 873.158 -1.92512 -3.9476 0
M  V30 9192 H 873.764 -3.17188 -2.83322 0
M  V30 9193 N 872.079 0.78992 -1.36375 0
M  V30 9194 C 872.989 1.93386 -1.32812 0
M  V30 9195 C 874.005 1.72468 -0.230377 0
M  V30 9196 O 875.181 1.96014 -0.462657 0
M  V30 9197 C 872.246 3.2824 -1.11621 0
M  V30 9198 C 871.307 3.61939 -2.30865 0
M  V30 9199 C 870.54 4.90359 -2.10675 0
M  V30 9200 O 870.763 5.6005 -1.08168 0
M  V30 9201 O 869.697 5.22702 -2.9844 0
M  V30 9202 H 873.523 1.99342 -2.29121 0
M  V30 9203 H 871.108 0.9301 -1.16917 0
M  V30 9204 H 872.99 4.08939 -1.01719 0
M  V30 9205 H 871.665 3.23178 -0.183732 0
M  V30 9206 H 870.572 2.81549 -2.46335 0
M  V30 9207 H 871.905 3.71725 -3.22617 0
M  V30 9208 N 873.557 1.20646 1.01402 0
M  V30 9209 C 874.968 1.01823 1.56489 0
M  V30 9210 C 875.319 -0.42463 1.9155 0
M  V30 9211 O 874.444 -1.30644 1.72514 0
M  V30 9212 C 875.039 1.84208 2.84347 0
M  V30 9213 C 873.598 1.69743 3.35953 0
M  V30 9214 C 872.745 1.8198 2.09233 0
M  V30 9215 H 875.696 1.348 0.837539 0
M  V30 9216 H 875.717 1.34698 3.55861 0
M  V30 9217 H 875.229 2.89215 2.58798 0
M  V30 9218 H 873.33 0.673833 3.66456 0
M  V30 9219 H 873.443 2.51173 4.07981 0
M  V30 9220 H 871.807 1.25193 2.21808 0
M  V30 9221 H 872.59 2.88477 1.86107 0
M  V30 9222 N 875.035 -1.20752 1.01276 0
M  V30 9223 C 876.26 -1.94547 0.718769 0
M  V30 9224 C 876.685 -1.7404 -0.713563 0
M  V30 9225 O 876.043 -1.03221 -1.49047 0
M  V30 9226 C 876.091 -3.44823 1.05497 0
M  V30 9227 O 875.195 -4.12072 0.164516 0
M  V30 9228 H 874.536 -0.607931 0.267051 0
M  V30 9229 H 877.066 -1.53292 1.35509 0
M  V30 9230 H 877.076 -3.95427 1.00507 0
M  V30 9231 H 875.751 -3.59072 2.09858 0
M  V30 9232 H 874.328 -3.71909 0.271615 0
M  V30 9233 N 876.513 -0.788492 -1.36457 0
M  V30 9234 C 877.76 -0.360461 -1.99266 0
M  V30 9235 C 878.088 1.0676 -1.62581 0
M  V30 9236 O 877.343 1.75205 -0.871884 0
M  V30 9237 C 877.642 -0.470255 -3.54293 0
M  V30 9238 C 877.308 -1.85899 -4.10795 0
M  V30 9239 C 875.97 -2.23896 -4.25939 0
M  V30 9240 C 878.322 -2.76836 -4.41601 0
M  V30 9241 C 875.65 -3.52235 -4.69199 0
M  V30 9242 C 878.002 -4.04602 -4.86292 0
M  V30 9243 C 876.666 -4.42623 -4.99641 0
M  V30 9244 H 875.936 -0.131902 -0.729166 0
M  V30 9245 H 878.583 -1.00577 -1.62962 0
M  V30 9246 H 876.888 0.258559 -3.90946 0
M  V30 9247 H 878.585 -0.120119 -4.0082 0
M  V30 9248 H 875.175 -1.55372 -3.99447 0
M  V30 9249 H 879.359 -2.48735 -4.2947 0
M  V30 9250 H 874.615 -3.81565 -4.77722 0
M  V30 9251 H 878.789 -4.75182 -5.09092 0
M  V30 9252 H 876.416 -5.42125 -5.32921 0
M  V30 9253 N 877.991 1.48044 -0.54043 0
M  V30 9254 C 878.901 2.33565 0.220163 0
M  V30 9255 C 879.917 1.47146 0.928659 0
M  V30 9256 O 881.093 1.80107 0.901295 0
M  V30 9257 C 878.158 3.2349 1.2472 0
M  V30 9258 C 877.219 4.25789 0.547938 0
M  V30 9259 C 876.452 5.11417 1.52605 0
M  V30 9260 O 876.675 4.99204 2.75956 0
M  V30 9261 O 875.609 5.92498 1.05972 0
M  V30 9262 H 879.435 2.99868 -0.480898 0
M  V30 9263 H 877.02 1.46332 -0.301226 0
M  V30 9264 H 878.902 3.79084 1.84047 0
M  V30 9265 H 877.577 2.59835 1.93048 0
M  V30 9266 H 876.484 3.74001 -0.0860941 0
M  V30 9267 H 877.817 4.92111 -0.0935896 0
M  V30 9268 N 879.47 0.276058 1.55163 0
M  V30 9269 C 880.698 -0.343772 2.04024 0
M  V30 9270 C 881.113 -1.49397 1.15438 0
M  V30 9271 O 880.47 -1.81662 0.174692 0
M  V30 9272 C 880.521 -0.823885 3.51986 0
M  V30 9273 O 880.242 0.280507 4.37201 0
M  V30 9274 C 881.743 -1.51143 4.16738 0
M  V30 9275 H 878.963 -0.07828 0.666418 0
M  V30 9276 H 881.507 0.408427 2.0038 0
M  V30 9277 H 879.662 -1.52617 3.56071 0
M  V30 9278 H 880.076 -0.0887831 5.24425 0
M  V30 9279 H 881.55 -1.79878 5.2187 0
M  V30 9280 H 882.027 -2.44327 3.64967 0
M  V30 9281 H 882.633 -0.852975 4.16659 0
M  V30 9282 N 880.948 -1.576 0.00335426 0
M  V30 9283 C 882.196 -1.90336 -0.679446 0
M  V30 9284 C 882.517 -0.877777 -1.74127 0
M  V30 9285 O 881.787 0.0843585 -1.95718 0
M  V30 9286 H 880.367 -0.702509 -0.253948 0
M  V30 9287 H 883.029 -1.94848 0.0450731 0
M  V30 9288 H 882.125 -2.90197 -1.14857 0
M  V30 9289 N 882.426 0.269451 -1.5528 0
M  V30 9290 C 883.703 1.02207 -1.66773 0
M  V30 9291 C 884.083 2.04168 -0.536536 0
M  V30 9292 O 883.431 2.23761 0.462956 0
M  V30 9293 C 883.641 1.67569 -3.0614 0
M  V30 9294 C 884.989 2.18599 -3.64005 0
M  V30 9295 O 886.013 1.7755 -3.08795 0
M  V30 9296 O 884.872 2.93903 -4.60742 0
M  V30 9297 H 881.966 0.474314 -0.677462 0
M  V30 9298 H 884.512 0.265026 -1.67618 0
M  V30 9299 H 883.284 0.937029 -3.79915 0
M  V30 9300 H 882.907 2.49951 -3.09209 0
M  V30 9301 N 883.904 1.48273 0.534124 0
M  V30 9302 C 884.834 1.6538 1.64839 0
M  V30 9303 C 885.815 0.502741 1.62501 0
M  V30 9304 O 887 0.734799 1.79762 0
M  V30 9305 C 884.13 1.68949 3.03436 0
M  V30 9306 C 883.084 2.83513 3.20631 0
M  V30 9307 C 882.41 2.72169 4.60248 0
M  V30 9308 C 883.71 4.24858 3.03797 0
M  V30 9309 H 885.404 2.58663 1.50777 0
M  V30 9310 H 882.95 1.24479 0.723937 0
M  V30 9311 H 884.903 1.79505 3.81256 0
M  V30 9312 H 883.627 0.722415 3.1851 0
M  V30 9313 H 882.286 2.72505 2.45227 0
M  V30 9314 H 881.934 1.7344 4.72152 0
M  V30 9315 H 881.634 3.49042 4.72698 0
M  V30 9316 H 883.158 2.84687 5.40172 0
M  V30 9317 H 884.572 4.36721 3.71413 0
M  V30 9318 H 882.969 5.02697 3.27743 0
M  V30 9319 H 884.039 4.41611 2.0027 0
M  V30 9320 N 885.382 -0.782676 1.36792 0
M  V30 9321 C 886.622 -1.55396 1.32784 0
M  V30 9322 C 886.986 -1.91789 -0.0900272 0
M  V30 9323 O 888.187 -2.6759 -0.254725 0
M  V30 9324 C 886.458 -2.79227 2.23085 0
M  V30 9325 S 888.017 -3.69404 2.36825 0
M  V30 9326 H 884.835 -0.532139 0.471539 0
M  V30 9327 H 887.437 -0.921285 1.72431 0
M  V30 9328 H 886.141 -2.50553 3.25041 0
M  V30 9329 H 885.672 -3.47462 1.84482 0
M  V30 9330 H 887.687 -4.70683 1.57074 0
M  V30 9331 N 886.86 -1.21182 -1.00761 0
M  V30 9332 C 887.808 -0.965728 -2.11604 0
M  V30 9333 C 888.802 0.0861028 -1.69181 0
M  V30 9334 O 890.008 -0.0650558 -1.79882 0
M  V30 9335 H 886.383 -0.295023 -0.691712 0
M  V30 9336 H 888.354 -1.90667 -2.2954 0
M  V30 9337 C 887.103 -0.544164 -3.43415 0
M  V30 9338 H 886.426 -1.34515 -3.76491 0
M  V30 9339 H 887.866 -0.411268 -4.22001 0
M  V30 9340 C 886.325 0.744583 -3.28569 0
M  V30 9341 O 886.855 1.80078 -3.59075 0
M  V30 9342 N 885.061 0.710083 -2.81791 0
M  V30 9343 H 884.608 -0.14971 -2.57165 0
M  V30 9344 H 884.566 1.57268 -2.72239 0
M  V30 9345 N 888.338 1.20213 -1.01915 0
M  V30 9346 C 889.615 1.85348 -0.62495 0
M  V30 9347 C 889.995 1.91101 0.896854 0
M  V30 9348 O 889.343 1.42075 1.78961 0
M  V30 9349 C 889.553 3.24849 -1.27571 0
M  V30 9350 C 890.901 4.01107 -1.39277 0
M  V30 9351 O 891.925 3.34211 -1.23212 0
M  V30 9352 O 890.784 5.20914 -1.6526 0
M  V30 9353 H 887.878 0.798303 -0.215965 0
M  V30 9354 H 890.424 1.27782 -1.11669 0
M  V30 9355 H 889.196 3.1544 -2.31545 0
M  V30 9356 H 888.819 3.90049 -0.77122 0
M  V30 9357 N 889.816 0.795718 1.36037 0
M  V30 9358 C 891.044 0.383153 2.03321 0
M  V30 9359 C 891.459 -1.00246 1.59988 0
M  V30 9360 O 890.816 -1.64406 0.792265 0
M  V30 9361 C 890.867 0.444467 3.58757 0
M  V30 9362 O 890.588 1.77544 4.00512 0
M  V30 9363 C 892.089 0.0233291 4.43294 0
M  V30 9364 H 889.309 0.157061 0.652359 0
M  V30 9365 H 891.853 1.07632 1.73884 0
M  V30 9366 H 890.008 -0.200341 3.86882 0
M  V30 9367 H 890.422 1.73065 4.95125 0
M  V30 9368 H 891.896 0.117361 5.51875 0
M  V30 9369 H 892.373 -1.03007 4.2695 0
M  V30 9370 H 892.979 0.64087 4.20444 0
M  V30 9371 N 891.294 -1.47756 0.548274 0
M  V30 9372 C 892.242 -2.3158 -0.217584 0
M  V30 9373 C 893.236 -1.42372 -0.917957 0
M  V30 9374 O 894.442 -1.59184 -0.840259 0
M  V30 9375 H 890.817 -0.74671 -0.0890388 0
M  V30 9376 H 892.788 -2.94032 0.508719 0
M  V30 9377 C 891.537 -3.24834 -1.24008 0
M  V30 9378 H 890.86 -3.93435 -0.710572 0
M  V30 9379 H 892.3 -3.86336 -1.74701 0
M  V30 9380 C 890.759 -2.47724 -2.2833 0
M  V30 9381 O 891.289 -2.21522 -3.35098 0
M  V30 9382 N 889.495 -2.08891 -2.02022 0
M  V30 9383 H 889.042 -2.30401 -1.1521 0
M  V30 9384 H 889 -1.57613 -2.7204 0
M  V30 9385 N 892.772 -0.284283 -1.55015 0
M  V30 9386 C 894.183 0.211681 -1.85496 0
M  V30 9387 C 894.534 1.54735 -1.2063 0
M  V30 9388 O 893.659 2.10594 -0.497918 0
M  V30 9389 C 894.254 0.390864 -3.36538 0
M  V30 9390 C 892.813 0.831055 -3.67111 0
M  V30 9391 C 891.96 -0.0703581 -2.77211 0
M  V30 9392 H 894.911 -0.505803 -1.50424 0
M  V30 9393 H 894.932 1.22803 -3.60138 0
M  V30 9394 H 894.444 -0.581409 -3.8372 0
M  V30 9395 H 892.545 1.81447 -3.25434 0
M  V30 9396 H 892.658 0.662026 -4.74504 0
M  V30 9397 H 891.022 0.447528 -2.50737 0
M  V30 9398 H 891.805 -1.03868 -3.2721 0
M  V30 9399 N 894.251 1.57596 -0.0117121 0
M  V30 9400 C 895.214 2.08089 0.960816 0
M  V30 9401 C 896.214 0.992519 1.26514 0
M  V30 9402 O 897.404 1.25475 1.20837 0
M  V30 9403 C 894.536 2.53217 2.28241 0
M  V30 9404 H 895.729 2.9529 0.523829 0
M  V30 9405 H 893.282 1.54508 0.235995 0
M  V30 9406 H 894.017 1.69294 2.76604 0
M  V30 9407 H 893.802 3.32714 2.0747 0
M  V30 9408 H 895.292 2.92568 2.97983 0
M  V30 9409 N 895.729 -0.261212 1.5542 0
M  V30 9410 C 897.14 -0.83138 1.67167 0
M  V30 9411 C 897.491 -1.8659 0.606525 0
M  V30 9412 O 896.616 -2.14953 -0.24985 0
M  V30 9413 C 897.211 -1.51475 3.03052 0
M  V30 9414 C 895.77 -2.0328 3.16787 0
M  V30 9415 C 894.917 -0.878903 2.63003 0
M  V30 9416 H 897.868 -0.0373102 1.58656 0
M  V30 9417 H 897.889 -2.38222 2.96699 0
M  V30 9418 H 897.401 -0.76157 3.80554 0
M  V30 9419 H 895.502 -2.81523 2.44082 0
M  V30 9420 H 895.615 -2.24001 4.2351 0
M  V30 9421 H 893.979 -1.27551 2.2046 0
M  V30 9422 H 894.762 -0.13904 3.43018 0
M  V30 9423 N 897.207 -1.48554 -0.526253 0
M  V30 9424 C 898.154 -1.63354 -1.63046 0
M  V30 9425 C 899.124 -0.475509 -1.59148 0
M  V30 9426 O 900.309 -0.699453 -1.77517 0
M  V30 9427 C 897.449 -1.68271 -3.01295 0
M  V30 9428 C 896.562 -2.95207 -3.15399 0
M  V30 9429 C 895.697 -2.91262 -4.4423 0
M  V30 9430 C 894.736 -4.12886 -4.51876 0
M  V30 9431 N 893.873 -4.06996 -5.721 0
M  V30 9432 H 898.713 -2.57649 -1.49737 0
M  V30 9433 H 896.25 -1.27769 -0.728938 0
M  V30 9434 H 898.208 -1.69104 -3.81392 0
M  V30 9435 H 896.838 -0.774641 -3.13367 0
M  V30 9436 H 895.89 -3.04102 -2.2853 0
M  V30 9437 H 897.202 -3.85187 -3.1691 0
M  V30 9438 H 896.356 -2.90516 -5.32621 0
M  V30 9439 H 895.095 -1.99016 -4.45246 0
M  V30 9440 H 894.1 -4.13902 -3.61891 0
M  V30 9441 H 895.325 -5.06294 -4.52596 0
M  V30 9442 H 893.271 -3.17573 -5.74006 0
M  V30 9443 H 893.188 -4.90685 -5.75121 0
M  V30 9444 H 894.456 -4.10315 -6.62768 0
M  V30 9445 N 898.685 0.775411 -1.37205 0
M  V30 9446 C 899.635 1.87867 -1.29189 0
M  V30 9447 C 900.619 1.59885 -0.180466 0
M  V30 9448 O 901.811 1.72077 -0.414536 0
M  V30 9449 C 898.94 3.25285 -1.09748 0
M  V30 9450 C 898.026 3.59231 -2.25419 0
M  V30 9451 N 898.417 3.64386 -3.50795 0
M  V30 9452 C 896.715 3.89375 -2.17492 0
M  V30 9453 C 897.416 3.94974 -4.27048 0
M  V30 9454 N 896.392 4.10684 -3.56146 0
M  V30 9455 H 900.194 1.90099 -2.24142 0
M  V30 9456 H 897.708 0.971667 -1.30125 0
M  V30 9457 H 899.705 4.04207 -1.02091 0
M  V30 9458 H 898.365 3.2432 -0.157083 0
M  V30 9459 H 899.376 3.46682 -3.8475 0
M  V30 9460 H 896.053 3.96254 -1.31489 0
M  V30 9461 H 897.443 4.05768 -5.35539 0
M  V30 9462 N 900.163 1.21714 1.00117 0
M  V30 9463 C 901.11 0.979837 2.08968 0
M  V30 9464 C 902.08 -0.0955324 1.65825 0
M  V30 9465 O 903.265 0.0523742 1.90728 0
M  V30 9466 C 900.405 0.554758 3.40612 0
M  V30 9467 C 899.518 1.69999 3.97145 0
M  V30 9468 C 898.653 1.2237 5.16913 0
M  V30 9469 C 897.692 2.34101 5.65564 0
M  V30 9470 N 896.829 1.87579 6.76579 0
M  V30 9471 H 901.669 1.91167 2.28602 0
M  V30 9472 H 899.206 0.952645 1.12085 0
M  V30 9473 H 901.164 0.289526 4.16194 0
M  V30 9474 H 899.794 -0.340073 3.21004 0
M  V30 9475 H 898.846 2.07976 3.18512 0
M  V30 9476 H 900.158 2.54074 4.29241 0
M  V30 9477 H 899.312 0.915358 5.99755 0
M  V30 9478 H 898.051 0.353045 4.8642 0
M  V30 9479 H 897.056 2.65734 4.81316 0
M  V30 9480 H 898.281 3.21669 5.98085 0
M  V30 9481 H 896.227 1.02863 6.47885 0
M  V30 9482 H 896.144 2.65225 7.07949 0
M  V30 9483 H 897.412 1.5979 7.62947 0
M  V30 9484 N 901.641 -1.19671 1.02551 0
M  V30 9485 C 902.866 -1.93774 0.739363 0
M  V30 9486 C 903.291 -1.74787 -0.695064 0
M  V30 9487 O 902.649 -1.04796 -1.47944 0
M  V30 9488 C 902.697 -3.43684 1.09149 0
M  V30 9489 O 901.801 -4.11874 0.208213 0
M  V30 9490 H 901.142 -0.605064 0.273484 0
M  V30 9491 H 903.672 -1.51846 1.37128 0
M  V30 9492 H 903.682 -3.94339 1.04695 0
M  V30 9493 H 902.357 -3.56826 2.13654 0
M  V30 9494 H 900.934 -3.716 0.311045 0
M  V30 9495 N 903.119 -0.802921 -1.35613 0
M  V30 9496 C 904.359 -0.387163 -2.007 0
M  V30 9497 C 904.723 1.02546 -1.62322 0
M  V30 9498 O 905.924 1.54303 -2.201 0
M  V30 9499 C 904.195 -0.560813 -3.52973 0
M  V30 9500 S 905.754 -0.234935 -4.38171 0
M  V30 9501 H 902.572 -0.147218 -0.695592 0
M  V30 9502 H 905.174 -1.04437 -1.65267 0
M  V30 9503 H 903.878 -1.58897 -3.78391 0
M  V30 9504 H 903.409 0.111845 -3.93241 0
M  V30 9505 H 905.424 0.958715 -4.8685 0
M  V30 9506 N 904.597 1.47463 -0.556102 0
M  V30 9507 C 905.845 2.02075 -0.0315712 0
M  V30 9508 C 906.166 1.43292 1.32259 0
M  V30 9509 O 905.436 0.60771 1.86236 0
M  V30 9510 H 904.016 0.74695 -0.0086816 0
M  V30 9511 H 906.678 1.80879 -0.725859 0
M  V30 9512 H 905.774 3.12047 0.0573538 0
M  V30 9513 N 906.075 0.2925 1.54862 0
M  V30 9514 C 907.352 -0.371946 1.92031 0
M  V30 9515 C 907.732 -1.72363 1.21878 0
M  V30 9516 O 907.08 -2.25779 0.351573 0
M  V30 9517 C 907.29 -0.495027 3.45471 0
M  V30 9518 C 908.638 -0.769855 4.17562 0
M  V30 9519 O 909.662 -0.579168 3.5146 0
M  V30 9520 O 908.521 -1.13561 5.34571 0
M  V30 9521 H 905.615 -0.206463 0.800813 0
M  V30 9522 H 908.161 0.339933 1.6626 0
M  V30 9523 H 906.933 0.455528 3.88639 0
M  V30 9524 H 906.556 -1.2557 3.7725 0
M  V30 9525 N 907.553 -1.57587 0.0200696 0
M  V30 9526 C 908.964 -1.79312 -0.520019 0
M  V30 9527 C 909.315 -0.929475 -1.72787 0
M  V30 9528 O 908.44 -0.137389 -2.15963 0
M  V30 9529 C 909.035 -3.25203 -0.950172 0
M  V30 9530 C 907.594 -3.47954 -1.43543 0
M  V30 9531 C 906.741 -2.74459 -0.395917 0
M  V30 9532 H 909.692 -1.56779 0.246153 0
M  V30 9533 H 909.713 -3.34418 -1.81508 0
M  V30 9534 H 909.225 -3.88035 -0.070883 0
M  V30 9535 H 907.326 -2.90363 -2.33495 0
M  V30 9536 H 907.439 -4.56661 -1.44905 0
M  V30 9537 H 905.803 -2.39669 -0.862022 0
M  V30 9538 H 906.586 -3.40001 0.47475 0
M  V30 9539 N 909.032 0.252966 -1.55557 0
M  V30 9540 C 910.28 0.979912 -1.76754 0
M  V30 9541 C 910.601 1.86083 -0.582944 0
M  V30 9542 O 909.871 1.91742 0.401497 0
M  V30 9543 H 908.451 0.364805 -0.651864 0
M  V30 9544 H 911.113 0.272372 -1.92987 0
M  V30 9545 H 910.209 1.60518 -2.67657 0
M  V30 9546 N 910.51 1.48831 0.518367 0
M  V30 9547 C 911.921 1.50842 1.10016 0
M  V30 9548 C 912.272 0.284744 1.94123 0
M  V30 9549 O 911.397 -0.607088 2.0771 0
M  V30 9550 C 911.992 2.73329 2.00191 0
M  V30 9551 C 910.551 2.78175 2.53566 0
M  V30 9552 C 909.698 2.4452 1.30786 0
M  V30 9553 H 912.649 1.55779 0.303073 0
M  V30 9554 H 912.67 2.52506 2.84642 0
M  V30 9555 H 912.182 3.62374 1.3895 0
M  V30 9556 H 910.283 1.93368 3.18496 0
M  V30 9557 H 910.396 3.79905 2.91906 0
M  V30 9558 H 908.76 1.95924 1.62744 0
M  V30 9559 H 909.543 3.35819 0.712797 0
M  V30 9560 N 911.988 -0.768124 1.37614 0
M  V30 9561 C 913.236 -1.52379 1.3276 0
M  V30 9562 C 913.557 -1.94809 -0.0863564 0
M  V30 9563 O 912.827 -1.66568 -1.03112 0
M  V30 9564 H 911.407 -0.565179 0.488448 0
M  V30 9565 H 914.069 -0.913974 1.72141 0
M  V30 9566 H 913.165 -2.4215 1.96901 0
M  V30 9567 N 913.466 -1.22244 -0.994698 0
M  V30 9568 C 914.414 -0.988118 -2.10568 0
M  V30 9569 C 915.408 0.0681541 -1.69263 0
M  V30 9570 O 916.614 -0.0841311 -1.79803 0
M  V30 9571 H 912.989 -0.302343 -0.688544 0
M  V30 9572 H 914.96 -1.93091 -2.27505 0
M  V30 9573 C 913.709 -0.580557 -3.42819 0
M  V30 9574 H 913.032 -1.385 -3.75044 0
M  V30 9575 H 914.472 -0.456004 -4.21541 0
M  V30 9576 C 912.931 0.709692 -3.2934 0
M  V30 9577 O 913.461 1.76259 -3.60965 0
M  V30 9578 N 911.667 0.680155 -2.82528 0
M  V30 9579 H 911.214 -0.176977 -2.56991 0
M  V30 9580 H 911.172 1.54372 -2.73892 0
M  V30 9581 N 914.944 1.19125 -1.03184 0
M  V30 9582 C 916.221 1.84674 -0.644574 0
M  V30 9583 C 916.601 1.92042 0.876534 0
M  V30 9584 O 915.949 1.43965 1.77444 0
M  V30 9585 C 916.159 3.23477 -1.3101 0
M  V30 9586 C 917.507 3.99608 -1.43524 0
M  V30 9587 O 918.531 3.32886 -1.2675 0
M  V30 9588 O 917.39 5.19132 -1.70776 0
M  V30 9589 H 914.484 0.795968 -0.22442 0
M  V30 9590 H 917.03 1.2659 -1.13018 0
M  V30 9591 H 915.802 3.12967 -2.34878 0
M  V30 9592 H 915.425 3.89209 -0.812547 0
M  V30 9593 N 916.422 0.810101 1.35185 0
M  V30 9594 C 917.65 0.404696 2.02903 0
M  V30 9595 C 918.065 -0.985434 1.61042 0
M  V30 9596 O 917.422 -1.63557 0.809658 0
M  V30 9597 C 917.473 0.482493 3.58266 0
M  V30 9598 O 917.194 1.81782 3.98606 0
M  V30 9599 C 918.695 0.070345 4.43244 0
M  V30 9600 H 915.915 0.163972 0.650657 0
M  V30 9601 H 918.459 1.0947 1.72733 0
M  V30 9602 H 916.614 -0.159296 3.87072 0
M  V30 9603 H 917.028 1.78306 4.93262 0
M  V30 9604 H 918.502 0.175888 5.5172 0
M  V30 9605 H 918.979 -0.984724 4.28018 0
M  V30 9606 H 919.585 0.685427 4.1974 0
M  V30 9607 N 917.9 -1.47166 0.563914 0
M  V30 9608 C 919.14 -2.04351 0.0448121 0
M  V30 9609 C 919.504 -1.42808 -1.28336 0
M  V30 9610 O 920.705 -1.91079 -1.89056 0
M  V30 9611 C 918.976 -3.57378 -0.0395795 0
M  V30 9612 S 920.535 -4.35898 -0.503833 0
M  V30 9613 H 917.353 -0.710433 0.0283795 0
M  V30 9614 H 919.955 -1.80451 0.752166 0
M  V30 9615 H 918.659 -3.99693 0.931326 0
M  V30 9616 H 918.19 -3.85785 -0.770282 0
M  V30 9617 H 920.205 -4.63852 -1.76225 0
M  V30 9618 N 919.378 -0.300708 -1.54705 0
M  V30 9619 C 920.626 0.308044 -1.99739 0
M  V30 9620 C 920.947 1.54433 -1.19061 0
M  V30 9621 O 920.217 1.93794 -0.286507 0
M  V30 9622 H 918.797 0.116811 -0.73781 0
M  V30 9623 H 921.459 -0.41197 -1.90496 0
M  V30 9624 H 920.555 0.580287 -3.06658 0
M  V30 9625 N 920.856 1.57574 -0.0284266 0
M  V30 9626 C 922.103 1.91772 0.650364 0
M  V30 9627 C 922.431 0.904769 1.72175 0
M  V30 9628 O 921.686 -0.0864038 1.95509 0
M  V30 9629 C 921.985 3.32699 1.3056 0
M  V30 9630 C 921.651 4.49423 0.364658 0
M  V30 9631 C 920.313 4.81084 0.105672 0
M  V30 9632 C 922.665 5.20439 -0.28151 0
M  V30 9633 C 919.993 5.81119 -0.8073 0
M  V30 9634 C 922.345 6.21449 -1.18253 0
M  V30 9635 C 921.009 6.51551 -1.45042 0
M  V30 9636 H 920.279 0.701744 0.237985 0
M  V30 9637 H 922.926 1.91288 -0.0900448 0
M  V30 9638 H 921.231 3.29441 2.12075 0
M  V30 9639 H 922.928 3.5643 1.83736 0
M  V30 9640 H 919.518 4.24703 0.576692 0
M  V30 9641 H 923.702 4.9621 -0.0944806 0
M  V30 9642 H 918.958 6.02788 -1.02256 0
M  V30 9643 H 923.132 6.75597 -1.68942 0
M  V30 9644 H 920.759 7.28882 -2.15951 0
M  V30 9645 N 922.334 -0.244713 1.55689 0
M  V30 9646 C 923.284 -1.30596 1.86892 0
M  V30 9647 C 924.268 -1.43388 0.729972 0
M  V30 9648 O 925.46 -1.46593 0.99194 0
M  V30 9649 C 922.589 -2.66099 2.16902 0
M  V30 9650 C 921.675 -2.57302 3.37129 0
M  V30 9651 N 922.066 -2.18139 4.56343 0
M  V30 9652 C 920.364 -2.88311 3.40283 0
M  V30 9653 C 921.065 -2.20028 5.38482 0
M  V30 9654 N 920.041 -2.59616 4.77599 0
M  V30 9655 H 923.843 -0.993699 2.76591 0
M  V30 9656 H 921.357 -0.453334 1.55944 0
M  V30 9657 H 923.354 -3.4269 2.37422 0
M  V30 9658 H 922.014 -2.9819 1.28502 0
M  V30 9659 H 923.025 -1.89647 4.81928 0
M  V30 9660 H 919.702 -3.24928 2.62161 0
M  V30 9661 H 921.092 -1.9207 6.43862 0
M  V30 9662 N 923.813 -1.49104 -0.510467 0
M  V30 9663 C 925.038 -1.62068 -1.29417 0
M  V30 9664 C 925.463 -0.288432 -1.85875 0
M  V30 9665 O 924.821 0.742667 -1.65391 0
M  V30 9666 C 924.869 -2.68506 -2.40701 0
M  V30 9667 O 923.973 -2.27021 -3.4429 0
M  V30 9668 H 923.314 -0.542778 -0.382476 0
M  V30 9669 H 925.844 -1.95228 -0.612154 0
M  V30 9670 H 925.854 -2.90383 -2.86604 0
M  V30 9671 H 924.529 -3.65216 -1.98973 0
M  V30 9672 H 923.106 -2.15436 -3.04371 0
M  V30 9673 N 925.291 0.760815 -1.38019 0
M  V30 9674 C 926.538 1.51973 -1.3383 0
M  V30 9675 C 926.866 1.9436 0.0738855 0
M  V30 9676 O 926.121 1.65181 1.04946 0
M  V30 9677 C 926.42 2.79024 -2.23339 0
M  V30 9678 C 926.086 2.55636 -3.71431 0
M  V30 9679 C 924.748 2.48966 -4.11788 0
M  V30 9680 C 927.1 2.35018 -4.65205 0
M  V30 9681 C 924.428 2.19684 -5.44018 0
M  V30 9682 C 926.78 2.07258 -5.97685 0
M  V30 9683 C 925.444 1.9904 -6.37134 0
M  V30 9684 H 924.714 0.556108 -0.489719 0
M  V30 9685 H 927.361 0.87545 -1.70318 0
M  V30 9686 H 925.666 3.48065 -1.79883 0
M  V30 9687 H 927.363 3.36951 -2.17405 0
M  V30 9688 H 923.953 2.61695 -3.39432 0
M  V30 9689 H 928.137 2.39154 -4.34878 0
M  V30 9690 H 923.393 2.11825 -5.73533 0
M  V30 9691 H 927.567 1.90307 -6.69893 0
M  V30 9692 H 925.194 1.76115 -7.39519 0
M  V30 9693 N 926.769 1.22769 0.988202 0
M  V30 9694 C 928.016 1.05509 1.72841 0
M  V30 9695 C 928.344 -0.409145 1.90148 0
M  V30 9696 O 927.599 -1.3195 1.44526 0
M  V30 9697 C 927.898 1.71679 3.13466 0
M  V30 9698 C 927.564 3.21584 3.16061 0
M  V30 9699 C 926.226 3.62486 3.16476 0
M  V30 9700 C 928.578 4.17511 3.11984 0
M  V30 9701 C 925.906 4.97789 3.10521 0
M  V30 9702 C 928.258 5.52796 3.0757 0
M  V30 9703 C 926.922 5.93072 3.06304 0
M  V30 9704 H 926.192 0.386085 0.632471 0
M  V30 9705 H 928.839 1.52596 1.157 0
M  V30 9706 H 927.144 1.1693 3.73945 0
M  V30 9707 H 928.841 1.55809 3.69492 0
M  V30 9708 H 925.431 2.89019 3.1649 0
M  V30 9709 H 929.615 3.86926 3.10809 0
M  V30 9710 H 924.871 5.28218 3.07888 0
M  V30 9711 H 929.045 6.26848 3.03372 0
M  V30 9712 H 926.672 6.97879 3.01444 0
M  V30 9713 N 928.247 -1.18576 1.03814 0
M  V30 9714 C 929.195 -2.24166 0.620678 0
M  V30 9715 C 930.189 -1.65718 -0.351282 0
M  V30 9716 O 931.395 -1.78665 -0.218848 0
M  V30 9717 H 927.77 -0.729522 0.182487 0
M  V30 9718 H 929.741 -2.56686 1.52166 0
M  V30 9719 C 928.49 -3.477 -0.00307331 0
M  V30 9720 H 927.813 -3.92969 0.735874 0
M  V30 9721 H 929.253 -4.23214 -0.257988 0
M  V30 9722 C 927.712 -3.12757 -1.2524 0
M  V30 9723 O 928.242 -3.26261 -2.34344 0
M  V30 9724 N 926.448 -2.67104 -1.14471 0
M  V30 9725 H 925.995 -2.56316 -0.256873 0
M  V30 9726 H 925.953 -2.44096 -1.98153 0
M  V30 9727 N 929.725 -0.817259 -1.34754 0
M  V30 9728 C 930.953 -0.415451 -2.02686 0
M  V30 9729 C 931.368 0.97688 -1.61563 0
M  V30 9730 O 930.725 1.63125 -0.818321 0
M  V30 9731 C 930.776 -0.501486 -3.58005 0
M  V30 9732 O 930.497 -1.83893 -3.97637 0
M  V30 9733 C 931.998 -0.0938504 -4.43201 0
M  V30 9734 H 929.218 -0.16742 -0.649778 0
M  V30 9735 H 931.762 -1.10384 -1.7215 0
M  V30 9736 H 929.917 0.138766 -3.87151 0
M  V30 9737 H 930.331 -1.8092 -4.92309 0
M  V30 9738 H 931.805 -0.205145 -5.51619 0
M  V30 9739 H 932.282 0.962011 -4.28535 0
M  V30 9740 H 932.888 -0.707677 -4.19371 0
M  V30 9741 N 931.203 1.46865 -0.571711 0
M  V30 9742 C 932.614 1.86158 -0.142181 0
M  V30 9743 C 932.965 1.47663 1.2919 0
M  V30 9744 O 932.09 0.886393 1.97413 0
M  V30 9745 C 932.685 3.37867 -0.251256 0
M  V30 9746 C 931.244 3.76198 0.123329 0
M  V30 9747 C 930.391 2.70902 -0.592232 0
M  V30 9748 H 933.342 1.38176 -0.780587 0
M  V30 9749 H 933.363 3.76842 0.526331 0
M  V30 9750 H 932.875 3.65853 -1.2951 0
M  V30 9751 H 930.976 3.53829 1.16773 0
M  V30 9752 H 931.089 4.78471 -0.24533 0
M  V30 9753 H 929.453 2.54678 -0.0336927 0
M  V30 9754 H 930.236 3.01729 -1.63751 0
M  V30 9755 N 932.681 0.308908 1.54543 0
M  V30 9756 C 933.911 -0.299983 2.04411 0
M  V30 9757 C 934.319 -1.47463 1.18538 0
M  V30 9758 O 933.662 -1.82547 0.205463 0
M  V30 9759 C 933.724 -0.811579 3.50219 0
M  V30 9760 C 933.388 0.238834 4.56375 0
M  V30 9761 C 934.385 1.06997 5.08771 0
M  V30 9762 C 932.07 0.382808 5.00839 0
M  V30 9763 C 934.064 2.03096 6.04178 0
M  V30 9764 C 931.751 1.34723 5.96065 0
M  V30 9765 C 932.749 2.16978 6.47618 0
M  V30 9766 O 932.437 3.11783 7.40977 0
M  V30 9767 H 932.169 -0.0679682 0.672574 0
M  V30 9768 H 934.723 0.448815 2.00437 0
M  V30 9769 H 932.953 -1.61104 3.51543 0
M  V30 9770 H 934.642 -1.33721 3.83241 0
M  V30 9771 H 935.408 0.969654 4.75208 0
M  V30 9772 H 931.287 -0.247507 4.60335 0
M  V30 9773 H 934.831 2.67338 6.44342 0
M  V30 9774 H 930.728 1.44824 6.29044 0
M  V30 9775 H 931.496 3.06853 7.58804 0
M  V30 9776 N 934.159 -1.57557 0.0367827 0
M  V30 9777 C 935.107 -2.11844 -0.960454 0
M  V30 9778 C 936.101 -1.04681 -1.33185 0
M  V30 9779 O 937.307 -1.23108 -1.31318 0
M  V30 9780 H 933.682 -0.676921 -0.32754 0
M  V30 9781 H 935.653 -2.94557 -0.477346 0
M  V30 9782 C 934.402 -2.66683 -2.23105 0
M  V30 9783 H 933.725 -3.48795 -1.95403 0
M  V30 9784 H 935.165 -3.08305 -2.91074 0
M  V30 9785 C 933.624 -1.59782 -2.96599 0
M  V30 9786 O 934.154 -1.00214 -3.88999 0
M  V30 9787 N 932.36 -1.31644 -2.59072 0
M  V30 9788 H 931.907 -1.80272 -1.8401 0
M  V30 9789 H 931.865 -0.603457 -3.08554 0
M  V30 9790 N 935.637 0.236453 -1.55816 0
M  V30 9791 C 936.585 1.31259 -1.92025 0
M  V30 9792 C 937.579 1.49292 -0.800518 0
M  V30 9793 O 938.785 1.50643 -0.985229 0
M  V30 9794 H 935.16 0.439751 -0.610019 0
M  V30 9795 H 937.131 0.979926 -2.81851 0
M  V30 9796 C 935.88 2.65892 -2.24046 0
M  V30 9797 H 935.203 2.5282 -3.09713 0
M  V30 9798 H 936.643 3.40039 -2.53277 0
M  V30 9799 C 935.102 3.19777 -1.0604 0
M  V30 9800 O 935.632 4.00473 -0.313786 0
M  V30 9801 N 933.838 2.77946 -0.848209 0
M  V30 9802 H 933.385 2.12433 -1.45706 0
M  V30 9803 H 933.343 3.14342 -0.0603424 0
M  V30 9804 N 937.115 1.49373 0.502552 0
M  V30 9805 C 938.362 1.58781 1.25678 0
M  V30 9806 C 938.69 0.273819 1.92563 0
M  V30 9807 O 937.945 -0.738141 1.81246 0
M  V30 9808 C 938.244 2.69508 2.34735 0
M  V30 9809 C 937.91 4.11057 1.85318 0
M  V30 9810 C 936.572 4.49578 1.7156 0
M  V30 9811 C 938.924 4.99653 1.48312 0
M  V30 9812 C 936.252 5.74469 1.19172 0
M  V30 9813 C 938.604 6.2506 0.97377 0
M  V30 9814 C 937.268 6.62412 0.822573 0
M  V30 9815 H 936.538 0.581021 0.459887 0
M  V30 9816 H 939.185 1.83197 0.557767 0
M  V30 9817 H 937.49 2.39057 3.10418 0
M  V30 9818 H 939.187 2.73997 2.92791 0
M  V30 9819 H 935.777 3.80651 1.96985 0
M  V30 9820 H 939.961 4.70549 1.57789 0
M  V30 9821 H 935.217 6.0211 1.06176 0
M  V30 9822 H 939.391 6.93089 0.678233 0
M  V30 9823 H 937.018 7.59069 0.414453 0
M  V30 9824 N 938.594 -0.753485 1.38421 0
M  V30 9825 C 939.527 -1.87525 1.30037 0
M  V30 9826 C 940.505 -1.6163 0.177379 0
M  V30 9827 O 941.689 -1.85132 0.354716 0
M  V30 9828 C 938.816 -3.23138 1.01485 0
M  V30 9829 C 937.862 -3.67921 2.15723 0
M  V30 9830 S 938.695 -3.79447 3.77863 0
M  V30 9831 C 939.851 -5.17879 3.51499 0
M  V30 9832 H 940.084 -1.94351 2.24978 0
M  V30 9833 H 937.617 -0.916475 1.24258 0
M  V30 9834 H 939.575 -4.01455 0.856959 0
M  V30 9835 H 938.236 -3.13991 0.0826199 0
M  V30 9836 H 937.429 -4.66287 1.91292 0
M  V30 9837 H 937.031 -2.96758 2.2762 0
M  V30 9838 H 939.323 -6.03636 3.0762 0
M  V30 9839 H 940.266 -5.47331 4.49259 0
M  V30 9840 H 940.674 -4.86681 2.8601 0
M  V30 9841 N 940.072 -1.23292 -0.981677 0
M  V30 9842 C 941.297 -1.09176 -1.76339 0
M  V30 9843 C 941.722 0.352726 -1.84763 0
M  V30 9844 O 941.08 1.25509 -1.30832 0
M  V30 9845 C 941.128 -1.72046 -3.16911 0
M  V30 9846 O 940.232 -0.98174 -4.00544 0
M  V30 9847 H 939.573 -0.382755 -0.542581 0
M  V30 9848 H 942.103 -1.63319 -1.23239 0
M  V30 9849 H 942.113 -1.77232 -3.67495 0
M  V30 9850 H 940.788 -2.77154 -3.10095 0
M  V30 9851 H 939.365 -1.00672 -3.59054 0
M  V30 9852 N 941.55 1.18024 -1.04442 0
M  V30 9853 C 942.78 1.91753 -0.769044 0
M  V30 9854 C 943.188 1.76629 0.678141 0
M  V30 9855 O 942.531 1.09589 1.47431 0
M  V30 9856 C 942.593 3.43505 -1.0604 0
M  V30 9857 C 942.257 3.82409 -2.50225 0
M  V30 9858 C 943.254 3.8588 -3.48414 0
M  V30 9859 C 940.939 4.13594 -2.85036 0
M  V30 9860 C 942.933 4.19993 -4.79463 0
M  V30 9861 C 940.62 4.47377 -4.1629 0
M  V30 9862 C 941.618 4.50553 -5.13314 0
M  V30 9863 O 941.306 4.83546 -6.42214 0
M  V30 9864 H 941.038 0.615466 -0.279603 0
M  V30 9865 H 943.592 1.5065 -1.3962 0
M  V30 9866 H 941.822 3.84866 -0.376125 0
M  V30 9867 H 943.511 3.98486 -0.772235 0
M  V30 9868 H 944.277 3.6192 -3.2286 0
M  V30 9869 H 940.156 4.10297 -2.10185 0
M  V30 9870 H 943.7 4.22387 -5.55189 0
M  V30 9871 H 939.597 4.70798 -4.4161 0
M  V30 9872 H 940.365 5.01433 -6.46921 0
M  V30 9873 N 943.028 0.824394 1.34319 0
M  V30 9874 C 943.991 0.252696 2.27803 0
M  V30 9875 C 944.991 -0.570254 1.50349 0
M  V30 9876 O 946.181 -0.386145 1.69866 0
M  V30 9877 C 943.313 -0.645575 3.34731 0
M  V30 9878 H 944.506 1.07742 2.79878 0
M  V30 9879 H 942.059 0.596367 1.44475 0
M  V30 9880 H 942.794 -1.4933 2.87873 0
M  V30 9881 H 942.579 -0.0569478 3.92059 0
M  V30 9882 H 944.069 -1.03933 4.0446 0
M  V30 9883 N 944.506 -1.46559 0.579492 0
M  V30 9884 C 945.783 -1.956 -0.00287136 0
M  V30 9885 C 946.163 -1.52215 -1.46266 0
M  V30 9886 O 945.511 -0.771335 -2.15088 0
M  V30 9887 C 945.721 -3.48606 0.165824 0
M  V30 9888 C 947.069 -4.24588 0.0319807 0
M  V30 9889 O 948.093 -3.56075 0.094496 0
M  V30 9890 O 946.952 -5.46396 -0.106386 0
M  V30 9891 H 944.046 -0.825387 -0.0516274 0
M  V30 9892 H 946.592 -1.56858 0.647584 0
M  V30 9893 H 945.364 -3.7306 1.18076 0
M  V30 9894 H 944.987 -3.94169 -0.521212 0
M  V30 9895 N 945.984 -0.3171 -1.54377 0
M  V30 9896 C 947.261 0.341348 -1.92598 0
M  V30 9897 C 947.641 1.70402 -1.24605 0
M  V30 9898 O 946.989 2.25191 -0.387448 0
M  V30 9899 C 947.199 0.440003 -3.46215 0
M  V30 9900 C 948.547 0.703327 -4.18734 0
M  V30 9901 O 949.571 0.523181 -3.52337 0
M  V30 9902 O 948.43 1.05042 -5.3631 0
M  V30 9903 H 945.524 0.193696 -0.803997 0
M  V30 9904 H 948.07 -0.366341 -1.65699 0
M  V30 9905 H 946.842 -0.517299 -3.87866 0
M  V30 9906 H 946.465 1.19553 -3.792 0
M  V30 9907 N 947.462 1.57535 -0.0451378 0
M  V30 9908 C 948.739 1.83785 0.669523 0
M  V30 9909 C 949.119 0.932331 1.89396 0
M  V30 9910 O 948.467 -0.00813229 2.28499 0
M  V30 9911 C 948.677 3.33376 1.03255 0
M  V30 9912 C 950.025 4.00243 1.41741 0
M  V30 9913 O 951.049 3.37965 1.12507 0
M  V30 9914 O 949.908 5.10038 1.96275 0
M  V30 9915 H 947.002 0.758342 0.329919 0
M  V30 9916 H 949.548 1.69538 -0.0740415 0
M  V30 9917 H 948.32 3.90965 0.161777 0
M  V30 9918 H 947.943 3.52787 1.83376 0
M  V30 9919 N 948.94 -0.228186 1.55939 0
M  V30 9920 C 950.18 -0.960695 1.80416 0
M  V30 9921 C 950.544 -1.81795 0.617615 0
M  V30 9922 O 951.745 -2.58369 0.741545 0
M  V30 9923 C 950.016 -1.78298 3.09749 0
M  V30 9924 S 951.575 -2.57203 3.55517 0
M  V30 9925 H 948.393 -0.322825 0.633486 0
M  V30 9926 H 950.995 -0.226852 1.94179 0
M  V30 9927 H 949.699 -1.14323 3.94155 0
M  V30 9928 H 949.23 -2.55924 2.98775 0
M  V30 9929 H 951.245 -3.80632 3.1833 0
M  V30 9930 N 950.418 -1.49637 -0.494624 0
M  V30 9931 C 951.646 -1.63164 -1.2722 0
M  V30 9932 C 952.061 -0.305552 -1.86311 0
M  V30 9933 O 951.418 0.709758 -1.68133 0
M  V30 9934 C 951.469 -2.70524 -2.39789 0
M  V30 9935 O 951.19 -3.97991 -1.83126 0
M  V30 9936 C 952.691 -2.94814 -3.31058 0
M  V30 9937 H 949.911 -0.54912 -0.385627 0
M  V30 9938 H 952.455 -1.95711 -0.593081 0
M  V30 9939 H 950.61 -2.40738 -3.03519 0
M  V30 9940 H 951.024 -4.57179 -2.57075 0
M  V30 9941 H 952.498 -3.73653 -4.06309 0
M  V30 9942 H 952.975 -2.04974 -3.88436 0
M  V30 9943 H 953.581 -3.26042 -2.73088 0
M  V30 9944 N 951.896 0.746133 -1.38819 0
M  V30 9945 C 953.173 1.49652 -1.25951 0
M  V30 9946 C 953.553 2.10663 0.135833 0
M  V30 9947 O 952.901 1.97682 1.14604 0
M  V30 9948 C 953.111 2.5569 -2.37537 0
M  V30 9949 C 954.459 3.22385 -2.76321 0
M  V30 9950 O 955.483 2.65998 -2.36904 0
M  V30 9951 O 954.342 4.2439 -3.44319 0
M  V30 9952 H 951.436 0.664019 -0.492958 0
M  V30 9953 H 953.982 0.780908 -1.50665 0
M  V30 9954 H 952.754 2.08908 -3.30867 0
M  V30 9955 H 952.377 3.34823 -2.14427 0
M  V30 9956 N 953.375 1.23811 0.975125 0
M  V30 9957 C 954.6 1.10109 1.75757 0
M  V30 9958 C 955.025 -0.342922 1.84948 0
M  V30 9959 O 954.383 -1.24814 1.31496 0
M  V30 9960 C 954.431 1.73724 3.15994 0
M  V30 9961 O 953.535 1.00297 4.00018 0
M  V30 9962 H 952.876 0.385627 0.540544 0
M  V30 9963 H 955.406 1.63971 1.22372 0
M  V30 9964 H 955.416 1.79178 3.6655 0
M  V30 9965 H 954.091 2.78794 3.0862 0
M  V30 9966 H 952.668 1.02575 3.58515 0
M  V30 9967 N 954.853 -1.17469 1.05066 0
M  V30 9968 C 956.1 -1.87698 0.759987 0
M  V30 9969 C 956.428 -1.80964 -0.712902 0
M  V30 9970 O 955.683 -1.21146 -1.53695 0
M  V30 9971 C 955.982 -3.37211 1.18421 0
M  V30 9972 C 955.648 -3.64148 2.65909 0
M  V30 9973 C 954.31 -3.71209 3.06199 0
M  V30 9974 C 956.662 -3.75724 3.61222 0
M  V30 9975 C 953.99 -3.87334 4.40669 0
M  V30 9976 C 956.342 -3.93368 4.95424 0
M  V30 9977 C 955.006 -3.98667 5.3537 0
M  V30 9978 H 954.276 -0.686835 0.278099 0
M  V30 9979 H 956.923 -1.38975 1.31751 0
M  V30 9980 H 955.228 -3.87982 0.545654 0
M  V30 9981 H 956.925 -3.89911 0.936518 0
M  V30 9982 H 953.515 -3.59276 2.33707 0
M  V30 9983 H 957.699 -3.69591 3.31235 0
M  V30 9984 H 952.955 -3.89685 4.71122 0
M  V30 9985 H 957.129 -4.01267 5.69173 0
M  V30 9986 H 954.756 -4.10915 6.39572 0
M  V30 9987 N 956.331 -0.831506 -1.3388 0
M  V30 9988 C 957.559 -0.436925 -2.02234 0
M  V30 9989 C 957.974 0.959689 -1.6259 0
M  V30 9990 O 957.331 1.62248 -0.835576 0
M  V30 9991 C 957.382 -0.539429 -3.57453 0
M  V30 9992 O 957.103 -1.88101 -3.95664 0
M  V30 9993 C 958.604 -0.140852 -4.43076 0
M  V30 9994 H 955.824 -0.174302 -0.647966 0
M  V30 9995 H 958.368 -1.12204 -1.70969 0
M  V30 9996 H 956.523 0.0976959 -3.87277 0
M  V30 9997 H 956.937 -1.86131 -4.90363 0
M  V30 9998 H 958.411 -0.26364 -5.5137 0
M  V30 9999 H 958.888 0.916505 -4.29531 0
M  V30 10000 H 959.494 -0.752117 -4.18597 0
M  V30 10001 N 957.809 1.4625 -0.587256 0
M  V30 10002 C 959.22 1.85997 -0.161918 0
M  V30 10003 C 959.571 1.49025 1.27616 0
M  V30 10004 O 958.696 0.907282 1.96462 0
M  V30 10005 C 959.291 3.37582 -0.287077 0
M  V30 10006 C 957.85 3.76308 0.0834211 0
M  V30 10007 C 956.997 2.70259 -0.620932 0
M  V30 10008 H 959.948 1.3734 -0.795199 0
M  V30 10009 H 959.969 3.77379 0.486333 0
M  V30 10010 H 959.481 3.64459 -1.33383 0
M  V30 10011 H 957.582 3.55047 1.13013 0
M  V30 10012 H 957.695 4.78184 -0.296064 0
M  V30 10013 H 956.059 2.54628 -0.0607027 0
M  V30 10014 H 956.842 2.99975 -1.66942 0
M  V30 10015 N 959.287 0.325282 1.54207 0
M  V30 10016 C 960.235 -0.5554 2.25872 0
M  V30 10017 C 961.229 -1.11714 1.27344 0
M  V30 10018 O 962.435 -1.06498 1.45115 0
M  V30 10019 H 958.81 -0.19776 0.725531 0
M  V30 10020 H 960.781 0.0712858 2.98315 0
M  V30 10021 C 959.53 -1.70379 3.03095 0
M  V30 10022 H 958.853 -1.2808 3.78729 0
M  V30 10023 H 960.293 -2.29556 3.56483 0
M  V30 10024 C 958.752 -2.62242 2.11496 0
M  V30 10025 O 959.282 -3.64003 1.69895 0
M  V30 10026 N 957.488 -2.30515 1.7695 0
M  V30 10027 H 957.035 -1.47805 2.10978 0
M  V30 10028 H 956.993 -2.92241 1.15942 0
M  V30 10029 N 960.765 -1.57509 0.0534917 0
M  V30 10030 C 961.697 -2.08616 -0.949322 0
M  V30 10031 C 962.71 -1.01446 -1.27328 0
M  V30 10032 O 963.899 -1.29007 -1.23367 0
M  V30 10033 C 960.999 -2.51622 -2.27024 0
M  V30 10034 C 960.172 -3.82154 -2.12785 0
M  V30 10035 C 959.231 -4.11448 -3.2802 0
M  V30 10036 O 958.257 -4.81333 -3.03822 0
M  V30 10037 N 959.459 -3.63543 -4.52567 0
M  V30 10038 H 962.224 -2.95275 -0.5131 0
M  V30 10039 H 959.785 -1.61355 -0.132693 0
M  V30 10040 H 961.777 -2.68293 -3.02986 0
M  V30 10041 H 960.347 -1.70198 -2.62205 0
M  V30 10042 H 959.567 -3.75041 -1.21399 0
M  V30 10043 H 960.855 -4.67629 -2.00501 0
M  V30 10044 H 960.253 -3.07051 -4.75117 0
M  V30 10045 H 958.81 -3.85448 -5.25617 0
M  V30 10046 N 962.243 0.219913 -1.56058 0
M  V30 10047 C 963.489 0.945463 -1.79412 0
M  V30 10048 C 963.822 1.83922 -0.62341 0
M  V30 10049 O 963.097 1.90806 0.377256 0
M  V30 10050 C 963.38 1.783 -3.1286 0
M  V30 10051 C 963.233 0.915626 -4.40382 0
M  V30 10052 C 964.552 2.76045 -3.42764 0
M  V30 10053 H 961.671 0.342288 -0.652693 0
M  V30 10054 H 964.313 0.214235 -1.88788 0
M  V30 10055 H 962.463 2.40642 -3.04998 0
M  V30 10056 H 964.135 0.30882 -4.60265 0
M  V30 10057 H 962.378 0.221124 -4.33236 0
M  V30 10058 H 963.049 1.53607 -5.30197 0
M  V30 10059 H 965.525 2.23838 -3.50764 0
M  V30 10060 H 964.401 3.31748 -4.37304 0
M  V30 10061 H 964.662 3.53866 -2.65012 0
M  V30 10062 N 963.721 1.49897 0.486681 0
M  V30 10063 C 964.684 1.67086 1.56891 0
M  V30 10064 C 965.684 0.54209 1.51387 0
M  V30 10065 O 966.874 0.80883 1.54284 0
M  V30 10066 C 964.006 1.68159 2.96539 0
M  V30 10067 H 965.199 2.63626 1.42974 0
M  V30 10068 H 962.752 1.39143 0.711954 0
M  V30 10069 H 963.487 0.732562 3.15918 0
M  V30 10070 H 963.272 2.50147 3.01942 0
M  V30 10071 H 964.762 1.83466 3.7514 0
M  V30 10072 N 965.199 -0.738761 1.39212 0
M  V30 10073 C 966.615 -1.04381 1.20734 0
M  V30 10074 C 966.815 -2.01391 0.0663082 0
M  V30 10075 O 965.871 -2.45672 -0.583229 0
M  V30 10076 C 967.184 -1.6097 2.53987 0
M  V30 10077 C 968.732 -1.73069 2.60799 0
M  V30 10078 C 969.207 -2.33067 3.94264 0
M  V30 10079 N 970.698 -2.40481 3.95883 0
M  V30 10080 C 971.433 -2.87834 4.95923 0
M  V30 10081 N 970.929 -3.35111 6.0636 0
M  V30 10082 N 972.722 -2.87009 4.83304 0
M  V30 10083 H 964.873 -0.0952996 2.12186 0
M  V30 10084 H 967.136 -0.104902 0.942178 0
M  V30 10085 H 966.842 -0.971548 3.38015 0
M  V30 10086 H 966.716 -2.59829 2.73439 0
M  V30 10087 H 969.103 -2.36007 1.77157 0
M  V30 10088 H 969.184 -0.728728 2.452 0
M  V30 10089 H 968.828 -1.70758 4.78335 0
M  V30 10090 H 968.758 -3.33933 4.07181 0
M  V30 10091 H 971.249 -2.07061 3.16123 0
M  V30 10092 H 971.562 -3.69742 6.78609 0
M  V30 10093 H 969.907 -3.33129 6.09959 0
M  V30 10094 H 973.098 -2.49395 3.96131 0
M  V30 10095 H 973.271 -3.23598 5.61416 0
M  V30 10096 N 966.677 -1.24326 -0.968545 0
M  V30 10097 C 967.61 -0.978121 -2.06175 0
M  V30 10098 C 968.588 0.0878107 -1.62363 0
M  V30 10099 O 969.772 -0.0489472 -1.88436 0
M  V30 10100 C 966.899 -0.475884 -3.3534 0
M  V30 10101 C 965.945 -1.53023 -3.98103 0
M  V30 10102 S 966.778 -3.11131 -4.35841 0
M  V30 10103 C 967.934 -2.62608 -5.68144 0
M  V30 10104 H 968.167 -1.9038 -2.28348 0
M  V30 10105 H 965.7 -1.07701 -1.10633 0
M  V30 10106 H 967.658 -0.192739 -4.10047 0
M  V30 10107 H 966.319 0.429067 -3.11156 0
M  V30 10108 H 965.512 -1.12922 -4.91187 0
M  V30 10109 H 965.114 -1.76334 -3.29822 0
M  V30 10110 H 967.406 -2.05367 -6.45624 0
M  V30 10111 H 968.349 -3.54277 -6.13101 0
M  V30 10112 H 968.757 -2.03063 -5.26712 0
M  V30 10113 N 968.156 1.1691 -1.05688 0
M  V30 10114 C 969.106 2.19056 -0.632339 0
M  V30 10115 C 970.09 1.574 0.333797 0
M  V30 10116 O 971.282 1.76361 0.150223 0
M  V30 10117 C 968.411 3.43297 -0.0138209 0
M  V30 10118 C 967.497 4.12042 -1.00408 0
M  V30 10119 N 967.888 4.56535 -2.17737 0
M  V30 10120 C 966.186 4.38139 -0.833663 0
M  V30 10121 C 966.887 5.09644 -2.80425 0
M  V30 10122 N 965.863 5.02153 -2.08191 0
M  V30 10123 H 969.665 2.51165 -1.52621 0
M  V30 10124 H 967.179 1.33294 -0.927707 0
M  V30 10125 H 969.176 4.1576 0.308117 0
M  V30 10126 H 967.836 3.12677 0.87538 0
M  V30 10127 H 968.847 4.50463 -2.55546 0
M  V30 10128 H 965.524 4.175 0.00406684 0
M  V30 10129 H 966.914 5.54153 -3.79952 0
M  V30 10130 N 969.634 0.838594 1.33437 0
M  V30 10131 C 970.874 0.440239 1.99603 0
M  V30 10132 C 971.238 -0.982061 1.64984 0
M  V30 10133 O 972.439 -1.48413 2.24114 0
M  V30 10134 C 970.71 0.654201 3.51362 0
M  V30 10135 S 972.269 0.351025 4.37394 0
M  V30 10136 H 969.087 0.165608 0.691444 0
M  V30 10137 H 971.689 1.08782 1.6244 0
M  V30 10138 H 970.393 1.68873 3.74045 0
M  V30 10139 H 969.924 -0.00754449 3.93399 0
M  V30 10140 H 971.939 -0.829298 4.89221 0
M  V30 10141 N 971.112 -1.45937 0.595003 0
M  V30 10142 C 972.342 -2.06399 0.0911607 0
M  V30 10143 C 972.75 -1.44236 -1.22444 0
M  V30 10144 O 972.093 -0.546265 -1.7539 0
M  V30 10145 C 972.155 -3.59242 -0.136079 0
M  V30 10146 C 971.819 -4.43668 1.09579 0
M  V30 10147 C 972.816 -4.79437 2.01088 0
M  V30 10148 C 970.501 -4.84616 1.32109 0
M  V30 10149 C 972.495 -5.54995 3.13464 0
M  V30 10150 C 970.182 -5.5993 2.44788 0
M  V30 10151 C 971.18 -5.95035 3.35294 0
M  V30 10152 O 970.868 -6.68825 4.46014 0
M  V30 10153 H 970.6 -0.673316 0.0601779 0
M  V30 10154 H 973.154 -1.88365 0.819005 0
M  V30 10155 H 971.384 -3.75629 -0.918676 0
M  V30 10156 H 973.073 -4.0159 -0.589954 0
M  V30 10157 H 973.839 -4.48371 1.84902 0
M  V30 10158 H 969.718 -4.56735 0.625662 0
M  V30 10159 H 973.262 -5.82314 3.84131 0
M  V30 10160 H 969.159 -5.90411 2.60931 0
M  V30 10161 H 969.927 -6.87262 4.44537 0
M  V30 10162 N 972.59 -0.333456 -1.54032 0
M  V30 10163 C 973.52 0.52051 -2.27625 0
M  V30 10164 C 974.501 1.1111 -1.28797 0
M  V30 10165 O 975.686 1.13438 -1.57625 0
M  V30 10166 C 972.816 1.67663 -3.04149 0
M  V30 10167 C 971.77 1.21487 -4.10396 0
M  V30 10168 C 971.096 2.45872 -4.74817 0
M  V30 10169 C 972.396 0.322603 -5.21303 0
M  V30 10170 H 974.09 -0.0933823 -2.99254 0
M  V30 10171 H 971.636 -0.0463526 -1.43925 0
M  V30 10172 H 973.589 2.28041 -3.54366 0
M  V30 10173 H 972.313 2.31727 -2.30153 0
M  V30 10174 H 970.972 0.633966 -3.61077 0
M  V30 10175 H 970.62 3.0832 -3.97426 0
M  V30 10176 H 970.32 2.15662 -5.46593 0
M  V30 10177 H 971.844 3.06994 -5.27814 0
M  V30 10178 H 973.258 0.832942 -5.67217 0
M  V30 10179 H 971.655 0.112843 -5.99994 0
M  V30 10180 H 972.725 -0.643954 -4.80605 0
M  V30 10181 N 974.068 1.57479 -0.061844 0
M  V30 10182 C 975.345 1.84484 0.649993 0
M  V30 10183 C 975.725 0.952366 1.88396 0
M  V30 10184 O 975.073 0.0161035 2.28494 0
M  V30 10185 C 975.283 3.34452 0.997133 0
M  V30 10186 C 976.631 4.01724 1.37488 0
M  V30 10187 O 977.655 3.3914 1.08916 0
M  V30 10188 O 976.514 5.12091 1.90854 0
M  V30 10189 H 973.608 0.761798 0.321858 0
M  V30 10190 H 976.154 1.6945 -0.0920192 0
M  V30 10191 H 974.926 3.91115 0.120301 0
M  V30 10192 H 974.549 3.54713 1.79624 0
M  V30 10193 N 975.546 -0.211634 1.56173 0
M  V30 10194 C 976.476 -1.26533 1.96244 0
M  V30 10195 C 977.457 -1.48362 0.832028 0
M  V30 10196 O 978.642 -1.60378 1.0951 0
M  V30 10197 C 975.772 -2.61307 2.2877 0
M  V30 10198 C 974.726 -2.54119 3.44395 0
M  V30 10199 C 974.052 -3.93014 3.62552 0
M  V30 10200 C 975.352 -2.08046 4.79076 0
M  V30 10201 H 977.046 -0.932407 2.84511 0
M  V30 10202 H 974.592 -0.447084 1.36884 0
M  V30 10203 H 976.545 -3.35188 2.55396 0
M  V30 10204 H 975.269 -2.96307 1.37367 0
M  V30 10205 H 973.928 -1.82694 3.17834 0
M  V30 10206 H 973.576 -4.25338 2.68508 0
M  V30 10207 H 973.276 -3.89083 4.40327 0
M  V30 10208 H 974.8 -4.68542 3.91537 0
M  V30 10209 H 976.214 -2.71676 5.04842 0
M  V30 10210 H 974.611 -2.15154 5.60204 0
M  V30 10211 H 975.681 -1.03306 4.73768 0
M  V30 10212 N 977.024 -1.50153 -0.478725 0
M  V30 10213 C 978.27 -1.60998 -1.23318 0
M  V30 10214 C 978.603 -0.305868 -1.91776 0
M  V30 10215 O 977.878 0.692158 -1.81767 0
M  V30 10216 C 978.161 -2.78495 -2.28282 0
M  V30 10217 C 978.014 -4.18767 -1.64178 0
M  V30 10218 C 979.333 -2.91569 -3.2966 0
M  V30 10219 H 976.452 -0.585983 -0.446982 0
M  V30 10220 H 979.094 -1.82514 -0.528063 0
M  V30 10221 H 977.244 -2.60281 -2.8842 0
M  V30 10222 H 978.916 -4.48552 -1.07696 0
M  V30 10223 H 977.159 -4.23379 -0.94514 0
M  V30 10224 H 977.83 -4.96894 -2.40417 0
M  V30 10225 H 980.306 -3.08219 -2.79536 0
M  V30 10226 H 979.182 -3.75419 -4.0044 0
M  V30 10227 H 979.443 -2.01859 -3.93326 0
M  V30 10228 N 978.502 0.731368 -1.39602 0
M  V30 10229 C 979.732 1.51839 -1.40102 0
M  V30 10230 C 980.14 1.89199 0.00526634 0
M  V30 10231 O 979.483 1.54877 0.987874 0
M  V30 10232 C 979.545 2.83292 -2.21328 0
M  V30 10233 C 979.209 2.68345 -3.69919 0
M  V30 10234 C 980.206 2.36651 -4.62917 0
M  V30 10235 C 977.891 2.85102 -4.13548 0
M  V30 10236 C 979.885 2.21901 -5.97527 0
M  V30 10237 C 977.572 2.69971 -5.48233 0
M  V30 10238 C 978.57 2.38416 -6.40037 0
M  V30 10239 O 978.258 2.23383 -7.72241 0
M  V30 10240 H 977.99 0.475695 -0.480302 0
M  V30 10241 H 980.544 0.911096 -1.84087 0
M  V30 10242 H 978.774 3.46294 -1.72096 0
M  V30 10243 H 980.463 3.44928 -2.13961 0
M  V30 10244 H 981.229 2.23352 -4.3051 0
M  V30 10245 H 977.108 3.08655 -3.42423 0
M  V30 10246 H 980.652 1.97193 -6.69149 0
M  V30 10247 H 976.549 2.82849 -5.8023 0
M  V30 10248 H 977.317 2.38425 -7.83004 0
M  V30 10249 N 979.98 1.24838 0.961938 0
M  V30 10250 C 980.912 1.00369 2.06055 0
M  V30 10251 C 981.925 -0.0288583 1.62774 0
M  V30 10252 O 983.114 0.208853 1.77274 0
M  V30 10253 C 980.214 0.493953 3.35281 0
M  V30 10254 C 979.387 1.59097 4.07439 0
M  V30 10255 C 978.446 1.08288 5.14937 0
M  V30 10256 O 977.472 1.77577 5.40791 0
M  V30 10257 N 978.674 -0.0796836 5.80445 0
M  V30 10258 H 981.439 1.94962 2.27618 0
M  V30 10259 H 979 1.15945 1.12997 0
M  V30 10260 H 980.992 0.138675 4.04462 0
M  V30 10261 H 979.562 -0.357851 3.10545 0
M  V30 10262 H 978.782 2.11817 3.32456 0
M  V30 10263 H 980.07 2.32817 4.52409 0
M  V30 10264 H 979.468 -0.658827 5.6185 0
M  V30 10265 H 978.025 -0.376057 6.50714 0
M  V30 10266 N 981.458 -1.16348 1.06306 0
M  V30 10267 C 982.706 -1.86512 0.778311 0
M  V30 10268 C 983.027 -1.82107 -0.697273 0
M  V30 10269 O 982.297 -1.2547 -1.50446 0
M  V30 10270 H 980.877 -0.690529 0.284919 0
M  V30 10271 H 983.539 -1.41092 1.34458 0
M  V30 10272 H 982.635 -2.91947 1.10333 0
M  V30 10273 N 982.937 -0.845659 -1.3299 0
M  V30 10274 C 984.183 -0.454563 -1.98256 0
M  V30 10275 C 984.538 0.976983 -1.65749 0
M  V30 10276 O 983.831 1.67481 -0.930631 0
M  V30 10277 C 984.025 -0.6201 -3.51979 0
M  V30 10278 C 983.854 -2.06619 -3.99423 0
M  V30 10279 C 982.624 -2.70283 -4.26937 0
M  V30 10280 C 984.822 -3.03573 -4.15148 0
M  V30 10281 N 982.804 -4.05896 -4.60567 0
M  V30 10282 C 984.175 -4.24149 -4.52214 0
M  V30 10283 C 986.23 -2.99888 -3.97457 0
M  V30 10284 C 984.933 -5.41527 -4.73435 0
M  V30 10285 C 986.959 -4.16502 -4.19858 0
M  V30 10286 C 986.321 -5.35835 -4.57231 0
M  V30 10287 H 982.42 -0.214896 -0.751893 0
M  V30 10288 H 985.004 -1.09515 -1.6098 0
M  V30 10289 H 983.175 -0.00926528 -3.88399 0
M  V30 10290 H 984.907 -0.199782 -4.04207 0
M  V30 10291 H 981.662 -2.21377 -4.18676 0
M  V30 10292 H 982.086 -4.75824 -4.81581 0
M  V30 10293 H 986.728 -2.08753 -3.67671 0
M  V30 10294 H 984.446 -6.332 -5.02079 0
M  V30 10295 H 988.032 -4.15075 -4.07681 0
M  V30 10296 H 986.912 -6.24568 -4.74219 0
M  V30 10297 N 984.415 1.45619 -0.602734 0
M  V30 10298 C 985.347 2.28662 0.157012 0
M  V30 10299 C 986.36 1.39672 0.836396 0
M  V30 10300 O 987.549 1.64091 0.702599 0
M  V30 10301 C 984.649 3.1528 1.24306 0
M  V30 10302 C 983.822 4.32517 0.651731 0
M  V30 10303 C 982.881 5.00381 1.62804 0
M  V30 10304 O 981.907 5.57333 1.15624 0
M  V30 10305 N 983.109 4.99221 2.96241 0
M  V30 10306 H 985.874 2.94506 -0.555535 0
M  V30 10307 H 983.435 1.55753 -0.441881 0
M  V30 10308 H 985.427 3.57544 1.8959 0
M  V30 10309 H 983.997 2.51376 1.85819 0
M  V30 10310 H 983.217 3.93793 -0.17907 0
M  V30 10311 H 984.505 5.08249 0.236802 0
M  V30 10312 H 983.903 4.54232 3.37179 0
M  V30 10313 H 982.46 5.45364 3.56961 0
M  V30 10314 N 985.893 0.34162 1.53853 0
M  V30 10315 C 987.304 -0.14269 1.86154 0
M  V30 10316 C 987.655 -1.50151 1.2629 0
M  V30 10317 O 986.78 -2.08601 0.575735 0
M  V30 10318 C 987.375 -0.265691 3.37757 0
M  V30 10319 C 985.934 -0.694231 3.69942 0
M  V30 10320 C 985.081 0.173195 2.76759 0
M  V30 10321 H 988.032 0.561284 1.48443 0
M  V30 10322 H 988.053 -1.09352 3.64448 0
M  V30 10323 H 987.565 0.723424 3.81298 0
M  V30 10324 H 985.666 -1.69244 3.31945 0
M  V30 10325 H 985.779 -0.485461 4.76634 0
M  V30 10326 H 984.143 -0.35416 2.52226 0
M  V30 10327 H 984.926 1.15941 3.23129 0
M  V30 10328 N 987.371 -1.57444 0.0701946 0
M  V30 10329 C 988.596 -1.98171 -0.61181 0
M  V30 10330 C 989.021 -0.94823 -1.62451 0
M  V30 10331 O 988.379 0.0863553 -1.81094 0
M  V30 10332 C 988.427 -3.37934 -1.2583 0
M  V30 10333 O 987.531 -3.37207 -2.37414 0
M  V30 10334 H 986.872 -0.645056 -0.157477 0
M  V30 10335 H 989.402 -2.04091 0.144235 0
M  V30 10336 H 989.412 -3.75083 -1.60552 0
M  V30 10337 H 988.087 -4.12684 -0.516234 0
M  V30 10338 H 986.664 -3.11826 -2.04497 0
M  V30 10339 N 988.849 0.203349 -1.56283 0
M  V30 10340 C 990.265 0.55384 -1.49682 0
M  V30 10341 C 990.465 1.86261 -0.768701 0
M  V30 10342 O 989.521 2.50517 -0.315824 0
M  V30 10343 C 990.834 0.616216 -2.94318 0
M  V30 10344 C 992.382 0.705611 -3.04943 0
M  V30 10345 C 992.857 0.79917 -4.50974 0
M  V30 10346 N 994.348 0.862916 -4.55091 0
M  V30 10347 C 995.083 0.955334 -5.65386 0
M  V30 10348 N 994.579 1.01057 -6.8539 0
M  V30 10349 N 996.372 0.991884 -5.53279 0
M  V30 10350 H 988.523 -0.655244 -2.0204 0
M  V30 10351 H 990.786 -0.232344 -0.919087 0
M  V30 10352 H 990.492 -0.27619 -3.50614 0
M  V30 10353 H 990.366 1.47371 -3.4722 0
M  V30 10354 H 992.753 1.58845 -2.48701 0
M  V30 10355 H 992.834 -0.177921 -2.5518 0
M  V30 10356 H 992.478 -0.0792841 -5.07838 0
M  V30 10357 H 992.408 1.69838 -4.9846 0
M  V30 10358 H 994.899 0.829812 -3.68677 0
M  V30 10359 H 995.212 1.08137 -7.65197 0
M  V30 10360 H 993.557 0.979384 -6.88065 0
M  V30 10361 H 996.748 0.945514 -4.58451 0
M  V30 10362 H 996.921 1.06045 -6.39264 0
M  V30 10363 N 990.327 1.50405 0.470755 0
M  V30 10364 C 991.274 1.69293 1.56871 0
M  V30 10365 C 992.244 0.534248 1.57274 0
M  V30 10366 O 993.429 0.764855 1.74799 0
M  V30 10367 C 990.569 1.79338 2.94842 0
M  V30 10368 C 989.682 3.06709 3.04226 0
M  V30 10369 C 988.817 3.07548 4.33114 0
M  V30 10370 C 987.856 4.29372 4.36241 0
M  V30 10371 N 986.993 4.27949 5.56601 0
M  V30 10372 H 991.833 2.63029 1.40071 0
M  V30 10373 H 989.37 1.30386 0.681016 0
M  V30 10374 H 991.328 1.83143 3.74853 0
M  V30 10375 H 989.958 0.890411 3.10277 0
M  V30 10376 H 989.01 3.12374 2.17086 0
M  V30 10377 H 990.322 3.96684 3.02396 0
M  V30 10378 H 989.476 3.10084 5.21472 0
M  V30 10379 H 988.215 2.15404 4.37553 0
M  V30 10380 H 987.22 4.27048 3.4628 0
M  V30 10381 H 988.445 5.22743 4.33493 0
M  V30 10382 H 986.391 3.38658 5.61824 0
M  V30 10383 H 986.308 5.11692 5.56513 0
M  V30 10384 H 987.576 4.34631 6.47083 0
M  V30 10385 N 991.805 -0.723954 1.39988 0
M  V30 10386 C 993.216 -1.30273 1.33738 0
M  V30 10387 C 993.567 -1.96199 0.00690581 0
M  V30 10388 O 992.692 -1.97016 -0.895179 0
M  V30 10389 C 993.287 -2.36889 2.42217 0
M  V30 10390 C 991.846 -2.90412 2.39453 0
M  V30 10391 C 990.993 -1.64103 2.2353 0
M  V30 10392 H 993.944 -0.520672 1.49916 0
M  V30 10393 H 993.965 -3.17538 2.09642 0
M  V30 10394 H 993.477 -1.88878 3.39038 0
M  V30 10395 H 991.578 -3.42674 1.46304 0
M  V30 10396 H 991.691 -3.42775 3.34727 0
M  V30 10397 H 990.055 -1.88855 1.70897 0
M  V30 10398 H 990.838 -1.18128 3.22336 0
M  V30 10399 N 993.283 -1.25346 -0.955304 0
M  V30 10400 C 994.246 -1.05754 -2.03344 0
M  V30 10401 C 995.246 -0.0105743 -1.60797 0
M  V30 10402 O 996.436 -0.252699 -1.72357 0
M  V30 10403 C 993.568 -0.605536 -3.35479 0
M  V30 10404 H 994.761 -2.01459 -2.22158 0
M  V30 10405 H 992.314 -1.07744 -1.1323 0
M  V30 10406 H 993.049 0.354154 -3.2236 0
M  V30 10407 H 992.834 -1.36134 -3.67709 0
M  V30 10408 H 994.324 -0.489867 -4.14717 0
M  V30 10409 N 994.761 1.15782 -1.06922 0
M  V30 10410 C 996.172 1.68062 -0.813144 0
M  V30 10411 C 996.523 1.84681 0.662374 0
M  V30 10412 O 995.648 1.54696 1.51321 0
M  V30 10413 C 996.243 3.05273 -1.46949 0
M  V30 10414 C 994.802 3.54647 -1.26104 0
M  V30 10415 C 993.949 2.30477 -1.54194 0
M  V30 10416 H 996.9 1.00056 -1.23185 0
M  V30 10417 H 996.921 3.69986 -0.888308 0
M  V30 10418 H 996.433 2.93145 -2.54337 0
M  V30 10419 H 994.534 3.72024 -0.20718 0
M  V30 10420 H 994.647 4.36354 -1.97819 0
M  V30 10421 H 993.011 2.35803 -0.96276 0
M  V30 10422 H 993.794 2.2094 -2.62755 0
M  V30 10423 N 996.239 0.8527 1.3254 0
M  V30 10424 C 997.485 0.455798 1.97612 0
M  V30 10425 C 997.818 -0.985616 1.6733 0
M  V30 10426 O 997.093 -1.69129 0.960493 0
M  V30 10427 C 997.376 0.69312 3.53366 0
M  V30 10428 C 997.229 2.18281 3.93285 0
M  V30 10429 C 998.548 0.148236 4.3985 0
M  V30 10430 H 995.667 0.167078 0.717812 0
M  V30 10431 H 998.309 1.07076 1.56954 0
M  V30 10432 H 996.459 0.169677 3.88129 0
M  V30 10433 H 998.131 2.77218 3.68711 0
M  V30 10434 H 996.374 2.66206 3.42515 0
M  V30 10435 H 997.045 2.29957 5.01821 0
M  V30 10436 H 999.521 0.595834 4.11812 0
M  V30 10437 H 998.397 0.343873 5.47822 0
M  V30 10438 H 998.658 -0.948872 4.31797 0
M  V30 10439 N 997.718 -1.45297 0.610449 0
M  V30 10440 C 998.681 -2.28995 -0.0968194 0
M  V30 10441 C 999.681 -1.39923 -0.792353 0
M  V30 10442 O 1000.87 -1.62014 -0.64008 0
M  V30 10443 C 998.003 -3.21013 -1.14731 0
M  V30 10444 H 999.196 -2.93012 0.639082 0
M  V30 10445 H 996.749 -1.51867 0.369624 0
M  V30 10446 H 997.484 -2.61803 -1.91388 0
M  V30 10447 H 997.269 -3.86628 -0.652753 0
M  V30 10448 H 998.759 -3.8394 -1.64256 0
M  V30 10449 N 999.196 -0.349774 -1.5367 0
M  V30 10450 C 1000.13 0.496338 -2.28164 0
M  V30 10451 C 1001.11 1.09737 -1.29968 0
M  V30 10452 O 1002.29 1.11759 -1.58819 0
M  V30 10453 C 999.422 1.64428 -3.0591 0
M  V30 10454 C 998.376 1.17127 -4.11661 0
M  V30 10455 C 997.702 2.40822 -4.77398 0
M  V30 10456 C 999.002 0.267293 -5.21616 0
M  V30 10457 H 1000.7 -0.125117 -2.99138 0
M  V30 10458 H 998.242 -0.0616152 -1.43868 0
M  V30 10459 H 1000.19 2.2427 -3.56765 0
M  V30 10460 H 998.919 2.29272 -2.32598 0
M  V30 10461 H 997.578 0.595634 -3.61729 0
M  V30 10462 H 997.226 3.04088 -4.00674 0
M  V30 10463 H 996.926 2.09852 -5.48849 0
M  V30 10464 H 998.45 3.01378 -5.3104 0
M  V30 10465 H 999.864 0.772734 -5.68068 0
M  V30 10466 H 998.261 0.0491991 -6.0008 0
M  V30 10467 H 999.331 -0.694892 -4.79895 0
M  V30 10468 N 1000.67 1.57404 -0.0785433 0
M  V30 10469 C 1001.64 2.11977 0.871693 0
M  V30 10470 C 1002.64 1.04529 1.2219 0
M  V30 10471 O 1003.83 1.30488 1.15406 0
M  V30 10472 C 1000.96 2.6267 2.17296 0
M  V30 10473 H 1002.15 2.97246 0.398115 0
M  V30 10474 H 999.705 1.5537 0.170251 0
M  V30 10475 H 1000.44 1.80873 2.69175 0
M  V30 10476 H 1000.22 3.41214 1.93171 0
M  V30 10477 H 1001.71 3.04943 2.85306 0
M  V30 10478 N 1002.15 -0.195058 1.56388 0
M  V30 10479 C 1003.56 -0.75973 1.70543 0
M  V30 10480 C 1003.91 -1.83849 0.685118 0
M  V30 10481 O 1003.04 -2.15819 -0.158457 0
M  V30 10482 C 1003.63 -1.38485 3.09204 0
M  V30 10483 C 1002.19 -1.89661 3.25124 0
M  V30 10484 C 1001.34 -0.766563 2.66494 0
M  V30 10485 H 1004.29 0.0300148 1.58672 0
M  V30 10486 H 1004.31 -2.25424 3.06536 0
M  V30 10487 H 1003.82 -0.599479 3.83442 0
M  V30 10488 H 1001.92 -2.70917 2.55802 0
M  V30 10489 H 1002.04 -2.05837 4.32629 0
M  V30 10490 H 1000.4 -1.18086 2.25672 0
M  V30 10491 H 1001.18 0.00657102 3.43299 0
M  V30 10492 N 1003.63 -1.50653 -0.462772 0
M  V30 10493 C 1004.56 -1.66286 -1.5774 0
M  V30 10494 C 1005.57 -0.544094 -1.53439 0
M  V30 10495 O 1006.76 -0.817566 -1.58676 0
M  V30 10496 C 1003.86 -1.63893 -2.96635 0
M  V30 10497 C 1003.04 -2.91939 -3.25716 0
M  V30 10498 C 1002.1 -2.82076 -4.44206 0
M  V30 10499 O 1001.12 -3.56032 -4.44106 0
M  V30 10500 N 1002.32 -1.96196 -5.4634 0
M  V30 10501 H 1005.09 -2.6243 -1.44742 0
M  V30 10502 H 1002.65 -1.48221 -0.651326 0
M  V30 10503 H 1004.64 -1.54897 -3.73884 0
M  V30 10504 H 1003.21 -0.75449 -3.03358 0
M  V30 10505 H 1002.43 -3.14998 -2.37002 0
M  V30 10506 H 1003.72 -3.7675 -3.4196 0
M  V30 10507 H 1003.12 -1.35439 -5.49247 0
M  V30 10508 H 1001.67 -1.93097 -6.2254 0
M  V30 10509 N 1005.11 0.71652 -1.4037 0
M  V30 10510 C 1006.35 1.47857 -1.38803 0
M  V30 10511 C 1006.69 1.94197 0.0100536 0
M  V30 10512 O 1005.96 1.68093 0.978521 0
M  V30 10513 C 1006.25 2.7053 -2.37667 0
M  V30 10514 C 1006.1 2.3009 -3.86496 0
M  V30 10515 C 1007.42 3.72684 -2.34082 0
M  V30 10516 H 1004.54 0.53632 -0.505499 0
M  V30 10517 H 1007.18 0.817824 -1.71498 0
M  V30 10518 H 1005.33 3.26906 -2.09916 0
M  V30 10519 H 1007 1.79202 -4.2507 0
M  V30 10520 H 1005.24 1.62102 -4.02375 0
M  V30 10521 H 1005.91 3.18018 -4.51186 0
M  V30 10522 H 1008.39 3.25935 -2.58661 0
M  V30 10523 H 1007.27 4.56157 -3.05306 0
M  V30 10524 H 1007.53 4.20916 -1.35213 0
M  V30 10525 N 1006.59 1.25851 0.948643 0
M  V30 10526 C 1007.52 1.09248 2.06367 0
M  V30 10527 C 1008.5 -0.000205168 1.701 0
M  V30 10528 O 1009.68 0.170442 1.93451 0
M  V30 10529 C 1006.81 0.716777 3.39823 0
M  V30 10530 C 1005.77 1.76036 3.90122 0
M  V30 10531 C 1005.09 1.23918 5.20143 0
M  V30 10532 C 1006.39 3.16039 4.15833 0
M  V30 10533 H 1008.09 2.02518 2.20515 0
M  V30 10534 H 1005.63 0.975093 1.05962 0
M  V30 10535 H 1007.59 0.587531 4.17284 0
M  V30 10536 H 1006.31 -0.251626 3.25629 0
M  V30 10537 H 1004.97 1.87815 3.14835 0
M  V30 10538 H 1004.62 0.260836 5.02323 0
M  V30 10539 H 1004.32 1.93673 5.54765 0
M  V30 10540 H 1005.84 1.12245 6.00194 0
M  V30 10541 H 1007.25 3.0738 4.83933 0
M  V30 10542 H 1005.65 3.83317 4.61723 0
M  V30 10543 H 1006.72 3.62652 3.21887 0
M  V30 10544 N 1008.06 -1.15214 1.07534 0
M  V30 10545 C 1009.31 -1.85676 0.79805 0
M  V30 10546 C 1009.63 -1.82837 -0.677919 0
M  V30 10547 O 1008.9 -1.27059 -1.49107 0
M  V30 10548 H 1007.48 -0.687468 0.292227 0
M  V30 10549 H 1010.15 -1.39658 1.35947 0
M  V30 10550 H 1009.24 -2.9076 1.13423 0
M  V30 10551 N 1009.54 -0.859717 -1.32086 0
M  V30 10552 C 1010.49 -0.279715 -2.26278 0
M  V30 10553 C 1011.48 0.577348 -1.50185 0
M  V30 10554 O 1012.67 0.425903 -1.71799 0
M  V30 10555 C 1009.8 0.526622 -3.39237 0
M  V30 10556 C 1008.88 -0.343112 -4.2271 0
M  V30 10557 N 1009.27 -1.43176 -4.85113 0
M  V30 10558 C 1007.57 -0.133744 -4.45799 0
M  V30 10559 C 1008.27 -1.96725 -5.47425 0
M  V30 10560 N 1007.25 -1.26569 -5.2866 0
M  V30 10561 H 1011.05 -1.11191 -2.72055 0
M  V30 10562 H 1008.57 -0.706372 -1.46233 0
M  V30 10563 H 1010.56 0.958587 -4.0573 0
M  V30 10564 H 1009.22 1.35655 -2.95005 0
M  V30 10565 H 1010.23 -1.81469 -4.85066 0
M  V30 10566 H 1006.91 0.661064 -4.12233 0
M  V30 10567 H 1008.3 -2.88006 -6.07044 0
M  V30 10568 N 1011.02 1.44971 -0.618145 0
M  V30 10569 C 1012.25 2.06527 -0.124165 0
M  V30 10570 C 1012.66 1.46097 1.19588 0
M  V30 10571 O 1012.02 0.57901 1.73071 0
M  V30 10572 C 1012.07 3.61498 0.0106701 0
M  V30 10573 O 1011.79 4.19675 -1.25716 0
M  V30 10574 C 1013.29 4.40061 0.534872 0
M  V30 10575 H 1010.51 0.666941 -0.0736935 0
M  V30 10576 H 1013.06 1.8605 -0.848871 0
M  V30 10577 H 1011.21 3.81282 0.685752 0
M  V30 10578 H 1011.63 5.12972 -1.09362 0
M  V30 10579 H 1013.1 5.48963 0.57827 0
M  V30 10580 H 1013.58 4.10587 1.55931 0
M  V30 10581 H 1014.18 4.25167 -0.10652 0
M  V30 10582 N 1012.5 0.357919 1.53482 0
M  V30 10583 C 1013.73 -0.23514 2.05559 0
M  V30 10584 C 1014.14 -1.43068 1.23195 0
M  V30 10585 O 1013.5 -1.80481 0.270741 0
M  V30 10586 C 1013.55 -0.636147 3.55859 0
M  V30 10587 O 1013.27 0.511864 4.35099 0
M  V30 10588 C 1014.77 -1.28841 4.24164 0
M  V30 10589 H 1011.99 -0.0428446 0.669631 0
M  V30 10590 H 1014.54 0.51407 1.97933 0
M  V30 10591 H 1012.69 -1.33528 3.63661 0
M  V30 10592 H 1013.1 0.189328 5.24158 0
M  V30 10593 H 1014.58 -1.51962 5.30671 0
M  V30 10594 H 1015.06 -2.24638 3.77405 0
M  V30 10595 H 1015.66 -0.630914 4.20594 0
M  V30 10596 N 1013.98 -1.5736 0.0868897 0
M  V30 10597 C 1015.25 -1.85495 -0.620561 0
M  V30 10598 C 1015.63 -0.982218 -1.86857 0
M  V30 10599 O 1014.98 -0.0524529 -2.2844 0
M  V30 10600 C 1015.19 -3.35996 -0.943798 0
M  V30 10601 C 1016.54 -4.03861 -1.31079 0
M  V30 10602 O 1017.56 -3.4083 -1.03507 0
M  V30 10603 O 1016.42 -5.15062 -1.82683 0
M  V30 10604 H 1013.52 -0.766822 -0.309697 0
M  V30 10605 H 1016.06 -1.69282 0.118966 0
M  V30 10606 H 1014.83 -3.91257 -0.0580628 0
M  V30 10607 H 1014.46 -3.57525 -1.73958 0
M  V30 10608 N 1015.45 0.186762 -1.56489 0
M  V30 10609 C 1016.68 0.925916 -1.85584 0
M  V30 10610 C 1017.1 1.75708 -0.671446 0
M  V30 10611 O 1016.46 1.7728 0.379687 0
M  V30 10612 C 1016.51 1.79107 -3.12975 0
M  V30 10613 O 1015.61 2.89088 -2.94112 0
M  V30 10614 H 1014.96 0.260275 -0.610863 0
M  V30 10615 H 1017.49 0.189561 -2.0372 0
M  V30 10616 H 1017.5 2.19408 -3.43983 0
M  V30 10617 H 1016.17 1.18044 -3.98796 0
M  V30 10618 H 1014.75 2.52482 -2.74422 0
M  V30 10619 N 1016.93 1.50896 0.454776 0
M  V30 10620 C 1018.18 1.6294 1.20741 0
M  V30 10621 C 1018.51 0.336339 1.91265 0
M  V30 10622 O 1017.79 -0.663153 1.82846 0
M  V30 10623 C 1018.07 2.82092 2.23822 0
M  V30 10624 C 1017.92 4.21326 1.57495 0
M  V30 10625 C 1019.24 2.96777 3.24979 0
M  V30 10626 H 1016.36 0.59302 0.437603 0
M  V30 10627 H 1019 1.83331 0.498959 0
M  V30 10628 H 1017.15 2.64837 2.84243 0
M  V30 10629 H 1018.82 4.50209 1.00546 0
M  V30 10630 H 1017.07 4.24829 0.877664 0
M  V30 10631 H 1017.74 5.00656 2.32482 0
M  V30 10632 H 1020.21 3.12627 2.74597 0
M  V30 10633 H 1019.09 3.81742 3.94416 0
M  V30 10634 H 1019.35 2.08091 3.90065 0
M  V30 10635 N 1018.41 -0.709066 1.40748 0
M  V30 10636 C 1019.64 -1.49808 1.42707 0
M  V30 10637 C 1020.05 -1.88778 0.0285574 0
M  V30 10638 O 1019.41 -1.55883 -0.949035 0
M  V30 10639 C 1019.46 -2.76926 2.32366 0
M  V30 10640 O 1019.18 -2.39602 3.66773 0
M  V30 10641 C 1020.68 -3.70773 2.42986 0
M  V30 10642 H 1017.9 -0.462106 0.486517 0
M  V30 10643 H 1020.45 -0.874135 1.84876 0
M  V30 10644 H 1018.6 -3.3559 1.93541 0
M  V30 10645 H 1019.02 -3.21443 4.14457 0
M  V30 10646 H 1020.49 -4.56789 3.09916 0
M  V30 10647 H 1020.97 -4.14332 1.45691 0
M  V30 10648 H 1021.57 -3.18019 2.8239 0
M  V30 10649 N 1019.89 -1.26353 -0.941956 0
M  V30 10650 C 1020.82 -1.10341 -2.05784 0
M  V30 10651 C 1021.8 -0.00881565 -1.70098 0
M  V30 10652 O 1022.99 -0.180699 -1.93357 0
M  V30 10653 C 1020.12 -0.734788 -3.39438 0
M  V30 10654 C 1019.07 -1.78103 -3.89183 0
M  V30 10655 C 1018.4 -1.26675 -5.19478 0
M  V30 10656 C 1019.7 -3.1824 -4.14151 0
M  V30 10657 H 1021.39 -2.03684 -2.19438 0
M  V30 10658 H 1018.94 -0.980698 -1.05443 0
M  V30 10659 H 1020.89 -0.609653 -4.16967 0
M  V30 10660 H 1019.61 0.234354 -3.25758 0
M  V30 10661 H 1018.27 -1.89482 -3.13835 0
M  V30 10662 H 1017.92 -0.287472 -5.02178 0
M  V30 10663 H 1017.62 -1.96612 -5.53731 0
M  V30 10664 H 1019.14 -1.15427 -5.99591 0
M  V30 10665 H 1020.56 -3.09942 -4.82296 0
M  V30 10666 H 1018.95 -3.8576 -4.59684 0
M  V30 10667 H 1020.02 -3.64354 -3.19959 0
M  V30 10668 N 1021.37 1.14642 -1.08144 0
M  V30 10669 C 1022.28 2.23257 -0.720668 0
M  V30 10670 C 1023.29 1.71866 0.271648 0
M  V30 10671 O 1024.47 2.01064 0.116266 0
M  V30 10672 C 1021.53 3.46447 -0.132542 0
M  V30 10673 C 1020.6 4.12789 -1.17913 0
M  V30 10674 C 1019.83 5.30099 -0.618971 0
M  V30 10675 O 1020.05 5.6762 0.562418 0
M  V30 10676 O 1018.99 5.86154 -1.36774 0
M  V30 10677 H 1022.81 2.56463 -1.62667 0
M  V30 10678 H 1020.4 1.22521 -0.854932 0
M  V30 10679 H 1022.28 4.20959 0.19277 0
M  V30 10680 H 1020.95 3.14971 0.746662 0
M  V30 10681 H 1019.86 3.40163 -1.55693 0
M  V30 10682 H 1021.19 4.48365 -2.03051 0
M  V30 10683 N 1022.85 0.866709 1.31628 0
M  V30 10684 C 1024.09 0.486046 1.97507 0
M  V30 10685 C 1024.45 -0.95049 1.67283 0
M  V30 10686 O 1023.74 -1.65979 0.957158 0
M  V30 10687 C 1023.93 0.676018 3.50948 0
M  V30 10688 C 1023.76 2.12947 3.96086 0
M  V30 10689 C 1022.53 2.77041 4.22583 0
M  V30 10690 C 1024.73 3.10139 4.10266 0
M  V30 10691 N 1022.71 4.13172 4.54051 0
M  V30 10692 C 1024.08 4.3129 4.45409 0
M  V30 10693 C 1026.14 3.06173 3.92635 0
M  V30 10694 C 1024.84 5.4899 4.6476 0
M  V30 10695 C 1026.87 4.23128 4.13178 0
M  V30 10696 C 1026.23 5.43041 4.48649 0
M  V30 10697 H 1022.33 0.226831 0.748379 0
M  V30 10698 H 1024.91 1.12063 1.59217 0
M  V30 10699 H 1023.08 0.071055 3.88335 0
M  V30 10700 H 1024.82 0.264062 4.03838 0
M  V30 10701 H 1021.57 2.28009 4.15101 0
M  V30 10702 H 1021.99 4.83426 4.7395 0
M  V30 10703 H 1026.64 2.14576 3.64303 0
M  V30 10704 H 1024.35 6.41108 4.91942 0
M  V30 10705 H 1027.94 4.21509 4.01026 0
M  V30 10706 H 1026.82 6.32034 4.64223 0
M  V30 10707 N 1024.32 -1.44642 0.625825 0
M  V30 10708 C 1025.57 -2.02094 0.128201 0
M  V30 10709 C 1025.9 -1.49181 -1.24801 0
M  V30 10710 O 1025.15 -0.663965 -1.84092 0
M  V30 10711 C 1025.45 -3.57352 0.0584381 0
M  V30 10712 C 1025.12 -4.29496 1.37272 0
M  V30 10713 C 1023.78 -4.48922 1.7327 0
M  V30 10714 C 1026.13 -4.70586 2.2405 0
M  V30 10715 C 1023.46 -5.06697 2.95762 0
M  V30 10716 C 1025.81 -5.29717 3.45807 0
M  V30 10717 C 1024.48 -5.47363 3.82034 0
M  V30 10718 H 1023.75 -0.739514 0.0469122 0
M  V30 10719 H 1026.39 -1.73475 0.811083 0
M  V30 10720 H 1024.7 -3.85354 -0.707791 0
M  V30 10721 H 1026.4 -3.9953 -0.34303 0
M  V30 10722 H 1022.99 -4.14702 1.08258 0
M  V30 10723 H 1027.17 -4.55295 1.97535 0
M  V30 10724 H 1022.43 -5.18546 3.23913 0
M  V30 10725 H 1026.6 -5.60507 4.13286 0
M  V30 10726 H 1024.23 -5.91898 4.77033 0
M  V30 10727 N 1025.8 -0.366053 -1.5329 0
M  V30 10728 C 1027.21 0.113056 -1.86357 0
M  V30 10729 C 1027.56 1.48123 -1.28662 0
M  V30 10730 O 1026.69 2.07658 -0.608849 0
M  V30 10731 C 1027.28 0.211923 -3.38137 0
M  V30 10732 C 1025.84 0.635289 -3.71 0
M  V30 10733 C 1024.99 -0.217203 -2.76448 0
M  V30 10734 H 1027.94 -0.584829 -1.47531 0
M  V30 10735 H 1027.96 1.0354 -3.66142 0
M  V30 10736 H 1027.47 -0.783994 -3.80099 0
M  V30 10737 H 1025.57 1.63942 -3.34595 0
M  V30 10738 H 1025.69 0.409571 -4.77346 0
M  V30 10739 H 1024.05 0.313988 -2.52757 0
M  V30 10740 H 1024.83 -1.21067 -3.21244 0
M  V30 10741 N 1027.28 1.57312 -0.0952337 0
M  V30 10742 C 1028.69 1.81589 0.433875 0
M  V30 10743 C 1029.04 1.01086 1.68155 0
M  V30 10744 O 1028.17 0.240272 2.15062 0
M  V30 10745 C 1028.76 3.29366 0.793931 0
M  V30 10746 C 1027.32 3.54407 1.26778 0
M  V30 10747 C 1026.47 2.76035 0.264518 0
M  V30 10748 H 1029.42 1.55426 -0.320675 0
M  V30 10749 H 1029.44 3.42697 1.65345 0
M  V30 10750 H 1028.95 3.87932 -0.114334 0
M  V30 10751 H 1027.05 3.01173 2.19376 0
M  V30 10752 H 1027.17 4.63055 1.22952 0
M  V30 10753 H 1025.53 2.43509 0.746691 0
M  V30 10754 H 1026.31 3.37349 -0.636429 0
M  V30 10755 N 1028.76 -0.17846 1.56586 0
M  V30 10756 C 1030.01 -0.894502 1.8078 0
M  V30 10757 C 1030.32 -1.8372 0.67129 0
M  V30 10758 O 1031.53 -2.59509 0.797971 0
M  V30 10759 C 1029.98 -1.64109 3.20306 0
M  V30 10760 C 1029.59 -0.742387 4.41806 0
M  V30 10761 C 1031.33 -2.34578 3.53798 0
M  V30 10762 C 1029.24 -1.4888 5.72354 0
M  V30 10763 H 1028.17 -0.33776 0.674117 0
M  V30 10764 H 1030.82 -0.14752 1.82906 0
M  V30 10765 H 1029.2 -2.43257 3.12477 0
M  V30 10766 H 1030.38 0.011615 4.60799 0
M  V30 10767 H 1028.69 -0.147705 4.16138 0
M  V30 10768 H 1031.29 -2.91004 4.48577 0
M  V30 10769 H 1031.63 -3.09572 2.78336 0
M  V30 10770 H 1032.17 -1.62381 3.63149 0
M  V30 10771 H 1028.9 -0.781325 6.50827 0
M  V30 10772 H 1028.42 -2.21631 5.57351 0
M  V30 10773 H 1030.1 -2.03819 6.14058 0
M  V30 10774 N 1030.24 -1.51135 -0.446768 0
M  V30 10775 C 1031.51 -1.5387 -1.20762 0
M  V30 10776 C 1031.89 -0.297446 -2.08994 0
M  V30 10777 O 1031.24 0.717975 -2.16927 0
M  V30 10778 C 1031.45 -2.84767 -2.01764 0
M  V30 10779 C 1032.8 -3.3636 -2.59128 0
M  V30 10780 O 1033.82 -2.86254 -2.11984 0
M  V30 10781 O 1032.68 -4.23765 -3.45088 0
M  V30 10782 H 1029.78 -0.618228 -0.549293 0
M  V30 10783 H 1032.32 -1.63442 -0.456605 0
M  V30 10784 H 1031.09 -3.6657 -1.36901 0
M  V30 10785 H 1030.72 -2.78313 -2.8395 0
M  V30 10786 N 1031.71 0.701592 -1.41122 0
M  V30 10787 C 1032.96 1.45871 -1.39879 0
M  V30 10788 C 1033.28 1.94999 -0.00668769 0
M  V30 10789 O 1032.55 1.71298 0.95047 0
M  V30 10790 H 1031.13 0.541231 -0.514857 0
M  V30 10791 H 1033.79 0.830803 -1.76306 0
M  V30 10792 H 1032.89 2.32479 -2.0823 0
M  V30 10793 N 1033.19 1.2685 0.935242 0
M  V30 10794 C 1034.14 1.05586 2.02078 0
M  V30 10795 C 1035.13 -0.013699 1.60894 0
M  V30 10796 O 1036.32 0.203956 1.75821 0
M  V30 10797 C 1033.45 0.697118 3.36148 0
M  V30 10798 C 1032.53 1.80444 3.83798 0
M  V30 10799 N 1032.92 3.04283 4.04037 0
M  V30 10800 C 1031.22 1.68939 4.12766 0
M  V30 10801 C 1031.92 3.7629 4.436 0
M  V30 10802 N 1030.9 3.04011 4.50642 0
M  V30 10803 H 1034.7 1.99577 2.15746 0
M  V30 10804 H 1032.21 1.17455 1.12153 0
M  V30 10805 H 1034.21 0.525915 4.1357 0
M  V30 10806 H 1032.87 -0.235247 3.23847 0
M  V30 10807 H 1033.88 3.40125 3.90558 0
M  V30 10808 H 1030.56 0.827341 4.0922 0
M  V30 10809 H 1031.95 4.82687 4.67401 0
M  V30 10810 N 1034.67 -1.14067 1.0875 0
M  V30 10811 C 1035.92 -1.85185 0.819317 0
M  V30 10812 C 1036.25 -1.8314 -0.654969 0
M  V30 10813 O 1035.5 -1.25974 -1.49763 0
M  V30 10814 C 1035.8 -3.33273 1.29089 0
M  V30 10815 C 1035.47 -3.55504 2.77359 0
M  V30 10816 C 1034.13 -3.61279 3.17853 0
M  V30 10817 C 1036.48 -3.64041 3.72992 0
M  V30 10818 C 1033.81 -3.73119 4.52768 0
M  V30 10819 C 1036.16 -3.77407 5.07687 0
M  V30 10820 C 1034.82 -3.81433 5.47782 0
M  V30 10821 H 1034.09 -0.67764 0.299809 0
M  V30 10822 H 1036.74 -1.34713 1.36106 0
M  V30 10823 H 1035.05 -3.86049 0.668811 0
M  V30 10824 H 1036.74 -3.86734 1.06009 0
M  V30 10825 H 1033.33 -3.51659 2.45019 0
M  V30 10826 H 1037.52 -3.58866 3.42825 0
M  V30 10827 H 1032.77 -3.74499 4.83281 0
M  V30 10828 H 1036.95 -3.82956 5.81651 0
M  V30 10829 H 1034.57 -3.9036 6.52321 0
M  V30 10830 N 1036.15 -0.873678 -1.31166 0
M  V30 10831 C 1037.4 -0.486457 -1.9657 0
M  V30 10832 C 1037.72 0.962042 -1.69041 0
M  V30 10833 O 1036.98 1.69305 -0.981543 0
M  V30 10834 C 1037.28 -0.69462 -3.50585 0
M  V30 10835 C 1036.94 -2.11647 -3.98141 0
M  V30 10836 C 1035.61 -2.50531 -4.10838 0
M  V30 10837 C 1037.96 -3.0436 -4.23101 0
M  V30 10838 C 1035.29 -3.81361 -4.45848 0
M  V30 10839 C 1037.64 -4.34709 -4.59577 0
M  V30 10840 C 1036.3 -4.73502 -4.70481 0
M  V30 10841 H 1035.57 -0.178007 -0.719301 0
M  V30 10842 H 1038.22 -1.10737 -1.56235 0
M  V30 10843 H 1036.52 0.00940878 -3.91799 0
M  V30 10844 H 1038.22 -0.374782 -3.99245 0
M  V30 10845 H 1034.81 -1.8046 -3.88757 0
M  V30 10846 H 1038.99 -2.75544 -4.12782 0
M  V30 10847 H 1034.25 -4.11174 -4.52488 0
M  V30 10848 H 1038.42 -5.06596 -4.77842 0
M  V30 10849 H 1036.05 -5.74919 -4.97365 0
M  V30 10850 N 1037.63 1.44308 -0.633487 0
M  V30 10851 C 1038.54 2.34492 0.0711787 0
M  V30 10852 C 1039.55 1.52754 0.8332 0
M  V30 10853 O 1040.73 1.85475 0.784929 0
M  V30 10854 C 1037.79 3.30767 1.03895 0
M  V30 10855 C 1036.85 4.28412 0.276043 0
M  V30 10856 C 1036.09 5.20087 1.19772 0
M  V30 10857 O 1036.31 5.15743 2.4365 0
M  V30 10858 O 1035.24 5.98038 0.680764 0
M  V30 10859 H 1039.07 2.96203 -0.67063 0
M  V30 10860 H 1036.66 1.4412 -0.393678 0
M  V30 10861 H 1038.54 3.90021 1.59566 0
M  V30 10862 H 1037.21 2.71586 1.76133 0
M  V30 10863 H 1036.12 3.72696 -0.32377 0
M  V30 10864 H 1037.45 4.9052 -0.406364 0
M  V30 10865 N 1039.1 0.374177 1.53094 0
M  V30 10866 C 1040.52 0.0234783 1.59583 0
M  V30 10867 C 1040.72 -1.45984 1.38892 0
M  V30 10868 O 1039.78 -2.22251 1.19836 0
M  V30 10869 C 1041.09 0.487117 2.96728 0
M  V30 10870 C 1042.64 0.442073 3.09862 0
M  V30 10871 C 1043.11 0.881659 4.49434 0
M  V30 10872 N 1044.6 0.837062 4.55574 0
M  V30 10873 C 1045.34 1.14878 5.61774 0
M  V30 10874 N 1044.83 1.53022 6.75689 0
M  V30 10875 N 1046.63 1.07102 5.51802 0
M  V30 10876 H 1038.78 1.34003 1.64794 0
M  V30 10877 H 1041.04 0.548281 0.773364 0
M  V30 10878 H 1040.75 1.52252 3.17037 0
M  V30 10879 H 1040.62 -0.121772 3.77003 0
M  V30 10880 H 1043.01 -0.584216 2.89259 0
M  V30 10881 H 1043.09 1.08657 2.31576 0
M  V30 10882 H 1042.73 1.90611 4.70776 0
M  V30 10883 H 1042.66 0.214326 5.26164 0
M  V30 10884 H 1045.15 0.556173 3.73785 0
M  V30 10885 H 1045.47 1.75211 7.52676 0
M  V30 10886 H 1043.81 1.56895 6.77059 0
M  V30 10887 H 1047 0.772149 4.61688 0
M  V30 10888 H 1047.18 1.31728 6.3447 0
M  V30 10889 N 1040.58 -1.57259 0.103575 0
M  V30 10890 C 1041.49 -2.18018 -0.866327 0
M  V30 10891 C 1042.51 -1.15198 -1.30404 0
M  V30 10892 O 1043.68 -1.47605 -1.37021 0
M  V30 10893 C 1040.75 -2.75533 -2.10434 0
M  V30 10894 C 1039.81 -3.93337 -1.72002 0
M  V30 10895 C 1039.04 -4.481 -2.89901 0
M  V30 10896 O 1039.27 -4.01784 -4.04877 0
M  V30 10897 O 1038.2 -5.39004 -2.67877 0
M  V30 10898 H 1042.03 -3.01322 -0.379338 0
M  V30 10899 H 1039.61 -1.48907 -0.121228 0
M  V30 10900 H 1041.49 -3.12259 -2.8297 0
M  V30 10901 H 1040.17 -1.9527 -2.58169 0
M  V30 10902 H 1039.08 -3.61408 -0.966193 0
M  V30 10903 H 1040.41 -4.74989 -1.29022 0
M  V30 10904 N 1042.06 0.170153 -1.56679 0
M  V30 10905 C 1042.99 1.21285 -1.9953 0
M  V30 10906 C 1043.97 1.46104 -0.871071 0
M  V30 10907 O 1045.16 1.57419 -1.13724 0
M  V30 10908 C 1042.29 2.5515 -2.35618 0
M  V30 10909 C 1041.24 2.44898 -3.51011 0
M  V30 10910 C 1040.57 3.83263 -3.72845 0
M  V30 10911 C 1041.87 1.95271 -4.84424 0
M  V30 10912 H 1043.56 0.856646 -2.86883 0
M  V30 10913 H 1041.11 0.410634 -1.38021 0
M  V30 10914 H 1043.06 3.28299 -2.64193 0
M  V30 10915 H 1041.78 2.92561 -1.45175 0
M  V30 10916 H 1040.44 1.74203 -3.22566 0
M  V30 10917 H 1040.09 4.18069 -2.79691 0
M  V30 10918 H 1039.79 3.77272 -4.50488 0
M  V30 10919 H 1041.31 4.57996 -4.03822 0
M  V30 10920 H 1042.73 2.58195 -5.11867 0
M  V30 10921 H 1041.13 2.00225 -5.65712 0
M  V30 10922 H 1042.2 0.90709 -4.7634 0
M  V30 10923 N 1043.54 1.5137 0.438746 0
M  V30 10924 C 1044.79 1.63645 1.18595 0
M  V30 10925 C 1045.11 0.354241 1.91755 0
M  V30 10926 O 1044.38 -0.629838 1.85499 0
M  V30 10927 H 1042.96 0.603103 0.440767 0
M  V30 10928 H 1045.62 1.88293 0.503159 0
M  V30 10929 H 1044.72 2.46342 1.9163 0
M  V30 10930 N 1045.02 -0.694098 1.41492 0
M  V30 10931 C 1046.24 -1.48789 1.44488 0
M  V30 10932 C 1046.67 -1.88028 0.0521588 0
M  V30 10933 O 1046.02 -1.54727 -0.944952 0
M  V30 10934 C 1046.07 -2.72586 2.3607 0
M  V30 10935 O 1045.18 -3.70128 1.81876 0
M  V30 10936 H 1044.52 -0.447758 0.490315 0
M  V30 10937 H 1047.05 -0.853036 1.85969 0
M  V30 10938 H 1047.06 -3.20877 2.51995 0
M  V30 10939 H 1045.73 -2.43363 3.37264 0
M  V30 10940 H 1044.31 -3.29069 1.75408 0
M  V30 10941 N 1046.49 -1.27344 -0.928501 0
M  V30 10942 C 1047.46 -1.10043 -2.01055 0
M  V30 10943 C 1048.46 -0.0446793 -1.60738 0
M  V30 10944 O 1049.65 -0.289202 -1.71783 0
M  V30 10945 C 1046.78 -0.676559 -3.34119 0
M  V30 10946 H 1047.97 -2.06126 -2.17835 0
M  V30 10947 H 1045.53 -1.10121 -1.10919 0
M  V30 10948 H 1046.26 0.285697 -3.23039 0
M  V30 10949 H 1046.05 -1.43903 -3.64739 0
M  V30 10950 H 1047.54 -0.577725 -4.13584 0
M  V30 10951 N 1047.97 1.13488 -1.09353 0
M  V30 10952 C 1049.21 1.86397 -0.83877 0
M  V30 10953 C 1049.58 1.81568 0.624259 0
M  V30 10954 O 1050.78 2.49709 0.994923 0
M  V30 10955 C 1049.05 3.30583 -1.35828 0
M  V30 10956 S 1050.61 4.20995 -1.23728 0
M  V30 10957 H 1047.43 0.643022 -0.303387 0
M  V30 10958 H 1050.03 1.36788 -1.39676 0
M  V30 10959 H 1048.73 3.31652 -2.41734 0
M  V30 10960 H 1048.26 3.85255 -0.796386 0
M  V30 10961 H 1050.28 4.95845 -0.187745 0
M  V30 10962 N 1049.45 0.880621 1.30701 0
M  V30 10963 C 1050.4 0.315679 2.25804 0
M  V30 10964 C 1051.39 -0.553382 1.51084 0
M  V30 10965 O 1052.58 -0.398518 1.72455 0
M  V30 10966 C 1049.71 -0.472586 3.40032 0
M  V30 10967 C 1048.79 0.410318 4.2211 0
M  V30 10968 N 1049.18 1.50876 4.82773 0
M  V30 10969 C 1047.48 0.20465 4.4553 0
M  V30 10970 C 1048.18 2.05409 5.44226 0
M  V30 10971 N 1047.16 1.34964 5.26579 0
M  V30 10972 H 1050.96 1.15505 2.70251 0
M  V30 10973 H 1048.47 0.729547 1.45091 0
M  V30 10974 H 1050.47 -0.893918 4.07204 0
M  V30 10975 H 1049.13 -1.30945 2.97125 0
M  V30 10976 H 1050.14 1.89163 4.82118 0
M  V30 10977 H 1046.82 -0.595398 4.13233 0
M  V30 10978 H 1048.21 2.97627 6.02385 0
M  V30 10979 N 1050.93 -1.4397 0.641131 0
M  V30 10980 C 1051.86 -2.33458 -0.04446 0
M  V30 10981 C 1052.84 -1.48781 -0.824507 0
M  V30 10982 O 1054.03 -1.77477 -0.788397 0
M  V30 10983 C 1051.16 -3.31989 -1.01984 0
M  V30 10984 C 1050.11 -4.2656 -0.350745 0
M  V30 10985 C 1049.44 -5.15036 -1.43673 0
M  V30 10986 C 1050.74 -5.16897 0.749299 0
M  V30 10987 H 1052.43 -2.91034 0.702832 0
M  V30 10988 H 1049.98 -1.39942 0.339435 0
M  V30 10989 H 1051.93 -3.93483 -1.50828 0
M  V30 10990 H 1050.65 -2.72643 -1.79815 0
M  V30 10991 H 1049.31 -3.66413 0.117139 0
M  V30 10992 H 1048.96 -4.52037 -2.20617 0
M  V30 10993 H 1048.66 -5.79125 -0.994358 0
M  V30 10994 H 1050.18 -5.79403 -1.92678 0
M  V30 10995 H 1051.6 -5.7227 0.343534 0
M  V30 10996 H 1049.99 -5.89643 1.11541 0
M  V30 10997 H 1051.06 -4.5731 1.61232 0
M  V30 10998 N 1052.41 -0.382291 -1.52893 0
M  V30 10999 C 1053.65 0.201996 -2.03399 0
M  V30 11000 C 1054.01 1.44624 -1.26286 0
M  V30 11001 O 1055.21 2.10723 -1.66881 0
M  V30 11002 C 1053.48 0.470348 -3.54292 0
M  V30 11003 S 1055.04 1.02592 -4.26638 0
M  V30 11004 H 1051.86 0.0575178 -0.70867 0
M  V30 11005 H 1054.46 -0.52902 -1.88206 0
M  V30 11006 H 1053.17 -0.44243 -4.08008 0
M  V30 11007 H 1052.7 1.22998 -3.73678 0
M  V30 11008 H 1054.71 2.30887 -4.3921 0
M  V30 11009 N 1053.89 1.57202 -0.111913 0
M  V30 11010 C 1054.82 2.17957 0.837683 0
M  V30 11011 C 1055.8 1.1176 1.28233 0
M  V30 11012 O 1056.98 1.39967 1.34621 0
M  V30 11013 C 1054.11 2.77333 2.09054 0
M  V30 11014 C 1053.07 3.8905 1.78393 0
M  V30 11015 C 1052.39 4.35203 3.10649 0
M  V30 11016 C 1053.69 5.11477 1.05775 0
M  V30 11017 H 1055.39 2.9756 0.331441 0
M  V30 11018 H 1052.93 1.43131 0.157979 0
M  V30 11019 H 1054.88 3.18492 2.75936 0
M  V30 11020 H 1053.61 1.95009 2.6199 0
M  V30 11021 H 1052.27 3.48456 1.13903 0
M  V30 11022 H 1051.92 3.49747 3.61506 0
M  V30 11023 H 1051.62 5.10534 2.9091 0
M  V30 11024 H 1053.14 4.79007 3.78661 0
M  V30 11025 H 1054.55 5.497 1.62798 0
M  V30 11026 H 1052.95 5.92346 0.961573 0
M  V30 11027 H 1054.02 4.84881 0.043297 0
M  V30 11028 N 1055.36 -0.161842 1.56767 0
M  V30 11029 C 1056.27 -1.21996 2.00385 0
M  V30 11030 C 1057.29 -1.4789 0.916768 0
M  V30 11031 O 1058.47 -1.59852 1.22513 0
M  V30 11032 C 1055.53 -2.53695 2.36305 0
M  V30 11033 C 1054.59 -2.3558 3.58888 0
M  V30 11034 C 1053.82 -3.60998 3.93085 0
M  V30 11035 O 1054.05 -4.6657 3.28129 0
M  V30 11036 O 1052.98 -3.54544 4.86397 0
M  V30 11037 H 1056.81 -0.879701 2.9068 0
M  V30 11038 H 1054.39 -0.369437 1.4476 0
M  V30 11039 H 1056.27 -3.31366 2.60335 0
M  V30 11040 H 1054.95 -2.87281 1.49169 0
M  V30 11041 H 1053.86 -1.55908 3.40064 0
M  V30 11042 H 1055.19 -2.06915 4.46595 0
M  V30 11043 N 1056.84 -1.516 -0.430713 0
M  V30 11044 C 1058.09 -1.64271 -1.17726 0
M  V30 11045 C 1058.41 -0.364406 -1.91565 0
M  V30 11046 O 1057.68 0.619991 -1.8583 0
M  V30 11047 H 1056.26 -0.605432 -0.437562 0
M  V30 11048 H 1058.92 -1.88557 -0.493166 0
M  V30 11049 H 1058.02 -2.47355 -1.90321 0
M  V30 11050 N 1058.32 0.686584 -1.41858 0
M  V30 11051 C 1059.74 0.998283 -1.24525 0
M  V30 11052 C 1059.94 2.01006 -0.141007 0
M  V30 11053 O 1058.99 2.47667 0.491648 0
M  V30 11054 C 1060.3 1.51432 -2.59786 0
M  V30 11055 C 1061.85 1.6327 -2.67043 0
M  V30 11056 C 1062.33 2.18274 -4.02642 0
M  V30 11057 N 1063.82 2.25622 -4.04535 0
M  V30 11058 C 1064.55 2.69229 -5.06264 0
M  V30 11059 N 1064.05 3.12375 -6.1838 0
M  V30 11060 N 1065.84 2.68873 -4.93623 0
M  V30 11061 H 1057.99 0.0164825 -2.12394 0
M  V30 11062 H 1060.26 0.0698613 -0.945422 0
M  V30 11063 H 1059.96 0.845426 -3.41388 0
M  V30 11064 H 1059.84 2.49502 -2.82894 0
M  V30 11065 H 1062.22 2.29269 -1.85794 0
M  V30 11066 H 1062.3 0.637221 -2.47736 0
M  V30 11067 H 1061.95 1.52887 -4.84343 0
M  V30 11068 H 1061.88 3.18591 -4.19294 0
M  V30 11069 H 1064.37 1.95186 -3.23591 0
M  V30 11070 H 1064.68 3.44301 -6.91864 0
M  V30 11071 H 1063.03 3.10262 -6.21902 0
M  V30 11072 H 1066.22 2.34521 -4.05114 0
M  V30 11073 H 1066.39 3.02539 -5.7304 0
M  V30 11074 N 1059.8 1.27835 0.921735 0
M  V30 11075 C 1061.05 1.13904 1.6646 0
M  V30 11076 C 1061.36 -0.313379 1.93073 0
M  V30 11077 O 1062.57 -0.573687 2.6537 0
M  V30 11078 C 1061.02 1.99064 2.99836 0
M  V30 11079 C 1060.63 3.48998 2.80899 0
M  V30 11080 C 1062.37 1.93797 3.77681 0
M  V30 11081 C 1060.28 4.26337 4.09867 0
M  V30 11082 H 1059.21 0.422681 0.624385 0
M  V30 11083 H 1061.86 1.52303 1.02352 0
M  V30 11084 H 1060.24 1.53514 3.65034 0
M  V30 11085 H 1061.42 4.02452 2.24431 0
M  V30 11086 H 1059.73 3.55707 2.16476 0
M  V30 11087 H 1062.33 2.48852 4.73262 0
M  V30 11088 H 1062.67 0.912928 4.06167 0
M  V30 11089 H 1063.21 2.37275 3.19289 0
M  V30 11090 H 1059.94 5.2939 3.86557 0
M  V30 11091 H 1059.46 3.77659 4.65976 0
M  V30 11092 H 1061.14 4.3583 4.78185 0
M  V30 11093 N 1061.28 -1.12907 1.09954 0
M  V30 11094 C 1062.21 -2.20585 0.765799 0
M  V30 11095 C 1063.19 -1.68117 -0.258989 0
M  V30 11096 O 1064.37 -1.93792 -0.125853 0
M  V30 11097 C 1061.5 -3.46772 0.191435 0
M  V30 11098 C 1060.46 -4.12363 1.14635 0
M  V30 11099 C 1059.78 -5.3294 0.433426 0
M  V30 11100 C 1061.08 -4.59073 2.49096 0
M  V30 11101 H 1062.78 -2.48759 1.66612 0
M  V30 11102 H 1060.32 -1.19563 0.802534 0
M  V30 11103 H 1062.27 -4.21365 -0.0541535 0
M  V30 11104 H 1061 -3.18011 -0.744101 0
M  V30 11105 H 1059.66 -3.39744 1.37731 0
M  V30 11106 H 1059.31 -5.00444 -0.506422 0
M  V30 11107 H 1059.01 -5.77772 1.07018 0
M  V30 11108 H 1060.53 -6.10284 0.196267 0
M  V30 11109 H 1061.94 -5.25063 2.30177 0
M  V30 11110 H 1060.34 -5.14665 3.0861 0
M  V30 11111 H 1061.41 -3.73313 3.0946 0
M  V30 11112 N 1062.75 -0.88754 -1.30232 0
M  V30 11113 C 1064 -0.508031 -1.96334 0
M  V30 11114 C 1064.33 0.940905 -1.69884 0
M  V30 11115 O 1063.61 1.66523 -1.005 0
M  V30 11116 C 1063.89 -0.786566 -3.51405 0
M  V30 11117 C 1063.74 -2.28632 -3.8736 0
M  V30 11118 C 1065.06 -0.264803 -4.39303 0
M  V30 11119 H 1062.18 -0.186051 -0.71313 0
M  V30 11120 H 1064.82 -1.112 -1.5406 0
M  V30 11121 H 1062.97 -0.272523 -3.87543 0
M  V30 11122 H 1064.65 -2.86896 -3.61231 0
M  V30 11123 H 1062.89 -2.75194 -3.35337 0
M  V30 11124 H 1063.56 -2.43181 -4.95547 0
M  V30 11125 H 1066.04 -0.704809 -4.10087 0
M  V30 11126 H 1064.91 -0.488998 -5.46717 0
M  V30 11127 H 1065.17 0.834055 -4.34161 0
M  V30 11128 N 1064.23 1.43628 -0.648757 0
M  V30 11129 C 1065.16 2.29045 0.0841858 0
M  V30 11130 C 1066.18 1.42262 0.791537 0
M  V30 11131 O 1067.37 1.66243 0.650039 0
M  V30 11132 C 1064.47 3.19075 1.14212 0
M  V30 11133 C 1063.64 4.34372 0.513799 0
M  V30 11134 C 1062.7 5.05307 1.46803 0
M  V30 11135 O 1061.72 5.60729 0.978346 0
M  V30 11136 N 1062.93 5.08393 2.80209 0
M  V30 11137 H 1065.69 2.9259 -0.648948 0
M  V30 11138 H 1063.25 1.54268 -0.491209 0
M  V30 11139 H 1065.24 3.63395 1.78119 0
M  V30 11140 H 1063.81 2.57161 1.77728 0
M  V30 11141 H 1063.03 3.93024 -0.304262 0
M  V30 11142 H 1064.32 5.08745 0.0749871 0
M  V30 11143 H 1063.72 4.64729 3.22557 0
M  V30 11144 H 1062.28 5.56445 3.3943 0
M  V30 11145 N 1065.71 0.390394 1.52688 0
M  V30 11146 C 1066.94 -0.191207 2.05713 0
M  V30 11147 C 1067.35 -1.40973 1.26188 0
M  V30 11148 O 1066.69 -1.81202 0.301938 0
M  V30 11149 C 1066.75 -0.624794 3.54029 0
M  V30 11150 C 1066.42 0.480413 4.54468 0
M  V30 11151 C 1067.41 1.33816 5.02384 0
M  V30 11152 C 1065.1 0.647754 4.98106 0
M  V30 11153 C 1067.09 2.34836 5.92563 0
M  V30 11154 C 1064.78 1.66129 5.88085 0
M  V30 11155 C 1065.78 2.51001 6.35206 0
M  V30 11156 O 1065.47 3.50622 7.23408 0
M  V30 11157 H 1065.2 -0.032221 0.675232 0
M  V30 11158 H 1067.75 0.554431 1.97776 0
M  V30 11159 H 1065.98 -1.42243 3.59589 0
M  V30 11160 H 1067.67 -1.13219 3.8979 0
M  V30 11161 H 1068.44 1.22019 4.694 0
M  V30 11162 H 1064.32 -0.00314511 4.61 0
M  V30 11163 H 1067.86 3.01117 6.29265 0
M  V30 11164 H 1063.76 1.77964 6.20483 0
M  V30 11165 H 1064.53 3.46644 7.41472 0
M  V30 11166 N 1067.19 -1.57141 0.120249 0
M  V30 11167 C 1068.15 -2.14213 -0.815185 0
M  V30 11168 C 1069.15 -1.07731 -1.19376 0
M  V30 11169 O 1070.34 -1.33502 -1.11906 0
M  V30 11170 C 1067.47 -2.68339 -2.10255 0
M  V30 11171 H 1068.67 -2.98197 -0.319166 0
M  V30 11172 H 1066.22 -1.55767 -0.128997 0
M  V30 11173 H 1066.95 -1.87946 -2.64285 0
M  V30 11174 H 1066.74 -3.46216 -1.84057 0
M  V30 11175 H 1068.23 -3.124 -2.77121 0
M  V30 11176 N 1068.67 0.153526 -1.5685 0
M  V30 11177 C 1069.89 0.886343 -1.87507 0
M  V30 11178 C 1070.32 1.74244 -0.708565 0
M  V30 11179 O 1069.67 1.78045 0.341997 0
M  V30 11180 C 1069.72 1.72428 -3.16703 0
M  V30 11181 O 1068.83 2.82784 -3.00178 0
M  V30 11182 H 1068.17 0.247259 -0.616246 0
M  V30 11183 H 1070.7 0.146306 -2.04076 0
M  V30 11184 H 1070.71 2.12062 -3.4856 0
M  V30 11185 H 1069.38 1.09558 -4.01211 0
M  V30 11186 H 1067.96 2.46604 -2.79716 0
M  V30 11187 N 1070.14 1.51827 0.422667 0
M  V30 11188 C 1071.09 1.74791 1.53463 0
M  V30 11189 C 1072.09 0.614602 1.57858 0
M  V30 11190 O 1073.29 0.796336 1.61426 0
M  V30 11191 H 1069.67 0.552524 0.510118 0
M  V30 11192 H 1071.64 2.67974 1.31273 0
M  V30 11193 C 1070.39 1.90339 2.90975 0
M  V30 11194 H 1069.71 2.76958 2.8833 0
M  V30 11195 H 1071.15 2.10413 3.68106 0
M  V30 11196 C 1069.61 0.66695 3.30232 0
M  V30 11197 O 1070.14 -0.171542 4.01334 0
M  V30 11198 N 1068.35 0.506768 2.86147 0
M  V30 11199 H 1067.89 1.19019 2.28456 0
M  V30 11200 H 1067.85 -0.319247 3.12775 0
M  V30 11201 N 1071.62 -0.679052 1.4222 0
M  V30 11202 C 1072.59 -1.77448 1.45069 0
M  V30 11203 C 1073.59 -1.57189 0.338882 0
M  V30 11204 O 1074.78 -1.63559 0.599519 0
M  V30 11205 C 1071.91 -3.1603 1.27819 0
M  V30 11206 H 1073.1 -1.7631 2.426 0
M  V30 11207 H 1070.65 -0.888277 1.28605 0
M  V30 11208 H 1071.39 -3.22796 0.311946 0
M  V30 11209 H 1071.17 -3.32138 2.08391 0
M  V30 11210 H 1072.66 -3.9596 1.32686 0
M  V30 11211 N 1073.1 -1.28322 -0.914942 0
M  V30 11212 C 1074.33 -1.1837 -1.70304 0
M  V30 11213 C 1074.75 0.254291 -1.86373 0
M  V30 11214 O 1074.11 1.18398 -1.37301 0
M  V30 11215 C 1074.16 -1.88603 -3.07346 0
M  V30 11216 O 1073.26 -1.19268 -3.94777 0
M  V30 11217 H 1072.6 -0.410978 -0.52153 0
M  V30 11218 H 1075.13 -1.69622 -1.14409 0
M  V30 11219 H 1075.14 -1.96463 -3.57584 0
M  V30 11220 H 1073.82 -2.93201 -2.94967 0
M  V30 11221 H 1072.39 -1.19563 -3.53212 0
M  V30 11222 N 1074.58 1.12322 -1.10551 0
M  V30 11223 C 1075.8 1.8822 -0.871093 0
M  V30 11224 C 1076.23 1.7916 0.573005 0
M  V30 11225 O 1075.59 1.14738 1.40374 0
M  V30 11226 C 1075.63 3.35349 -1.32565 0
M  V30 11227 O 1074.74 4.09461 -0.49145 0
M  V30 11228 H 1074.08 0.584787 -0.314516 0
M  V30 11229 H 1076.61 1.42039 -1.47262 0
M  V30 11230 H 1076.62 3.86189 -1.31612 0
M  V30 11231 H 1075.29 3.4126 -2.37728 0
M  V30 11232 H 1073.87 3.68575 -0.566294 0
M  V30 11233 N 1076.06 0.894434 1.2976 0
M  V30 11234 C 1077.47 0.566892 1.77885 0
M  V30 11235 C 1077.82 -0.917289 1.73437 0
M  V30 11236 O 1076.94 -1.71707 1.31703 0
M  V30 11237 C 1077.54 1.02227 3.2301 0
M  V30 11238 C 1076.1 0.745978 3.68934 0
M  V30 11239 C 1075.24 1.19993 2.49994 0
M  V30 11240 H 1078.2 1.0777 1.16496 0
M  V30 11241 H 1078.22 0.355281 3.78838 0
M  V30 11242 H 1077.73 2.1025 3.26215 0
M  V30 11243 H 1075.83 -0.321866 3.71207 0
M  V30 11244 H 1075.94 1.34017 4.59974 0
M  V30 11245 H 1074.31 0.619047 2.47063 0
M  V30 11246 H 1075.09 2.28811 2.55931 0
M  V30 11247 N 1077.53 -1.43282 0.656365 0
M  V30 11248 C 1078.47 -2.28049 -0.083127 0
M  V30 11249 C 1079.45 -1.40009 -0.826812 0
M  V30 11250 O 1080.63 -1.69452 -0.825736 0
M  V30 11251 C 1077.76 -3.19487 -1.12452 0
M  V30 11252 C 1076.8 -4.23807 -0.478527 0
M  V30 11253 S 1077.64 -5.30218 0.750248 0
M  V30 11254 C 1078.79 -6.25225 -0.290534 0
M  V30 11255 H 1079.02 -2.90419 0.635922 0
M  V30 11256 H 1076.56 -1.47839 0.445303 0
M  V30 11257 H 1078.52 -3.72713 -1.72034 0
M  V30 11258 H 1077.18 -2.56288 -1.81591 0
M  V30 11259 H 1076.37 -4.87901 -1.26368 0
M  V30 11260 H 1075.97 -3.73975 0.043251 0
M  V30 11261 H 1078.26 -6.67568 -1.15579 0
M  V30 11262 H 1079.21 -7.07397 0.315458 0
M  V30 11263 H 1079.61 -5.60999 -0.627751 0
M  V30 11264 N 1079.01 -0.398486 -1.52479 0
M  V30 11265 C 1080.42 0.0735015 -1.86555 0
M  V30 11266 C 1080.78 1.45361 -1.31775 0
M  V30 11267 O 1079.9 2.0632 -0.652759 0
M  V30 11268 C 1080.5 0.140152 -3.3851 0
M  V30 11269 C 1079.05 0.556451 -3.72264 0
M  V30 11270 C 1078.2 -0.275792 -2.75925 0
M  V30 11271 H 1081.15 -0.615991 -1.46257 0
M  V30 11272 H 1081.17 0.957507 -3.68255 0
M  V30 11273 H 1080.69 -0.864442 -3.7835 0
M  V30 11274 H 1078.79 1.56808 -3.37997 0
M  V30 11275 H 1078.9 0.308227 -4.78107 0
M  V30 11276 H 1077.26 0.260304 -2.53366 0
M  V30 11277 H 1078.05 -1.27854 -3.18604 0
M  V30 11278 N 1080.49 1.57075 -0.12858 0
M  V30 11279 C 1081.73 1.97408 0.530059 0
M  V30 11280 C 1082.1 1.01087 1.63234 0
M  V30 11281 O 1083.3 1.30394 2.35055 0
M  V30 11282 C 1081.57 3.41928 1.04021 0
M  V30 11283 S 1083.13 4.04277 1.70603 0
M  V30 11284 H 1079.94 0.689884 0.17199 0
M  V30 11285 H 1082.55 1.94304 -0.215933 0
M  V30 11286 H 1081.25 4.09772 0.226928 0
M  V30 11287 H 1080.78 3.48703 1.82125 0
M  V30 11288 H 1082.8 3.95819 2.99235 0
M  V30 11289 N 1081.97 -0.145205 1.5693 0
M  V30 11290 C 1083.19 -0.876386 1.87974 0
M  V30 11291 C 1083.62 -1.73866 0.717795 0
M  V30 11292 O 1082.98 -1.78224 -0.332551 0
M  V30 11293 C 1083.03 -1.70746 3.17613 0
M  V30 11294 O 1082.13 -2.81188 3.01674 0
M  V30 11295 H 1081.47 -0.243987 0.617549 0
M  V30 11296 H 1084 -0.135482 2.04151 0
M  V30 11297 H 1084.01 -2.1021 3.49679 0
M  V30 11298 H 1082.69 -1.07429 4.01786 0
M  V30 11299 H 1081.26 -2.45117 2.81019 0
M  V30 11300 N 1083.45 -1.52049 -0.414609 0
M  V30 11301 C 1084.86 -1.58062 -0.993638 0
M  V30 11302 C 1085.21 -0.417795 -1.917 0
M  V30 11303 O 1084.33 0.462558 -2.11399 0
M  V30 11304 C 1084.93 -2.86471 -1.80886 0
M  V30 11305 C 1083.49 -2.94981 -2.33801 0
M  V30 11306 C 1082.64 -2.52949 -1.13631 0
M  V30 11307 H 1085.59 -1.57497 -0.19504 0
M  V30 11308 H 1085.61 -2.71515 -2.66571 0
M  V30 11309 H 1085.12 -3.71085 -1.13657 0
M  V30 11310 H 1083.22 -2.14849 -3.04419 0
M  V30 11311 H 1083.33 -3.99111 -2.65042 0
M  V30 11312 H 1081.7 -2.0667 -1.48861 0
M  V30 11313 H 1082.48 -3.39931 -0.479765 0
M  V30 11314 N 1084.93 0.6715 -1.42579 0
M  V30 11315 C 1086.15 1.46471 -1.46836 0
M  V30 11316 C 1086.58 1.87921 -0.0820658 0
M  V30 11317 O 1085.93 1.5621 0.920217 0
M  V30 11318 C 1085.98 2.68796 -2.40377 0
M  V30 11319 O 1085.09 3.67188 -1.87741 0
M  V30 11320 H 1084.43 0.439901 -0.497376 0
M  V30 11321 H 1086.96 0.823342 -1.87303 0
M  V30 11322 H 1086.97 3.16828 -2.57068 0
M  V30 11323 H 1085.64 2.37967 -3.41093 0
M  V30 11324 H 1084.22 3.26237 -1.80621 0
M  V30 11325 N 1086.4 1.28806 0.908124 0
M  V30 11326 C 1087.65 1.16058 1.65454 0
M  V30 11327 C 1087.97 -0.290057 1.92831 0
M  V30 11328 O 1087.24 -1.20001 1.54843 0
M  V30 11329 H 1085.82 0.426522 0.61326 0
M  V30 11330 H 1088.48 1.61614 1.08936 0
M  V30 11331 H 1087.58 1.70437 2.61453 0
M  V30 11332 N 1087.88 -1.11734 1.11145 0
M  V30 11333 C 1088.83 -2.15789 0.736133 0
M  V30 11334 C 1089.82 -1.58813 -0.25832 0
M  V30 11335 O 1091.01 -1.76877 -0.0659078 0
M  V30 11336 C 1088.14 -3.4284 0.177597 0
M  V30 11337 C 1087.22 -4.06783 1.19953 0
M  V30 11338 N 1087.61 -4.45626 2.39271 0
M  V30 11339 C 1085.91 -4.33663 1.04176 0
M  V30 11340 C 1086.61 -4.95684 3.04422 0
M  V30 11341 N 1085.59 -4.91648 2.31912 0
M  V30 11342 H 1089.39 -2.43598 1.6443 0
M  V30 11343 H 1086.9 -1.28716 0.990247 0
M  V30 11344 H 1088.9 -4.16756 -0.109402 0
M  V30 11345 H 1087.56 -3.16498 -0.725201 0
M  V30 11346 H 1088.57 -4.37757 2.76747 0
M  V30 11347 H 1085.25 -4.17044 0.195132 0
M  V30 11348 H 1086.64 -5.35394 4.05959 0
M  V30 11349 N 1089.36 -0.901303 -1.29284 0
M  V30 11350 C 1090.61 -0.538241 -1.96149 0
M  V30 11351 C 1090.96 0.905804 -1.69744 0
M  V30 11352 O 1090.25 1.63383 -1.00083 0
M  V30 11353 C 1090.45 -0.768828 -3.49033 0
M  V30 11354 C 1090.28 -2.23373 -3.903 0
M  V30 11355 C 1089.05 -2.88148 -4.15089 0
M  V30 11356 C 1091.24 -3.20907 -4.01899 0
M  V30 11357 N 1089.23 -4.25065 -4.42937 0
M  V30 11358 C 1090.6 -4.42948 -4.33817 0
M  V30 11359 C 1092.65 -3.16475 -3.8438 0
M  V30 11360 C 1091.36 -5.6112 -4.50041 0
M  V30 11361 C 1093.38 -4.33934 -4.01815 0
M  V30 11362 C 1092.74 -5.54745 -4.34093 0
M  V30 11363 H 1088.84 -0.246593 -0.742102 0
M  V30 11364 H 1091.43 -1.16245 -1.5619 0
M  V30 11365 H 1089.6 -0.17399 -3.8801 0
M  V30 11366 H 1091.33 -0.37104 -4.02996 0
M  V30 11367 H 1088.08 -2.38935 -4.0891 0
M  V30 11368 H 1088.51 -4.95822 -4.60966 0
M  V30 11369 H 1093.15 -2.2416 -3.58486 0
M  V30 11370 H 1090.87 -6.53925 -4.74771 0
M  V30 11371 H 1094.45 -4.31993 -3.89709 0
M  V30 11372 H 1093.33 -6.4412 -4.47302 0
M  V30 11373 N 1090.84 1.42931 -0.663954 0
M  V30 11374 C 1092.06 2.06544 -0.188201 0
M  V30 11375 C 1092.49 1.495 1.14155 0
M  V30 11376 O 1091.85 0.609164 1.7076 0
M  V30 11377 C 1091.89 3.60393 -0.122105 0
M  V30 11378 O 1091 4.02176 0.91258 0
M  V30 11379 H 1090.34 0.656458 -0.0997967 0
M  V30 11380 H 1092.87 1.83253 -0.909909 0
M  V30 11381 H 1092.88 4.07959 0.0576568 0
M  V30 11382 H 1091.55 4.01287 -1.09276 0
M  V30 11383 H 1090.13 3.6618 0.704738 0
M  V30 11384 N 1092.32 0.406567 1.52266 0
M  V30 11385 C 1093.73 -0.063607 1.86592 0
M  V30 11386 C 1094.08 -1.4466 1.32544 0
M  V30 11387 O 1093.2 -2.05971 0.663692 0
M  V30 11388 C 1093.8 -0.122198 3.3858 0
M  V30 11389 C 1092.36 -0.536701 3.72554 0
M  V30 11390 C 1091.5 0.290422 2.75775 0
M  V30 11391 H 1094.45 0.623738 1.45929 0
M  V30 11392 H 1094.48 -0.937964 3.68758 0
M  V30 11393 H 1093.99 0.884495 3.77887 0
M  V30 11394 H 1092.09 -1.55013 3.38824 0
M  V30 11395 H 1092.2 -0.282867 4.78264 0
M  V30 11396 H 1090.57 -0.246864 2.53501 0
M  V30 11397 H 1091.35 1.29541 3.17921 0
M  V30 11398 N 1093.79 -1.57004 0.136909 0
M  V30 11399 C 1095.21 -1.58082 -0.21958 0
M  V30 11400 C 1095.41 -1.15065 -1.65415 0
M  V30 11401 O 1094.47 -0.846284 -2.37896 0
M  V30 11402 C 1095.78 -3.00685 0.0300112 0
M  V30 11403 C 1097.33 -3.12981 -0.0344899 0
M  V30 11404 C 1097.8 -4.57615 0.187639 0
M  V30 11405 N 1099.29 -4.63005 0.134219 0
M  V30 11406 C 1100.03 -5.72712 0.280743 0
M  V30 11407 N 1099.52 -6.91104 0.48443 0
M  V30 11408 N 1101.32 -5.61673 0.219055 0
M  V30 11409 H 1093.47 -1.83262 1.07372 0
M  V30 11410 H 1095.73 -0.847776 0.424241 0
M  V30 11411 H 1095.44 -3.36509 1.02247 0
M  V30 11412 H 1095.31 -3.70762 -0.693918 0
M  V30 11413 H 1097.7 -2.77004 -1.01749 0
M  V30 11414 H 1097.78 -2.45411 0.721608 0
M  V30 11415 H 1097.42 -4.94295 1.16769 0
M  V30 11416 H 1097.35 -5.23299 -0.588661 0
M  V30 11417 H 1099.84 -3.77895 -0.0189681 0
M  V30 11418 H 1100.16 -7.7057 0.586613 0
M  V30 11419 H 1098.5 -6.93047 0.520627 0
M  V30 11420 H 1101.69 -4.68061 0.0607606 0
M  V30 11421 H 1101.87 -6.47125 0.336683 0
M  V30 11422 N 1095.27 0.136881 -1.57004 0
M  V30 11423 C 1096.18 1.18793 -2.023 0
M  V30 11424 C 1097.2 1.46412 -0.94018 0
M  V30 11425 O 1098.37 1.57883 -1.2504 0
M  V30 11426 C 1095.44 2.49903 -2.40311 0
M  V30 11427 C 1094.5 2.29841 -3.6259 0
M  V30 11428 C 1093.73 3.54699 -3.98779 0
M  V30 11429 O 1093.96 4.61291 -3.3551 0
M  V30 11430 O 1092.89 3.46761 -4.91976 0
M  V30 11431 H 1096.72 0.833345 -2.92043 0
M  V30 11432 H 1094.3 0.346361 -1.4533 0
M  V30 11433 H 1096.18 3.27183 -2.65574 0
M  V30 11434 H 1094.86 2.84872 -1.5372 0
M  V30 11435 H 1093.77 1.50478 -3.42501 0
M  V30 11436 H 1095.1 1.99784 -4.4983 0
M  V30 11437 N 1096.75 1.52266 0.40654 0
M  V30 11438 C 1097.71 1.75168 1.47814 0
M  V30 11439 C 1098.71 0.621575 1.48301 0
M  V30 11440 O 1099.9 0.889476 1.4978 0
M  V30 11441 C 1097.04 1.83642 2.87208 0
M  V30 11442 H 1098.23 2.70834 1.28798 0
M  V30 11443 H 1095.78 1.42722 0.637196 0
M  V30 11444 H 1096.52 0.898994 3.1159 0
M  V30 11445 H 1096.3 2.65801 2.88257 0
M  V30 11446 H 1097.79 2.03093 3.64888 0
M  V30 11447 N 1098.23 -0.663929 1.42933 0
M  V30 11448 C 1099.14 -1.80643 1.49683 0
M  V30 11449 C 1100.15 -1.69694 0.38472 0
M  V30 11450 O 1101.33 -1.91052 0.637256 0
M  V30 11451 C 1098.4 -3.16858 1.4072 0
M  V30 11452 C 1097.46 -3.39684 2.62514 0
M  V30 11453 C 1096.69 -4.69399 2.53969 0
M  V30 11454 O 1096.91 -5.48037 1.58152 0
M  V30 11455 O 1095.85 -4.93709 3.44289 0
M  V30 11456 H 1099.67 -1.77903 2.46138 0
M  V30 11457 H 1097.26 -0.821059 1.24816 0
M  V30 11458 H 1099.14 -3.9812 1.38124 0
M  V30 11459 H 1097.81 -3.20211 0.473954 0
M  V30 11460 H 1096.72 -2.58227 2.70684 0
M  V30 11461 H 1098.05 -3.41169 3.54774 0
M  V30 11462 N 1099.71 -1.29285 -0.901281 0
M  V30 11463 C 1100.95 -1.16934 -1.64836 0
M  V30 11464 C 1101.28 0.279826 -1.92982 0
M  V30 11465 O 1100.55 1.19179 -1.55478 0
M  V30 11466 H 1099.13 -0.429768 -0.61099 0
M  V30 11467 H 1101.79 -1.62189 -1.08077 0
M  V30 11468 H 1100.88 -1.71821 -2.60545 0
M  V30 11469 N 1101.18 1.11143 -1.11736 0
M  V30 11470 C 1102.13 2.15396 -0.747566 0
M  V30 11471 C 1103.12 1.58948 0.249894 0
M  V30 11472 O 1104.31 1.7691 0.0565267 0
M  V30 11473 C 1101.44 3.42741 -0.195776 0
M  V30 11474 C 1100.53 4.06141 -1.22109 0
M  V30 11475 N 1100.92 4.44351 -2.41631 0
M  V30 11476 C 1099.21 4.33104 -1.06474 0
M  V30 11477 C 1099.92 4.94062 -3.07046 0
M  V30 11478 N 1098.89 4.90411 -2.34516 0
M  V30 11479 H 1102.69 2.42722 -1.6572 0
M  V30 11480 H 1100.21 1.28189 -0.997059 0
M  V30 11481 H 1102.2 4.16809 0.0872984 0
M  V30 11482 H 1100.86 3.16878 0.708406 0
M  V30 11483 H 1101.88 4.36283 -2.79065 0
M  V30 11484 H 1098.55 4.16934 -0.217246 0
M  V30 11485 H 1099.94 5.33234 -4.08792 0
M  V30 11486 N 1102.66 0.908147 1.28804 0
M  V30 11487 C 1104.07 0.585727 1.77274 0
M  V30 11488 C 1104.42 -0.898842 1.744 0
M  V30 11489 O 1103.55 -1.70301 1.33516 0
M  V30 11490 C 1104.14 1.05647 3.21907 0
M  V30 11491 C 1102.7 0.785066 3.68122 0
M  V30 11492 C 1101.85 1.22638 2.48707 0
M  V30 11493 H 1104.8 1.09 1.15346 0
M  V30 11494 H 1104.82 0.395442 3.7844 0
M  V30 11495 H 1104.33 2.13698 3.23967 0
M  V30 11496 H 1102.44 -0.282477 3.71528 0
M  V30 11497 H 1102.55 1.38888 4.58527 0
M  V30 11498 H 1100.91 0.645217 2.46392 0
M  V30 11499 H 1101.7 2.31512 2.5349 0
M  V30 11500 N 1104.14 -1.42577 0.671525 0
M  V30 11501 C 1105.42 -1.95222 0.121529 0
M  V30 11502 C 1105.8 -1.61209 -1.36289 0
M  V30 11503 O 1105.15 -0.906561 -2.09747 0
M  V30 11504 C 1105.36 -3.46846 0.387189 0
M  V30 11505 C 1106.7 -4.23525 0.301938 0
M  V30 11506 O 1107.73 -3.54753 0.320755 0
M  V30 11507 O 1106.59 -5.45967 0.241317 0
M  V30 11508 H 1103.68 -0.826999 0.000968615 0
M  V30 11509 H 1106.23 -1.52422 0.746029 0
M  V30 11510 H 1105 -3.64795 1.41563 0
M  V30 11511 H 1104.62 -3.96686 -0.26948 0
M  V30 11512 N 1105.62 -0.414636 -1.52048 0
M  V30 11513 C 1106.86 0.159585 -2.02171 0
M  V30 11514 C 1107.2 1.44321 -1.29943 0
M  V30 11515 O 1106.47 1.90185 -0.407402 0
M  V30 11516 C 1106.76 0.401655 -3.57853 0
M  V30 11517 C 1106.61 -0.899026 -4.40724 0
M  V30 11518 C 1107.93 1.1814 -4.23947 0
M  V30 11519 H 1105.05 0.0565257 -0.734829 0
M  V30 11520 H 1107.69 -0.549183 -1.8189 0
M  V30 11521 H 1105.84 1.00541 -3.75265 0
M  V30 11522 H 1107.51 -1.53502 -4.35011 0
M  V30 11523 H 1105.75 -1.50877 -4.06717 0
M  V30 11524 H 1106.42 -0.683974 -5.47746 0
M  V30 11525 H 1108.9 0.670203 -4.10667 0
M  V30 11526 H 1107.78 1.31953 -5.32804 0
M  V30 11527 H 1108.04 2.2035 -3.83273 0
M  V30 11528 N 1107.1 1.56929 -0.145233 0
M  V30 11529 C 1108.01 2.20238 0.808219 0
M  V30 11530 C 1109.02 1.18615 1.27304 0
M  V30 11531 O 1110.2 1.51186 1.3306 0
M  V30 11532 C 1107.26 2.81016 2.03055 0
M  V30 11533 C 1106.32 3.97759 1.61512 0
M  V30 11534 C 1105.56 4.55628 2.77918 0
M  V30 11535 O 1105.78 4.12378 3.94082 0
M  V30 11536 O 1104.71 5.45917 2.53492 0
M  V30 11537 H 1108.54 3.02221 0.299314 0
M  V30 11538 H 1106.13 1.49176 0.0817051 0
M  V30 11539 H 1108.01 3.19652 2.74592 0
M  V30 11540 H 1106.68 2.02047 2.52901 0
M  V30 11541 H 1105.59 3.63842 0.870033 0
M  V30 11542 H 1106.92 4.78242 1.16383 0
M  V30 11543 N 1108.58 -0.128553 1.57075 0
M  V30 11544 C 1109.51 -1.18362 1.96273 0
M  V30 11545 C 1110.52 -1.3818 0.860818 0
M  V30 11546 O 1111.71 -1.37424 1.13916 0
M  V30 11547 C 1108.81 -2.54533 2.23755 0
M  V30 11548 C 1107.98 -2.55446 3.55058 0
M  V30 11549 C 1107.04 -3.73291 3.70864 0
M  V30 11550 O 1106.07 -3.57315 4.43074 0
M  V30 11551 N 1107.27 -4.91481 3.08912 0
M  V30 11552 H 1110.03 -0.850276 2.87385 0
M  V30 11553 H 1107.6 -0.317931 1.58748 0
M  V30 11554 H 1109.59 -3.31912 2.31553 0
M  V30 11555 H 1108.16 -2.80087 1.38816 0
M  V30 11556 H 1107.38 -1.6385 3.58534 0
M  V30 11557 H 1108.67 -2.53104 4.4138 0
M  V30 11558 H 1108.06 -5.07364 2.50196 0
M  V30 11559 H 1106.62 -5.6657 3.22245 0
M  V30 11560 N 1110.05 -1.5248 -0.398459 0
M  V30 11561 C 1111.46 -1.59107 -0.976817 0
M  V30 11562 C 1111.82 -0.438104 -1.91246 0
M  V30 11563 O 1110.94 0.440111 -2.11877 0
M  V30 11564 C 1111.54 -2.88373 -1.77838 0
M  V30 11565 C 1110.09 -2.97445 -2.30659 0
M  V30 11566 C 1109.24 -2.5414 -1.10942 0
M  V30 11567 H 1112.19 -1.57695 -0.178324 0
M  V30 11568 H 1112.21 -2.74327 -2.63676 0
M  V30 11569 H 1111.73 -3.72269 -1.09714 0
M  V30 11570 H 1109.83 -2.18066 -3.02123 0
M  V30 11571 H 1109.94 -4.019 -2.60794 0
M  V30 11572 H 1108.3 -2.08237 -1.46661 0
M  V30 11573 H 1109.09 -3.40421 -0.443684 0
M  V30 11574 N 1111.53 0.65634 -1.43283 0
M  V30 11575 C 1112.77 1.4281 -1.46235 0
M  V30 11576 C 1113.14 1.9182 -0.0830126 0
M  V30 11577 O 1114.34 2.68797 0.0127701 0
M  V30 11578 C 1112.61 2.58008 -2.47319 0
M  V30 11579 S 1114.17 3.46582 -2.69122 0
M  V30 11580 H 1110.98 0.487523 -0.517534 0
M  V30 11581 H 1113.59 0.762298 -1.80026 0
M  V30 11582 H 1112.29 2.20271 -3.46279 0
M  V30 11583 H 1111.82 3.29441 -2.15016 0
M  V30 11584 H 1113.84 4.54629 -1.98813 0
M  V30 11585 N 1113.01 1.29761 0.894412 0
M  V30 11586 C 1113.96 1.15341 1.99912 0
M  V30 11587 C 1114.93 0.0453488 1.66038 0
M  V30 11588 O 1116.11 0.213829 1.89598 0
M  V30 11589 C 1113.25 0.841432 3.34685 0
M  V30 11590 C 1112.36 2.03046 3.81309 0
M  V30 11591 C 1111.5 1.65739 5.04682 0
M  V30 11592 C 1110.54 2.81191 5.43689 0
M  V30 11593 N 1109.68 2.44244 6.58247 0
M  V30 11594 H 1114.52 2.09854 2.11578 0
M  V30 11595 H 1112.05 1.04421 1.03608 0
M  V30 11596 H 1114.01 0.641211 4.12243 0
M  V30 11597 H 1112.64 -0.066797 3.22731 0
M  V30 11598 H 1111.69 2.34222 2.9974 0
M  V30 11599 H 1113 2.89538 4.06164 0
M  V30 11600 H 1112.16 1.42036 5.8984 0
M  V30 11601 H 1110.9 0.764019 4.81678 0
M  V30 11602 H 1109.9 3.0557 4.57064 0
M  V30 11603 H 1111.13 3.712 5.68672 0
M  V30 11604 H 1109.07 1.57402 6.36837 0
M  V30 11605 H 1108.99 3.24269 6.82924 0
M  V30 11606 H 1110.26 2.23875 7.46659 0
M  V30 11607 N 1114.49 -1.10549 1.12324 0
M  V30 11608 C 1115.71 -1.8681 0.900927 0
M  V30 11609 C 1116.14 -1.80049 -0.54443 0
M  V30 11610 O 1115.5 -1.16957 -1.38531 0
M  V30 11611 C 1115.54 -3.33197 1.37883 0
M  V30 11612 O 1114.65 -4.08628 0.556529 0
M  V30 11613 H 1113.99 -0.579709 0.32378 0
M  V30 11614 H 1116.52 -1.39678 1.49503 0
M  V30 11615 H 1116.53 -3.84047 1.37739 0
M  V30 11616 H 1115.2 -3.37435 2.43127 0
M  V30 11617 H 1113.78 -3.67627 0.62486 0
M  V30 11618 N 1115.97 -0.914965 -1.28321 0
M  V30 11619 C 1117.19 -0.564023 -1.99583 0
M  V30 11620 C 1117.62 0.847821 -1.6791 0
M  V30 11621 O 1116.97 1.56682 -0.912171 0
M  V30 11622 C 1117.02 -0.781368 -3.52033 0
M  V30 11623 O 1116.13 0.159072 -4.12093 0
M  V30 11624 H 1115.47 -0.218565 -0.626997 0
M  V30 11625 H 1118 -1.23074 -1.63444 0
M  V30 11626 H 1118.01 -0.691946 -4.0209 0
M  V30 11627 H 1116.68 -1.81059 -3.7442 0
M  V30 11628 H 1115.26 0.0208145 -3.72894 0
M  V30 11629 N 1117.44 1.42219 -0.679077 0
M  V30 11630 C 1118.69 2.01777 -0.20342 0
M  V30 11631 C 1119.02 1.53592 1.18841 0
M  V30 11632 O 1118.3 0.739954 1.79875 0
M  V30 11633 C 1118.58 3.59281 -0.242791 0
M  V30 11634 C 1118.43 4.17634 -1.67038 0
M  V30 11635 C 1119.75 4.38218 0.406624 0
M  V30 11636 H 1116.87 0.733134 -0.0753916 0
M  V30 11637 H 1119.51 1.69185 -0.864673 0
M  V30 11638 H 1117.66 3.87178 0.320248 0
M  V30 11639 H 1119.34 4.00674 -2.286 0
M  V30 11640 H 1117.58 3.73301 -2.20973 0
M  V30 11641 H 1118.25 5.26776 -1.64958 0
M  V30 11642 H 1120.73 4.16036 -0.0727077 0
M  V30 11643 H 1119.6 5.47793 0.348457 0
M  V30 11644 H 1119.86 4.16418 1.48487 0
M  V30 11645 N 1118.92 0.422693 1.51826 0
M  V30 11646 C 1120.34 0.0742364 1.59427 0
M  V30 11647 C 1120.54 -1.41491 1.43466 0
M  V30 11648 O 1119.59 -2.18326 1.26846 0
M  V30 11649 C 1120.91 0.581272 2.95028 0
M  V30 11650 C 1122.45 0.54043 3.08299 0
M  V30 11651 C 1122.93 1.0242 4.46401 0
M  V30 11652 N 1124.42 0.981576 4.5268 0
M  V30 11653 C 1125.16 1.32693 5.57835 0
M  V30 11654 N 1124.65 1.74441 6.70479 0
M  V30 11655 N 1126.44 1.24603 5.48115 0
M  V30 11656 H 1118.6 1.39178 1.60447 0
M  V30 11657 H 1120.86 0.572607 0.75553 0
M  V30 11658 H 1120.56 1.62261 3.12032 0
M  V30 11659 H 1120.44 -0.00176969 3.772 0
M  V30 11660 H 1122.83 -0.491895 2.90971 0
M  V30 11661 H 1122.91 1.15969 2.28002 0
M  V30 11662 H 1122.55 2.05491 4.64474 0
M  V30 11663 H 1122.48 0.381613 5.25215 0
M  V30 11664 H 1124.97 0.674808 3.71826 0
M  V30 11665 H 1125.28 1.99068 7.46721 0
M  V30 11666 H 1123.63 1.78356 6.71725 0
M  V30 11667 H 1126.82 0.918641 4.58997 0
M  V30 11668 H 1126.99 1.51847 6.29958 0
M  V30 11669 N 1120.4 -1.5685 0.153553 0
M  V30 11670 C 1121.63 -2.00701 -0.502678 0
M  V30 11671 C 1122.04 -1.0337 -1.57988 0
M  V30 11672 O 1121.4 -0.0317233 -1.82472 0
M  V30 11673 C 1121.45 -3.44443 -1.09732 0
M  V30 11674 O 1121.17 -4.38054 -0.0631405 0
M  V30 11675 C 1122.67 -4.03605 -1.83352 0
M  V30 11676 H 1119.89 -0.658229 -0.130289 0
M  V30 11677 H 1122.44 -2.02965 0.250063 0
M  V30 11678 H 1120.59 -3.43009 -1.80065 0
M  V30 11679 H 1121.01 -5.22114 -0.499681 0
M  V30 11680 H 1122.48 -5.0616 -2.20241 0
M  V30 11681 H 1122.96 -3.44687 -2.7219 0
M  V30 11682 H 1123.56 -4.08688 -1.17703 0
M  V30 11683 N 1121.88 0.120221 -1.57141 0
M  V30 11684 C 1123.12 0.824472 -1.85941 0
M  V30 11685 C 1123.48 1.77552 -0.741152 0
M  V30 11686 O 1122.77 1.89842 0.258939 0
M  V30 11687 C 1122.97 1.61338 -3.18912 0
M  V30 11688 C 1122.79 0.740224 -4.43566 0
M  V30 11689 C 1121.56 0.39553 -5.0375 0
M  V30 11690 C 1123.76 0.0584053 -5.14267 0
M  V30 11691 N 1121.74 -0.488415 -6.11954 0
M  V30 11692 C 1123.12 -0.684591 -6.16209 0
M  V30 11693 C 1125.17 -0.0181409 -4.97897 0
M  V30 11694 C 1123.87 -1.49694 -7.03551 0
M  V30 11695 C 1125.9 -0.817313 -5.85725 0
M  V30 11696 C 1125.26 -1.54851 -6.87169 0
M  V30 11697 H 1121.36 0.278664 -0.730664 0
M  V30 11698 H 1123.94 0.0882789 -1.945 0
M  V30 11699 H 1122.12 2.32062 -3.11451 0
M  V30 11700 H 1123.85 2.26287 -3.35524 0
M  V30 11701 H 1120.6 0.737491 -4.67823 0
M  V30 11702 H 1121.03 -0.9222 -6.7069 0
M  V30 11703 H 1125.67 0.532815 -4.19429 0
M  V30 11704 H 1123.39 -2.05906 -7.81427 0
M  V30 11705 H 1126.97 -0.878884 -5.75123 0
M  V30 11706 H 1125.85 -2.15696 -7.53953 0
M  V30 11707 N 1123.36 1.52689 0.390367 0
M  V30 11708 C 1124.58 1.71839 1.16129 0
M  V30 11709 C 1125.01 0.435226 1.82996 0
M  V30 11710 O 1124.36 -0.60889 1.70769 0
M  V30 11711 C 1124.41 2.86784 2.18603 0
M  V30 11712 O 1123.52 2.53662 3.25161 0
M  V30 11713 H 1122.86 0.571455 0.338135 0
M  V30 11714 H 1125.39 1.99475 0.45508 0
M  V30 11715 H 1125.4 3.12239 2.62622 0
M  V30 11716 H 1124.07 3.79872 1.69322 0
M  V30 11717 H 1122.65 2.38942 2.86289 0
M  V30 11718 N 1124.83 -0.648732 1.43629 0
M  V30 11719 C 1126.25 -1.23001 1.40455 0
M  V30 11720 C 1126.6 -1.95886 0.110897 0
M  V30 11721 O 1125.72 -2.01485 -0.789487 0
M  V30 11722 C 1126.32 -2.23716 2.54434 0
M  V30 11723 C 1124.88 -2.77311 2.54511 0
M  V30 11724 C 1124.02 -1.52024 2.31914 0
M  V30 11725 H 1126.97 -0.440473 1.52465 0
M  V30 11726 H 1126.99 -3.05979 2.26179 0
M  V30 11727 H 1126.51 -1.7064 3.48574 0
M  V30 11728 H 1124.61 -3.34437 1.64263 0
M  V30 11729 H 1124.72 -3.2455 3.52426 0
M  V30 11730 H 1123.08 -1.79531 1.80667 0
M  V30 11731 H 1123.87 -1.00876 3.28145 0
M  V30 11732 N 1126.31 -1.30234 -0.887518 0
M  V30 11733 C 1127.26 -1.16302 -2.01436 0
M  V30 11734 C 1128.25 -0.0755422 -1.69231 0
M  V30 11735 O 1129.46 -0.236213 -1.78443 0
M  V30 11736 H 1125.84 -0.35961 -0.660443 0
M  V30 11737 H 1127.81 -2.11677 -2.10322 0
M  V30 11738 C 1126.56 -0.869009 -3.36665 0
M  V30 11739 H 1125.88 -1.69787 -3.61956 0
M  V30 11740 H 1127.32 -0.811621 -4.16159 0
M  V30 11741 C 1125.78 0.428021 -3.3417 0
M  V30 11742 O 1126.31 1.45033 -3.74604 0
M  V30 11743 N 1124.51 0.438264 -2.87276 0
M  V30 11744 H 1124.06 -0.394142 -2.54567 0
M  V30 11745 H 1124.02 1.30604 -2.85989 0
M  V30 11746 N 1127.79 1.09952 -1.12909 0
M  V30 11747 C 1129.02 1.8633 -0.910821 0
M  V30 11748 C 1129.44 1.80335 0.534874 0
M  V30 11749 O 1128.8 1.1769 1.37908 0
M  V30 11750 C 1128.85 3.32462 -1.39648 0
M  V30 11751 O 1127.95 4.08327 -0.578192 0
M  V30 11752 H 1127.29 0.577984 -0.32685 0
M  V30 11753 H 1129.82 1.38883 -1.50242 0
M  V30 11754 H 1129.83 3.83311 -1.39774 0
M  V30 11755 H 1128.51 3.36141 -2.44913 0
M  V30 11756 H 1127.08 3.67291 -0.644347 0
M  V30 11757 N 1129.27 0.921757 1.27833 0
M  V30 11758 C 1130.23 0.420978 2.25301 0
M  V30 11759 C 1131.23 -0.457158 1.54165 0
M  V30 11760 O 1132.42 -0.259079 1.72263 0
M  V30 11761 C 1129.55 -0.395501 3.38598 0
M  V30 11762 H 1130.75 1.28206 2.71115 0
M  V30 11763 H 1128.3 0.701893 1.39654 0
M  V30 11764 H 1129.03 -1.27565 2.98157 0
M  V30 11765 H 1128.82 0.234029 3.91401 0
M  V30 11766 H 1130.31 -0.736444 4.11055 0
M  V30 11767 N 1130.75 -1.41857 0.686609 0
M  V30 11768 C 1131.99 -2.01666 0.214118 0
M  V30 11769 C 1132.33 -1.5422 -1.18025 0
M  V30 11770 O 1131.6 -0.749482 -1.7948 0
M  V30 11771 C 1131.88 -3.59147 0.261841 0
M  V30 11772 C 1131.74 -4.16742 1.69251 0
M  V30 11773 C 1133.06 -4.38427 -0.383378 0
M  V30 11774 H 1130.17 -0.732724 0.0792785 0
M  V30 11775 H 1132.82 -1.68724 0.873633 0
M  V30 11776 H 1130.97 -3.87342 -0.29971 0
M  V30 11777 H 1132.64 -3.99456 2.30722 0
M  V30 11778 H 1130.88 -3.72124 2.2295 0
M  V30 11779 H 1131.55 -5.25894 1.6775 0
M  V30 11780 H 1134.03 -4.15992 0.0947701 0
M  V30 11781 H 1132.9 -5.4797 -0.319401 0
M  V30 11782 H 1133.17 -4.172 -1.46276 0
M  V30 11783 N 1132.22 -0.430739 -1.51599 0
M  V30 11784 C 1133.17 0.398482 -2.29161 0
M  V30 11785 C 1134.17 1.02676 -1.34737 0
M  V30 11786 O 1135.37 0.96248 -1.52106 0
M  V30 11787 H 1131.75 0.14731 -0.737431 0
M  V30 11788 H 1133.72 -0.276619 -2.97115 0
M  V30 11789 C 1132.47 1.49094 -3.14112 0
M  V30 11790 H 1131.79 1.01685 -3.86652 0
M  V30 11791 H 1133.23 2.04453 -3.7145 0
M  V30 11792 C 1131.69 2.47049 -2.29059 0
M  V30 11793 O 1132.22 3.51435 -1.94567 0
M  V30 11794 N 1130.43 2.17778 -1.92409 0
M  V30 11795 H 1129.97 1.3292 -2.20658 0
M  V30 11796 H 1129.93 2.8356 -1.35798 0
M  V30 11797 N 1133.7 1.56767 -0.161869 0
M  V30 11798 C 1135.11 1.83265 0.356466 0
M  V30 11799 C 1135.46 1.08127 1.63716 0
M  V30 11800 O 1134.59 0.33127 2.13849 0
M  V30 11801 C 1135.18 3.32437 0.653521 0
M  V30 11802 C 1133.74 3.59465 1.11633 0
M  V30 11803 C 1132.89 2.76909 0.147204 0
M  V30 11804 H 1135.84 1.53926 -0.386308 0
M  V30 11805 H 1135.86 3.49401 1.50662 0
M  V30 11806 H 1135.37 3.87098 -0.278766 0
M  V30 11807 H 1133.48 3.10206 2.06404 0
M  V30 11808 H 1133.59 4.67853 1.03202 0
M  V30 11809 H 1131.95 2.46457 0.642739 0
M  V30 11810 H 1132.74 3.34346 -0.778938 0
M  V30 11811 N 1135.18 -0.111886 1.57202 0
M  V30 11812 C 1136.13 -1.14287 1.97288 0
M  V30 11813 C 1137.11 -1.36686 0.848868 0
M  V30 11814 O 1138.31 -1.37659 1.11261 0
M  V30 11815 C 1135.44 -2.46759 2.38673 0
M  V30 11816 C 1134.52 -2.27805 3.57723 0
M  V30 11817 N 1134.91 -1.78679 4.73189 0
M  V30 11818 C 1133.21 -2.58435 3.63494 0
M  V30 11819 C 1133.91 -1.736 5.55192 0
M  V30 11820 N 1132.89 -2.18205 4.97883 0
M  V30 11821 H 1136.69 -0.755711 2.84018 0
M  V30 11822 H 1134.2 -0.31954 1.59225 0
M  V30 11823 H 1136.2 -3.21335 2.65611 0
M  V30 11824 H 1134.86 -2.86227 1.53311 0
M  V30 11825 H 1135.87 -1.48121 4.96267 0
M  V30 11826 H 1132.55 -3.0154 2.88755 0
M  V30 11827 H 1133.94 -1.36812 6.57824 0
M  V30 11828 N 1136.66 -1.52894 -0.382264 0
M  V30 11829 C 1137.89 -1.72152 -1.14766 0
M  V30 11830 C 1138.3 -0.442911 -1.83531 0
M  V30 11831 O 1137.66 0.583085 -1.72935 0
M  V30 11832 C 1137.71 -2.87566 -2.19062 0
M  V30 11833 O 1137.43 -4.10478 -1.53099 0
M  V30 11834 C 1138.93 -3.18559 -3.08277 0
M  V30 11835 H 1136.15 -0.576212 -0.343832 0
M  V30 11836 H 1138.7 -1.99571 -0.446273 0
M  V30 11837 H 1136.85 -2.62589 -2.84826 0
M  V30 11838 H 1137.26 -4.74989 -2.22454 0
M  V30 11839 H 1138.74 -4.02763 -3.77473 0
M  V30 11840 H 1139.22 -2.33222 -3.72161 0
M  V30 11841 H 1139.82 -3.454 -2.48151 0
M  V30 11842 N 1138.14 0.641106 -1.43971 0
M  V30 11843 C 1139.38 1.40291 -1.46445 0
M  V30 11844 C 1139.72 1.93978 -0.0929004 0
M  V30 11845 O 1138.99 1.73043 0.888043 0
M  V30 11846 C 1139.27 2.57551 -2.51673 0
M  V30 11847 C 1139.13 2.09279 -3.98149 0
M  V30 11848 C 1140.45 3.59752 -2.53508 0
M  V30 11849 H 1137.57 0.508771 -0.533218 0
M  V30 11850 H 1140.21 0.725767 -1.75592 0
M  V30 11851 H 1138.36 3.15319 -2.2695 0
M  V30 11852 H 1140.03 1.56418 -4.33971 0
M  V30 11853 H 1138.27 1.40545 -4.10402 0
M  V30 11854 H 1138.94 2.93655 -4.67409 0
M  V30 11855 H 1141.42 3.11766 -2.75574 0
M  V30 11856 H 1140.3 4.39332 -3.29057 0
M  V30 11857 H 1140.56 4.13156 -1.57335 0
M  V30 11858 N 1139.62 1.30703 0.880598 0
M  V30 11859 C 1141.03 1.17818 1.4483 0
M  V30 11860 C 1141.38 -0.219456 1.94969 0
M  V30 11861 O 1140.5 -1.11646 1.85375 0
M  V30 11862 C 1141.1 2.13275 2.63247 0
M  V30 11863 C 1139.66 2.04356 3.16094 0
M  V30 11864 C 1138.8 2.03108 1.88792 0
M  V30 11865 H 1141.75 1.42909 0.690125 0
M  V30 11866 H 1141.78 1.71615 3.39601 0
M  V30 11867 H 1141.29 3.14988 2.26725 0
M  V30 11868 H 1139.39 1.058 3.57263 0
M  V30 11869 H 1139.5 2.92953 3.79098 0
M  V30 11870 H 1137.87 1.47971 2.07308 0
M  V30 11871 H 1138.65 3.06558 1.54521 0
M  V30 11872 N 1141.09 -1.09351 1.1349 0
M  V30 11873 C 1142.5 -1.63035 0.909746 0
M  V30 11874 C 1142.86 -1.88229 -0.553573 0
M  V30 11875 O 1141.98 -1.63256 -1.42044 0
M  V30 11876 C 1142.58 -2.96186 1.64497 0
M  V30 11877 C 1141.13 -3.46692 1.46566 0
M  V30 11878 C 1140.28 -2.21095 1.67369 0
M  V30 11879 H 1143.23 -0.92704 1.28809 0
M  V30 11880 H 1143.25 -3.64177 1.10251 0
M  V30 11881 H 1142.77 -2.77818 2.70996 0
M  V30 11882 H 1140.87 -3.70183 0.423728 0
M  V30 11883 H 1140.98 -4.24078 2.22923 0
M  V30 11884 H 1139.34 -2.29789 1.0986 0
M  V30 11885 H 1140.13 -2.05245 2.7519 0
M  V30 11886 N 1142.57 -0.928524 -1.27343 0
M  V30 11887 C 1143.53 -0.43292 -2.25074 0
M  V30 11888 C 1144.53 0.448976 -1.54405 0
M  V30 11889 O 1145.72 0.249939 -1.72398 0
M  V30 11890 C 1142.86 0.377539 -3.38803 0
M  V30 11891 H 1144.05 -1.29642 -2.70431 0
M  V30 11892 H 1141.6 -0.709289 -1.3928 0
M  V30 11893 H 1142.34 1.25982 -2.98829 0
M  V30 11894 H 1142.12 -0.254782 -3.91271 0
M  V30 11895 H 1143.61 0.714634 -4.1144 0
M  V30 11896 N 1144.05 1.41491 -0.694123 0
M  V30 11897 C 1145.29 2.03117 -0.228614 0
M  V30 11898 C 1145.65 1.53782 1.14957 0
M  V30 11899 O 1146.85 2.07325 1.71084 0
M  V30 11900 C 1145.13 3.56283 -0.282341 0
M  V30 11901 S 1146.68 4.38664 0.109333 0
M  V30 11902 H 1143.5 0.704993 -0.092227 0
M  V30 11903 H 1146.1 1.72947 -0.911578 0
M  V30 11904 H 1144.81 3.89685 -1.2874 0
M  V30 11905 H 1144.34 3.91154 0.419818 0
M  V30 11906 H 1146.35 4.77835 1.33747 0
M  V30 11907 N 1145.53 0.438773 1.51369 0
M  V30 11908 C 1146.94 -0.0240139 1.86685 0
M  V30 11909 C 1147.29 -1.41816 1.35583 0
M  V30 11910 O 1146.41 -2.04517 0.707232 0
M  V30 11911 C 1147.01 -0.0503527 3.38763 0
M  V30 11912 C 1145.57 -0.457556 3.73609 0
M  V30 11913 C 1144.72 0.348852 2.75097 0
M  V30 11914 H 1147.67 0.654552 1.44573 0
M  V30 11915 H 1147.69 -0.859534 3.70665 0
M  V30 11916 H 1147.2 0.964451 3.75925 0
M  V30 11917 H 1145.3 -1.47791 3.42036 0
M  V30 11918 H 1145.41 -0.181357 4.78757 0
M  V30 11919 H 1143.78 -0.193037 2.53967 0
M  V30 11920 H 1144.56 1.36256 3.15102 0
M  V30 11921 N 1147.01 -1.56678 0.170181 0
M  V30 11922 C 1147.92 -2.21496 -0.773079 0
M  V30 11923 C 1148.93 -1.20626 -1.25401 0
M  V30 11924 O 1150.11 -1.53283 -1.30638 0
M  V30 11925 C 1147.17 -2.8421 -1.98558 0
M  V30 11926 C 1146.23 -4.00278 -1.55164 0
M  V30 11927 C 1145.47 -4.59992 -2.70634 0
M  V30 11928 O 1145.69 -4.18595 -3.87472 0
M  V30 11929 O 1144.62 -5.49881 -2.44775 0
M  V30 11930 H 1148.45 -3.02659 -0.251195 0
M  V30 11931 H 1146.03 -1.49288 -0.0579621 0
M  V30 11932 H 1147.92 -3.2398 -2.69472 0
M  V30 11933 H 1146.59 -2.06045 -2.49654 0
M  V30 11934 H 1145.5 -3.6518 -0.812038 0
M  V30 11935 H 1146.83 -4.80033 -1.0876 0
M  V30 11936 N 1148.48 0.103547 -1.57259 0
M  V30 11937 C 1149.89 0.659006 -1.74683 0
M  V30 11938 C 1150.25 1.79542 -0.791142 0
M  V30 11939 O 1149.37 2.16376 0.0323585 0
M  V30 11940 C 1149.97 1.20222 -3.16752 0
M  V30 11941 C 1148.52 1.70382 -3.35629 0
M  V30 11942 C 1147.67 0.609886 -2.7051 0
M  V30 11943 H 1150.62 -0.122474 -1.58227 0
M  V30 11944 H 1150.64 2.07169 -3.19157 0
M  V30 11945 H 1150.16 0.374901 -3.86285 0
M  V30 11946 H 1148.26 2.55542 -2.71162 0
M  V30 11947 H 1148.37 1.80263 -4.43894 0
M  V30 11948 H 1146.73 1.04728 -2.32173 0
M  V30 11949 H 1147.52 -0.206713 -3.42677 0
M  V30 11950 N 1149.96 1.53094 0.37415 0
M  V30 11951 C 1150.89 1.75199 1.47776 0
M  V30 11952 C 1151.91 0.632627 1.50006 0
M  V30 11953 O 1153.1 0.908688 1.5364 0
M  V30 11954 C 1150.2 1.80909 2.86575 0
M  V30 11955 C 1149.37 3.10432 3.08141 0
M  V30 11956 C 1148.43 3.07495 4.27005 0
M  V30 11957 O 1147.45 3.81319 4.22592 0
M  V30 11958 N 1148.66 2.27715 5.33972 0
M  V30 11959 H 1151.42 2.70423 1.29196 0
M  V30 11960 H 1148.98 1.51766 0.563802 0
M  V30 11961 H 1150.97 1.76432 3.64217 0
M  V30 11962 H 1149.54 0.930074 2.98443 0
M  V30 11963 H 1148.76 3.2828 2.18233 0
M  V30 11964 H 1150.05 3.96047 3.19413 0
M  V30 11965 H 1149.45 1.67231 5.40417 0
M  V30 11966 H 1148.01 2.29065 6.10223 0
M  V30 11967 N 1151.44 -0.633461 1.44309 0
M  V30 11968 C 1152.69 -1.39031 1.46679 0
M  V30 11969 C 1153.01 -1.94745 0.0997165 0
M  V30 11970 O 1152.28 -1.75637 -0.867659 0
M  V30 11971 H 1150.86 -0.516051 0.540093 0
M  V30 11972 H 1153.52 -0.745739 1.80069 0
M  V30 11973 H 1152.62 -2.2228 2.19085 0
M  V30 11974 N 1152.92 -1.31168 -0.873655 0
M  V30 11975 C 1154.16 -1.21938 -1.64044 0
M  V30 11976 C 1154.52 0.219903 -1.90737 0
M  V30 11977 O 1155.72 0.435635 -2.65246 0
M  V30 11978 C 1153.99 -2.03633 -2.93715 0
M  V30 11979 S 1155.55 -2.11224 -3.84616 0
M  V30 11980 H 1152.37 -0.43436 -0.562896 0
M  V30 11981 H 1154.97 -1.65786 -1.03612 0
M  V30 11982 H 1153.68 -3.07298 -2.72022 0
M  V30 11983 H 1153.21 -1.6049 -3.59175 0
M  V30 11984 H 1155.22 -1.24787 -4.80253 0
M  V30 11985 N 1154.4 1.08748 -1.14068 0
M  V30 11986 C 1155.63 1.84546 -0.928789 0
M  V30 11987 C 1156.03 1.81741 0.526007 0
M  V30 11988 O 1155.38 1.2169 1.37613 0
M  V30 11989 C 1155.44 3.33282 -1.34771 0
M  V30 11990 C 1155.1 3.59826 -2.81734 0
M  V30 11991 C 1156.1 3.54964 -3.79864 0
M  V30 11992 C 1153.79 3.87949 -3.19063 0
M  V30 11993 C 1155.78 3.77847 -5.13332 0
M  V30 11994 C 1153.47 4.10487 -4.52707 0
M  V30 11995 C 1154.46 4.05429 -5.49651 0
M  V30 11996 O 1154.15 4.27378 -6.80884 0
M  V30 11997 H 1153.88 0.589555 -0.330758 0
M  V30 11998 H 1156.44 1.38275 -1.51886 0
M  V30 11999 H 1154.67 3.80294 -0.700948 0
M  V30 12000 H 1156.36 3.90508 -1.10718 0
M  V30 12001 H 1157.12 3.33256 -3.52371 0
M  V30 12002 H 1153 3.91007 -2.44201 0
M  V30 12003 H 1156.55 3.73815 -5.88989 0
M  V30 12004 H 1152.44 4.31677 -4.79922 0
M  V30 12005 H 1153.21 4.44802 -6.8709 0
M  V30 12006 N 1155.87 0.935264 1.26849 0
M  V30 12007 C 1156.8 0.457776 2.28969 0
M  V30 12008 C 1157.79 -0.48587 1.63013 0
M  V30 12009 O 1158.97 -0.388998 1.90264 0
M  V30 12010 C 1156.1 -0.283332 3.46142 0
M  V30 12011 C 1155.05 0.573196 4.24144 0
M  V30 12012 C 1154.38 -0.297525 5.33872 0
M  V30 12013 C 1155.68 1.84153 4.88759 0
M  V30 12014 H 1157.37 1.31125 2.69159 0
M  V30 12015 H 1154.92 0.631956 1.29392 0
M  V30 12016 H 1156.87 -0.628366 4.16689 0
M  V30 12017 H 1155.6 -1.1709 3.04889 0
M  V30 12018 H 1154.26 0.901043 3.55354 0
M  V30 12019 H 1153.9 -1.18427 4.8886 0
M  V30 12020 H 1153.6 0.272126 5.8697 0
M  V30 12021 H 1155.13 -0.637961 6.07258 0
M  V30 12022 H 1156.54 1.5641 5.51551 0
M  V30 12023 H 1154.94 2.35528 5.51948 0
M  V30 12024 H 1156.01 2.5565 4.12033 0
M  V30 12025 N 1157.35 -1.41121 0.701616 0
M  V30 12026 C 1158.26 -2.34565 0.0407815 0
M  V30 12027 C 1159.28 -1.56555 -0.75937 0
M  V30 12028 O 1160.45 -1.89008 -0.695542 0
M  V30 12029 C 1157.52 -3.35347 -0.879954 0
M  V30 12030 C 1156.58 -4.29241 -0.0713279 0
M  V30 12031 C 1155.81 -5.25209 -0.948211 0
M  V30 12032 O 1156.04 -5.26781 -2.18766 0
M  V30 12033 O 1154.97 -6.00605 -0.394657 0
M  V30 12034 H 1158.8 -2.92666 0.811188 0
M  V30 12035 H 1156.38 -1.42077 0.461991 0
M  V30 12036 H 1158.26 -3.9719 -1.40776 0
M  V30 12037 H 1156.94 -2.7968 -1.62975 0
M  V30 12038 H 1155.85 -3.70727 0.50122 0
M  V30 12039 H 1157.18 -4.88022 0.639935 0
M  V30 12040 N 1158.83 -0.446794 -1.51134 0
M  V30 12041 C 1159.76 0.350229 -2.30858 0
M  V30 12042 C 1160.74 1.0125 -1.36684 0
M  V30 12043 O 1161.93 1.01433 -1.65605 0
M  V30 12044 C 1159.06 1.4464 -3.15748 0
M  V30 12045 C 1158.01 0.907102 -4.18277 0
M  V30 12046 C 1157.34 2.09974 -4.91747 0
M  V30 12047 C 1158.64 -0.0649758 -5.2226 0
M  V30 12048 H 1160.33 -0.315105 -2.97737 0
M  V30 12049 H 1157.88 -0.152985 -1.43185 0
M  V30 12050 H 1159.83 2.01127 -3.70305 0
M  V30 12051 H 1158.55 2.14016 -2.46708 0
M  V30 12052 H 1157.21 0.364382 -3.64785 0
M  V30 12053 H 1156.86 2.77991 -4.19202 0
M  V30 12054 H 1156.56 1.74523 -5.61084 0
M  V30 12055 H 1158.08 2.66996 -5.49131 0
M  V30 12056 H 1159.5 0.4099 -5.71833 0
M  V30 12057 H 1157.9 -0.332529 -5.99178 0
M  V30 12058 H 1158.97 -0.998681 -4.74504 0
M  V30 12059 N 1160.31 1.56586 -0.178487 0
M  V30 12060 C 1161.22 2.21903 0.761321 0
M  V30 12061 C 1162.23 1.21289 1.2476 0
M  V30 12062 O 1163.41 1.53974 1.29823 0
M  V30 12063 C 1160.48 2.85259 1.97048 0
M  V30 12064 C 1159.54 4.01095 1.53039 0
M  V30 12065 C 1158.77 4.61421 2.68191 0
M  V30 12066 O 1158.99 4.20644 3.85247 0
M  V30 12067 O 1157.93 5.51171 2.41855 0
M  V30 12068 H 1161.75 3.02788 0.235141 0
M  V30 12069 H 1159.34 1.49316 0.0500442 0
M  V30 12070 H 1161.22 3.25404 2.6775 0
M  V30 12071 H 1159.89 2.07366 2.48558 0
M  V30 12072 H 1158.8 3.65606 0.792661 0
M  V30 12073 H 1160.13 4.80603 1.06213 0
M  V30 12074 N 1161.79 -0.095206 1.57312 0
M  V30 12075 C 1163.03 -0.798719 1.86083 0
M  V30 12076 C 1163.36 -1.78739 0.766991 0
M  V30 12077 O 1162.62 -1.9423 -0.239425 0
M  V30 12078 C 1162.92 -1.56244 3.21438 0
M  V30 12079 C 1162.58 -0.715903 4.4518 0
M  V30 12080 C 1161.24 -0.482537 4.78774 0
M  V30 12081 C 1163.6 -0.127404 5.21044 0
M  V30 12082 C 1160.92 0.349193 5.8566 0
M  V30 12083 C 1163.28 0.691649 6.28808 0
M  V30 12084 C 1161.94 0.935107 6.60918 0
M  V30 12085 H 1161.21 -0.292272 0.680924 0
M  V30 12086 H 1163.86 -0.0602105 1.91405 0
M  V30 12087 H 1162.16 -2.37251 3.118 0
M  V30 12088 H 1163.86 -2.11116 3.40927 0
M  V30 12089 H 1160.45 -0.907902 4.18874 0
M  V30 12090 H 1164.63 -0.29486 4.95423 0
M  V30 12091 H 1159.89 0.546797 6.0895 0
M  V30 12092 H 1164.06 1.15452 6.86763 0
M  V30 12093 H 1161.69 1.58139 7.4357 0
M  V30 12094 N 1163.26 -1.53291 -0.366026 0
M  V30 12095 C 1164.19 -1.82675 -1.45437 0
M  V30 12096 C 1165.18 -0.680227 -1.55907 0
M  V30 12097 O 1166.36 -0.930032 -1.70482 0
M  V30 12098 C 1163.49 -2.01626 -2.8278 0
M  V30 12099 C 1162.44 -3.17391 -2.87135 0
M  V30 12100 C 1161.77 -3.21634 -4.27148 0
M  V30 12101 C 1163.07 -4.5599 -2.54697 0
M  V30 12102 H 1164.76 -2.73818 -1.21096 0
M  V30 12103 H 1162.31 -1.31754 -0.581108 0
M  V30 12104 H 1164.26 -2.20765 -3.58944 0
M  V30 12105 H 1162.99 -1.07193 -3.08508 0
M  V30 12106 H 1161.65 -2.98071 -2.13422 0
M  V30 12107 H 1161.29 -2.2484 -4.49951 0
M  V30 12108 H 1160.99 -3.99414 -4.30978 0
M  V30 12109 H 1162.52 -3.42957 -5.05186 0
M  V30 12110 H 1163.93 -4.75294 -3.20575 0
M  V30 12111 H 1162.33 -5.36008 -2.69844 0
M  V30 12112 H 1163.4 -4.61133 -1.49949 0
M  V30 12113 N 1164.74 0.6258 -1.44643 0
M  V30 12114 C 1165.97 1.41028 -1.50979 0
M  V30 12115 C 1166.38 1.88717 -0.135092 0
M  V30 12116 O 1165.72 1.61778 0.870268 0
M  V30 12117 C 1165.79 2.66094 -2.41732 0
M  V30 12118 C 1165.45 2.40166 -3.88805 0
M  V30 12119 C 1166.45 2.01661 -4.79196 0
M  V30 12120 C 1164.13 2.53641 -4.33557 0
M  V30 12121 C 1166.13 1.76966 -6.12341 0
M  V30 12122 C 1163.81 2.2856 -5.66748 0
M  V30 12123 C 1164.81 1.90282 -6.55959 0
M  V30 12124 O 1164.5 1.65484 -7.86683 0
M  V30 12125 H 1164.23 0.438757 -0.514265 0
M  V30 12126 H 1166.78 0.772034 -1.90339 0
M  V30 12127 H 1165.01 3.32575 -1.97309 0
M  V30 12128 H 1166.7 3.28107 -2.38957 0
M  V30 12129 H 1167.47 1.90802 -4.45892 0
M  V30 12130 H 1163.35 2.82404 -3.64375 0
M  V30 12131 H 1166.89 1.47014 -6.81933 0
M  V30 12132 H 1162.79 2.3903 -5.99612 0
M  V30 12133 H 1163.56 1.79686 -7.98533 0
M  V30 12134 N 1166.22 1.31629 0.866686 0
M  V30 12135 C 1167.63 1.19347 1.43573 0
M  V30 12136 C 1167.98 -0.198765 1.95191 0
M  V30 12137 O 1167.11 -1.09674 1.86549 0
M  V30 12138 C 1167.7 2.16055 2.6097 0
M  V30 12139 C 1166.26 2.07697 3.13909 0
M  V30 12140 C 1165.41 2.05099 1.86627 0
M  V30 12141 H 1168.36 1.43633 0.674929 0
M  V30 12142 H 1168.38 1.75207 3.37761 0
M  V30 12143 H 1167.89 3.17375 2.23371 0
M  V30 12144 H 1165.99 1.09583 3.56121 0
M  V30 12145 H 1166.11 2.96958 3.75969 0
M  V30 12146 H 1164.47 1.50162 2.05727 0
M  V30 12147 H 1165.25 3.0818 1.51261 0
M  V30 12148 N 1167.7 -1.08142 1.14644 0
M  V30 12149 C 1168.63 -2.17139 0.858667 0
M  V30 12150 C 1169.61 -1.69064 -0.187452 0
M  V30 12151 O 1170.8 -1.94151 -0.0435458 0
M  V30 12152 C 1167.93 -3.45648 0.33834 0
M  V30 12153 C 1166.88 -4.07129 1.32021 0
M  V30 12154 C 1166.21 -5.30623 0.659075 0
M  V30 12155 C 1167.51 -4.48095 2.68343 0
M  V30 12156 H 1169.2 -2.41468 1.77012 0
M  V30 12157 H 1166.75 -1.16052 0.852523 0
M  V30 12158 H 1168.7 -4.21216 0.124611 0
M  V30 12159 H 1167.42 -3.2088 -0.608553 0
M  V30 12160 H 1166.08 -3.33596 1.52016 0
M  V30 12161 H 1165.73 -5.02142 -0.293711 0
M  V30 12162 H 1165.43 -5.72714 1.31427 0
M  V30 12163 H 1166.95 -6.08903 0.454933 0
M  V30 12164 H 1168.37 -5.14828 2.5224 0
M  V30 12165 H 1166.76 -5.01113 3.30161 0
M  V30 12166 H 1167.83 -3.59852 3.25015 0
M  V30 12167 N 1169.18 -0.941978 -1.26351 0
M  V30 12168 C 1170.42 -0.590845 -1.94002 0
M  V30 12169 C 1170.76 0.868004 -1.73722 0
M  V30 12170 O 1170.03 1.62111 -1.07472 0
M  V30 12171 C 1170.31 -0.934901 -3.47752 0
M  V30 12172 C 1170.17 -2.44855 -3.77314 0
M  V30 12173 C 1171.49 -0.450888 -4.37784 0
M  V30 12174 H 1168.61 -0.21613 -0.704597 0
M  V30 12175 H 1171.25 -1.17634 -1.49205 0
M  V30 12176 H 1169.4 -0.436648 -3.86038 0
M  V30 12177 H 1171.07 -3.01959 -3.48738 0
M  V30 12178 H 1169.31 -2.89169 -3.23363 0
M  V30 12179 H 1169.98 -2.6398 -4.84787 0
M  V30 12180 H 1172.46 -0.878107 -4.06729 0
M  V30 12181 H 1171.34 -0.720439 -5.44152 0
M  V30 12182 H 1171.6 0.649162 -4.37308 0
M  V30 12183 N 1170.66 1.40747 -0.709091 0
M  V30 12184 C 1172.07 1.83955 -0.318968 0
M  V30 12185 C 1172.42 1.59304 1.14527 0
M  V30 12186 O 1171.54 1.07052 1.88066 0
M  V30 12187 C 1172.14 3.33934 -0.572147 0
M  V30 12188 C 1170.7 3.75661 -0.235802 0
M  V30 12189 C 1169.84 2.64024 -0.847743 0
M  V30 12190 H 1172.79 1.30107 -0.908734 0
M  V30 12191 H 1172.82 3.80143 0.164752 0
M  V30 12192 H 1172.33 3.51844 -1.63791 0
M  V30 12193 H 1170.43 3.63348 0.825164 0
M  V30 12194 H 1170.54 4.73955 -0.700263 0
M  V30 12195 H 1168.91 2.53197 -0.276283 0
M  V30 12196 H 1169.69 2.84748 -1.91765 0
M  V30 12197 N 1172.13 0.454803 1.50895 0
M  V30 12198 C 1173.04 -0.353495 2.31921 0
M  V30 12199 C 1174.06 -1.01136 1.41589 0
M  V30 12200 O 1175.24 -1.00291 1.74653 0
M  V30 12201 C 1172.3 -1.43032 3.15821 0
M  V30 12202 C 1171.36 -0.790763 4.21954 0
M  V30 12203 C 1170.59 -1.81628 5.01843 0
M  V30 12204 O 1170.82 -3.04078 4.8259 0
M  V30 12205 O 1169.75 -1.39713 5.8546 0
M  V30 12206 H 1173.58 0.308463 3.02129 0
M  V30 12207 H 1171.16 0.216971 1.47816 0
M  V30 12208 H 1173.04 -2.05444 3.67927 0
M  V30 12209 H 1171.72 -2.07605 2.48358 0
M  V30 12210 H 1170.63 -0.128127 3.73881 0
M  V30 12211 H 1171.96 -0.188251 4.9184 0
M  V30 12212 N 1173.61 -1.56489 0.186789 0
M  V30 12213 C 1174.84 -2.02163 -0.463126 0
M  V30 12214 C 1175.26 -1.06612 -1.54969 0
M  V30 12215 O 1174.62 -0.0482139 -1.81236 0
M  V30 12216 C 1174.67 -3.46337 -1.00416 0
M  V30 12217 O 1173.77 -3.53889 -2.11747 0
M  V30 12218 H 1173.11 -0.65496 -0.109194 0
M  V30 12219 H 1175.64 -2.02459 0.295227 0
M  V30 12220 H 1175.65 -3.85959 -1.32287 0
M  V30 12221 H 1174.33 -4.15376 -0.208693 0
M  V30 12222 H 1172.9 -3.26136 -1.80803 0
M  V30 12223 N 1175.09 0.086862 -1.5736 0
M  V30 12224 C 1176.02 1.10538 -2.05678 0
M  V30 12225 C 1177 1.41281 -0.947293 0
M  V30 12226 O 1178.19 1.51169 -1.21908 0
M  V30 12227 C 1175.32 2.42302 -2.48812 0
M  V30 12228 C 1174.27 2.25948 -3.63499 0
M  V30 12229 C 1173.6 3.62961 -3.92637 0
M  V30 12230 C 1174.9 1.69319 -4.94094 0
M  V30 12231 H 1176.59 0.703371 -2.91021 0
M  V30 12232 H 1174.14 0.336895 -1.40004 0
M  V30 12233 H 1176.09 3.13833 -2.81224 0
M  V30 12234 H 1174.81 2.84454 -1.60479 0
M  V30 12235 H 1173.47 1.5686 -3.31347 0
M  V30 12236 H 1173.12 4.02656 -3.01459 0
M  V30 12237 H 1172.82 3.52862 -4.69853 0
M  V30 12238 H 1174.34 4.35946 -4.27531 0
M  V30 12239 H 1175.76 2.30699 -5.24834 0
M  V30 12240 H 1174.15 1.69957 -5.7553 0
M  V30 12241 H 1175.22 0.653318 -4.80479 0
M  V30 12242 N 1176.57 1.53483 0.357892 0
M  V30 12243 C 1177.8 1.73956 1.12013 0
M  V30 12244 C 1178.21 0.472053 1.82803 0
M  V30 12245 O 1177.57 -0.555499 1.7384 0
M  V30 12246 C 1177.62 2.91015 2.14459 0
M  V30 12247 O 1177.34 4.12862 1.4655 0
M  V30 12248 C 1178.84 3.23423 3.0317 0
M  V30 12249 H 1176.06 0.58161 0.334621 0
M  V30 12250 H 1178.6 2.00256 0.414467 0
M  V30 12251 H 1176.76 2.67087 2.80612 0
M  V30 12252 H 1177.17 4.78468 2.14869 0
M  V30 12253 H 1178.65 4.08717 3.71018 0
M  V30 12254 H 1179.12 2.39114 3.68404 0
M  V30 12255 H 1179.73 3.49305 2.42624 0
M  V30 12256 N 1178.05 -0.61812 1.44973 0
M  V30 12257 C 1179.29 -1.37343 1.47715 0
M  V30 12258 C 1179.61 -1.95239 0.118784 0
M  V30 12259 O 1180.81 -2.7149 0.0237981 0
M  V30 12260 C 1179.27 -2.48732 2.60116 0
M  V30 12261 C 1178.88 -1.97294 4.02218 0
M  V30 12262 C 1180.62 -3.25831 2.72093 0
M  V30 12263 C 1178.53 -3.06102 5.06019 0
M  V30 12264 H 1177.46 -0.516175 0.549617 0
M  V30 12265 H 1180.11 -0.663617 1.7108 0
M  V30 12266 H 1178.49 -3.2235 2.30014 0
M  V30 12267 H 1179.67 -1.30455 4.41948 0
M  V30 12268 H 1177.98 -1.32972 3.94598 0
M  V30 12269 H 1180.58 -4.06968 3.46815 0
M  V30 12270 H 1180.92 -3.76156 1.7836 0
M  V30 12271 H 1181.45 -2.59309 3.01668 0
M  V30 12272 H 1178.19 -2.60706 6.01426 0
M  V30 12273 H 1177.71 -3.71541 4.70869 0
M  V30 12274 H 1179.39 -3.70662 5.30301 0
M  V30 12275 N 1179.52 -1.32087 -0.859693 0
M  V30 12276 C 1180.77 -1.23551 -1.61575 0
M  V30 12277 C 1181.12 0.20199 -1.91337 0
M  V30 12278 O 1180.42 1.13834 -1.54118 0
M  V30 12279 C 1180.61 -2.0234 -2.94607 0
M  V30 12280 C 1180.44 -3.53606 -2.77836 0
M  V30 12281 C 1179.21 -4.22948 -2.76483 0
M  V30 12282 C 1181.41 -4.48356 -2.51955 0
M  V30 12283 N 1179.39 -5.60301 -2.5087 0
M  V30 12284 C 1180.76 -5.7345 -2.35702 0
M  V30 12285 C 1182.82 -4.37669 -2.37383 0
M  V30 12286 C 1181.52 -6.89064 -2.06357 0
M  V30 12287 C 1183.55 -5.53077 -2.09427 0
M  V30 12288 C 1182.91 -6.77167 -1.93971 0
M  V30 12289 H 1179.01 -0.507252 -0.595164 0
M  V30 12290 H 1181.59 -1.66395 -1.01098 0
M  V30 12291 H 1179.76 -1.6185 -3.53071 0
M  V30 12292 H 1181.49 -1.8574 -3.59559 0
M  V30 12293 H 1178.25 -3.75017 -2.89239 0
M  V30 12294 H 1178.67 -6.32649 -2.41006 0
M  V30 12295 H 1183.31 -3.42386 -2.48056 0
M  V30 12296 H 1181.03 -7.84363 -1.94421 0
M  V30 12297 H 1184.62 -5.46731 -1.98937 0
M  V30 12298 H 1183.5 -7.64959 -1.72646 0
M  V30 12299 N 1181 1.07532 -1.15215 0
M  V30 12300 C 1182.25 1.8036 -0.927263 0
M  V30 12301 C 1182.58 1.86414 0.544371 0
M  V30 12302 O 1181.86 1.34653 1.40353 0
M  V30 12303 C 1182.14 3.25512 -1.53992 0
M  V30 12304 C 1181.99 3.27614 -3.08203 0
M  V30 12305 C 1183.31 4.22731 -1.22418 0
M  V30 12306 H 1180.43 0.654775 -0.338289 0
M  V30 12307 H 1183.07 1.25842 -1.42351 0
M  V30 12308 H 1181.22 3.72068 -1.11791 0
M  V30 12309 H 1182.89 2.89315 -3.59297 0
M  V30 12310 H 1181.14 2.66627 -3.42188 0
M  V30 12311 H 1181.81 4.29956 -3.46182 0
M  V30 12312 H 1184.28 3.84557 -1.58919 0
M  V30 12313 H 1183.16 5.22589 -1.67906 0
M  V30 12314 H 1183.42 4.41875 -0.14091 0
M  V30 12315 N 1182.48 0.948665 1.2585 0
M  V30 12316 C 1183.71 0.617229 1.97479 0
M  V30 12317 C 1184.12 -0.809406 1.7057 0
M  V30 12318 O 1183.48 -1.54066 0.97826 0
M  V30 12319 C 1183.53 0.859065 3.51144 0
M  V30 12320 O 1183.25 2.2296 3.77121 0
M  V30 12321 C 1184.75 0.539197 4.40009 0
M  V30 12322 H 1181.97 0.231933 0.629641 0
M  V30 12323 H 1184.52 1.27141 1.60173 0
M  V30 12324 H 1182.67 0.25138 3.86584 0
M  V30 12325 H 1183.09 2.29524 4.71613 0
M  V30 12326 H 1184.56 0.758986 5.46757 0
M  V30 12327 H 1185.04 -0.526062 4.36038 0
M  V30 12328 H 1185.64 1.12594 4.10125 0
M  V30 12329 N 1183.96 -1.40369 0.716545 0
M  V30 12330 C 1185.21 -2.00869 0.256466 0
M  V30 12331 C 1185.53 -1.56816 -1.15061 0
M  V30 12332 O 1184.79 -0.779696 -1.79497 0
M  V30 12333 C 1185.09 -3.56257 0.285583 0
M  V30 12334 C 1184.75 -4.19897 1.64309 0
M  V30 12335 C 1183.42 -4.36994 2.01469 0
M  V30 12336 C 1185.77 -4.55385 2.53524 0
M  V30 12337 C 1183.1 -4.86862 3.27387 0
M  V30 12338 C 1185.45 -5.06653 3.78795 0
M  V30 12339 C 1184.11 -5.21959 4.16071 0
M  V30 12340 H 1183.38 -0.735033 0.0938475 0
M  V30 12341 H 1186.03 -1.67966 0.919765 0
M  V30 12342 H 1184.33 -3.89075 -0.461287 0
M  V30 12343 H 1186.03 -4.00903 -0.0882496 0
M  V30 12344 H 1182.62 -4.06978 1.34413 0
M  V30 12345 H 1186.8 -4.41811 2.2609 0
M  V30 12346 H 1182.06 -4.96897 3.56235 0
M  V30 12347 H 1186.23 -5.33089 4.48095 0
M  V30 12348 H 1183.86 -5.60362 5.1371 0
M  V30 12349 N 1185.44 -0.462799 -1.50652 0
M  V30 12350 C 1186.68 0.0951853 -2.02576 0
M  V30 12351 C 1187.02 1.40113 -1.34469 0
M  V30 12352 O 1186.29 1.88793 -0.467702 0
M  V30 12353 C 1186.57 0.287603 -3.5895 0
M  V30 12354 C 1186.43 -1.03878 -4.37641 0
M  V30 12355 C 1187.75 1.04593 -4.27491 0
M  V30 12356 H 1184.86 0.0331191 -0.736255 0
M  V30 12357 H 1187.51 -0.606772 -1.80051 0
M  V30 12358 H 1185.66 0.885514 -3.78274 0
M  V30 12359 H 1187.33 -1.67263 -4.29908 0
M  V30 12360 H 1185.57 -1.6374 -4.01711 0
M  V30 12361 H 1186.24 -0.857889 -5.45293 0
M  V30 12362 H 1188.72 0.539213 -4.12591 0
M  V30 12363 H 1187.59 1.14935 -5.36732 0
M  V30 12364 H 1187.86 2.08045 -3.90089 0
M  V30 12365 N 1186.91 1.56388 -0.195085 0
M  V30 12366 C 1188.14 2.02406 0.452399 0
M  V30 12367 C 1188.56 1.07432 1.54402 0
M  V30 12368 O 1187.92 0.0578246 1.81208 0
M  V30 12369 C 1187.97 3.46864 0.985778 0
M  V30 12370 O 1187.07 3.55007 2.09867 0
M  V30 12371 H 1186.42 0.65553 0.105719 0
M  V30 12372 H 1188.95 2.02299 -0.30596 0
M  V30 12373 H 1188.96 3.86655 1.30238 0
M  V30 12374 H 1187.63 4.15481 0.186662 0
M  V30 12375 H 1186.21 3.2709 1.79071 0
M  V30 12376 N 1188.39 -0.0785156 1.57404 0
M  V30 12377 C 1189.62 -0.792042 1.9114 0
M  V30 12378 C 1190.04 -1.71458 0.790408 0
M  V30 12379 O 1189.39 -1.80959 -0.236662 0
M  V30 12380 C 1189.44 -1.59138 3.24588 0
M  V30 12381 O 1189.16 -0.705931 4.32375 0
M  V30 12382 C 1190.67 -2.4065 3.72293 0
M  V30 12383 H 1187.89 -0.225566 0.63195 0
M  V30 12384 H 1190.43 -0.0507929 2.04437 0
M  V30 12385 H 1188.58 -2.28498 3.12838 0
M  V30 12386 H 1189 -1.26121 5.09111 0
M  V30 12387 H 1190.47 -2.92204 4.68317 0
M  V30 12388 H 1190.95 -3.1987 3.00965 0
M  V30 12389 H 1191.56 -1.7646 3.86965 0
M  V30 12390 N 1189.87 -1.5367 -0.349747 0
M  V30 12391 C 1191.15 -1.61238 -1.10732 0
M  V30 12392 C 1191.53 -0.429756 -2.06679 0
M  V30 12393 O 1190.88 0.578564 -2.21054 0
M  V30 12394 C 1191.09 -2.97022 -1.83245 0
M  V30 12395 C 1192.43 -3.52158 -2.37212 0
M  V30 12396 O 1193.46 -2.99156 -1.9335 0
M  V30 12397 O 1192.32 -4.44853 -3.1744 0
M  V30 12398 H 1189.41 -0.65191 -0.508864 0
M  V30 12399 H 1191.96 -1.66015 -0.351738 0
M  V30 12400 H 1190.73 -3.74535 -1.13311 0
M  V30 12401 H 1190.35 -2.95808 -2.65675 0
M  V30 12402 N 1191.35 0.610423 -1.45298 0
M  V30 12403 C 1192.59 1.36959 -1.50379 0
M  V30 12404 C 1192.95 1.91872 -0.142378 0
M  V30 12405 O 1192.24 1.71944 0.845332 0
M  V30 12406 C 1192.44 2.53812 -2.51623 0
M  V30 12407 C 1192.27 2.10341 -3.97476 0
M  V30 12408 C 1191.04 1.96646 -4.65466 0
M  V30 12409 C 1193.23 1.67982 -4.86093 0
M  V30 12410 N 1191.22 1.46956 -5.96051 0
M  V30 12411 C 1192.59 1.29686 -6.06285 0
M  V30 12412 C 1194.64 1.55548 -4.72979 0
M  V30 12413 C 1193.34 0.801985 -7.14815 0
M  V30 12414 C 1195.37 1.07465 -5.81554 0
M  V30 12415 C 1194.73 0.701317 -7.009 0
M  V30 12416 H 1190.83 0.495191 -0.605236 0
M  V30 12417 H 1193.42 0.698121 -1.81754 0
M  V30 12418 H 1191.59 3.18558 -2.22205 0
M  V30 12419 H 1193.32 3.20683 -2.4687 0
M  V30 12420 H 1190.07 2.17743 -4.20577 0
M  V30 12421 H 1190.5 1.2435 -6.65482 0
M  V30 12422 H 1195.14 1.83038 -3.81126 0
M  V30 12423 H 1192.86 0.514634 -8.0646 0
M  V30 12424 H 1196.44 0.98274 -5.7344 0
M  V30 12425 H 1195.32 0.334967 -7.83484 0
M  V30 12426 N 1192.83 1.32541 0.852676 0
M  V30 12427 C 1194.1 1.1383 1.59067 0
M  V30 12428 C 1194.48 -0.300584 2.08949 0
M  V30 12429 O 1193.83 -1.29751 1.88088 0
M  V30 12430 C 1194.04 2.16758 2.73527 0
M  V30 12431 C 1195.39 2.50194 3.43057 0
M  V30 12432 O 1196.41 2.15319 2.83754 0
M  V30 12433 O 1195.27 3.09985 4.50079 0
M  V30 12434 H 1192.37 0.439379 0.700625 0
M  V30 12435 H 1194.91 1.44078 0.896632 0
M  V30 12436 H 1193.68 3.13469 2.34207 0
M  V30 12437 H 1193.31 1.87515 3.50605 0
M  V30 12438 N 1194.3 -1.0692 1.15784 0
M  V30 12439 C 1195.53 -1.83849 0.959903 0
M  V30 12440 C 1195.95 -1.8169 -0.486873 0
M  V30 12441 O 1195.31 -1.21305 -1.34739 0
M  V30 12442 C 1195.36 -3.28642 1.48414 0
M  V30 12443 O 1194.46 -4.0665 0.686249 0
M  V30 12444 H 1193.81 -0.569115 0.342059 0
M  V30 12445 H 1196.34 -1.34851 1.53871 0
M  V30 12446 H 1196.35 -3.7947 1.49888 0
M  V30 12447 H 1195.02 -3.29529 2.53739 0
M  V30 12448 H 1193.6 -3.65453 0.741501 0
M  V30 12449 N 1195.78 -0.955326 -1.25345 0
M  V30 12450 C 1197.01 -0.627233 -1.97688 0
M  V30 12451 C 1197.43 0.793973 -1.70522 0
M  V30 12452 O 1196.79 1.537 -0.961556 0
M  V30 12453 C 1196.84 -0.892969 -3.49369 0
M  V30 12454 O 1195.94 0.0278871 -4.12391 0
M  V30 12455 H 1195.28 -0.238402 -0.619726 0
M  V30 12456 H 1197.81 -1.28211 -1.59446 0
M  V30 12457 H 1197.82 -0.819517 -3.99685 0
M  V30 12458 H 1196.5 -1.92879 -3.6847 0
M  V30 12459 H 1195.08 -0.0978295 -3.72772 0
M  V30 12460 N 1197.26 1.39987 -0.723979 0
M  V30 12461 C 1198.51 2.00334 -0.266587 0
M  V30 12462 C 1198.83 1.57714 1.14679 0
M  V30 12463 O 1198.1 0.82037 1.77895 0
M  V30 12464 H 1196.68 0.740861 -0.095573 0
M  V30 12465 H 1199.34 1.712 -0.931481 0
M  V30 12466 H 1198.44 3.10594 -0.306282 0
M  V30 12467 N 1198.74 0.470782 1.50404 0
M  V30 12468 C 1199.7 -0.312227 2.27063 0
M  V30 12469 C 1200.7 -0.920709 1.31832 0
M  V30 12470 O 1201.89 -0.789937 1.5526 0
M  V30 12471 C 1199.02 -1.44477 3.0877 0
M  V30 12472 H 1200.22 0.36006 2.97731 0
M  V30 12473 H 1197.77 0.224837 1.54674 0
M  V30 12474 H 1198.51 -2.15212 2.42599 0
M  V30 12475 H 1198.29 -1.01426 3.78755 0
M  V30 12476 H 1199.78 -1.99713 3.66749 0
M  V30 12477 N 1200.22 -1.56282 0.203376 0
M  V30 12478 C 1201.46 -1.98105 -0.433844 0
M  V30 12479 C 1201.8 -1.09044 -1.60695 0
M  V30 12480 O 1201.07 -0.144193 -1.93965 0
M  V30 12481 C 1201.35 -3.4903 -0.885992 0
M  V30 12482 C 1201.21 -4.48867 0.289501 0
M  V30 12483 C 1202.53 -4.03871 -1.7486 0
M  V30 12484 H 1199.65 -0.720252 -0.156224 0
M  V30 12485 H 1202.29 -1.87681 0.295963 0
M  V30 12486 H 1200.44 -3.58045 -1.50785 0
M  V30 12487 H 1202.11 -4.51883 0.92734 0
M  V30 12488 H 1200.35 -4.23495 0.939934 0
M  V30 12489 H 1201.02 -5.51956 -0.0695128 0
M  V30 12490 H 1203.5 -3.97688 -1.22407 0
M  V30 12491 H 1202.38 -5.09827 -2.03391 0
M  V30 12492 H 1202.64 -3.49637 -2.70567 0
M  V30 12493 N 1201.7 0.070167 -1.57444 0
M  V30 12494 C 1202.64 1.10193 -2.04842 0
M  V30 12495 C 1203.64 1.39978 -0.954069 0
M  V30 12496 O 1204.84 1.39366 -1.13917 0
M  V30 12497 H 1201.22 0.372699 -0.653146 0
M  V30 12498 H 1203.19 0.676033 -2.90641 0
M  V30 12499 C 1201.94 2.40679 -2.50936 0
M  V30 12500 H 1201.26 2.1861 -3.34738 0
M  V30 12501 H 1202.7 3.11315 -2.87852 0
M  V30 12502 C 1201.16 3.06754 -1.39297 0
M  V30 12503 O 1201.69 3.949 -0.735989 0
M  V30 12504 N 1199.9 2.67404 -1.13769 0
M  V30 12505 H 1199.44 1.95813 -1.67376 0
M  V30 12506 H 1199.4 3.11937 -0.392787 0
M  V30 12507 N 1203.17 1.53854 0.341593 0
M  V30 12508 C 1204.45 1.61823 1.09875 0
M  V30 12509 C 1204.83 0.440711 2.06448 0
M  V30 12510 O 1204.18 -0.566833 2.21358 0
M  V30 12511 C 1204.39 2.9799 1.81668 0
M  V30 12512 C 1205.74 3.53411 2.35341 0
M  V30 12513 O 1206.76 3.00177 1.91761 0
M  V30 12514 O 1205.62 4.4653 3.15076 0
M  V30 12515 H 1202.71 0.654599 0.5054 0
M  V30 12516 H 1205.26 1.66199 0.342929 0
M  V30 12517 H 1204.03 3.7513 1.11323 0
M  V30 12518 H 1203.65 2.97213 2.64103 0
M  V30 12519 N 1204.65 -0.602709 1.4562 0
M  V30 12520 C 1205.9 -1.35769 1.49163 0
M  V30 12521 C 1206.21 -1.95102 0.139485 0
M  V30 12522 O 1207.42 -2.71449 0.0525919 0
M  V30 12523 C 1205.88 -2.45959 2.62739 0
M  V30 12524 C 1205.48 -1.93017 4.04288 0
M  V30 12525 C 1207.23 -3.22926 2.75534 0
M  V30 12526 C 1205.13 -3.00718 5.09237 0
M  V30 12527 H 1204.06 -0.510317 0.555061 0
M  V30 12528 H 1206.72 -0.645434 1.71774 0
M  V30 12529 H 1205.1 -3.19892 2.3342 0
M  V30 12530 H 1206.27 -1.2576 4.43307 0
M  V30 12531 H 1204.59 -1.2878 3.95986 0
M  V30 12532 H 1207.18 -4.03267 3.51112 0
M  V30 12533 H 1207.53 -3.74243 1.82339 0
M  V30 12534 H 1208.06 -2.56095 3.04402 0
M  V30 12535 H 1204.8 -2.54312 6.04157 0
M  V30 12536 H 1204.32 -3.66526 4.74783 0
M  V30 12537 H 1206 -3.65016 5.34202 0
M  V30 12538 N 1206.13 -1.32992 -0.845635 0
M  V30 12539 C 1207.08 -1.22682 -1.95494 0
M  V30 12540 C 1208.05 -0.106942 -1.65755 0
M  V30 12541 O 1209.23 -0.28405 -1.88674 0
M  V30 12542 C 1206.37 -0.965068 -3.31331 0
M  V30 12543 C 1205.48 -2.17058 -3.7351 0
M  V30 12544 C 1204.62 -1.84355 -4.98183 0
M  V30 12545 C 1203.66 -3.01176 -5.32878 0
M  V30 12546 N 1202.8 -2.68506 -6.48729 0
M  V30 12547 H 1207.64 -2.17562 -2.03644 0
M  V30 12548 H 1205.17 -1.08194 -0.996613 0
M  V30 12549 H 1207.13 -0.793771 -4.09579 0
M  V30 12550 H 1205.76 -0.0530285 -3.22756 0
M  V30 12551 H 1204.81 -2.45185 -2.90841 0
M  V30 12552 H 1206.12 -3.04413 -3.95138 0
M  V30 12553 H 1205.28 -1.6383 -5.84162 0
M  V30 12554 H 1204.02 -0.942264 -4.78511 0
M  V30 12555 H 1203.02 -3.22323 -4.45408 0
M  V30 12556 H 1204.25 -3.9205 -5.54503 0
M  V30 12557 H 1202.19 -1.80929 -6.30556 0
M  V30 12558 H 1202.11 -3.49392 -6.70419 0
M  V30 12559 H 1203.38 -2.51432 -7.37836 0
M  V30 12560 N 1207.61 1.06304 -1.1635 0
M  V30 12561 C 1208.54 2.15745 -0.893103 0
M  V30 12562 C 1209.52 1.69341 0.160531 0
M  V30 12563 O 1210.7 1.94196 0.0126526 0
M  V30 12564 C 1207.83 3.45066 -0.393287 0
M  V30 12565 C 1206.79 4.04978 -1.38482 0
M  V30 12566 C 1206.11 5.29507 -0.743409 0
M  V30 12567 C 1207.41 4.4377 -2.75438 0
M  V30 12568 H 1209.11 2.38622 -1.80831 0
M  V30 12569 H 1206.65 1.14681 -0.870878 0
M  V30 12570 H 1208.61 4.20964 -0.191607 0
M  V30 12571 H 1207.33 3.21808 0.557426 0
M  V30 12572 H 1205.99 3.31136 -1.57304 0
M  V30 12573 H 1205.64 5.02545 0.213787 0
M  V30 12574 H 1205.34 5.7055 -1.40521 0
M  V30 12575 H 1206.86 6.08102 -0.551746 0
M  V30 12576 H 1208.28 5.1075 -2.60398 0
M  V30 12577 H 1206.67 4.95797 -3.38091 0
M  V30 12578 H 1207.74 3.54636 -3.30699 0
M  V30 12579 N 1209.09 0.96196 1.24836 0
M  V30 12580 C 1210.02 0.506241 2.27946 0
M  V30 12581 C 1211 -0.451183 1.64007 0
M  V30 12582 O 1212.18 -0.348552 1.91046 0
M  V30 12583 C 1209.31 -0.209846 3.46665 0
M  V30 12584 C 1208.27 0.663035 4.22833 0
M  V30 12585 C 1207.59 -0.184216 5.34383 0
M  V30 12586 C 1208.89 1.94479 4.84742 0
M  V30 12587 H 1210.59 1.36805 2.66317 0
M  V30 12588 H 1208.13 0.65926 1.28023 0
M  V30 12589 H 1210.08 -0.539838 4.17928 0
M  V30 12590 H 1208.81 -1.10596 3.07305 0
M  V30 12591 H 1207.47 0.976216 3.53363 0
M  V30 12592 H 1207.12 -1.08031 4.91262 0
M  V30 12593 H 1206.82 0.39657 5.8626 0
M  V30 12594 H 1208.34 -0.509009 6.08475 0
M  V30 12595 H 1209.75 1.68074 5.48109 0
M  V30 12596 H 1208.15 2.47183 5.46828 0
M  V30 12597 H 1209.22 2.64332 4.06517 0
M  V30 12598 N 1210.56 -1.39601 0.731392 0
M  V30 12599 C 1211.53 -2.28992 0.0976037 0
M  V30 12600 C 1212.53 -1.46135 -0.670917 0
M  V30 12601 O 1213.72 -1.66856 -0.50047 0
M  V30 12602 C 1210.85 -3.29582 -0.871124 0
M  V30 12603 H 1212.04 -2.86541 0.885112 0
M  V30 12604 H 1209.59 -1.48188 0.497002 0
M  V30 12605 H 1210.33 -2.77082 -1.68512 0
M  V30 12606 H 1210.11 -3.9077 -0.322735 0
M  V30 12607 H 1211.6 -3.96479 -1.31126 0
M  V30 12608 N 1212.04 -0.478751 -1.50152 0
M  V30 12609 C 1213.29 0.073694 -2.02666 0
M  V30 12610 C 1213.62 1.38679 -1.35947 0
M  V30 12611 O 1212.9 1.88286 -0.4877 0
M  V30 12612 C 1213.18 0.249516 -3.59235 0
M  V30 12613 C 1213.03 -1.08514 -4.36514 0
M  V30 12614 C 1214.35 1.00053 -4.28576 0
M  V30 12615 H 1211.47 0.0253082 -0.736565 0
M  V30 12616 H 1214.11 -0.625834 -1.79397 0
M  V30 12617 H 1212.26 0.845343 -3.79192 0
M  V30 12618 H 1213.93 -1.71814 -4.28109 0
M  V30 12619 H 1212.18 -1.67992 -3.99952 0
M  V30 12620 H 1212.85 -0.915676 -5.44352 0
M  V30 12621 H 1215.32 0.495422 -4.1314 0
M  V30 12622 H 1214.2 1.09236 -5.37921 0
M  V30 12623 H 1214.46 2.03896 -3.92274 0
M  V30 12624 N 1213.52 1.56172 -0.211661 0
M  V30 12625 C 1214.75 2.02874 0.430905 0
M  V30 12626 C 1215.17 1.09064 1.53254 0
M  V30 12627 O 1214.53 0.0770408 1.81136 0
M  V30 12628 C 1214.58 3.4789 0.948933 0
M  V30 12629 O 1213.68 3.57213 2.0609 0
M  V30 12630 H 1213.02 0.656614 0.0987607 0
M  V30 12631 H 1215.55 2.01964 -0.327399 0
M  V30 12632 H 1215.56 3.88015 1.2613 0
M  V30 12633 H 1214.24 4.15656 0.142584 0
M  V30 12634 H 1212.81 3.28971 1.75592 0
M  V30 12635 N 1215 -0.0618163 1.57479 0
M  V30 12636 C 1216.25 -0.757569 1.87364 0
M  V30 12637 C 1216.57 -1.77607 0.805025 0
M  V30 12638 O 1215.84 -1.95202 -0.165216 0
M  V30 12639 H 1214.42 -0.28278 0.691408 0
M  V30 12640 H 1217.08 -0.0355354 1.94868 0
M  V30 12641 H 1216.18 -1.26758 2.85199 0
M  V30 12642 N 1216.48 -1.54033 -0.333429 0
M  V30 12643 C 1217.42 -1.82729 -1.40992 0
M  V30 12644 C 1218.39 -0.673677 -1.51825 0
M  V30 12645 O 1219.58 -0.919126 -1.67203 0
M  V30 12646 C 1216.72 -2.05155 -2.77498 0
M  V30 12647 C 1215.83 -3.32854 -2.75376 0
M  V30 12648 C 1214.97 -3.45294 -4.03665 0
M  V30 12649 C 1214.01 -4.66905 -3.95811 0
M  V30 12650 N 1213.14 -4.76323 -5.1581 0
M  V30 12651 H 1217.98 -2.74572 -1.15821 0
M  V30 12652 H 1215.52 -1.35988 -0.560859 0
M  V30 12653 H 1217.48 -2.16148 -3.56841 0
M  V30 12654 H 1216.11 -1.16615 -3.01 0
M  V30 12655 H 1215.16 -3.30651 -1.88081 0
M  V30 12656 H 1216.47 -4.22299 -2.65453 0
M  V30 12657 H 1215.63 -3.55775 -4.91436 0
M  V30 12658 H 1214.36 -2.53924 -4.16382 0
M  V30 12659 H 1213.37 -4.56491 -3.06425 0
M  V30 12660 H 1214.59 -5.59649 -3.84668 0
M  V30 12661 H 1212.54 -3.87866 -5.29052 0
M  V30 12662 H 1212.46 -5.59719 -5.08184 0
M  V30 12663 H 1213.73 -4.91125 -6.05324 0
M  V30 12664 N 1217.95 0.594978 -1.45938 0
M  V30 12665 C 1218.9 1.726 -1.55923 0
M  V30 12666 C 1219.9 1.63893 -0.428411 0
M  V30 12667 O 1221.1 1.69535 -0.604815 0
M  V30 12668 H 1217.48 0.570447 -0.489994 0
M  V30 12669 H 1219.45 1.61308 -2.51043 0
M  V30 12670 C 1218.2 3.10988 -1.55505 0
M  V30 12671 H 1217.52 3.18353 -2.4185 0
M  V30 12672 H 1218.96 3.8992 -1.66548 0
M  V30 12673 C 1217.42 3.35721 -0.281573 0
M  V30 12674 O 1217.95 3.96676 0.633336 0
M  V30 12675 N 1216.16 2.90083 -0.173314 0
M  V30 12676 H 1215.7 2.4066 -0.91872 0
M  V30 12677 H 1215.66 3.07005 0.677903 0
M  V30 12678 N 1219.43 1.33438 0.838571 0
M  V30 12679 C 1220.68 1.24259 1.58879 0
M  V30 12680 C 1220.99 -0.189957 1.94675 0
M  V30 12681 O 1222.2 -0.40376 2.68481 0
M  V30 12682 C 1220.66 2.1773 2.86569 0
M  V30 12683 C 1220.26 3.66156 2.58135 0
M  V30 12684 C 1222.01 2.17424 3.64591 0
M  V30 12685 C 1219.92 4.5154 3.81923 0
M  V30 12686 H 1218.85 0.461534 0.59624 0
M  V30 12687 H 1221.5 1.58504 0.924588 0
M  V30 12688 H 1219.88 1.76418 3.54532 0
M  V30 12689 H 1221.05 4.1591 1.98382 0
M  V30 12690 H 1219.37 3.68754 1.93416 0
M  V30 12691 H 1221.96 2.78446 4.56478 0
M  V30 12692 H 1222.31 1.16939 3.99539 0
M  V30 12693 H 1222.84 2.571 3.03553 0
M  V30 12694 H 1219.58 5.52902 3.52107 0
M  V30 12695 H 1219.1 4.06529 4.41015 0
M  V30 12696 H 1220.78 4.65359 4.495 0
M  V30 12697 N 1220.91 -1.05686 1.16912 0
M  V30 12698 C 1222.14 -1.82821 0.979348 0
M  V30 12699 C 1222.56 -1.82196 -0.467575 0
M  V30 12700 O 1221.92 -1.22727 -1.33445 0
M  V30 12701 C 1221.97 -3.2705 1.51891 0
M  V30 12702 O 1221.07 -4.05899 0.729341 0
M  V30 12703 H 1220.41 -0.565455 0.348076 0
M  V30 12704 H 1222.94 -1.33211 1.55293 0
M  V30 12705 H 1222.95 -3.77859 1.53904 0
M  V30 12706 H 1221.63 -3.26819 2.5722 0
M  V30 12707 H 1220.2 -3.64646 0.780221 0
M  V30 12708 N 1222.39 -0.968567 -1.24324 0
M  V30 12709 C 1223.32 -0.518323 -2.27674 0
M  V30 12710 C 1224.3 0.442479 -1.64244 0
M  V30 12711 O 1225.48 0.338416 -1.91229 0
M  V30 12712 C 1222.61 0.191459 -3.46772 0
M  V30 12713 C 1221.57 -0.685449 -4.22476 0
M  V30 12714 C 1220.89 0.155873 -5.34473 0
M  V30 12715 C 1222.19 -1.97047 -4.83704 0
M  V30 12716 H 1223.89 -1.38215 -2.65588 0
M  V30 12717 H 1221.43 -0.66604 -1.27671 0
M  V30 12718 H 1223.39 0.517667 -4.18208 0
M  V30 12719 H 1222.11 1.08965 -3.07887 0
M  V30 12720 H 1220.77 -0.994942 -3.52841 0
M  V30 12721 H 1220.42 1.05424 -4.91828 0
M  V30 12722 H 1220.12 -0.427655 -5.86042 0
M  V30 12723 H 1221.64 0.476733 -6.08736 0
M  V30 12724 H 1223.06 -1.70979 -5.4721 0
M  V30 12725 H 1221.45 -2.50079 -5.45509 0
M  V30 12726 H 1222.52 -2.66484 -4.0511 0
M  V30 12727 N 1223.87 1.39211 -0.738786 0
M  V30 12728 C 1225.11 2.0004 -0.28782 0
M  V30 12729 C 1225.44 1.58921 1.13 0
M  V30 12730 O 1224.71 0.839193 1.77015 0
M  V30 12731 H 1223.29 0.739805 -0.103425 0
M  V30 12732 H 1225.95 1.70202 -0.949587 0
M  V30 12733 H 1225.04 3.10251 -0.339208 0
M  V30 12734 N 1225.34 0.486708 1.49896 0
M  V30 12735 C 1226.76 0.0353906 1.86666 0
M  V30 12736 C 1227.11 -1.3743 1.40026 0
M  V30 12737 O 1226.23 -2.02163 0.77194 0
M  V30 12738 C 1226.83 0.0574475 3.38751 0
M  V30 12739 C 1225.39 -0.338464 3.74875 0
M  V30 12740 C 1224.53 0.436196 2.73848 0
M  V30 12741 H 1227.48 0.700215 1.42417 0
M  V30 12742 H 1227.5 -0.741175 3.73212 0
M  V30 12743 H 1227.02 1.08356 3.72667 0
M  V30 12744 H 1225.12 -1.36835 3.46565 0
M  V30 12745 H 1225.23 -0.0289519 4.79091 0
M  V30 12746 H 1223.59 -0.112141 2.54453 0
M  V30 12747 H 1224.38 1.46212 3.10608 0
M  V30 12748 N 1226.82 -1.56058 0.219941 0
M  V30 12749 C 1227.76 -2.17494 -0.723133 0
M  V30 12750 C 1228.77 -1.14356 -1.15873 0
M  V30 12751 O 1229.96 -1.41343 -1.09016 0
M  V30 12752 C 1227.06 -2.74242 -1.99109 0
M  V30 12753 C 1226.23 -4.02533 -1.71132 0
M  V30 12754 C 1225.29 -4.43862 -2.82618 0
M  V30 12755 O 1224.32 -5.10792 -2.51157 0
M  V30 12756 N 1225.52 -4.09412 -4.11537 0
M  V30 12757 H 1228.28 -2.99048 -0.197619 0
M  V30 12758 H 1225.84 -1.61853 0.0388738 0
M  V30 12759 H 1227.84 -2.98862 -2.7288 0
M  V30 12760 H 1226.41 -1.97 -2.42713 0
M  V30 12761 H 1225.63 -3.85786 -0.810128 0
M  V30 12762 H 1226.91 -4.86227 -1.49868 0
M  V30 12763 H 1226.31 -3.55624 -4.39941 0
M  V30 12764 H 1224.87 -4.38928 -4.81857 0
M  V30 12765 N 1228.3 0.053464 -1.57509 0
M  V30 12766 C 1229.25 1.08014 -2.05999 0
M  V30 12767 C 1230.24 1.38958 -0.968862 0
M  V30 12768 O 1231.45 1.3815 -1.15389 0
M  V30 12769 H 1227.82 0.36575 -0.657062 0
M  V30 12770 H 1229.8 0.645169 -2.91342 0
M  V30 12771 C 1228.54 2.38004 -2.53475 0
M  V30 12772 H 1227.87 2.15048 -3.37038 0
M  V30 12773 H 1229.31 3.08244 -2.91138 0
M  V30 12774 C 1227.77 3.05259 -1.42543 0
M  V30 12775 O 1228.3 3.94097 -0.777832 0
M  V30 12776 N 1226.5 2.66182 -1.16599 0
M  V30 12777 H 1226.05 1.94027 -1.69444 0
M  V30 12778 H 1226.01 3.11503 -0.42585 0
M  V30 12779 N 1229.78 1.54207 0.325255 0
M  V30 12780 C 1231.03 1.72587 1.06497 0
M  V30 12781 C 1231.36 0.497228 1.87727 0
M  V30 12782 O 1230.63 -0.505804 1.87808 0
M  V30 12783 C 1230.92 3.00046 1.99109 0
M  V30 12784 C 1230.77 4.33158 1.21221 0
M  V30 12785 C 1232.09 3.23251 2.98658 0
M  V30 12786 H 1229.21 0.627974 0.38577 0
M  V30 12787 H 1231.85 1.869 0.34179 0
M  V30 12788 H 1230 2.87973 2.60775 0
M  V30 12789 H 1231.67 4.57111 0.620289 0
M  V30 12790 H 1229.91 4.30739 0.514462 0
M  V30 12791 H 1230.59 5.18558 1.89214 0
M  V30 12792 H 1233.06 3.34774 2.47114 0
M  V30 12793 H 1231.94 4.13796 3.60645 0
M  V30 12794 H 1232.2 2.40401 3.71026 0
M  V30 12795 N 1231.26 -0.58723 1.46251 0
M  V30 12796 C 1232.5 -1.3456 1.51327 0
M  V30 12797 C 1232.83 -1.93815 0.163146 0
M  V30 12798 O 1232.09 -1.76723 -0.840677 0
M  V30 12799 C 1232.39 -2.49776 2.5563 0
M  V30 12800 C 1232.05 -2.08543 3.99776 0
M  V30 12801 C 1230.71 -1.97013 4.39021 0
M  V30 12802 C 1233.07 -1.76669 4.90344 0
M  V30 12803 C 1230.39 -1.5186 5.66706 0
M  V30 12804 C 1232.75 -1.32996 6.18462 0
M  V30 12805 C 1231.41 -1.20039 6.56618 0
M  V30 12806 H 1230.68 -0.492391 0.553744 0
M  V30 12807 H 1233.33 -0.661715 1.79704 0
M  V30 12808 H 1231.63 -3.23592 2.20897 0
M  V30 12809 H 1233.33 -3.07995 2.56788 0
M  V30 12810 H 1229.92 -2.18451 3.68751 0
M  V30 12811 H 1234.1 -1.84465 4.60746 0
M  V30 12812 H 1229.36 -1.40467 5.95045 0
M  V30 12813 H 1233.53 -1.07385 6.88071 0
M  V30 12814 H 1231.16 -0.848268 7.55452 0
M  V30 12815 N 1232.74 -1.33881 -0.831482 0
M  V30 12816 C 1233.98 -1.27095 -1.60082 0
M  V30 12817 C 1234.34 0.15911 -1.9134 0
M  V30 12818 O 1235.54 0.351029 -2.66498 0
M  V30 12819 C 1233.81 -2.12874 -2.87088 0
M  V30 12820 S 1235.37 -2.23354 -3.77702 0
M  V30 12821 H 1232.19 -0.452049 -0.548792 0
M  V30 12822 H 1234.79 -1.68998 -0.98285 0
M  V30 12823 H 1233.49 -3.15797 -2.62108 0
M  V30 12824 H 1233.03 -1.71836 -3.53887 0
M  V30 12825 H 1235.04 -1.40003 -4.76039 0
M  V30 12826 N 1234.21 1.05064 -1.1747 0
M  V30 12827 C 1235.49 1.74999 -0.873776 0
M  V30 12828 C 1235.87 2.01615 0.625676 0
M  V30 12829 O 1235.22 1.65324 1.57734 0
M  V30 12830 C 1235.43 3.04231 -1.7101 0
M  V30 12831 C 1236.78 3.78157 -1.93087 0
M  V30 12832 O 1237.8 3.14104 -1.6798 0
M  V30 12833 O 1236.66 4.93255 -2.3529 0
M  V30 12834 H 1233.75 0.761042 -0.323641 0
M  V30 12835 H 1236.3 1.1122 -1.28172 0
M  V30 12836 H 1235.07 2.80621 -2.72704 0
M  V30 12837 H 1234.69 3.75746 -1.30002 0
M  V30 12838 N 1235.69 0.975146 1.23809 0
M  V30 12839 C 1236.94 0.642074 1.92367 0
M  V30 12840 C 1237.27 -0.82164 1.75962 0
M  V30 12841 O 1236.55 -1.59205 1.11732 0
M  V30 12842 C 1236.83 1.02677 3.45151 0
M  V30 12843 C 1236.68 2.54773 3.7069 0
M  V30 12844 C 1238 0.5668 4.36435 0
M  V30 12845 H 1235.12 0.234735 0.698619 0
M  V30 12846 H 1237.76 1.21549 1.46034 0
M  V30 12847 H 1235.91 0.538846 3.84745 0
M  V30 12848 H 1237.58 3.11099 3.4061 0
M  V30 12849 H 1235.83 2.97641 3.15583 0
M  V30 12850 H 1236.5 2.7674 4.77618 0
M  V30 12851 H 1238.97 0.985635 4.04258 0
M  V30 12852 H 1237.85 0.864458 5.4205 0
M  V30 12853 H 1238.11 -0.532989 4.38875 0
M  V30 12854 N 1237.17 -1.38817 0.746158 0
M  V30 12855 C 1238.58 -1.83045 0.367629 0
M  V30 12856 C 1238.93 -1.62285 -1.10263 0
M  V30 12857 O 1238.06 -1.12001 -1.85162 0
M  V30 12858 C 1238.65 -3.323 0.660482 0
M  V30 12859 C 1237.21 -3.74903 0.335318 0
M  V30 12860 C 1236.36 -2.61683 0.917446 0
M  V30 12861 H 1239.31 -1.27651 0.94291 0
M  V30 12862 H 1239.33 -3.80446 -0.0639061 0
M  V30 12863 H 1238.84 -3.47377 1.73062 0
M  V30 12864 H 1236.94 -3.65408 -0.728538 0
M  V30 12865 H 1237.06 -4.71932 0.825677 0
M  V30 12866 H 1235.42 -2.52376 0.343316 0
M  V30 12867 H 1236.2 -2.79563 1.99247 0
M  V30 12868 N 1238.65 -0.49465 -1.49636 0
M  V30 12869 C 1239.58 0.276606 -2.31856 0
M  V30 12870 C 1240.56 0.968499 -1.39836 0
M  V30 12871 O 1241.74 0.96113 -1.68748 0
M  V30 12872 C 1238.87 1.34522 -3.20189 0
M  V30 12873 C 1237.83 0.773571 -4.20951 0
M  V30 12874 C 1237.15 1.94223 -4.98178 0
M  V30 12875 C 1238.45 -0.231096 -5.21788 0
M  V30 12876 H 1240.15 -0.409668 -2.96584 0
M  V30 12877 H 1237.69 -0.198461 -1.42626 0
M  V30 12878 H 1239.65 1.89244 -3.76517 0
M  V30 12879 H 1238.37 2.06059 -2.53392 0
M  V30 12880 H 1237.03 0.248144 -3.65759 0
M  V30 12881 H 1236.68 2.64514 -4.27834 0
M  V30 12882 H 1236.38 1.56584 -5.66353 0
M  V30 12883 H 1237.9 2.49391 -5.57348 0
M  V30 12884 H 1239.32 0.227768 -5.72847 0
M  V30 12885 H 1237.71 -0.522984 -5.97817 0
M  V30 12886 H 1238.78 -1.14914 -4.71087 0
M  V30 12887 N 1240.13 1.55939 -0.228214 0
M  V30 12888 C 1241.35 2.0287 0.406348 0
M  V30 12889 C 1241.77 1.1079 1.52876 0
M  V30 12890 O 1241.13 0.118747 1.82113 0
M  V30 12891 C 1241.18 3.49286 0.931734 0
M  V30 12892 O 1240.9 4.37857 -0.145933 0
M  V30 12893 C 1242.4 4.11893 1.63887 0
M  V30 12894 H 1239.62 0.663696 0.0987358 0
M  V30 12895 H 1242.16 2.01541 -0.346616 0
M  V30 12896 H 1240.32 3.5121 1.63494 0
M  V30 12897 H 1240.73 5.23904 0.250005 0
M  V30 12898 H 1242.21 5.16091 1.95841 0
M  V30 12899 H 1242.68 3.57281 2.55435 0
M  V30 12900 H 1243.29 4.13839 0.980697 0
M  V30 12901 N 1241.6 -0.0451101 1.57535 0
M  V30 12902 C 1242.85 -0.738072 1.87711 0
M  V30 12903 C 1243.17 -1.7737 0.824579 0
M  V30 12904 O 1244.37 -2.51812 1.01503 0
M  V30 12905 C 1242.83 -1.36373 3.33062 0
M  V30 12906 C 1242.44 -0.365283 4.46508 0
M  V30 12907 C 1244.18 -2.0375 3.72406 0
M  V30 12908 C 1242.09 -0.998371 5.82912 0
M  V30 12909 H 1241.02 -0.279413 0.700317 0
M  V30 12910 H 1243.67 0.00802425 1.83498 0
M  V30 12911 H 1242.05 -2.15899 3.31969 0
M  V30 12912 H 1243.22 0.402102 4.59042 0
M  V30 12913 H 1241.54 0.205505 4.15893 0
M  V30 12914 H 1244.14 -2.51939 4.71625 0
M  V30 12915 H 1244.48 -2.84869 3.03571 0
M  V30 12916 H 1245.01 -1.3102 3.75604 0
M  V30 12917 H 1241.75 -0.226935 6.55107 0
M  V30 12918 H 1241.27 -1.73598 5.74129 0
M  V30 12919 H 1242.95 -1.51044 6.29122 0
M  V30 12920 N 1243.08 -1.54377 -0.317073 0
M  V30 12921 C 1244.5 -1.45232 -0.6618 0
M  V30 12922 C 1244.7 -0.630457 -1.91383 0
M  V30 12923 O 1243.75 -0.13181 -2.52156 0
M  V30 12924 C 1245.07 -2.89025 -0.829761 0
M  V30 12925 C 1246.62 -2.98967 -0.926685 0
M  V30 12926 C 1247.09 -4.43923 -1.12677 0
M  V30 12927 N 1248.58 -4.47564 -1.19335 0
M  V30 12928 C 1249.32 -5.56887 -1.36617 0
M  V30 12929 N 1248.81 -6.76167 -1.50899 0
M  V30 12930 N 1250.61 -5.44546 -1.39377 0
M  V30 12931 H 1242.76 -2.0629 0.505766 0
M  V30 12932 H 1245.02 -0.933615 0.164522 0
M  V30 12933 H 1244.73 -3.51695 0.0190945 0
M  V30 12934 H 1244.6 -3.35515 -1.72364 0
M  V30 12935 H 1246.99 -2.36421 -1.76604 0
M  V30 12936 H 1247.07 -2.55798 -0.00913402 0
M  V30 12937 H 1246.71 -5.07059 -0.29224 0
M  V30 12938 H 1246.64 -4.84708 -2.05829 0
M  V30 12939 H 1249.13 -3.61623 -1.09715 0
M  V30 12940 H 1249.45 -7.55242 -1.63796 0
M  V30 12941 H 1247.79 -6.79062 -1.47985 0
M  V30 12942 H 1250.98 -4.50311 -1.27819 0
M  V30 12943 H 1251.15 -6.29799 -1.52502 0
M  V30 12944 N 1244.56 0.579466 -1.4656 0
M  V30 12945 C 1245.49 1.69846 -1.60233 0
M  V30 12946 C 1246.47 1.6397 -0.452533 0
M  V30 12947 O 1247.66 1.81936 -0.679174 0
M  V30 12948 C 1244.79 3.08488 -1.59538 0
M  V30 12949 C 1243.74 3.29197 -2.7352 0
M  V30 12950 C 1243.07 4.684 -2.57887 0
M  V30 12951 C 1244.37 3.16718 -4.15315 0
M  V30 12952 H 1246.06 1.5866 -2.53904 0
M  V30 12953 H 1243.61 0.761873 -1.22194 0
M  V30 12954 H 1245.56 3.86595 -1.67696 0
M  V30 12955 H 1244.28 3.20581 -0.62413 0
M  V30 12956 H 1242.94 2.53491 -2.64836 0
M  V30 12957 H 1242.59 4.77262 -1.58839 0
M  V30 12958 H 1242.29 4.83208 -3.34341 0
M  V30 12959 H 1243.81 5.48671 -2.67942 0
M  V30 12960 H 1245.23 3.84666 -4.25094 0
M  V30 12961 H 1243.63 3.43047 -4.92381 0
M  V30 12962 H 1244.7 2.13755 -4.35244 0
M  V30 12963 N 1246.04 1.3432 0.824371 0
M  V30 12964 C 1247.28 1.27792 1.58243 0
M  V30 12965 C 1247.64 -0.151189 1.91805 0
M  V30 12966 O 1246.93 -1.09708 1.57082 0
M  V30 12967 C 1247.13 2.1008 2.89139 0
M  V30 12968 C 1246.96 3.60848 2.68363 0
M  V30 12969 C 1245.73 4.3013 2.65172 0
M  V30 12970 C 1247.92 4.54878 2.39979 0
M  V30 12971 N 1245.91 5.66756 2.35927 0
M  V30 12972 C 1247.28 5.79497 2.20415 0
M  V30 12973 C 1249.33 4.43809 2.25695 0
M  V30 12974 C 1248.03 6.94293 1.88015 0
M  V30 12975 C 1250.06 5.58435 1.9469 0
M  V30 12976 C 1249.42 6.82071 1.75948 0
M  V30 12977 H 1245.52 0.522853 0.581505 0
M  V30 12978 H 1248.11 1.69017 0.96651 0
M  V30 12979 H 1246.28 1.71154 3.48656 0
M  V30 12980 H 1248.01 1.95208 3.54508 0
M  V30 12981 H 1244.76 3.82554 2.79194 0
M  V30 12982 H 1245.19 6.38817 2.24148 0
M  V30 12983 H 1249.83 3.48842 2.38891 0
M  V30 12984 H 1247.55 7.89242 1.73557 0
M  V30 12985 H 1251.13 5.51814 1.84372 0
M  V30 12986 H 1250.01 7.69268 1.52304 0
M  V30 12987 N 1247.52 -1.0444 1.18026 0
M  V30 12988 C 1248.79 -1.74533 0.883045 0
M  V30 12989 C 1249.17 -2.01944 -0.614975 0
M  V30 12990 O 1248.52 -1.66158 -1.56855 0
M  V30 12991 C 1248.73 -3.0332 1.72621 0
M  V30 12992 C 1250.08 -3.77128 1.9509 0
M  V30 12993 O 1251.1 -3.13209 1.69643 0
M  V30 12994 O 1249.96 -4.92001 2.37903 0
M  V30 12995 H 1247.06 -0.759315 0.327673 0
M  V30 12996 H 1249.6 -1.10539 1.2876 0
M  V30 12997 H 1248.37 -2.79171 2.74188 0
M  V30 12998 H 1248 -3.75052 1.31993 0
M  V30 12999 N 1248.99 -0.981699 -1.2329 0
M  V30 13000 C 1250.24 -0.652266 -1.92024 0
M  V30 13001 C 1250.57 0.812297 -1.76396 0
M  V30 13002 O 1249.85 1.5861 -1.12575 0
M  V30 13003 C 1250.13 -1.04506 -3.44602 0
M  V30 13004 C 1249.98 -2.56735 -3.69333 0
M  V30 13005 C 1251.3 -0.589937 -4.36128 0
M  V30 13006 H 1248.42 -0.238437 -0.697364 0
M  V30 13007 H 1251.06 -1.22322 -1.45387 0
M  V30 13008 H 1249.21 -0.559242 -3.84454 0
M  V30 13009 H 1250.89 -3.12901 -3.38955 0
M  V30 13010 H 1249.13 -2.9931 -3.14 0
M  V30 13011 H 1249.8 -2.79269 -4.76144 0
M  V30 13012 H 1252.28 -1.00706 -4.0373 0
M  V30 13013 H 1251.15 -0.893192 -5.41584 0
M  V30 13014 H 1251.41 0.509707 -4.39152 0
M  V30 13015 N 1250.47 1.3842 -0.753509 0
M  V30 13016 C 1251.72 1.99723 -0.309021 0
M  V30 13017 C 1252.04 1.60111 1.11308 0
M  V30 13018 O 1251.31 0.85792 1.76115 0
M  V30 13019 H 1249.89 0.738667 -0.111266 0
M  V30 13020 H 1252.55 1.69186 -0.967586 0
M  V30 13021 H 1251.65 3.09874 -0.372095 0
M  V30 13022 N 1251.95 0.502579 1.49372 0
M  V30 13023 C 1252.86 -0.279532 2.32929 0
M  V30 13024 C 1253.88 -0.965806 1.44735 0
M  V30 13025 O 1255.05 -0.946839 1.77755 0
M  V30 13026 C 1252.12 -1.32913 3.20211 0
M  V30 13027 C 1251.18 -0.656121 4.24256 0
M  V30 13028 C 1250.41 -1.65571 5.07368 0
M  V30 13029 O 1250.63 -2.88571 4.92019 0
M  V30 13030 O 1249.57 -1.21016 5.89609 0
M  V30 13031 H 1253.39 0.404427 3.00995 0
M  V30 13032 H 1250.98 0.263888 1.47051 0
M  V30 13033 H 1252.86 -1.93635 3.74277 0
M  V30 13034 H 1251.54 -1.99598 2.54837 0
M  V30 13035 H 1250.44 -0.00911489 3.74099 0
M  V30 13036 H 1251.78 -0.0316802 4.9219 0
M  V30 13037 N 1253.43 -1.55816 0.23648 0
M  V30 13038 C 1254.34 -2.24576 -0.678439 0
M  V30 13039 C 1255.35 -1.25836 -1.20172 0
M  V30 13040 O 1256.53 -1.58686 -1.24019 0
M  V30 13041 C 1253.6 -2.92376 -1.86325 0
M  V30 13042 C 1252.66 -4.06499 -1.38047 0
M  V30 13043 C 1251.89 -4.71057 -2.50881 0
M  V30 13044 O 1252.11 -4.34652 -3.69369 0
M  V30 13045 O 1251.05 -5.59768 -2.21232 0
M  V30 13046 H 1254.87 -3.03452 -0.122601 0
M  V30 13047 H 1252.46 -1.49399 0.00540803 0
M  V30 13048 H 1254.34 -3.35117 -2.55488 0
M  V30 13049 H 1253.01 -2.16448 -2.40691 0
M  V30 13050 H 1251.92 -3.68296 -0.656422 0
M  V30 13051 H 1253.25 -4.84214 -0.883024 0
M  V30 13052 N 1254.91 0.036755 -1.57557 0
M  V30 13053 C 1256.15 0.730186 -1.89199 0
M  V30 13054 C 1256.49 1.75414 -0.833271 0
M  V30 13055 O 1255.76 1.93901 0.152579 0
M  V30 13056 C 1256.04 1.40669 -3.31488 0
M  V30 13057 C 1255.9 0.396764 -4.48047 0
M  V30 13058 C 1257.22 2.34268 -3.72567 0
M  V30 13059 H 1254.33 0.263983 -0.6881 0
M  V30 13060 H 1256.98 -0.0069847 -1.89999 0
M  V30 13061 H 1255.13 2.03502 -3.30937 0
M  V30 13062 H 1256.8 -0.229062 -4.60731 0
M  V30 13063 H 1255.04 -0.284698 -4.32865 0
M  V30 13064 H 1255.71 0.908436 -5.44474 0
M  V30 13065 H 1258.19 1.81485 -3.74436 0
M  V30 13066 H 1257.06 2.78587 -4.72949 0
M  V30 13067 H 1257.33 3.20611 -3.04403 0
M  V30 13068 N 1256.39 1.54543 0.308881 0
M  V30 13069 C 1257.62 1.77174 1.06268 0
M  V30 13070 C 1258.02 0.527461 1.81699 0
M  V30 13071 O 1257.37 -0.512027 1.7642 0
M  V30 13072 C 1257.43 2.92115 2.09545 0
M  V30 13073 C 1257.09 4.30492 1.5338 0
M  V30 13074 C 1258.09 5.1081 0.967923 0
M  V30 13075 C 1255.77 4.77074 1.5718 0
M  V30 13076 C 1257.77 6.35827 0.447517 0
M  V30 13077 C 1255.46 6.02055 1.04753 0
M  V30 13078 C 1256.45 6.81266 0.486345 0
M  V30 13079 O 1256.14 8.03894 -0.0300055 0
M  V30 13080 H 1255.87 0.594773 0.321281 0
M  V30 13081 H 1258.43 2.02289 0.356136 0
M  V30 13082 H 1256.66 2.62606 2.83857 0
M  V30 13083 H 1258.35 3.02394 2.70763 0
M  V30 13084 H 1259.11 4.7597 0.931523 0
M  V30 13085 H 1254.99 4.15453 1.998 0
M  V30 13086 H 1258.54 6.97599 0.00884212 0
M  V30 13087 H 1254.43 6.36383 1.08105 0
M  V30 13088 H 1255.2 8.18457 0.0840381 0
M  V30 13089 N 1257.86 -0.571685 1.46866 0
M  V30 13090 C 1259.11 -1.32685 1.52444 0
M  V30 13091 C 1259.43 -1.94147 0.182225 0
M  V30 13092 O 1258.7 -1.79159 -0.792385 0
M  V30 13093 H 1257.28 -0.492679 0.561495 0
M  V30 13094 H 1259.94 -0.668694 1.8307 0
M  V30 13095 H 1259.04 -2.12788 2.28315 0
M  V30 13096 N 1259.34 -1.34755 -0.817236 0
M  V30 13097 C 1260.59 -1.26771 -1.56882 0
M  V30 13098 C 1260.9 0.158962 -1.94953 0
M  V30 13099 O 1262.11 0.360996 -2.69089 0
M  V30 13100 C 1260.57 -2.22261 -2.83069 0
M  V30 13101 C 1260.17 -3.70216 -2.52277 0
M  V30 13102 C 1261.92 -2.23197 -3.61086 0
M  V30 13103 C 1259.82 -4.57559 -3.74691 0
M  V30 13104 H 1258.75 -0.470961 -0.588822 0
M  V30 13105 H 1261.41 -1.59955 -0.899254 0
M  V30 13106 H 1259.79 -1.82036 -3.5168 0
M  V30 13107 H 1260.96 -4.19014 -1.9174 0
M  V30 13108 H 1259.28 -3.71784 -1.87525 0
M  V30 13109 H 1261.87 -2.85673 -4.5199 0
M  V30 13110 H 1262.22 -1.2328 -3.97628 0
M  V30 13111 H 1262.75 -2.61897 -2.99424 0
M  V30 13112 H 1259.49 -5.58434 -3.43267 0
M  V30 13113 H 1259.01 -4.13494 -4.34491 0
M  V30 13114 H 1260.69 -4.72451 -4.42039 0
M  V30 13115 N 1260.82 1.03812 -1.18578 0
M  V30 13116 C 1261.75 2.11928 -0.872871 0
M  V30 13117 C 1262.76 1.62275 0.130592 0
M  V30 13118 O 1263.95 1.78233 -0.0975869 0
M  V30 13119 C 1261.05 3.37714 -0.283321 0
M  V30 13120 C 1260.23 4.16591 -1.33307 0
M  V30 13121 C 1259.29 5.20701 -0.758746 0
M  V30 13122 O 1258.31 5.50837 -1.43412 0
M  V30 13123 N 1259.51 5.78811 0.442505 0
M  V30 13124 H 1262.28 2.39364 -1.80346 0
M  V30 13125 H 1259.84 1.20027 -1.08652 0
M  V30 13126 H 1261.83 4.04538 0.114524 0
M  V30 13127 H 1260.4 3.07699 0.551347 0
M  V30 13128 H 1259.62 3.45051 -1.90613 0
M  V30 13129 H 1260.91 4.66082 -2.04071 0
M  V30 13130 H 1260.31 5.56631 1.00889 0
M  V30 13131 H 1258.86 6.47089 0.78224 0
M  V30 13132 N 1262.3 0.988223 1.22768 0
M  V30 13133 C 1263.55 0.656941 1.90702 0
M  V30 13134 C 1263.86 -0.814058 1.77855 0
M  V30 13135 O 1265.07 -1.25673 2.40663 0
M  V30 13136 C 1263.52 1.12445 3.41883 0
M  V30 13137 C 1263.13 2.62034 3.63376 0
M  V30 13138 C 1264.87 0.867277 4.15546 0
M  V30 13139 C 1262.78 3.02412 5.08233 0
M  V30 13140 H 1261.71 0.242012 0.714105 0
M  V30 13141 H 1264.36 1.19716 1.39069 0
M  V30 13142 H 1262.74 0.512386 3.92671 0
M  V30 13143 H 1263.92 3.28546 3.23101 0
M  V30 13144 H 1262.23 2.85583 3.03037 0
M  V30 13145 H 1264.83 1.14471 5.22303 0
M  V30 13146 H 1265.17 -0.196611 4.15835 0
M  V30 13147 H 1265.71 1.4413 3.70771 0
M  V30 13148 H 1262.44 4.07957 5.1308 0
M  V30 13149 H 1261.96 2.406 5.49429 0
M  V30 13150 H 1263.64 2.93452 5.76624 0
M  V30 13151 N 1263.78 -1.38018 0.760839 0
M  V30 13152 C 1265.01 -2.03934 0.330804 0
M  V30 13153 C 1265.41 -1.57509 -1.04821 0
M  V30 13154 O 1264.76 -0.746718 -1.67839 0
M  V30 13155 C 1264.82 -3.58384 0.28303 0
M  V30 13156 C 1264.48 -4.27896 1.6048 0
M  V30 13157 C 1265.48 -4.52769 2.5553 0
M  V30 13158 C 1263.16 -4.65943 1.87624 0
M  V30 13159 C 1265.16 -5.14732 3.75938 0
M  V30 13160 C 1262.85 -5.27629 3.08304 0
M  V30 13161 C 1263.84 -5.51959 4.02281 0
M  V30 13162 O 1263.53 -6.12358 5.20838 0
M  V30 13163 H 1263.26 -0.661733 0.138148 0
M  V30 13164 H 1265.82 -1.77551 1.03271 0
M  V30 13165 H 1264.05 -3.83769 -0.47517 0
M  V30 13166 H 1265.74 -4.05727 -0.118464 0
M  V30 13167 H 1266.5 -4.23798 2.35839 0
M  V30 13168 H 1262.38 -4.46346 1.15308 0
M  V30 13169 H 1265.93 -5.33639 4.49305 0
M  V30 13170 H 1261.82 -5.56023 3.27886 0
M  V30 13171 H 1262.59 -6.30842 5.21517 0
M  V30 13172 N 1265.25 -0.510493 -1.49103 0
M  V30 13173 C 1266.48 0.0271718 -2.06882 0
M  V30 13174 C 1266.9 1.2995 -1.36962 0
M  V30 13175 O 1266.25 1.76842 -0.450916 0
M  V30 13176 C 1266.3 0.274956 -3.60453 0
M  V30 13177 O 1266.03 -0.946941 -4.27744 0
M  V30 13178 C 1267.53 0.855197 -4.34973 0
M  V30 13179 H 1264.75 -0.024732 -0.670544 0
M  V30 13180 H 1267.29 -0.710567 -1.91758 0
M  V30 13181 H 1265.45 0.962696 -3.75248 0
M  V30 13182 H 1265.86 -0.715627 -5.19595 0
M  V30 13183 H 1267.33 0.978103 -5.43265 0
M  V30 13184 H 1267.81 1.85535 -3.98087 0
M  V30 13185 H 1268.42 0.204632 -4.24807 0
M  V30 13186 N 1266.73 1.55688 -0.24474 0
M  V30 13187 C 1267.66 2.24272 0.64995 0
M  V30 13188 C 1268.64 1.22226 1.183 0
M  V30 13189 O 1269.83 1.50873 1.22274 0
M  V30 13190 C 1266.96 2.94053 1.84798 0
M  V30 13191 C 1265.91 4.02769 1.44779 0
M  V30 13192 C 1265.24 4.59965 2.72647 0
M  V30 13193 C 1266.54 5.18601 0.62047 0
M  V30 13194 H 1268.23 2.99298 0.0780654 0
M  V30 13195 H 1265.78 1.43955 0.0361069 0
M  V30 13196 H 1267.73 3.40732 2.47951 0
M  V30 13197 H 1266.45 2.16511 2.44521 0
M  V30 13198 H 1265.11 3.56856 0.839609 0
M  V30 13199 H 1264.76 3.79126 3.30564 0
M  V30 13200 H 1264.46 5.33352 2.46596 0
M  V30 13201 H 1265.99 5.09376 3.36703 0
M  V30 13202 H 1267.4 5.61519 1.15625 0
M  V30 13203 H 1265.8 5.98364 0.456097 0
M  V30 13204 H 1266.87 4.83503 -0.367798 0
M  V30 13205 N 1268.21 -0.0283989 1.57574 0
M  V30 13206 C 1269.49 -0.754527 1.80461 0
M  V30 13207 C 1269.87 -1.93539 0.842966 0
M  V30 13208 O 1269.21 -2.28212 -0.114714 0
M  V30 13209 C 1269.42 -1.18694 3.28196 0
M  V30 13210 C 1270.77 -1.60257 3.93196 0
M  V30 13211 O 1271.8 -1.2815 3.32349 0
M  V30 13212 O 1270.66 -2.19853 5.00327 0
M  V30 13213 H 1267.75 -0.364936 0.742126 0
M  V30 13214 H 1270.3 -0.00512589 1.69699 0
M  V30 13215 H 1269.07 -0.34398 3.89785 0
M  V30 13216 H 1268.69 -1.99633 3.43849 0
M  V30 13217 N 1269.69 -1.54705 -0.300681 0
M  V30 13218 C 1270.6 -1.88736 -1.39341 0
M  V30 13219 C 1271.61 -0.78155 -1.5546 0
M  V30 13220 O 1272.79 -1.07804 -1.70118 0
M  V30 13221 C 1269.85 -2.12795 -2.73713 0
M  V30 13222 C 1268.92 -3.36504 -2.66577 0
M  V30 13223 C 1268.15 -3.59407 -3.94541 0
M  V30 13224 O 1268.37 -2.85315 -4.93914 0
M  V30 13225 O 1267.31 -4.52923 -3.96415 0
M  V30 13226 H 1271.13 -2.817 -1.13484 0
M  V30 13227 H 1268.72 -1.40899 -0.496771 0
M  V30 13228 H 1270.6 -2.29819 -3.53215 0
M  V30 13229 H 1269.27 -1.23017 -2.99414 0
M  V30 13230 H 1268.18 -3.24844 -1.85546 0
M  V30 13231 H 1269.51 -4.26414 -2.45829 0
M  V30 13232 N 1271.17 0.563888 -1.47167 0
M  V30 13233 C 1272.12 1.66687 -1.55562 0
M  V30 13234 C 1273.1 1.55455 -0.415024 0
M  V30 13235 O 1274.29 1.64051 -0.664557 0
M  V30 13236 C 1271.42 3.05469 -1.56665 0
M  V30 13237 C 1270.51 3.21928 -2.76085 0
M  V30 13238 N 1270.9 3.08477 -4.00844 0
M  V30 13239 C 1269.2 3.52913 -2.72706 0
M  V30 13240 C 1269.9 3.27447 -4.80784 0
M  V30 13241 N 1268.87 3.53474 -4.12986 0
M  V30 13242 H 1272.68 1.54846 -2.498 0
M  V30 13243 H 1270.19 0.76846 -1.43068 0
M  V30 13244 H 1272.19 3.84655 -1.60768 0
M  V30 13245 H 1270.85 3.18427 -0.635174 0
M  V30 13246 H 1271.86 2.85944 -4.31806 0
M  V30 13247 H 1268.53 3.7244 -1.88666 0
M  V30 13248 H 1269.92 3.22072 -5.89677 0
M  V30 13249 N 1272.64 1.35187 0.810078 0
M  V30 13250 C 1273.57 1.30481 1.93641 0
M  V30 13251 C 1274.56 0.179875 1.69146 0
M  V30 13252 O 1275.74 0.374284 1.90559 0
M  V30 13253 C 1272.87 1.07251 3.30325 0
M  V30 13254 C 1271.82 2.16348 3.69293 0
M  V30 13255 C 1271.15 1.78288 5.04101 0
M  V30 13256 C 1272.45 3.58285 3.80038 0
M  V30 13257 H 1274.14 2.24725 1.97836 0
M  V30 13258 H 1271.69 1.08179 0.950436 0
M  V30 13259 H 1273.64 1.02599 4.08719 0
M  V30 13260 H 1272.37 0.0945203 3.26463 0
M  V30 13261 H 1271.03 2.2009 2.93182 0
M  V30 13262 H 1270.67 0.791163 4.96739 0
M  V30 13263 H 1270.37 2.51315 5.31144 0
M  V30 13264 H 1271.9 1.75155 5.84938 0
M  V30 13265 H 1273.31 3.56884 4.48672 0
M  V30 13266 H 1271.71 4.30044 4.18548 0
M  V30 13267 H 1272.78 3.94691 2.81685 0
M  V30 13268 N 1274.12 -1.03182 1.19127 0
M  V30 13269 C 1275.03 -2.14875 0.94159 0
M  V30 13270 C 1276.05 -1.73727 -0.0973872 0
M  V30 13271 O 1277.22 -2.01214 0.0865775 0
M  V30 13272 C 1274.29 -3.43356 0.480366 0
M  V30 13273 C 1273.35 -3.98835 1.58838 0
M  V30 13274 C 1272.58 -5.21183 1.14907 0
M  V30 13275 O 1272.81 -5.70399 0.0114141 0
M  V30 13276 O 1271.74 -5.69423 1.95042 0
M  V30 13277 H 1275.57 -2.38799 1.8764 0
M  V30 13278 H 1273.15 -1.13299 0.973841 0
M  V30 13279 H 1275.03 -4.20763 0.231658 0
M  V30 13280 H 1273.71 -3.20884 -0.426041 0
M  V30 13281 H 1272.62 -3.22776 1.8912 0
M  V30 13282 H 1273.95 -4.25665 2.47123 0
M  V30 13283 N 1275.6 -0.99472 -1.22242 0
M  V30 13284 C 1276.85 -0.667045 -1.90351 0
M  V30 13285 C 1277.16 0.804615 -1.78284 0
M  V30 13286 O 1278.37 1.24395 -2.41326 0
M  V30 13287 C 1276.82 -1.14256 -3.41282 0
M  V30 13288 C 1276.43 -2.63958 -3.61981 0
M  V30 13289 C 1278.18 -0.889302 -4.1508 0
M  V30 13290 C 1276.08 -3.05103 -5.06622 0
M  V30 13291 H 1275.01 -0.245795 -0.712812 0
M  V30 13292 H 1277.66 -1.20452 -1.38432 0
M  V30 13293 H 1276.05 -0.533203 -3.92394 0
M  V30 13294 H 1277.22 -3.30255 -3.21354 0
M  V30 13295 H 1275.54 -2.87186 -3.01518 0
M  V30 13296 H 1278.13 -1.17239 -5.21689 0
M  V30 13297 H 1278.48 0.174556 -4.15934 0
M  V30 13298 H 1279.01 -1.46095 -3.70002 0
M  V30 13299 H 1275.75 -4.10672 -5.1091 0
M  V30 13300 H 1275.27 -2.4351 -5.48145 0
M  V30 13301 H 1276.95 -2.96506 -5.75059 0
M  V30 13302 N 1277.08 1.37613 -0.768148 0
M  V30 13303 C 1278.36 1.93921 -0.255724 0
M  V30 13304 C 1278.74 1.70215 1.2486 0
M  V30 13305 O 1278.08 1.0489 2.03003 0
M  V30 13306 C 1278.29 3.43354 -0.625204 0
M  V30 13307 C 1279.64 4.20439 -0.592978 0
M  V30 13308 O 1280.67 3.51701 -0.564375 0
M  V30 13309 O 1279.52 5.43008 -0.616849 0
M  V30 13310 H 1276.62 0.824968 -0.0579366 0
M  V30 13311 H 1279.16 1.46921 -0.849257 0
M  V30 13312 H 1277.94 3.54177 -1.66356 0
M  V30 13313 H 1277.56 3.976 -0.00442816 0
M  V30 13314 N 1278.56 0.518393 1.4883 0
M  V30 13315 C 1279.52 -0.23983 2.27942 0
M  V30 13316 C 1280.52 -0.878302 1.34694 0
M  V30 13317 O 1281.71 -0.740142 1.57694 0
M  V30 13318 C 1278.84 -1.34581 3.1321 0
M  V30 13319 H 1280.03 0.454599 2.96434 0
M  V30 13320 H 1277.59 0.273932 1.53881 0
M  V30 13321 H 1278.32 -2.07385 2.49323 0
M  V30 13322 H 1278.11 -0.893251 3.8179 0
M  V30 13323 H 1279.6 -1.87944 3.72917 0
M  V30 13324 N 1280.03 -1.55556 0.252993 0
M  V30 13325 C 1281 -2.20351 -0.630705 0
M  V30 13326 C 1282 -1.17461 -1.09816 0
M  V30 13327 O 1283.19 -1.42505 -1.00189 0
M  V30 13328 C 1280.32 -2.85192 -1.86757 0
M  V30 13329 H 1281.51 -2.99829 -0.0652939 0
M  V30 13330 H 1279.07 -1.563 0.00347982 0
M  V30 13331 H 1279.8 -2.09669 -2.47406 0
M  V30 13332 H 1279.59 -3.60569 -1.54053 0
M  V30 13333 H 1281.08 -3.34762 -2.49648 0
M  V30 13334 N 1281.51 0.0200419 -1.57587 0
M  V30 13335 C 1282.45 1.05118 -2.02547 0
M  V30 13336 C 1283.42 1.3465 -0.911494 0
M  V30 13337 O 1284.61 1.47154 -1.17805 0
M  V30 13338 C 1281.73 2.38373 -2.40615 0
M  V30 13339 C 1280.78 2.24639 -3.62546 0
M  V30 13340 S 1281.61 1.59129 -5.1131 0
M  V30 13341 C 1282.77 2.93856 -5.5263 0
M  V30 13342 H 1283 0.668271 -2.89692 0
M  V30 13343 H 1280.54 0.230301 -1.52673 0
M  V30 13344 H 1282.49 3.15002 -2.63218 0
M  V30 13345 H 1281.15 2.7381 -1.53906 0
M  V30 13346 H 1280.35 3.23032 -3.86867 0
M  V30 13347 H 1279.95 1.56153 -3.39841 0
M  V30 13348 H 1282.24 3.90179 -5.53865 0
M  V30 13349 H 1283.18 2.74258 -6.52831 0
M  V30 13350 H 1283.59 2.96844 -4.8015 0
M  V30 13351 N 1282.99 1.54862 0.292472 0
M  V30 13352 C 1283.92 1.89406 1.36556 0
M  V30 13353 C 1284.9 0.753838 1.52484 0
M  V30 13354 O 1286.09 1.01031 1.6585 0
M  V30 13355 C 1283.22 2.14888 2.72838 0
M  V30 13356 C 1282.17 3.3073 2.71665 0
M  V30 13357 C 1281.5 3.41648 4.11316 0
M  V30 13358 C 1282.8 4.67622 2.32651 0
M  V30 13359 H 1284.49 2.79284 1.07894 0
M  V30 13360 H 1282.04 1.34377 0.517585 0
M  V30 13361 H 1283.99 2.3764 3.48002 0
M  V30 13362 H 1282.71 1.2179 3.03042 0
M  V30 13363 H 1281.37 3.07915 1.98958 0
M  V30 13364 H 1281.02 2.46051 4.38711 0
M  V30 13365 H 1280.72 4.19522 4.11431 0
M  V30 13366 H 1282.24 3.6667 4.88248 0
M  V30 13367 H 1283.66 4.90048 2.97533 0
M  V30 13368 H 1282.06 5.48272 2.43963 0
M  V30 13369 H 1283.13 4.67762 1.27777 0
M  V30 13370 N 1284.47 -0.556076 1.47464 0
M  V30 13371 C 1285.7 -1.33858 1.57764 0
M  V30 13372 C 1286.11 -1.87415 0.22825 0
M  V30 13373 O 1285.47 -1.65054 -0.778674 0
M  V30 13374 C 1285.52 -2.5077 2.60378 0
M  V30 13375 O 1285.24 -1.99426 3.90078 0
M  V30 13376 C 1286.74 -3.42965 2.80873 0
M  V30 13377 H 1283.96 -0.408003 0.532705 0
M  V30 13378 H 1286.51 -0.673501 1.93091 0
M  V30 13379 H 1284.66 -3.13214 2.27982 0
M  V30 13380 H 1285.07 -2.75759 4.46158 0
M  V30 13381 H 1286.55 -4.21412 3.56533 0
M  V30 13382 H 1287.03 -3.96579 1.88737 0
M  V30 13383 H 1287.63 -2.86336 3.14471 0
M  V30 13384 N 1285.95 -1.35615 -0.802897 0
M  V30 13385 C 1287.17 -1.32377 -1.59659 0
M  V30 13386 C 1287.6 0.0954235 -1.87858 0
M  V30 13387 O 1286.96 1.06336 -1.46842 0
M  V30 13388 C 1287 -2.13972 -2.90256 0
M  V30 13389 O 1286.11 -1.52296 -3.83249 0
M  V30 13390 H 1285.45 -0.453699 -0.484823 0
M  V30 13391 H 1287.98 -1.78708 -0.996217 0
M  V30 13392 H 1287.99 -2.26061 -3.39647 0
M  V30 13393 H 1286.66 -3.17145 -2.69057 0
M  V30 13394 H 1285.24 -1.49068 -3.41809 0
M  V30 13395 N 1287.43 1.02549 -1.19673 0
M  V30 13396 C 1288.65 1.79623 -1.0268 0
M  V30 13397 C 1289.07 1.83969 0.424345 0
M  V30 13398 O 1288.43 1.28621 1.29472 0
M  V30 13399 C 1288.48 3.24514 -1.59289 0
M  V30 13400 O 1288.2 3.20462 -2.98723 0
M  V30 13401 C 1289.7 4.18173 -1.47126 0
M  V30 13402 H 1286.92 0.565167 -0.3617 0
M  V30 13403 H 1289.46 1.29143 -1.58564 0
M  V30 13404 H 1287.62 3.72173 -1.07546 0
M  V30 13405 H 1288.03 4.11341 -3.25421 0
M  V30 13406 H 1289.51 5.17714 -1.9151 0
M  V30 13407 H 1289.98 4.37165 -0.422315 0
M  V30 13408 H 1290.59 3.7639 -1.98017 0
M  V30 13409 N 1288.9 1.00119 1.21713 0
M  V30 13410 C 1289.87 0.563409 2.22167 0
M  V30 13411 C 1290.87 -0.35819 1.5676 0
M  V30 13412 O 1292.06 -0.149001 1.73562 0
M  V30 13413 C 1289.19 -0.179365 3.40428 0
M  V30 13414 H 1290.38 1.45189 2.62412 0
M  V30 13415 H 1287.93 0.789286 1.34907 0
M  V30 13416 H 1288.67 -1.08345 3.05666 0
M  V30 13417 H 1288.45 0.482471 3.8912 0
M  V30 13418 H 1289.94 -0.473537 4.14906 0
M  V30 13419 N 1290.38 -1.37203 0.775435 0
M  V30 13420 C 1291.66 -1.93783 0.266005 0
M  V30 13421 C 1292.04 -1.70875 -1.23956 0
M  V30 13422 O 1291.39 -1.05965 -2.02444 0
M  V30 13423 C 1291.6 -3.43018 0.643404 0
M  V30 13424 C 1292.94 -4.20119 0.615267 0
M  V30 13425 O 1293.97 -3.51396 0.583018 0
M  V30 13426 O 1292.83 -5.42673 0.645637 0
M  V30 13427 H 1289.92 -0.824649 0.0623107 0
M  V30 13428 H 1292.47 -1.46468 0.857036 0
M  V30 13429 H 1291.24 -3.5329 1.68232 0
M  V30 13430 H 1290.86 -3.97592 0.0255138 0
M  V30 13431 N 1291.86 -0.526279 -1.48553 0
M  V30 13432 C 1293.09 0.0052277 -2.06899 0
M  V30 13433 C 1293.5 1.2849 -1.38332 0
M  V30 13434 O 1292.86 1.76354 -0.469648 0
M  V30 13435 C 1292.91 0.236709 -3.60724 0
M  V30 13436 O 1292.63 -0.992256 -4.26715 0
M  V30 13437 C 1294.13 0.809014 -4.35855 0
M  V30 13438 H 1291.35 -0.0318426 -0.670244 0
M  V30 13439 H 1293.9 -0.730865 -1.90994 0
M  V30 13440 H 1292.05 0.922842 -3.76248 0
M  V30 13441 H 1292.47 -0.770697 -5.18807 0
M  V30 13442 H 1293.94 0.920428 -5.44272 0
M  V30 13443 H 1294.42 1.81302 -4.00033 0
M  V30 13444 H 1295.02 0.159564 -4.25001 0
M  V30 13445 N 1293.34 1.5542 -0.261239 0
M  V30 13446 C 1294.75 1.85161 0.239195 0
M  V30 13447 C 1295.1 1.18319 1.56509 0
M  V30 13448 O 1294.22 0.4666 2.1131 0
M  V30 13449 C 1294.82 3.3592 0.440781 0
M  V30 13450 C 1293.38 3.65837 0.885461 0
M  V30 13451 C 1292.53 2.77285 -0.0291982 0
M  V30 13452 H 1295.48 1.51158 -0.483417 0
M  V30 13453 H 1295.5 3.58276 1.28136 0
M  V30 13454 H 1295.01 3.84541 -0.524382 0
M  V30 13455 H 1293.11 3.22705 1.86259 0
M  V30 13456 H 1293.22 4.73469 0.732394 0
M  V30 13457 H 1291.59 2.50045 0.484701 0
M  V30 13458 H 1292.37 3.28716 -0.989992 0
M  V30 13459 N 1294.82 -0.0116844 1.57596 0
M  V30 13460 C 1295.75 -1.00599 2.10718 0
M  V30 13461 C 1296.73 -1.36601 1.01362 0
M  V30 13462 O 1297.91 -1.4518 1.28982 0
M  V30 13463 C 1295.04 -2.30155 2.60089 0
M  V30 13464 C 1294 -2.08347 3.73866 0
M  V30 13465 C 1293.32 -3.43814 4.09507 0
M  V30 13466 C 1294.62 -1.45552 5.01609 0
M  V30 13467 H 1296.32 -0.563721 2.94045 0
M  V30 13468 H 1293.86 -0.269714 1.41452 0
M  V30 13469 H 1295.81 -3.00058 2.95877 0
M  V30 13470 H 1294.54 -2.76473 1.73868 0
M  V30 13471 H 1293.2 -1.40872 3.38453 0
M  V30 13472 H 1292.85 -3.87814 3.20326 0
M  V30 13473 H 1292.55 -3.30043 4.86154 0
M  V30 13474 H 1294.07 -4.15052 4.47844 0
M  V30 13475 H 1295.48 -2.05396 5.35243 0
M  V30 13476 H 1293.88 -1.42304 5.82983 0
M  V30 13477 H 1294.95 -0.423331 4.83049 0
M  V30 13478 N 1296.29 -1.55015 -0.284256 0
M  V30 13479 C 1297.53 -1.76836 -1.02511 0
M  V30 13480 C 1297.9 -0.551675 -1.83904 0
M  V30 13481 O 1299.1 -0.647919 -2.60874 0
M  V30 13482 C 1297.37 -3.0312 -1.89348 0
M  V30 13483 S 1298.93 -3.46013 -2.69852 0
M  V30 13484 H 1295.75 -0.621436 -0.345453 0
M  V30 13485 H 1298.35 -1.93235 -0.296708 0
M  V30 13486 H 1297.05 -3.89778 -1.28458 0
M  V30 13487 H 1296.58 -2.89355 -2.66528 0
M  V30 13488 H 1298.6 -3.044 -3.91861 0
M  V30 13489 N 1297.77 0.548248 -1.47757 0
M  V30 13490 C 1298.7 1.66409 -1.63799 0
M  V30 13491 C 1299.68 1.62973 -0.487211 0
M  V30 13492 O 1300.87 1.80455 -0.717612 0
M  V30 13493 C 1298 3.05035 -1.66046 0
M  V30 13494 C 1296.95 3.23322 -2.80441 0
M  V30 13495 C 1296.28 4.62824 -2.67765 0
M  V30 13496 C 1297.58 3.07837 -4.2194 0
M  V30 13497 H 1299.27 1.53239 -2.57212 0
M  V30 13498 H 1296.82 0.735783 -1.23783 0
M  V30 13499 H 1298.77 3.82951 -1.75859 0
M  V30 13500 H 1297.49 3.19185 -0.69199 0
M  V30 13501 H 1296.15 2.47816 -2.70153 0
M  V30 13502 H 1295.8 4.73786 -1.68927 0
M  V30 13503 H 1295.5 4.76007 -3.44515 0
M  V30 13504 H 1297.03 5.42864 -2.7952 0
M  V30 13505 H 1298.44 3.75563 -4.33157 0
M  V30 13506 H 1296.84 3.32525 -4.99547 0
M  V30 13507 H 1297.91 2.04474 -4.3968 0
M  V30 13508 N 1299.25 1.36039 0.795694 0
M  V30 13509 C 1300.18 1.25713 1.91648 0
M  V30 13510 C 1301.19 0.177993 1.61824 0
M  V30 13511 O 1302.38 0.432186 1.73189 0
M  V30 13512 C 1299.48 0.915546 3.26299 0
M  V30 13513 C 1298.66 2.09528 3.83949 0
M  V30 13514 C 1297.72 1.72775 4.97026 0
M  V30 13515 O 1296.74 2.44786 5.13876 0
M  V30 13516 N 1297.94 0.65775 5.76762 0
M  V30 13517 H 1300.71 2.22277 2.01029 0
M  V30 13518 H 1298.27 1.2935 0.973657 0
M  V30 13519 H 1300.26 0.650958 3.9943 0
M  V30 13520 H 1298.83 0.0392343 3.12575 0
M  V30 13521 H 1298.05 2.52304 3.0288 0
M  V30 13522 H 1299.34 2.88361 4.19196 0
M  V30 13523 H 1298.74 0.0596875 5.65669 0
M  V30 13524 H 1297.29 0.45297 6.50224 0
M  V30 13525 N 1300.73 -1.01913 1.20215 0
M  V30 13526 C 1301.97 -1.77015 1.02202 0
M  V30 13527 C 1302.33 -1.86927 -0.43845 0
M  V30 13528 O 1303.53 -2.58451 -0.73869 0
M  V30 13529 C 1301.8 -3.15244 1.68393 0
M  V30 13530 S 1303.36 -4.06414 1.65449 0
M  V30 13531 H 1300.18 -0.609242 0.366531 0
M  V30 13532 H 1302.78 -1.22044 1.52727 0
M  V30 13533 H 1301.49 -3.05653 2.73869 0
M  V30 13534 H 1301.02 -3.7529 1.17988 0
M  V30 13535 H 1303.03 -4.91441 0.685571 0
M  V30 13536 N 1302.21 -1.00763 -1.2118 0
M  V30 13537 C 1303.15 -0.570257 -2.23644 0
M  V30 13538 C 1304.12 0.405039 -1.61086 0
M  V30 13539 O 1305.31 0.306496 -1.88322 0
M  V30 13540 C 1302.45 0.094325 -3.44971 0
M  V30 13541 C 1301.56 -0.924463 -4.21993 0
M  V30 13542 C 1300.7 -0.231869 -5.30694 0
M  V30 13543 C 1299.74 -1.23803 -5.99449 0
M  V30 13544 N 1298.87 -0.572725 -6.9976 0
M  V30 13545 H 1303.71 -1.44869 -2.60417 0
M  V30 13546 H 1301.25 -0.725369 -1.27972 0
M  V30 13547 H 1303.21 0.496689 -4.14233 0
M  V30 13548 H 1301.84 0.936457 -3.08918 0
M  V30 13549 H 1300.89 -1.44505 -3.51884 0
M  V30 13550 H 1302.2 -1.69004 -4.69296 0
M  V30 13551 H 1301.36 0.226465 -6.06277 0
M  V30 13552 H 1300.09 0.566092 -4.84403 0
M  V30 13553 H 1299.1 -1.70684 -5.22635 0
M  V30 13554 H 1300.32 -2.03711 -6.47826 0
M  V30 13555 H 1298.27 0.205531 -6.55678 0
M  V30 13556 H 1298.19 -1.27651 -7.45145 0
M  V30 13557 H 1299.46 -0.137683 -7.79378 0
M  V30 13558 N 1303.68 1.3679 -0.7827 0
M  V30 13559 C 1305.1 1.82006 -0.41603 0
M  V30 13560 C 1305.45 1.65151 1.05922 0
M  V30 13561 O 1304.57 1.1687 1.82127 0
M  V30 13562 C 1305.17 3.30432 -0.748353 0
M  V30 13563 C 1303.73 3.73883 -0.4346 0
M  V30 13564 C 1302.87 2.59159 -0.986505 0
M  V30 13565 H 1305.82 1.25107 -0.976423 0
M  V30 13566 H 1305.84 3.80482 -0.036985 0
M  V30 13567 H 1305.36 3.42667 -1.82212 0
M  V30 13568 H 1303.46 3.67211 0.631401 0
M  V30 13569 H 1303.57 4.69577 -0.950511 0
M  V30 13570 H 1301.93 2.51377 -0.410108 0
M  V30 13571 H 1302.72 2.74182 -2.06589 0
M  V30 13572 N 1305.16 0.53415 1.48272 0
M  V30 13573 C 1306.09 -0.215037 2.32508 0
M  V30 13574 C 1307.07 -0.931083 1.42355 0
M  V30 13575 O 1308.26 -0.916051 1.71237 0
M  V30 13576 C 1305.39 -1.25985 3.23643 0
M  V30 13577 C 1304.34 -0.661692 4.22854 0
M  V30 13578 C 1303.67 -1.80946 5.03153 0
M  V30 13579 C 1304.97 0.369358 5.20992 0
M  V30 13580 H 1306.66 0.488158 2.95394 0
M  V30 13581 H 1304.21 0.236206 1.4205 0
M  V30 13582 H 1306.16 -1.79195 3.81402 0
M  V30 13583 H 1304.89 -1.99268 2.58766 0
M  V30 13584 H 1303.54 -0.151082 3.66289 0
M  V30 13585 H 1303.19 -2.53077 4.34696 0
M  V30 13586 H 1302.89 -1.41513 5.70305 0
M  V30 13587 H 1304.42 -2.34526 5.63764 0
M  V30 13588 H 1305.83 -0.0758076 5.7325 0
M  V30 13589 H 1304.23 0.681301 5.9622 0
M  V30 13590 H 1305.3 1.27363 4.67875 0
M  V30 13591 N 1306.64 -1.55279 0.269478 0
M  V30 13592 C 1307.59 -2.22304 -0.620435 0
M  V30 13593 C 1308.56 -1.19457 -1.15409 0
M  V30 13594 O 1309.74 -1.4798 -1.20443 0
M  V30 13595 C 1306.88 -2.94356 -1.80134 0
M  V30 13596 C 1306 -4.1191 -1.30207 0
M  V30 13597 C 1305.13 -4.71621 -2.44433 0
M  V30 13598 C 1304.17 -5.81379 -1.91481 0
M  V30 13599 N 1303.31 -6.35176 -2.99158 0
M  V30 13600 H 1308.15 -2.9797 -0.0422165 0
M  V30 13601 H 1305.68 -1.47097 -0.00907173 0
M  V30 13602 H 1307.64 -3.34343 -2.4954 0
M  V30 13603 H 1306.27 -2.21124 -2.35168 0
M  V30 13604 H 1305.32 -3.77082 -0.501301 0
M  V30 13605 H 1306.64 -4.9108 -0.874183 0
M  V30 13606 H 1305.79 -5.14298 -3.21842 0
M  V30 13607 H 1304.53 -3.91715 -2.90535 0
M  V30 13608 H 1303.53 -5.38157 -1.12549 0
M  V30 13609 H 1304.76 -6.63149 -1.46322 0
M  V30 13610 H 1302.7 -5.58167 -3.44652 0
M  V30 13611 H 1302.62 -7.09602 -2.60769 0
M  V30 13612 H 1303.89 -6.82512 -3.7656 0
M  V30 13613 N 1308.12 0.00332656 -1.576 0
M  V30 13614 C 1309.35 0.69893 -1.94418 0
M  V30 13615 C 1309.76 1.68021 -0.8698 0
M  V30 13616 O 1309.1 1.83 0.160193 0
M  V30 13617 C 1309.16 1.4892 -3.27205 0
M  V30 13618 C 1308.83 0.669874 -4.52064 0
M  V30 13619 C 1309.82 -0.0410157 -5.19884 0
M  V30 13620 C 1307.51 0.616824 -4.98498 0
M  V30 13621 C 1309.5 -0.793976 -6.32436 0
M  V30 13622 C 1307.19 -0.139864 -6.1094 0
M  V30 13623 C 1308.19 -0.844001 -6.77765 0
M  V30 13624 O 1307.87 -1.58835 -7.88052 0
M  V30 13625 H 1307.61 0.199843 -0.645785 0
M  V30 13626 H 1310.16 -0.0429034 -2.05355 0
M  V30 13627 H 1308.39 2.27544 -3.12667 0
M  V30 13628 H 1310.08 2.06983 -3.4916 0
M  V30 13629 H 1310.85 -0.00916281 -4.84999 0
M  V30 13630 H 1306.72 1.15442 -4.46312 0
M  V30 13631 H 1310.27 -1.34411 -6.84529 0
M  V30 13632 H 1306.17 -0.173549 -6.45267 0
M  V30 13633 H 1306.93 -1.50471 -8.0455 0
M  V30 13634 N 1309.6 1.55164 0.276031 0
M  V30 13635 C 1310.54 1.87836 1.34113 0
M  V30 13636 C 1311.51 0.729562 1.4922 0
M  V30 13637 O 1312.7 0.980549 1.63676 0
M  V30 13638 C 1309.84 2.15313 2.69693 0
M  V30 13639 C 1308.95 3.42845 2.62833 0
M  V30 13640 C 1308.09 3.60038 3.90572 0
M  V30 13641 C 1307.13 4.81273 3.7821 0
M  V30 13642 N 1306.26 4.95139 4.97777 0
M  V30 13643 H 1311.1 2.78681 1.0555 0
M  V30 13644 H 1308.64 1.37976 0.510001 0
M  V30 13645 H 1310.6 2.29243 3.48573 0
M  V30 13646 H 1309.23 1.27706 2.96464 0
M  V30 13647 H 1308.28 3.37403 1.75679 0
M  V30 13648 H 1309.59 4.3186 2.49597 0
M  V30 13649 H 1308.75 3.73769 4.77893 0
M  V30 13650 H 1307.48 2.69203 4.06671 0
M  V30 13651 H 1306.49 4.67549 2.89271 0
M  V30 13652 H 1307.71 5.7354 3.63632 0
M  V30 13653 H 1305.66 4.07234 5.14292 0
M  V30 13654 H 1305.58 5.78194 4.8706 0
M  V30 13655 H 1306.85 5.13253 5.86679 0
M  V30 13656 N 1311.07 -0.540404 1.48045 0
M  V30 13657 C 1312.32 -1.2987 1.55762 0
M  V30 13658 C 1312.65 -1.92877 0.226307 0
M  V30 13659 O 1311.93 -1.7875 -0.766727 0
M  V30 13660 C 1312.21 -2.39602 2.68817 0
M  V30 13661 C 1312.06 -1.81354 4.1162 0
M  V30 13662 C 1313.38 -3.41434 2.77688 0
M  V30 13663 H 1310.5 -0.47083 0.566999 0
M  V30 13664 H 1313.14 -0.603081 1.80175 0
M  V30 13665 H 1311.29 -2.98936 2.48132 0
M  V30 13666 H 1312.97 -1.26151 4.43716 0
M  V30 13667 H 1311.21 -1.1194 4.19108 0
M  V30 13668 H 1311.88 -2.60758 4.86528 0
M  V30 13669 H 1314.36 -2.92042 2.96396 0
M  V30 13670 H 1313.23 -4.15621 3.5854 0
M  V30 13671 H 1313.49 -4.01336 1.85422 0
M  V30 13672 N 1312.55 -1.36459 -0.788468 0
M  V30 13673 C 1313.8 -1.30935 -1.54867 0
M  V30 13674 C 1314.13 0.110916 -1.93883 0
M  V30 13675 O 1313.41 1.06452 -1.62783 0
M  V30 13676 C 1313.69 -2.23294 -2.8251 0
M  V30 13677 C 1313.54 -3.74022 -2.49856 0
M  V30 13678 C 1314.86 -2.14407 -3.84341 0
M  V30 13679 H 1311.98 -0.476958 -0.561854 0
M  V30 13680 H 1314.62 -1.67018 -0.905805 0
M  V30 13681 H 1312.77 -1.92652 -3.37369 0
M  V30 13682 H 1314.44 -4.15187 -2.01041 0
M  V30 13683 H 1312.69 -3.93411 -1.82785 0
M  V30 13684 H 1313.36 -4.34057 -3.41026 0
M  V30 13685 H 1315.83 -2.41381 -3.38932 0
M  V30 13686 H 1314.71 -2.81199 -4.71401 0
M  V30 13687 H 1314.97 -1.13166 -4.27371 0
M  V30 13688 N 1314.03 1.01274 -1.20754 0
M  V30 13689 C 1315.45 1.27256 -0.963221 0
M  V30 13690 C 1315.65 1.98349 0.354972 0
M  V30 13691 O 1314.7 2.28116 1.08255 0
M  V30 13692 C 1316.02 2.1038 -2.14851 0
M  V30 13693 C 1317.56 2.23633 -2.18991 0
M  V30 13694 C 1318.04 3.10136 -3.37016 0
M  V30 13695 N 1319.53 3.17724 -3.37054 0
M  V30 13696 C 1320.26 3.84891 -4.25025 0
M  V30 13697 N 1319.76 4.54152 -5.23181 0
M  V30 13698 N 1321.55 3.81454 -4.12855 0
M  V30 13699 H 1313.7 0.535534 -2.05538 0
M  V30 13700 H 1315.97 0.299006 -0.899611 0
M  V30 13701 H 1315.67 1.65484 -3.10335 0
M  V30 13702 H 1315.55 3.11122 -2.13267 0
M  V30 13703 H 1317.93 2.67753 -1.24067 0
M  V30 13704 H 1318.02 1.22387 -2.24622 0
M  V30 13705 H 1317.66 2.66721 -4.32229 0
M  V30 13706 H 1317.59 4.11478 -3.28623 0
M  V30 13707 H 1320.08 2.68412 -2.66014 0
M  V30 13708 H 1320.39 5.03084 -5.86623 0
M  V30 13709 H 1318.74 4.52964 -5.27113 0
M  V30 13710 H 1321.93 3.26494 -3.35439 0
M  V30 13711 H 1322.1 4.33523 -4.81624 0
M  V30 13712 N 1315.51 1.01404 1.20644 0
M  V30 13713 C 1316.79 0.617088 1.85611 0
M  V30 13714 C 1317.17 -0.904947 1.9072 0
M  V30 13715 O 1316.51 -1.79562 1.41315 0
M  V30 13716 C 1316.72 1.26193 3.25386 0
M  V30 13717 C 1318.07 1.37575 4.01694 0
M  V30 13718 O 1319.1 1.21795 3.34731 0
M  V30 13719 O 1317.96 1.6305 5.2161 0
M  V30 13720 H 1315.05 0.212579 0.799211 0
M  V30 13721 H 1317.6 1.11126 1.28254 0
M  V30 13722 H 1316.37 2.30206 3.16419 0
M  V30 13723 H 1315.99 0.754679 3.90372 0
M  V30 13724 N 1316.99 -1.36373 0.789944 0
M  V30 13725 C 1318.4 -1.81783 0.425677 0
M  V30 13726 C 1318.75 -1.65711 -1.05045 0
M  V30 13727 O 1317.87 -1.17835 -1.81505 0
M  V30 13728 C 1318.47 -3.3003 0.765866 0
M  V30 13729 C 1317.03 -3.73647 0.454421 0
M  V30 13730 C 1316.18 -2.58632 1.00023 0
M  V30 13731 H 1319.13 -1.24587 0.983044 0
M  V30 13732 H 1319.15 -3.80457 0.0571624 0
M  V30 13733 H 1318.66 -3.41696 1.84026 0
M  V30 13734 H 1316.76 -3.67541 -0.611918 0
M  V30 13735 H 1316.87 -4.69066 0.975401 0
M  V30 13736 H 1315.24 -2.51156 0.423434 0
M  V30 13737 H 1316.02 -2.73083 2.0804 0
M  V30 13738 N 1318.47 -0.542005 -1.47987 0
M  V30 13739 C 1319.88 -0.104646 -1.86406 0
M  V30 13740 C 1320.23 1.32139 -1.4503 0
M  V30 13741 O 1319.35 1.99159 -0.846439 0
M  V30 13742 C 1319.95 -0.183133 -3.38305 0
M  V30 13743 C 1318.51 0.199098 -3.75873 0
M  V30 13744 C 1317.65 -0.537532 -2.7204 0
M  V30 13745 H 1320.6 -0.75259 -1.3972 0
M  V30 13746 H 1320.63 0.602149 -3.75705 0
M  V30 13747 H 1320.14 -1.22113 -3.68389 0
M  V30 13748 H 1318.24 1.23878 -3.51404 0
M  V30 13749 H 1318.35 -0.14888 -4.78869 0
M  V30 13750 H 1316.72 0.0176255 -2.54694 0
M  V30 13751 H 1317.5 -1.57639 -3.04967 0
M  V30 13752 N 1319.94 1.55134 -0.277709 0
M  V30 13753 C 1320.87 2.256 0.602232 0
M  V30 13754 C 1321.85 1.24708 1.15681 0
M  V30 13755 O 1323.04 1.53433 1.19046 0
M  V30 13756 C 1320.17 2.97907 1.78519 0
M  V30 13757 C 1319.12 4.0575 1.36203 0
M  V30 13758 C 1318.45 4.65644 2.62829 0
M  V30 13759 C 1319.75 5.19801 0.510327 0
M  V30 13760 H 1321.44 2.99396 0.0145622 0
M  V30 13761 H 1318.99 1.43999 0.00556389 0
M  V30 13762 H 1320.94 3.45915 2.40668 0
M  V30 13763 H 1319.67 2.21649 2.39873 0
M  V30 13764 H 1318.33 3.58557 0.763726 0
M  V30 13765 H 1317.97 3.86053 3.22447 0
M  V30 13766 H 1317.67 5.38463 2.35227 0
M  V30 13767 H 1319.2 5.16403 3.25823 0
M  V30 13768 H 1320.61 5.63845 1.03689 0
M  V30 13769 H 1319.01 5.99197 0.329073 0
M  V30 13770 H 1320.08 4.82614 -0.470273 0
M  V30 13771 N 1321.42 0.00503138 1.57599 0
M  V30 13772 C 1322.35 -1.01302 2.05598 0
M  V30 13773 C 1323.37 -1.30388 0.974829 0
M  V30 13774 O 1324.56 -1.27275 1.25153 0
M  V30 13775 C 1321.66 -2.34654 2.44522 0
M  V30 13776 C 1320.83 -2.24436 3.7543 0
M  V30 13777 C 1319.89 -3.40517 4.01166 0
M  V30 13778 O 1318.91 -3.18479 4.71762 0
M  V30 13779 N 1320.12 -4.63532 3.49454 0
M  V30 13780 H 1322.88 -0.603656 2.93558 0
M  V30 13781 H 1320.44 -0.182248 1.60871 0
M  V30 13782 H 1322.43 -3.11093 2.5885 0
M  V30 13783 H 1321 -2.67315 1.62055 0
M  V30 13784 H 1320.22 -1.32875 3.71131 0
M  V30 13785 H 1321.51 -2.14786 4.61242 0
M  V30 13786 H 1320.91 -4.84334 2.92296 0
M  V30 13787 H 1319.47 -5.37221 3.69103 0
M  V30 13788 N 1322.9 -1.55308 -0.267798 0
M  V30 13789 C 1323.83 -1.8348 -1.35685 0
M  V30 13790 C 1324.81 -0.688228 -1.47317 0
M  V30 13791 O 1325.99 -0.931781 -1.6386 0
M  V30 13792 C 1323.12 -2.00103 -2.7327 0
M  V30 13793 C 1322.17 -3.22675 -2.78896 0
M  V30 13794 S 1323 -4.79895 -2.37615 0
M  V30 13795 C 1324.16 -4.99497 -3.77165 0
M  V30 13796 H 1324.39 -2.75565 -1.11585 0
M  V30 13797 H 1321.92 -1.47146 -0.467703 0
M  V30 13798 H 1323.88 -2.10364 -3.52501 0
M  V30 13799 H 1322.54 -1.08897 -2.94619 0
M  V30 13800 H 1321.73 -3.31209 -3.7989 0
M  V30 13801 H 1321.34 -3.11031 -2.07691 0
M  V30 13802 H 1323.63 -4.85558 -4.72483 0
M  V30 13803 H 1324.57 -6.01534 -3.73581 0
M  V30 13804 H 1324.98 -4.2745 -3.68709 0
M  V30 13805 N 1324.38 0.532545 -1.4833 0
M  V30 13806 C 1325.65 1.29371 -1.46705 0
M  V30 13807 C 1326.03 2.10354 -0.177329 0
M  V30 13808 O 1325.38 2.12462 0.840968 0
M  V30 13809 C 1325.59 2.17733 -2.72751 0
M  V30 13810 C 1326.94 2.77956 -3.20976 0
M  V30 13811 O 1327.96 2.28022 -2.7365 0
M  V30 13812 O 1326.82 3.68779 -4.03317 0
M  V30 13813 H 1323.92 0.58378 -0.585773 0
M  V30 13814 H 1326.46 0.549411 -1.6056 0
M  V30 13815 H 1325.24 1.57659 -3.58133 0
M  V30 13816 H 1324.86 2.99415 -2.61603 0
M  V30 13817 N 1325.86 1.36875 0.78122 0
M  V30 13818 C 1327.1 1.31754 1.54171 0
M  V30 13819 C 1327.43 -0.100632 1.93939 0
M  V30 13820 O 1326.71 -1.05587 1.63345 0
M  V30 13821 C 1326.99 2.24789 2.81322 0
M  V30 13822 C 1326.85 3.75342 2.47868 0
M  V30 13823 C 1328.16 2.16442 3.83198 0
M  V30 13824 H 1325.28 0.479931 0.559317 0
M  V30 13825 H 1327.93 1.67497 0.896935 0
M  V30 13826 H 1326.08 1.94438 3.36342 0
M  V30 13827 H 1327.75 4.16247 1.98836 0
M  V30 13828 H 1325.99 3.94375 1.80696 0
M  V30 13829 H 1326.66 4.3586 3.38719 0
M  V30 13830 H 1329.14 2.43175 3.37647 0
M  V30 13831 H 1328.01 2.83695 4.69903 0
M  V30 13832 H 1328.27 1.15431 4.26765 0
M  V30 13833 N 1327.33 -1.00632 1.21289 0
M  V30 13834 C 1328.3 -2.07543 0.972548 0
M  V30 13835 C 1329.3 -1.60703 -0.0559244 0
M  V30 13836 O 1330.49 -1.73255 0.181213 0
M  V30 13837 C 1327.62 -3.37696 0.466297 0
M  V30 13838 H 1328.81 -2.30298 1.92101 0
M  V30 13839 H 1326.36 -1.17588 1.02969 0
M  V30 13840 H 1327.1 -3.2062 -0.487148 0
M  V30 13841 H 1326.88 -3.73024 1.20813 0
M  V30 13842 H 1328.37 -4.16388 0.317962 0
M  V30 13843 N 1328.81 -1.02043 -1.20104 0
M  V30 13844 C 1330.04 -0.731142 -1.94085 0
M  V30 13845 C 1330.46 0.702467 -1.74491 0
M  V30 13846 O 1329.82 1.48387 -1.04168 0
M  V30 13847 C 1329.87 -1.07691 -3.44144 0
M  V30 13848 O 1328.97 -0.190751 -4.11959 0
M  V30 13849 H 1328.31 -0.270917 -0.606218 0
M  V30 13850 H 1330.84 -1.36483 -1.52426 0
M  V30 13851 H 1330.85 -1.03023 -3.94779 0
M  V30 13852 H 1329.53 -2.1214 -3.57728 0
M  V30 13853 H 1328.1 -0.29529 -3.71729 0
M  V30 13854 N 1330.29 1.35952 -0.797165 0
M  V30 13855 C 1331.54 1.98283 -0.369685 0
M  V30 13856 C 1331.85 1.63968 1.06649 0
M  V30 13857 O 1333.06 2.19591 1.59662 0
M  V30 13858 C 1331.51 3.54692 -0.610046 0
M  V30 13859 C 1331.12 3.97925 -2.05814 0
M  V30 13860 C 1332.87 4.23778 -0.247457 0
M  V30 13861 C 1330.77 5.47142 -2.24475 0
M  V30 13862 H 1329.7 0.741909 -0.134489 0
M  V30 13863 H 1332.35 1.55146 -0.979893 0
M  V30 13864 H 1330.74 3.95938 0.0699822 0
M  V30 13865 H 1331.91 3.67857 -2.77521 0
M  V30 13866 H 1330.23 3.417 -2.37971 0
M  V30 13867 H 1332.82 5.33452 -0.365059 0
M  V30 13868 H 1333.17 4.08436 0.805315 0
M  V30 13869 H 1333.7 3.87921 -0.881028 0
M  V30 13870 H 1330.44 5.67441 -3.28163 0
M  V30 13871 H 1329.96 5.78811 -1.57282 0
M  V30 13872 H 1331.64 6.13475 -2.05567 0
M  V30 13873 N 1331.77 0.549846 1.47697 0
M  V30 13874 C 1332.7 -0.190364 2.32723 0
M  V30 13875 C 1333.68 -0.915933 1.43334 0
M  V30 13876 O 1334.86 -0.897838 1.72199 0
M  V30 13877 C 1331.99 -1.22545 3.24961 0
M  V30 13878 C 1330.95 -0.616805 4.23532 0
M  V30 13879 C 1330.27 -1.75599 5.05044 0
M  V30 13880 C 1331.57 0.424595 5.20571 0
M  V30 13881 H 1333.27 0.519461 2.94859 0
M  V30 13882 H 1330.81 0.251259 1.41791 0
M  V30 13883 H 1332.77 -1.75139 3.83281 0
M  V30 13884 H 1331.49 -1.96512 2.60865 0
M  V30 13885 H 1330.15 -0.112224 3.66428 0
M  V30 13886 H 1329.8 -2.48453 4.37356 0
M  V30 13887 H 1329.5 -1.35456 5.71774 0
M  V30 13888 H 1331.02 -2.28533 5.6622 0
M  V30 13889 H 1332.44 -0.0150025 5.73298 0
M  V30 13890 H 1330.83 0.7445 5.95464 0
M  V30 13891 H 1331.9 1.32318 4.66497 0
M  V30 13892 N 1333.25 -1.54984 0.285932 0
M  V30 13893 C 1334.2 -2.19645 -0.611576 0
M  V30 13894 C 1335.18 -1.16453 -1.11029 0
M  V30 13895 O 1336.37 -1.42228 -1.05357 0
M  V30 13896 C 1333.5 -2.9293 -1.79017 0
M  V30 13897 C 1332.59 -4.03421 -1.30813 0
M  V30 13898 N 1332.98 -5.02877 -0.542993 0
M  V30 13899 C 1331.28 -4.16689 -1.59016 0
M  V30 13900 C 1331.98 -5.80986 -0.288176 0
M  V30 13901 N 1330.95 -5.36695 -0.863695 0
M  V30 13902 H 1334.76 -2.93894 -0.0192813 0
M  V30 13903 H 1332.27 -1.6215 0.0899876 0
M  V30 13904 H 1334.27 -3.37709 -2.44454 0
M  V30 13905 H 1332.93 -2.20194 -2.38631 0
M  V30 13906 H 1333.94 -5.17554 -0.189305 0
M  V30 13907 H 1330.61 -3.5515 -2.19488 0
M  V30 13908 H 1332 -6.71112 0.325337 0
M  V30 13909 N 1334.72 -0.0133892 -1.57594 0
M  V30 13910 C 1335.65 0.972341 -2.12292 0
M  V30 13911 C 1336.64 1.34971 -1.03522 0
M  V30 13912 O 1337.82 1.4311 -1.31275 0
M  V30 13913 C 1334.95 2.25988 -2.63717 0
M  V30 13914 C 1333.9 2.02373 -3.77133 0
M  V30 13915 C 1333.23 3.37256 -4.14925 0
M  V30 13916 C 1334.53 1.37553 -5.03861 0
M  V30 13917 H 1336.22 0.516869 -2.94905 0
M  V30 13918 H 1333.77 0.247176 -1.41863 0
M  V30 13919 H 1335.72 2.95313 -3.00613 0
M  V30 13920 H 1334.45 2.73672 -1.78244 0
M  V30 13921 H 1333.11 1.3547 -3.40651 0
M  V30 13922 H 1332.75 3.82669 -3.26456 0
M  V30 13923 H 1332.45 3.22267 -4.91343 0
M  V30 13924 H 1333.98 4.07875 -4.5439 0
M  V30 13925 H 1335.39 1.96855 -5.38443 0
M  V30 13926 H 1333.79 1.33011 -5.85174 0
M  V30 13927 H 1334.86 0.346429 -4.83661 0
M  V30 13928 N 1336.2 1.55448 0.259558 0
M  V30 13929 C 1337.15 1.90056 1.34096 0
M  V30 13930 C 1338.14 0.778267 1.50464 0
M  V30 13931 O 1339.35 0.962758 1.52089 0
M  V30 13932 H 1335.73 0.603424 0.448758 0
M  V30 13933 H 1337.7 2.80365 1.02166 0
M  V30 13934 C 1336.45 2.20074 2.69189 0
M  V30 13935 H 1335.77 3.05926 2.57389 0
M  V30 13936 H 1337.21 2.48201 3.43762 0
M  V30 13937 C 1335.67 1.01281 3.21316 0
M  V30 13938 O 1336.2 0.2543 4.00894 0
M  V30 13939 N 1334.4 0.806855 2.79174 0
M  V30 13940 H 1333.95 1.42536 2.14572 0
M  V30 13941 H 1333.91 0.0136714 3.14397 0
M  V30 13942 N 1337.68 -0.524672 1.4861 0
M  V30 13943 C 1339.1 -0.853703 1.34848 0
M  V30 13944 C 1339.3 -1.98194 0.363529 0
M  V30 13945 O 1338.35 -2.51597 -0.213348 0
M  V30 13946 C 1339.67 -1.21622 2.75006 0
M  V30 13947 C 1341.21 -1.3258 2.83534 0
M  V30 13948 C 1341.69 -1.72172 4.24406 0
M  V30 13949 N 1343.18 -1.79265 4.27105 0
M  V30 13950 C 1343.91 -2.11296 5.33049 0
M  V30 13951 N 1343.41 -2.41714 6.49266 0
M  V30 13952 N 1345.2 -2.12347 5.20447 0
M  V30 13953 H 1337.35 0.219671 2.11261 0
M  V30 13954 H 1339.62 0.0356444 0.94733 0
M  V30 13955 H 1339.32 -0.460776 3.48669 0
M  V30 13956 H 1339.2 -2.16516 3.0887 0
M  V30 13957 H 1341.58 -2.072 2.10124 0
M  V30 13958 H 1341.67 -0.357943 2.53283 0
M  V30 13959 H 1341.31 -0.981108 4.98334 0
M  V30 13960 H 1341.24 -2.70017 4.52104 0
M  V30 13961 H 1343.73 -1.58013 3.43279 0
M  V30 13962 H 1344.04 -2.65276 7.25843 0
M  V30 13963 H 1342.39 -2.39222 6.52532 0
M  V30 13964 H 1345.58 -1.88044 4.28669 0
M  V30 13965 H 1345.75 -2.36978 6.03113 0
M  V30 13966 N 1339.16 -1.37287 -0.77395 0
M  V30 13967 C 1340.11 -1.32872 -1.88716 0
M  V30 13968 C 1341.08 -0.194655 -1.64955 0
M  V30 13969 O 1342.26 -0.383662 -1.86903 0
M  V30 13970 C 1339.4 -1.13934 -3.2575 0
M  V30 13971 C 1338.51 -2.36552 -3.61479 0
M  V30 13972 C 1337.65 -2.10504 -4.87711 0
M  V30 13973 C 1336.69 -3.28999 -5.16165 0
M  V30 13974 N 1335.82 -3.02517 -6.33584 0
M  V30 13975 H 1340.66 -2.28051 -1.91825 0
M  V30 13976 H 1338.2 -1.13325 -0.93786 0
M  V30 13977 H 1340.16 -1.00976 -4.04796 0
M  V30 13978 H 1338.79 -0.22404 -3.22022 0
M  V30 13979 H 1337.84 -2.60257 -2.77435 0
M  V30 13980 H 1339.15 -3.24931 -3.78446 0
M  V30 13981 H 1338.31 -1.94564 -5.74656 0
M  V30 13982 H 1337.05 -1.19459 -4.72843 0
M  V30 13983 H 1336.05 -3.4548 -4.27696 0
M  V30 13984 H 1337.28 -4.20892 -5.32942 0
M  V30 13985 H 1335.22 -2.14099 -6.20079 0
M  V30 13986 H 1335.14 -3.84439 -6.50955 0
M  V30 13987 H 1336.41 -2.9019 -7.23471 0
M  V30 13988 N 1340.64 0.999871 -1.21821 0
M  V30 13989 C 1341.88 1.7384 -1.03855 0
M  V30 13990 C 1342.21 1.89749 0.42727 0
M  V30 13991 O 1341.47 1.43261 1.33323 0
M  V30 13992 C 1341.77 3.1509 -1.6868 0
M  V30 13993 C 1341.43 3.19115 -3.18554 0
M  V30 13994 C 1340.09 3.19921 -3.5945 0
M  V30 13995 C 1342.45 3.15954 -4.14515 0
M  V30 13996 C 1339.77 3.15257 -4.94803 0
M  V30 13997 C 1342.13 3.12831 -5.49836 0
M  V30 13998 C 1340.79 3.11949 -5.90122 0
M  V30 13999 H 1340.06 0.636126 -0.380032 0
M  V30 14000 H 1342.71 1.17151 -1.51485 0
M  V30 14001 H 1341.01 3.75044 -1.13356 0
M  V30 14002 H 1342.71 3.70962 -1.52277 0
M  V30 14003 H 1339.3 3.19234 -2.85986 0
M  V30 14004 H 1343.48 3.14487 -3.83942 0
M  V30 14005 H 1338.74 3.12915 -5.25256 0
M  V30 14006 H 1342.91 3.09339 -6.23925 0
M  V30 14007 H 1340.54 3.0809 -6.94971 0
M  V30 14008 N 1342.11 1.02678 1.19562 0
M  V30 14009 C 1343.36 0.723086 1.89471 0
M  V30 14010 C 1343.69 -0.746269 1.79289 0
M  V30 14011 O 1342.97 -1.54322 1.18384 0
M  V30 14012 C 1343.25 1.17224 3.40486 0
M  V30 14013 C 1343.1 2.70266 3.5955 0
M  V30 14014 C 1344.42 0.751397 4.33638 0
M  V30 14015 H 1341.54 0.264155 0.688034 0
M  V30 14016 H 1344.18 1.27633 1.40747 0
M  V30 14017 H 1342.33 0.701544 3.82113 0
M  V30 14018 H 1344.01 3.25266 3.27108 0
M  V30 14019 H 1342.25 3.10758 3.02675 0
M  V30 14020 H 1342.92 2.96748 4.65451 0
M  V30 14021 H 1345.4 1.15621 3.99714 0
M  V30 14022 H 1344.27 1.09358 5.37896 0
M  V30 14023 H 1344.53 -0.346367 4.40741 0
M  V30 14024 N 1343.59 -1.35528 0.804364 0
M  V30 14025 C 1344.87 -1.93175 0.307049 0
M  V30 14026 C 1345.25 -1.73466 -1.20303 0
M  V30 14027 O 1344.6 -1.10235 -2.00151 0
M  V30 14028 C 1344.81 -3.41576 0.716018 0
M  V30 14029 C 1346.16 -4.18719 0.704242 0
M  V30 14030 O 1347.18 -3.50081 0.657423 0
M  V30 14031 O 1346.04 -5.41181 0.760601 0
M  V30 14032 H 1343.13 -0.823142 0.0797888 0
M  V30 14033 H 1345.68 -1.44617 0.887912 0
M  V30 14034 H 1344.45 -3.49642 1.75688 0
M  V30 14035 H 1344.07 -3.97448 0.109843 0
M  V30 14036 N 1345.07 -0.557671 -1.47404 0
M  V30 14037 C 1346 0.237612 -2.2696 0
M  V30 14038 C 1346.98 0.919871 -1.34079 0
M  V30 14039 O 1348.17 0.938767 -1.63461 0
M  V30 14040 C 1345.29 1.33863 -3.11124 0
M  V30 14041 C 1344.34 0.764877 -4.19585 0
M  V30 14042 S 1345.17 -0.388893 -5.34086 0
M  V30 14043 C 1346.33 0.713932 -6.21815 0
M  V30 14044 H 1346.56 -0.437477 -2.94064 0
M  V30 14045 H 1344.09 -0.344004 -1.50519 0
M  V30 14046 H 1346.05 1.96917 -3.60186 0
M  V30 14047 H 1344.71 1.98556 -2.43381 0
M  V30 14048 H 1343.91 1.5917 -4.78206 0
M  V30 14049 H 1343.51 0.210502 -3.73407 0
M  V30 14050 H 1345.8 1.60592 -6.58192 0
M  V30 14051 H 1346.74 0.165069 -7.07908 0
M  V30 14052 H 1347.15 1.00681 -5.55449 0
M  V30 14053 N 1346.55 1.54831 -0.294147 0
M  V30 14054 C 1347.83 1.92071 0.369902 0
M  V30 14055 C 1348.21 1.22061 1.72233 0
M  V30 14056 O 1347.55 0.353975 2.25742 0
M  V30 14057 C 1347.76 3.45524 0.49135 0
M  V30 14058 C 1349.11 4.17644 0.765411 0
M  V30 14059 O 1350.14 3.51521 0.575428 0
M  V30 14060 O 1349 5.34692 1.12992 0
M  V30 14061 H 1346.09 0.801033 0.20561 0
M  V30 14062 H 1348.64 1.66224 -0.341702 0
M  V30 14063 H 1347.41 3.88591 -0.459663 0
M  V30 14064 H 1347.03 3.77384 1.25169 0
M  V30 14065 N 1348.03 0.0217466 1.57585 0
M  V30 14066 C 1348.96 -0.961069 2.12804 0
M  V30 14067 C 1349.94 -1.3442 1.04237 0
M  V30 14068 O 1351.12 -1.42412 1.32032 0
M  V30 14069 C 1348.25 -2.24586 2.64912 0
M  V30 14070 C 1347.21 -2.0037 3.78201 0
M  V30 14071 C 1346.53 -3.35051 4.16708 0
M  V30 14072 C 1347.83 -1.34879 5.04584 0
M  V30 14073 H 1349.53 -0.501222 2.95175 0
M  V30 14074 H 1347.07 -0.239649 1.41992 0
M  V30 14075 H 1349.03 -2.93715 3.02175 0
M  V30 14076 H 1347.75 -2.72723 1.79693 0
M  V30 14077 H 1346.41 -1.33662 3.41365 0
M  V30 14078 H 1346.06 -3.80932 3.28481 0
M  V30 14079 H 1345.76 -3.19656 4.93045 0
M  V30 14080 H 1347.28 -4.05459 4.56547 0
M  V30 14081 H 1348.7 -1.93997 5.3948 0
M  V30 14082 H 1347.09 -1.29906 5.85871 0
M  V30 14083 H 1348.16 -0.320774 4.83838 0
M  V30 14084 N 1349.51 -1.55583 -0.251311 0
M  V30 14085 C 1350.45 -1.90764 -1.33086 0
M  V30 14086 C 1351.45 -0.786236 -1.50049 0
M  V30 14087 O 1352.65 -0.97081 -1.51576 0
M  V30 14088 H 1349.03 -0.605795 -0.445551 0
M  V30 14089 H 1351 -2.80903 -1.00678 0
M  V30 14090 C 1349.75 -2.21499 -2.68018 0
M  V30 14091 H 1349.07 -3.07287 -2.55763 0
M  V30 14092 H 1350.51 -2.50021 -3.42441 0
M  V30 14093 C 1348.97 -1.02983 -3.20774 0
M  V30 14094 O 1349.5 -0.275557 -4.00754 0
M  V30 14095 N 1347.71 -0.821649 -2.78742 0
M  V30 14096 H 1347.25 -1.43672 -2.13813 0
M  V30 14097 H 1347.21 -0.0303445 -3.14385 0
M  V30 14098 N 1350.98 0.516783 -1.48886 0
M  V30 14099 C 1351.91 1.62897 -1.67292 0
M  V30 14100 C 1352.89 1.61903 -0.521671 0
M  V30 14101 O 1354.08 1.78892 -0.755728 0
M  V30 14102 C 1351.21 3.01444 -1.72478 0
M  V30 14103 C 1350.16 3.173 -2.87236 0
M  V30 14104 C 1349.49 4.5704 -2.77522 0
M  V30 14105 C 1350.79 2.98818 -4.28375 0
M  V30 14106 H 1352.48 1.47748 -2.60405 0
M  V30 14107 H 1350.03 0.709361 -1.25316 0
M  V30 14108 H 1351.98 3.79135 -1.83942 0
M  V30 14109 H 1350.71 3.17645 -0.759538 0
M  V30 14110 H 1349.37 2.4203 -2.75349 0
M  V30 14111 H 1349.01 4.70096 -1.78938 0
M  V30 14112 H 1348.71 4.68593 -3.54534 0
M  V30 14113 H 1350.24 5.36813 -2.90972 0
M  V30 14114 H 1351.65 3.66291 -4.41026 0
M  V30 14115 H 1350.05 3.21854 -5.06488 0
M  V30 14116 H 1351.12 1.95102 -4.43918 0
M  V30 14117 N 1352.46 1.37696 0.766659 0
M  V30 14118 C 1353.71 1.32922 1.52237 0
M  V30 14119 C 1354.03 -0.0842833 1.94818 0
M  V30 14120 O 1353.3 -1.02934 1.66677 0
M  V30 14121 H 1351.88 0.489049 0.564659 0
M  V30 14122 H 1354.54 1.72238 0.912142 0
M  V30 14123 H 1353.64 1.97158 2.4194 0
M  V30 14124 N 1353.94 -0.993397 1.22349 0
M  V30 14125 C 1355.16 -1.77373 1.07488 0
M  V30 14126 C 1355.59 -1.84418 -0.37034 0
M  V30 14127 O 1354.95 -1.29629 -1.26752 0
M  V30 14128 C 1355 -3.18538 1.69014 0
M  V30 14129 O 1354.1 -4.01463 0.943474 0
M  V30 14130 H 1353.44 -0.546209 0.37756 0
M  V30 14131 H 1355.97 -1.24792 1.62136 0
M  V30 14132 H 1355.98 -3.6917 1.73717 0
M  V30 14133 H 1354.66 -3.12725 2.74182 0
M  V30 14134 H 1353.23 -3.59998 0.972415 0
M  V30 14135 N 1355.42 -1.03311 -1.19015 0
M  V30 14136 C 1356.66 -0.733124 -1.89085 0
M  V30 14137 C 1357 0.73675 -1.79682 0
M  V30 14138 O 1356.27 1.53692 -1.19201 0
M  V30 14139 C 1356.55 -1.19028 -3.39859 0
M  V30 14140 C 1356.41 -2.72169 -3.58112 0
M  V30 14141 C 1357.73 -0.774383 -4.33234 0
M  V30 14142 H 1354.85 -0.2678 -0.686624 0
M  V30 14143 H 1357.49 -1.28378 -1.40068 0
M  V30 14144 H 1355.64 -0.721799 -3.81736 0
M  V30 14145 H 1357.31 -3.26996 -3.25379 0
M  V30 14146 H 1355.55 -3.12358 -3.01023 0
M  V30 14147 H 1356.22 -2.99213 -4.6387 0
M  V30 14148 H 1358.7 -1.17739 -3.99095 0
M  V30 14149 H 1357.58 -1.12209 -5.37308 0
M  V30 14150 H 1357.84 0.322989 -4.40919 0
M  V30 14151 N 1356.9 1.35099 -0.81154 0
M  V30 14152 C 1358.13 2.02566 -0.406265 0
M  V30 14153 C 1358.53 1.61291 0.989032 0
M  V30 14154 O 1357.88 0.808496 1.64952 0
M  V30 14155 C 1357.94 3.57087 -0.415847 0
M  V30 14156 C 1357.6 4.21645 -1.76251 0
M  V30 14157 C 1358.6 4.42974 -2.72159 0
M  V30 14158 C 1356.28 4.58658 -2.04787 0
M  V30 14159 C 1358.28 5.00425 -3.94783 0
M  V30 14160 C 1355.97 5.15822 -3.27674 0
M  V30 14161 C 1356.96 5.36648 -4.2249 0
M  V30 14162 O 1356.65 5.92606 -5.43207 0
M  V30 14163 H 1356.38 0.65615 -0.162612 0
M  V30 14164 H 1358.94 1.73596 -1.09789 0
M  V30 14165 H 1357.17 3.85269 0.332409 0
M  V30 14166 H 1358.86 4.05887 -0.0322011 0
M  V30 14167 H 1359.62 4.14753 -2.51405 0
M  V30 14168 H 1355.5 4.41759 -1.31795 0
M  V30 14169 H 1359.05 5.16596 -4.68801 0
M  V30 14170 H 1354.94 5.4347 -3.48296 0
M  V30 14171 H 1355.71 6.11052 -5.44571 0
M  V30 14172 N 1358.37 0.56548 1.47106 0
M  V30 14173 C 1359.31 -0.215154 2.28188 0
M  V30 14174 C 1360.32 -0.871671 1.37498 0
M  V30 14175 O 1361.51 -0.744131 1.6225 0
M  V30 14176 C 1358.61 -1.32289 3.12014 0
M  V30 14177 C 1357.78 -0.761594 4.30719 0
M  V30 14178 C 1356.84 -1.75486 4.96076 0
M  V30 14179 O 1355.87 -1.29771 5.5421 0
M  V30 14180 N 1357.07 -3.0885 4.9152 0
M  V30 14181 H 1359.83 0.480405 2.95825 0
M  V30 14182 H 1357.39 0.402099 1.56827 0
M  V30 14183 H 1359.39 -1.98628 3.52603 0
M  V30 14184 H 1357.96 -1.92156 2.46566 0
M  V30 14185 H 1357.18 0.078794 3.94121 0
M  V30 14186 H 1358.46 -0.366072 5.07481 0
M  V30 14187 H 1357.86 -3.4863 4.45504 0
M  V30 14188 H 1356.42 -3.70725 5.36103 0
M  V30 14189 N 1359.85 -1.54672 0.302354 0
M  V30 14190 C 1361.08 -2.04282 -0.308645 0
M  V30 14191 C 1361.49 -1.17912 -1.47965 0
M  V30 14192 O 1360.83 -0.197723 -1.82633 0
M  V30 14193 C 1360.9 -3.49872 -0.826417 0
M  V30 14194 C 1360.56 -4.56473 0.219486 0
M  V30 14195 C 1361.56 -5.0922 1.0484 0
M  V30 14196 C 1359.24 -5.00997 0.361574 0
M  V30 14197 C 1361.24 -6.05033 2.00533 0
M  V30 14198 C 1358.92 -5.9663 1.32195 0
M  V30 14199 C 1359.92 -6.48532 2.1423 0
M  V30 14200 O 1359.61 -7.42292 3.08639 0
M  V30 14201 H 1359.34 -0.67228 -0.0708187 0
M  V30 14202 H 1361.89 -2.00625 0.440314 0
M  V30 14203 H 1360.12 -3.50857 -1.62593 0
M  V30 14204 H 1361.81 -3.8267 -1.35345 0
M  V30 14205 H 1362.58 -4.75615 0.949501 0
M  V30 14206 H 1358.46 -4.60226 -0.267018 0
M  V30 14207 H 1362 -6.45469 2.64604 0
M  V30 14208 H 1357.9 -6.29652 1.42156 0
M  V30 14209 H 1358.67 -7.60098 3.03633 0
M  V30 14210 N 1361.33 -0.0301034 -1.57571 0
M  V30 14211 C 1362.58 0.643491 -1.92953 0
M  V30 14212 C 1362.93 1.69679 -0.907009 0
M  V30 14213 O 1362.22 1.91446 0.0768136 0
M  V30 14214 C 1362.42 1.30206 -3.32838 0
M  V30 14215 C 1362.25 0.314074 -4.48602 0
M  V30 14216 C 1361.02 -0.0864138 -5.05226 0
M  V30 14217 C 1363.22 -0.432028 -5.12482 0
M  V30 14218 N 1361.2 -1.06947 -6.04513 0
M  V30 14219 C 1362.57 -1.26881 -6.06878 0
M  V30 14220 C 1364.62 -0.492623 -4.95457 0
M  V30 14221 C 1363.33 -2.16071 -6.8608 0
M  V30 14222 C 1365.35 -1.37187 -5.75268 0
M  V30 14223 C 1364.71 -2.19642 -6.69281 0
M  V30 14224 H 1360.81 0.207753 -0.753898 0
M  V30 14225 H 1363.4 -0.0975084 -1.94456 0
M  V30 14226 H 1361.57 2.0132 -3.32152 0
M  V30 14227 H 1363.3 1.93276 -3.55565 0
M  V30 14228 H 1360.06 0.288233 -4.72722 0
M  V30 14229 H 1360.48 -1.55726 -6.58846 0
M  V30 14230 H 1365.12 0.130615 -4.22598 0
M  V30 14231 H 1362.84 -2.79449 -7.58244 0
M  V30 14232 H 1366.43 -1.42306 -5.64128 0
M  V30 14233 H 1365.31 -2.86576 -7.29962 0
M  V30 14234 N 1362.81 1.55714 0.243056 0
M  V30 14235 C 1364.05 1.77989 0.971993 0
M  V30 14236 C 1364.39 0.596038 1.84827 0
M  V30 14237 O 1363.66 -0.40554 1.90225 0
M  V30 14238 C 1363.95 3.10178 1.82925 0
M  V30 14239 C 1363.8 4.38974 0.9809 0
M  V30 14240 C 1365.12 3.38628 2.81103 0
M  V30 14241 H 1362.24 0.64754 0.35194 0
M  V30 14242 H 1364.88 1.88449 0.242237 0
M  V30 14243 H 1363.03 3.01392 2.45143 0
M  V30 14244 H 1364.7 4.59756 0.377113 0
M  V30 14245 H 1362.94 4.3286 0.285414 0
M  V30 14246 H 1363.61 5.27858 1.61461 0
M  V30 14247 H 1366.09 3.47403 2.29021 0
M  V30 14248 H 1364.97 4.32331 3.38203 0
M  V30 14249 H 1365.23 2.5973 3.57761 0
M  V30 14250 N 1364.29 -0.50888 1.49158 0
M  V30 14251 C 1365.54 -1.26008 1.57496 0
M  V30 14252 C 1365.85 -1.9382 0.263281 0
M  V30 14253 O 1367.05 -2.70565 0.225117 0
M  V30 14254 C 1365.51 -2.28752 2.7785 0
M  V30 14255 C 1365.12 -1.66915 4.15744 0
M  V30 14256 C 1366.86 -3.0475 2.95513 0
M  V30 14257 C 1364.77 -2.67724 5.27331 0
M  V30 14258 H 1363.7 -0.473984 0.586392 0
M  V30 14259 H 1366.35 -0.534886 1.75531 0
M  V30 14260 H 1364.73 -3.044 2.53292 0
M  V30 14261 H 1365.91 -0.973131 4.50407 0
M  V30 14262 H 1364.22 -1.03336 4.03374 0
M  V30 14263 H 1366.82 -3.80121 3.76048 0
M  V30 14264 H 1367.16 -3.6189 2.05771 0
M  V30 14265 H 1367.69 -2.36217 3.20072 0
M  V30 14266 H 1364.43 -2.15375 6.19107 0
M  V30 14267 H 1363.95 -3.35589 4.97132 0
M  V30 14268 H 1365.63 -3.30304 5.56335 0
M  V30 14269 N 1365.76 -1.381 -0.759346 0
M  V30 14270 C 1366.99 -1.37213 -1.54855 0
M  V30 14271 C 1367.41 0.0395175 -1.88759 0
M  V30 14272 O 1366.76 1.00462 -1.5236 0
M  V30 14273 C 1366.82 -2.22232 -2.85123 0
M  V30 14274 O 1366.54 -3.57897 -2.52668 0
M  V30 14275 C 1368.04 -2.29461 -3.79292 0
M  V30 14276 H 1365.26 -0.469542 -0.479345 0
M  V30 14277 H 1367.8 -1.81604 -0.940216 0
M  V30 14278 H 1365.96 -1.81317 -3.42349 0
M  V30 14279 H 1366.37 -4.02599 -3.36176 0
M  V30 14280 H 1367.84 -2.93246 -4.67665 0
M  V30 14281 H 1368.32 -1.3066 -4.19315 0
M  V30 14282 H 1368.93 -2.70741 -3.27993 0
M  V30 14283 N 1367.24 0.986894 -1.22875 0
M  V30 14284 C 1368.49 1.72152 -1.05103 0
M  V30 14285 C 1368.8 1.91185 0.413248 0
M  V30 14286 O 1370.01 2.62031 0.710759 0
M  V30 14287 C 1368.47 3.09771 -1.8322 0
M  V30 14288 C 1368.07 2.98648 -3.33936 0
M  V30 14289 C 1369.82 3.87238 -1.73917 0
M  V30 14290 C 1367.73 4.31459 -4.04471 0
M  V30 14291 H 1366.66 0.645498 -0.389677 0
M  V30 14292 H 1369.31 1.10125 -1.46781 0
M  V30 14293 H 1367.69 3.72515 -1.34345 0
M  V30 14294 H 1368.86 2.45033 -3.9025 0
M  V30 14295 H 1367.18 2.34661 -3.43982 0
M  V30 14296 H 1369.77 4.85549 -2.23933 0
M  V30 14297 H 1370.12 4.1036 -0.700711 0
M  V30 14298 H 1370.65 3.31183 -2.20369 0
M  V30 14299 H 1367.39 4.13534 -5.08596 0
M  V30 14300 H 1366.91 4.84964 -3.52944 0
M  V30 14301 H 1368.59 5.00179 -4.10403 0
M  V30 14302 N 1368.72 1.0394 1.18466 0
M  V30 14303 C 1369.95 0.761926 1.92897 0
M  V30 14304 C 1370.37 -0.674618 1.75586 0
M  V30 14305 O 1369.73 -1.46711 1.06515 0
M  V30 14306 C 1369.78 1.13152 3.42387 0
M  V30 14307 O 1368.88 0.256266 4.11603 0
M  V30 14308 H 1368.22 0.280527 0.601831 0
M  V30 14309 H 1370.75 1.3889 1.50235 0
M  V30 14310 H 1370.76 1.0929 3.9309 0
M  V30 14311 H 1369.44 2.17804 3.54308 0
M  V30 14312 H 1368.01 0.354392 3.71212 0
M  V30 14313 N 1370.2 -1.34667 0.818693 0
M  V30 14314 C 1371.45 -1.98022 0.40396 0
M  V30 14315 C 1371.77 -1.65239 -1.03542 0
M  V30 14316 O 1371.04 -0.94097 -1.71821 0
M  V30 14317 H 1369.62 -0.732517 0.146382 0
M  V30 14318 H 1372.28 -1.64377 1.0472 0
M  V30 14319 H 1371.38 -3.07746 0.519516 0
M  V30 14320 N 1371.68 -0.573274 -1.46804 0
M  V30 14321 C 1372.9 -0.0605984 -2.06811 0
M  V30 14322 C 1373.32 1.24024 -1.4235 0
M  V30 14323 O 1372.68 1.7477 -0.525515 0
M  V30 14324 C 1372.73 0.121828 -3.61295 0
M  V30 14325 O 1372.45 -1.12751 -4.23342 0
M  V30 14326 C 1373.95 0.669941 -4.38208 0
M  V30 14327 H 1371.17 -0.0531498 -0.668892 0
M  V30 14328 H 1373.71 -0.791259 -1.88572 0
M  V30 14329 H 1371.87 0.802674 -3.78993 0
M  V30 14330 H 1372.28 -0.935361 -5.16092 0
M  V30 14331 H 1373.76 0.746806 -5.46925 0
M  V30 14332 H 1374.23 1.68483 -4.05598 0
M  V30 14333 H 1374.84 0.0242721 -4.25293 0
M  V30 14334 N 1373.15 1.5451 -0.310553 0
M  V30 14335 C 1374.06 2.27557 0.570518 0
M  V30 14336 C 1375.08 1.31426 1.14032 0
M  V30 14337 O 1376.26 1.64423 1.16306 0
M  V30 14338 C 1373.32 3.00933 1.72163 0
M  V30 14339 C 1372.38 4.12623 1.18495 0
M  V30 14340 C 1371.62 4.8249 2.28121 0
M  V30 14341 O 1371.84 4.5178 3.48211 0
M  V30 14342 O 1370.77 5.69686 1.94273 0
M  V30 14343 H 1374.6 3.03692 -0.0223195 0
M  V30 14344 H 1372.18 1.49203 -0.0766821 0
M  V30 14345 H 1374.07 3.46925 2.39208 0
M  V30 14346 H 1372.74 2.27685 2.3009 0
M  V30 14347 H 1371.65 3.71008 0.479956 0
M  V30 14348 H 1372.98 4.87876 0.650994 0
M  V30 14349 N 1374.63 0.0384594 1.57553 0
M  V30 14350 C 1375.54 -0.955737 2.14249 0
M  V30 14351 C 1376.56 -1.35056 1.09708 0
M  V30 14352 O 1377.74 -1.43008 1.41812 0
M  V30 14353 C 1374.8 -2.21647 2.66596 0
M  V30 14354 C 1373.86 -1.88119 3.85888 0
M  V30 14355 C 1373.09 -3.08182 4.35729 0
M  V30 14356 O 1373.32 -4.21145 3.84699 0
M  V30 14357 O 1372.25 -2.89936 5.27467 0
M  V30 14358 H 1376.08 -0.50361 2.99495 0
M  V30 14359 H 1373.66 -0.182698 1.48279 0
M  V30 14360 H 1375.54 -2.9564 3.00291 0
M  V30 14361 H 1374.22 -2.66022 1.84428 0
M  V30 14362 H 1373.13 -1.11481 3.57103 0
M  V30 14363 H 1374.46 -1.48553 4.69247 0
M  V30 14364 N 1376.11 -1.55841 -0.234795 0
M  V30 14365 C 1377.34 -1.82649 -0.982547 0
M  V30 14366 C 1377.76 -0.617097 -1.77689 0
M  V30 14367 O 1377.12 0.434022 -1.76028 0
M  V30 14368 C 1377.17 -3.07319 -1.88646 0
M  V30 14369 O 1376.27 -2.85084 -2.97995 0
M  V30 14370 H 1375.61 -0.60257 -0.278936 0
M  V30 14371 H 1378.14 -2.03041 -0.252117 0
M  V30 14372 H 1378.15 -3.37073 -2.29882 0
M  V30 14373 H 1376.83 -3.94978 -1.30251 0
M  V30 14374 H 1375.4 -2.66528 -2.60801 0
M  V30 14375 N 1377.59 0.500963 -1.49426 0
M  V30 14376 C 1378.5 1.62889 -1.68833 0
M  V30 14377 C 1379.52 1.64367 -0.570932 0
M  V30 14378 O 1380.69 1.82786 -0.845641 0
M  V30 14379 C 1377.76 2.99255 -1.75063 0
M  V30 14380 C 1376.82 3.08404 -2.9864 0
M  V30 14381 C 1376.05 4.38266 -3.04564 0
M  V30 14382 O 1376.27 5.27065 -2.1808 0
M  V30 14383 O 1375.21 4.52387 -3.97026 0
M  V30 14384 H 1379.03 1.49446 -2.64385 0
M  V30 14385 H 1376.62 0.677254 -1.33168 0
M  V30 14386 H 1378.5 3.80303 -1.81515 0
M  V30 14387 H 1377.18 3.1296 -0.826896 0
M  V30 14388 H 1376.08 2.26544 -2.97706 0
M  V30 14389 H 1377.42 2.99626 -3.90494 0
M  V30 14390 N 1379.07 1.38501 0.752011 0
M  V30 14391 C 1380.48 1.31086 1.32941 0
M  V30 14392 C 1380.83 -0.0326248 1.96173 0
M  V30 14393 O 1379.95 -0.934692 1.95173 0
M  V30 14394 C 1380.55 2.37395 2.41721 0
M  V30 14395 C 1379.11 2.33553 2.95177 0
M  V30 14396 C 1378.26 2.20178 1.68573 0
M  V30 14397 H 1381.21 1.48836 0.550771 0
M  V30 14398 H 1381.23 2.03202 3.21697 0
M  V30 14399 H 1380.74 3.35164 1.9567 0
M  V30 14400 H 1378.84 1.39371 3.45553 0
M  V30 14401 H 1378.95 3.27753 3.49449 0
M  V30 14402 H 1377.32 1.67057 1.9226 0
M  V30 14403 H 1378.1 3.19891 1.24599 0
M  V30 14404 N 1380.55 -0.980364 1.23396 0
M  V30 14405 C 1381.77 -1.76223 1.09363 0
M  V30 14406 C 1382.2 -1.84801 -0.350759 0
M  V30 14407 O 1381.55 -1.30966 -1.2537 0
M  V30 14408 C 1381.6 -3.16728 1.72383 0
M  V30 14409 O 1380.71 -4.00439 0.986002 0
M  V30 14410 H 1380.05 -0.542174 0.383332 0
M  V30 14411 H 1382.58 -1.23066 1.6345 0
M  V30 14412 H 1382.59 -3.67307 1.77623 0
M  V30 14413 H 1381.26 -3.098 2.77483 0
M  V30 14414 H 1379.84 -3.58946 1.01054 0
M  V30 14415 N 1382.02 -1.04567 -1.17913 0
M  V30 14416 C 1383.43 -0.779118 -1.69666 0
M  V30 14417 C 1383.79 0.699448 -1.83309 0
M  V30 14418 O 1382.91 1.54407 -1.51616 0
M  V30 14419 C 1383.51 -1.40769 -3.08171 0
M  V30 14420 C 1382.06 -1.18933 -3.57116 0
M  V30 14421 C 1381.21 -1.49519 -2.33536 0
M  V30 14422 H 1384.16 -1.21144 -1.02518 0
M  V30 14423 H 1384.18 -0.813584 -3.717 0
M  V30 14424 H 1383.7 -2.4838 -2.9821 0
M  V30 14425 H 1381.8 -0.132184 -3.72365 0
M  V30 14426 H 1381.91 -1.88987 -4.40251 0
M  V30 14427 H 1380.27 -0.915056 -2.37695 0
M  V30 14428 H 1381.06 -2.5825 -2.26189 0
M  V30 14429 N 1383.5 1.34231 -0.825823 0
M  V30 14430 C 1384.46 2.27776 -0.25512 0
M  V30 14431 C 1385.46 1.50409 0.568654 0
M  V30 14432 O 1386.65 1.69907 0.384337 0
M  V30 14433 C 1383.79 3.348 0.642013 0
M  V30 14434 H 1384.98 2.79763 -1.0804 0
M  V30 14435 H 1382.53 1.44412 -0.597904 0
M  V30 14436 H 1383.27 2.88032 1.49024 0
M  V30 14437 H 1383.05 3.92064 0.0527756 0
M  V30 14438 H 1384.54 4.0457 1.03502 0
M  V30 14439 N 1384.98 0.581051 1.46498 0
M  V30 14440 C 1386.23 0.0660934 2.02692 0
M  V30 14441 C 1386.56 -1.28985 1.45178 0
M  V30 14442 O 1385.83 -1.84479 0.616247 0
M  V30 14443 C 1386.12 -0.00145411 3.601 0
M  V30 14444 C 1385.97 1.38327 4.28002 0
M  V30 14445 C 1387.29 -0.702914 4.3445 0
M  V30 14446 H 1384.41 0.0254923 0.736559 0
M  V30 14447 H 1387.05 0.74793 1.7466 0
M  V30 14448 H 1385.2 -0.582118 3.84114 0
M  V30 14449 H 1386.87 2.00897 4.15257 0
M  V30 14450 H 1385.11 1.95144 3.87429 0
M  V30 14451 H 1385.79 1.28849 5.36751 0
M  V30 14452 H 1388.26 -0.209641 4.15572 0
M  V30 14453 H 1387.14 -0.719202 5.44168 0
M  V30 14454 H 1387.4 -1.76389 4.05388 0
M  V30 14455 N 1386.46 -1.54343 0.318742 0
M  V30 14456 C 1387.69 -2.04894 -0.287378 0
M  V30 14457 C 1388.1 -1.19514 -1.46157 0
M  V30 14458 O 1387.46 -0.224722 -1.81111 0
M  V30 14459 C 1387.51 -3.54124 -0.726505 0
M  V30 14460 O 1387.23 -4.36261 0.400968 0
M  V30 14461 C 1388.73 -4.20748 -1.39594 0
M  V30 14462 H 1385.95 -0.668323 -0.0598724 0
M  V30 14463 H 1388.49 -1.99177 0.463531 0
M  V30 14464 H 1386.65 -3.60145 -1.4274 0
M  V30 14465 H 1387.06 -5.2447 0.0558714 0
M  V30 14466 H 1388.54 -5.26632 -1.65418 0
M  V30 14467 H 1389.01 -3.71566 -2.3417 0
M  V30 14468 H 1389.62 -4.18852 -0.737749 0
M  V30 14469 N 1387.94 -0.0468143 -1.5753 0
M  V30 14470 C 1389.17 0.636723 -1.96544 0
M  V30 14471 C 1389.57 1.65169 -0.922814 0
M  V30 14472 O 1388.92 1.83417 0.101892 0
M  V30 14473 C 1388.98 1.38435 -3.31777 0
M  V30 14474 C 1388.64 0.525714 -4.53966 0
M  V30 14475 C 1389.64 -0.206392 -5.1949 0
M  V30 14476 C 1387.32 0.457919 -5.00208 0
M  V30 14477 C 1389.32 -0.994779 -6.29589 0
M  V30 14478 C 1387.01 -0.334159 -6.10186 0
M  V30 14479 C 1388 -1.0592 -6.74737 0
M  V30 14480 O 1387.69 -1.83826 -7.826 0
M  V30 14481 H 1387.42 0.179197 -0.651816 0
M  V30 14482 H 1389.98 -0.108214 -2.05115 0
M  V30 14483 H 1388.21 2.17482 -3.19748 0
M  V30 14484 H 1389.9 1.9577 -3.55568 0
M  V30 14485 H 1390.66 -0.163457 -4.84724 0
M  V30 14486 H 1386.54 1.01185 -4.49758 0
M  V30 14487 H 1390.09 -1.56121 -6.79906 0
M  V30 14488 H 1385.98 -0.378748 -6.44388 0
M  V30 14489 H 1386.75 -1.75991 -7.99356 0
M  V30 14490 N 1389.41 1.55964 0.226527 0
M  V30 14491 C 1390.66 1.77944 0.94967 0
M  V30 14492 C 1390.98 0.614478 1.85697 0
M  V30 14493 O 1392.18 0.717793 2.6184 0
M  V30 14494 C 1390.64 3.15108 1.73881 0
M  V30 14495 C 1390.25 4.39314 0.877894 0
M  V30 14496 C 1391.99 3.46418 2.45347 0
M  V30 14497 C 1389.9 5.67505 1.6641 0
M  V30 14498 H 1388.83 0.663412 0.35833 0
M  V30 14499 H 1391.48 1.82366 0.203695 0
M  V30 14500 H 1389.86 3.04849 2.52751 0
M  V30 14501 H 1391.03 4.60616 0.130089 0
M  V30 14502 H 1389.35 4.15487 0.2756 0
M  V30 14503 H 1391.95 4.39416 3.0466 0
M  V30 14504 H 1392.29 2.68685 3.17985 0
M  V30 14505 H 1392.82 3.57984 1.73471 0
M  V30 14506 H 1389.56 6.48116 0.981089 0
M  V30 14507 H 1389.08 5.50272 2.38665 0
M  V30 14508 H 1390.76 6.075 2.22605 0
M  V30 14509 N 1390.89 -0.493031 1.4969 0
M  V30 14510 C 1391.84 -1.59075 1.63337 0
M  V30 14511 C 1392.83 -1.53298 0.488721 0
M  V30 14512 O 1394.02 -1.60693 0.742071 0
M  V30 14513 C 1391.15 -2.97646 1.71061 0
M  V30 14514 C 1390.23 -3.08389 2.9113 0
M  V30 14515 N 1390.62 -2.89001 4.15105 0
M  V30 14516 C 1388.92 -3.395 2.89233 0
M  V30 14517 C 1389.62 -3.04136 4.95859 0
M  V30 14518 N 1388.6 -3.33367 4.2938 0
M  V30 14519 H 1392.4 -1.42751 2.56903 0
M  V30 14520 H 1389.92 -0.699325 1.46571 0
M  V30 14521 H 1391.91 -3.76546 1.78938 0
M  V30 14522 H 1390.57 -3.15034 0.786376 0
M  V30 14523 H 1391.58 -2.65017 4.44957 0
M  V30 14524 H 1388.26 -3.63014 2.06221 0
M  V30 14525 H 1389.65 -2.93571 6.04372 0
M  V30 14526 N 1392.37 -1.38898 -0.744656 0
M  V30 14527 C 1393.62 -1.35327 -1.50104 0
M  V30 14528 C 1393.94 0.0532788 -1.94927 0
M  V30 14529 O 1393.21 1.0027 -1.68294 0
M  V30 14530 H 1391.79 -0.49797 -0.556808 0
M  V30 14531 H 1394.45 -1.73667 -0.884625 0
M  V30 14532 H 1393.55 -2.00983 -2.38773 0
M  V30 14533 N 1393.85 0.973806 -1.23914 0
M  V30 14534 C 1395.07 1.7564 -1.10296 0
M  V30 14535 C 1395.5 1.84984 0.340954 0
M  V30 14536 O 1394.86 1.31629 1.24674 0
M  V30 14537 C 1394.9 3.15809 -1.7406 0
M  V30 14538 O 1394.01 3.99911 -1.00722 0
M  V30 14539 H 1393.35 0.540133 -0.386202 0
M  V30 14540 H 1395.88 1.22197 -1.64101 0
M  V30 14541 H 1395.89 3.66359 -1.79568 0
M  V30 14542 H 1394.56 3.08324 -2.79122 0
M  V30 14543 H 1393.14 3.58405 -1.02956 0
M  V30 14544 N 1395.33 1.05191 1.17357 0
M  V30 14545 C 1396.57 0.760479 1.87246 0
M  V30 14546 C 1396.9 -0.714618 1.81434 0
M  V30 14547 O 1396.17 -1.51636 1.24029 0
M  V30 14548 H 1394.75 0.278317 0.693216 0
M  V30 14549 H 1397.41 1.33106 1.42369 0
M  V30 14550 H 1396.5 1.07542 2.92987 0
M  V30 14551 N 1396.8 -1.33791 0.83293 0
M  V30 14552 C 1398.03 -2.01894 0.43844 0
M  V30 14553 C 1398.44 -1.62844 -0.963247 0
M  V30 14554 O 1397.79 -0.834636 -1.63644 0
M  V30 14555 C 1397.85 -3.5638 0.472604 0
M  V30 14556 C 1397.51 -4.18788 1.82937 0
M  V30 14557 C 1398.51 -4.38588 2.79172 0
M  V30 14558 C 1396.19 -4.55342 2.12058 0
M  V30 14559 C 1398.19 -4.94081 4.02694 0
M  V30 14560 C 1395.87 -5.10544 3.35839 0
M  V30 14561 C 1396.87 -5.29859 4.30974 0
M  V30 14562 O 1396.56 -5.83889 5.52566 0
M  V30 14563 H 1396.29 -0.65348 0.173031 0
M  V30 14564 H 1398.85 -1.71827 1.12537 0
M  V30 14565 H 1397.08 -3.85749 -0.271074 0
M  V30 14566 H 1398.77 -4.05785 0.0967701 0
M  V30 14567 H 1399.53 -4.10701 2.57972 0
M  V30 14568 H 1395.41 -4.39607 1.38806 0
M  V30 14569 H 1398.95 -5.09072 4.7696 0
M  V30 14570 H 1394.85 -5.3786 3.56898 0
M  V30 14571 H 1395.62 -6.02311 5.54224 0
M  V30 14572 N 1398.28 -0.588812 -1.46187 0
M  V30 14573 C 1399.52 -0.0794904 -2.04245 0
M  V30 14574 C 1399.89 1.25893 -1.44965 0
M  V30 14575 O 1401.09 1.85785 -1.94261 0
M  V30 14576 C 1399.36 -0.0210846 -3.57394 0
M  V30 14577 S 1400.92 0.429775 -4.3669 0
M  V30 14578 H 1397.74 -0.0404337 -0.709849 0
M  V30 14579 H 1400.34 -0.782686 -1.79149 0
M  V30 14580 H 1399.04 -0.999032 -3.98055 0
M  V30 14581 H 1398.57 0.704691 -3.87037 0
M  V30 14582 H 1400.59 1.68327 -4.66777 0
M  V30 14583 N 1399.76 1.54172 -0.326923 0
M  V30 14584 C 1401.01 2.00233 0.274098 0
M  V30 14585 C 1401.33 1.21665 1.5239 0
M  V30 14586 O 1400.6 0.319359 1.93279 0
M  V30 14587 H 1399.18 0.739687 0.104271 0
M  V30 14588 H 1401.84 1.8977 -0.444244 0
M  V30 14589 H 1400.94 3.07599 0.528154 0
M  V30 14590 N 1401.24 0.0551678 1.57503 0
M  V30 14591 C 1402.52 -0.657808 1.84207 0
M  V30 14592 C 1402.9 -1.88798 0.944372 0
M  V30 14593 O 1402.24 -2.28499 0.00641728 0
M  V30 14594 C 1402.45 -1.0113 3.34026 0
M  V30 14595 C 1403.8 -1.39189 4.01138 0
M  V30 14596 O 1404.83 -1.10353 3.38675 0
M  V30 14597 O 1403.68 -1.93023 5.11277 0
M  V30 14598 H 1400.78 -0.325084 0.760427 0
M  V30 14599 H 1403.32 0.0848352 1.69488 0
M  V30 14600 H 1402.1 -0.13688 3.91061 0
M  V30 14601 H 1401.72 -1.81126 3.53948 0
M  V30 14602 N 1402.72 -1.56081 -0.218252 0
M  V30 14603 C 1403.96 -1.78893 -0.940296 0
M  V30 14604 C 1404.29 -0.62425 -1.84738 0
M  V30 14605 O 1403.56 0.358686 -1.92588 0
M  V30 14606 H 1402.14 -0.659828 -0.350193 0
M  V30 14607 H 1404.8 -1.93546 -0.229316 0
M  V30 14608 H 1403.89 -2.71167 -1.54516 0
M  V30 14609 N 1404.2 0.485086 -1.49949 0
M  V30 14610 C 1405.44 1.23486 -1.5948 0
M  V30 14611 C 1405.76 1.93377 -0.294082 0
M  V30 14612 O 1406.96 2.70173 -0.268133 0
M  V30 14613 C 1405.42 2.24303 -2.81454 0
M  V30 14614 C 1405.03 1.60279 -4.18347 0
M  V30 14615 C 1406.77 3.0001 -3.00324 0
M  V30 14616 C 1404.68 2.593 -5.31524 0
M  V30 14617 H 1403.61 0.464595 -0.593858 0
M  V30 14618 H 1406.26 0.506893 -1.7636 0
M  V30 14619 H 1404.64 3.00332 -2.58102 0
M  V30 14620 H 1405.82 0.901352 -4.51899 0
M  V30 14621 H 1404.13 0.969053 -4.04967 0
M  V30 14622 H 1406.73 3.74091 -3.82048 0
M  V30 14623 H 1407.07 3.5857 -2.11502 0
M  V30 14624 H 1407.6 2.31095 -3.2379 0
M  V30 14625 H 1404.34 2.05498 -6.22455 0
M  V30 14626 H 1403.86 3.27638 -5.02408 0
M  V30 14627 H 1405.54 3.21411 -5.61519 0
M  V30 14628 N 1405.67 1.39291 0.737279 0
M  V30 14629 C 1406.92 1.35702 1.49224 0
M  V30 14630 C 1407.24 -0.0450282 1.95548 0
M  V30 14631 O 1408.44 -0.203495 2.70736 0
M  V30 14632 C 1406.9 2.38387 2.69629 0
M  V30 14633 C 1406.51 3.84295 2.30263 0
M  V30 14634 C 1408.25 2.4387 3.47459 0
M  V30 14635 C 1406.16 4.78626 3.47377 0
M  V30 14636 H 1405.09 0.50449 0.560362 0
M  V30 14637 H 1407.74 1.64926 0.804466 0
M  V30 14638 H 1406.12 2.0223 3.40469 0
M  V30 14639 H 1407.29 4.2948 1.66984 0
M  V30 14640 H 1405.61 3.82085 1.6553 0
M  V30 14641 H 1408.21 3.11539 4.34566 0
M  V30 14642 H 1408.55 1.46253 3.89764 0
M  V30 14643 H 1409.08 2.78908 2.83646 0
M  V30 14644 H 1405.82 5.77497 3.10124 0
M  V30 14645 H 1405.34 4.38123 4.09645 0
M  V30 14646 H 1407.02 4.9742 4.13742 0
M  V30 14647 N 1407.15 -0.967221 1.24429 0
M  V30 14648 C 1408.08 -2.06479 0.994946 0
M  V30 14649 C 1409.1 -1.62761 -0.0357582 0
M  V30 14650 O 1410.29 -1.77361 0.201336 0
M  V30 14651 C 1407.39 -3.35487 0.479736 0
M  V30 14652 C 1406.56 -4.0811 1.57368 0
M  V30 14653 C 1405.62 -5.15392 1.06104 0
M  V30 14654 O 1404.64 -5.41539 1.75283 0
M  V30 14655 N 1405.85 -5.80406 -0.104288 0
M  V30 14656 H 1408.61 -2.28443 1.93995 0
M  V30 14657 H 1406.17 -1.13488 1.15465 0
M  V30 14658 H 1408.16 -4.04517 0.121528 0
M  V30 14659 H 1406.73 -3.1039 -0.371012 0
M  V30 14660 H 1405.95 -3.33351 2.10406 0
M  V30 14661 H 1407.24 -4.53391 2.30897 0
M  V30 14662 H 1406.64 -5.61566 -0.682638 0
M  V30 14663 H 1405.2 -6.50549 -0.403638 0
M  V30 14664 N 1408.63 -1.05812 -1.16797 0
M  V30 14665 C 1409.58 -0.664599 -2.21024 0
M  V30 14666 C 1410.55 0.336352 -1.62659 0
M  V30 14667 O 1411.73 0.226346 -1.89453 0
M  V30 14668 C 1408.87 -0.0520739 -3.45061 0
M  V30 14669 C 1407.98 -1.10261 -4.17692 0
M  V30 14670 C 1407.12 -0.456746 -5.29233 0
M  V30 14671 C 1406.16 -1.49116 -5.93659 0
M  V30 14672 N 1405.3 -0.869002 -6.96701 0
M  V30 14673 H 1410.14 -1.55784 -2.54038 0
M  V30 14674 H 1407.67 -0.778993 -1.2478 0
M  V30 14675 H 1409.63 0.320552 -4.15967 0
M  V30 14676 H 1408.26 0.804592 -3.12612 0
M  V30 14677 H 1407.31 -1.593 -3.45438 0
M  V30 14678 H 1408.62 -1.88757 -4.61706 0
M  V30 14679 H 1407.78 -0.0308814 -6.06692 0
M  V30 14680 H 1406.52 0.360131 -4.86369 0
M  V30 14681 H 1405.52 -1.92697 -5.14925 0
M  V30 14682 H 1406.75 -2.31005 -6.38603 0
M  V30 14683 H 1404.69 -0.0727494 -6.5596 0
M  V30 14684 H 1404.61 -1.59141 -7.3906 0
M  V30 14685 H 1405.88 -0.46812 -7.78093 0
M  V30 14686 N 1410.11 1.33347 -0.840014 0
M  V30 14687 C 1411.38 1.92293 -0.358158 0
M  V30 14688 C 1411.76 1.76594 1.15662 0
M  V30 14689 O 1411.11 1.15503 1.97158 0
M  V30 14690 C 1411.32 3.39558 -0.806329 0
M  V30 14691 C 1412.67 4.16705 -0.81501 0
M  V30 14692 O 1413.69 3.48214 -0.75001 0
M  V30 14693 O 1412.55 5.38974 -0.903818 0
M  V30 14694 H 1409.65 0.820737 -0.101585 0
M  V30 14695 H 1412.19 1.42213 -0.925942 0
M  V30 14696 H 1410.97 3.44861 -1.84897 0
M  V30 14697 H 1410.59 3.97017 -0.215181 0
M  V30 14698 N 1411.59 0.596556 1.45873 0
M  V30 14699 C 1412.52 -0.166704 2.28593 0
M  V30 14700 C 1413.53 -0.84231 1.39316 0
M  V30 14701 O 1414.72 -0.709548 1.63792 0
M  V30 14702 C 1411.82 -1.25641 3.1475 0
M  V30 14703 C 1410.99 -0.67006 4.32237 0
M  V30 14704 C 1410.05 -1.64924 4.99686 0
M  V30 14705 O 1409.08 -1.17986 5.56838 0
M  V30 14706 N 1410.28 -2.98355 4.9796 0
M  V30 14707 H 1413.04 0.543045 2.94739 0
M  V30 14708 H 1410.61 0.435274 1.55939 0
M  V30 14709 H 1412.6 -1.91104 3.56737 0
M  V30 14710 H 1411.17 -1.86883 2.50586 0
M  V30 14711 H 1410.39 0.162375 3.93865 0
M  V30 14712 H 1411.68 -0.258345 5.08144 0
M  V30 14713 H 1411.07 -3.39101 4.52799 0
M  V30 14714 H 1409.63 -3.5927 5.43846 0
M  V30 14715 N 1413.06 -1.53996 0.335095 0
M  V30 14716 C 1414.31 -2.00375 -0.263475 0
M  V30 14717 C 1414.63 -1.22471 -1.51742 0
M  V30 14718 O 1413.9 -0.329604 -1.93107 0
M  V30 14719 H 1412.48 -0.740229 -0.100347 0
M  V30 14720 H 1415.14 -1.89531 0.454302 0
M  V30 14721 H 1414.24 -3.07874 -0.511834 0
M  V30 14722 N 1414.54 -0.0635198 -1.57472 0
M  V30 14723 C 1415.45 0.921531 -2.15743 0
M  V30 14724 C 1416.47 1.33294 -1.11842 0
M  V30 14725 O 1417.64 1.40733 -1.4407 0
M  V30 14726 C 1414.71 2.17378 -2.70088 0
M  V30 14727 C 1413.77 1.81956 -3.88832 0
M  V30 14728 C 1413 3.01211 -4.40577 0
M  V30 14729 O 1413.23 4.14971 -3.9135 0
M  V30 14730 O 1412.16 2.81507 -5.32012 0
M  V30 14731 H 1415.99 0.455899 -3.00259 0
M  V30 14732 H 1413.57 0.159085 -1.48551 0
M  V30 14733 H 1415.45 2.90826 -3.04956 0
M  V30 14734 H 1414.13 2.63055 -1.88637 0
M  V30 14735 H 1413.03 1.05786 -3.58832 0
M  V30 14736 H 1414.37 1.41069 -4.71551 0
M  V30 14737 N 1416.02 1.56195 0.209972 0
M  V30 14738 C 1416.95 1.89859 1.28398 0
M  V30 14739 C 1417.96 0.787878 1.42465 0
M  V30 14740 O 1419.15 1.06623 1.43156 0
M  V30 14741 C 1416.25 2.10231 2.65812 0
M  V30 14742 C 1415.43 3.41309 2.73545 0
M  V30 14743 C 1414.49 3.50973 3.92052 0
M  V30 14744 O 1413.51 4.23915 3.79849 0
M  V30 14745 N 1414.71 2.82965 5.06864 0
M  V30 14746 H 1417.48 2.82581 0.998411 0
M  V30 14747 H 1415.04 1.56882 0.399964 0
M  V30 14748 H 1417.03 2.13999 3.43492 0
M  V30 14749 H 1415.6 1.2408 2.8692 0
M  V30 14750 H 1414.82 3.49539 1.82253 0
M  V30 14751 H 1416.11 4.27636 2.7569 0
M  V30 14752 H 1415.51 2.23504 5.19676 0
M  V30 14753 H 1414.06 2.9238 5.82544 0
M  V30 14754 N 1417.5 -0.477127 1.50204 0
M  V30 14755 C 1418.74 -1.23956 1.62525 0
M  V30 14756 C 1419.1 -1.89385 0.315789 0
M  V30 14757 O 1420.3 -2.66955 0.314378 0
M  V30 14758 C 1418.57 -2.25999 2.76874 0
M  V30 14759 S 1420.13 -3.11262 3.09292 0
M  V30 14760 H 1416.95 -0.420931 0.573008 0
M  V30 14761 H 1419.55 -0.537592 1.87963 0
M  V30 14762 H 1418.26 -1.76501 3.70507 0
M  V30 14763 H 1417.79 -3.00832 2.53503 0
M  V30 14764 H 1419.8 -4.27061 2.52652 0
M  V30 14765 N 1418.98 -1.3968 -0.729882 0
M  V30 14766 C 1420.25 -1.27689 -1.48172 0
M  V30 14767 C 1420.63 0.111239 -2.10807 0
M  V30 14768 O 1419.98 1.12289 -1.99006 0
M  V30 14769 C 1420.19 -2.40505 -2.529 0
M  V30 14770 C 1421.54 -2.80064 -3.19138 0
M  V30 14771 O 1422.56 -2.39992 -2.63215 0
M  V30 14772 O 1421.42 -3.49248 -4.20342 0
M  V30 14773 H 1418.52 -0.500674 -0.658221 0
M  V30 14774 H 1421.06 -1.51566 -0.763272 0
M  V30 14775 H 1419.83 -3.33282 -2.05033 0
M  V30 14776 H 1419.46 -2.1832 -3.32298 0
M  V30 14777 N 1420.45 0.960609 -1.2494 0
M  V30 14778 C 1421.73 1.68035 -1.00118 0
M  V30 14779 C 1422.11 2.057 0.474399 0
M  V30 14780 O 1421.46 1.76569 1.45036 0
M  V30 14781 C 1421.67 2.90708 -1.93106 0
M  V30 14782 C 1423.02 3.62792 -2.20606 0
M  V30 14783 O 1424.04 3.00778 -1.90816 0
M  V30 14784 O 1422.9 4.74443 -2.71231 0
M  V30 14785 H 1419.99 0.734939 -0.379202 0
M  V30 14786 H 1422.54 1.01407 -1.36069 0
M  V30 14787 H 1421.31 2.59619 -2.92769 0
M  V30 14788 H 1420.94 3.65068 -1.57515 0
M  V30 14789 N 1421.93 1.0643 1.16234 0
M  V30 14790 C 1422.87 0.620534 2.19601 0
M  V30 14791 C 1423.84 -0.35739 1.58624 0
M  V30 14792 O 1425.03 -0.266037 1.86613 0
M  V30 14793 C 1422.15 -0.0901061 3.3858 0
M  V30 14794 C 1421.2 0.844789 4.1805 0
M  V30 14795 S 1422.03 2.34077 4.81631 0
M  V30 14796 C 1423.19 1.64167 6.03987 0
M  V30 14797 H 1423.42 1.49626 2.56903 0
M  V30 14798 H 1420.96 0.877398 1.27048 0
M  V30 14799 H 1422.91 -0.493891 4.07518 0
M  V30 14800 H 1421.57 -0.942042 2.9964 0
M  V30 14801 H 1420.77 0.294135 5.03141 0
M  V30 14802 H 1420.37 1.18852 3.54613 0
M  V30 14803 H 1422.66 0.948043 6.70834 0
M  V30 14804 H 1423.6 2.47054 6.63604 0
M  V30 14805 H 1424.01 1.12366 5.53203 0
M  V30 14806 N 1423.41 -1.329 0.847073 0
M  V30 14807 C 1424.36 -2.3097 0.27487 0
M  V30 14808 C 1425.35 -1.58508 -0.597625 0
M  V30 14809 O 1426.56 -1.73307 -0.486273 0
M  V30 14810 H 1422.93 -0.748719 0.0701719 0
M  V30 14811 H 1424.9 -2.7673 1.11638 0
M  V30 14812 C 1423.65 -3.43662 -0.528363 0
M  V30 14813 H 1422.98 -3.99576 0.133707 0
M  V30 14814 H 1424.42 -4.14458 -0.894443 0
M  V30 14815 C 1422.88 -2.90244 -1.71055 0
M  V30 14816 O 1423.41 -2.87109 -2.80947 0
M  V30 14817 N 1421.61 -2.46743 -1.53512 0
M  V30 14818 H 1421.16 -2.49493 -0.641181 0
M  V30 14819 H 1421.12 -2.11356 -2.32757 0
M  V30 14820 N 1424.89 -0.604284 -1.45555 0
M  V30 14821 C 1425.84 0.116491 -2.30506 0
M  V30 14822 C 1426.81 0.863214 -1.41908 0
M  V30 14823 O 1427.99 0.849606 -1.7084 0
M  V30 14824 C 1425.13 1.11009 -3.26758 0
M  V30 14825 C 1424.24 0.36458 -4.30459 0
M  V30 14826 C 1423.38 1.34761 -5.13822 0
M  V30 14827 C 1422.42 0.589724 -6.09253 0
M  V30 14828 N 1421.55 1.52187 -6.85408 0
M  V30 14829 H 1426.39 -0.61394 -2.91607 0
M  V30 14830 H 1423.93 -0.314561 -1.43697 0
M  V30 14831 H 1425.89 1.69925 -3.81027 0
M  V30 14832 H 1424.52 1.80797 -2.67418 0
M  V30 14833 H 1423.57 -0.340026 -3.78877 0
M  V30 14834 H 1424.88 -0.226906 -4.98284 0
M  V30 14835 H 1424.04 2.00893 -5.72474 0
M  V30 14836 H 1422.78 1.97302 -4.46008 0
M  V30 14837 H 1421.78 -0.0852486 -5.49734 0
M  V30 14838 H 1423.01 -0.0306001 -6.79093 0
M  V30 14839 H 1420.95 2.13499 -6.20286 0
M  V30 14840 H 1420.87 0.983737 -7.49572 0
M  V30 14841 H 1422.14 2.17287 -7.48603 0
M  V30 14842 N 1426.37 1.53816 -0.343257 0
M  V30 14843 C 1427.62 2.0009 0.254346 0
M  V30 14844 C 1427.93 1.23502 1.51679 0
M  V30 14845 O 1429.13 1.60251 2.19162 0
M  V30 14846 C 1427.59 3.56357 0.503775 0
M  V30 14847 C 1427.2 4.418 -0.742754 0
M  V30 14848 C 1428.94 4.11046 1.06025 0
M  V30 14849 C 1426.85 5.89576 -0.46414 0
M  V30 14850 H 1425.78 0.747496 0.0988189 0
M  V30 14851 H 1428.43 1.77679 -0.45854 0
M  V30 14852 H 1426.81 3.74833 1.27736 0
M  V30 14853 H 1427.99 4.35099 -1.51742 0
M  V30 14854 H 1426.3 3.98101 -1.22085 0
M  V30 14855 H 1428.9 5.19063 1.28365 0
M  V30 14856 H 1429.24 3.64247 2.01568 0
M  V30 14857 H 1429.77 3.9628 0.347384 0
M  V30 14858 H 1426.51 6.40608 -1.38928 0
M  V30 14859 H 1426.03 5.99181 0.272441 0
M  V30 14860 H 1427.71 6.46949 -0.0812761 0
M  V30 14861 N 1427.84 0.0718701 1.57436 0
M  V30 14862 C 1428.79 -0.913026 2.13931 0
M  V30 14863 C 1429.79 -1.3082 1.07622 0
M  V30 14864 O 1430.99 -1.28544 1.26002 0
M  V30 14865 H 1427.37 -0.31238 0.684049 0
M  V30 14866 H 1429.34 -0.411613 2.95547 0
M  V30 14867 C 1428.09 -2.17109 2.71586 0
M  V30 14868 H 1427.41 -1.87585 3.53061 0
M  V30 14869 H 1428.85 -2.84134 3.14712 0
M  V30 14870 C 1427.31 -2.92967 1.6635 0
M  V30 14871 O 1427.84 -3.8667 1.08854 0
M  V30 14872 N 1426.05 -2.56075 1.37383 0
M  V30 14873 H 1425.59 -1.79949 1.84326 0
M  V30 14874 H 1425.55 -3.07134 0.672039 0
M  V30 14875 N 1429.32 -1.56304 -0.201686 0
M  V30 14876 C 1430.57 -1.79881 -0.921269 0
M  V30 14877 C 1430.89 -0.643809 -1.84065 0
M  V30 14878 O 1430.16 0.338239 -1.92958 0
M  V30 14879 H 1428.74 -0.663506 -0.343175 0
M  V30 14880 H 1431.4 -1.93779 -0.208775 0
M  V30 14881 H 1430.5 -2.7279 -1.51631 0
M  V30 14882 N 1430.8 0.469154 -1.50455 0
M  V30 14883 C 1432.08 1.23033 -1.5206 0
M  V30 14884 C 1432.46 2.09412 -0.266388 0
M  V30 14885 O 1431.81 2.15837 0.750099 0
M  V30 14886 C 1432.02 2.05969 -2.81741 0
M  V30 14887 C 1433.36 2.64093 -3.32476 0
M  V30 14888 O 1434.39 2.1621 -2.83075 0
M  V30 14889 O 1433.25 3.51341 -4.18595 0
M  V30 14890 H 1430.34 0.55841 -0.610006 0
M  V30 14891 H 1432.89 0.480818 -1.62746 0
M  V30 14892 H 1431.66 1.42327 -3.64498 0
M  V30 14893 H 1431.28 2.8805 -2.74067 0
M  V30 14894 N 1432.28 1.40065 0.722464 0
M  V30 14895 C 1433.53 1.37698 1.47932 0
M  V30 14896 C 1433.85 -0.0222608 1.94987 0
M  V30 14897 O 1433.12 -0.975795 1.69868 0
M  V30 14898 H 1431.7 0.506766 0.548815 0
M  V30 14899 H 1434.36 1.75053 0.856884 0
M  V30 14900 H 1433.46 2.04756 2.35545 0
M  V30 14901 N 1433.76 -0.95397 1.25448 0
M  V30 14902 C 1435 -1.71348 1.11441 0
M  V30 14903 C 1435.36 -1.88988 -0.338748 0
M  V30 14904 O 1436.56 -2.62003 -0.600652 0
M  V30 14905 C 1434.83 -3.05874 1.84867 0
M  V30 14906 S 1436.39 -3.97072 1.86759 0
M  V30 14907 H 1433.21 -0.588957 0.39831 0
M  V30 14908 H 1435.81 -1.13776 1.58982 0
M  V30 14909 H 1434.52 -2.90706 2.89686 0
M  V30 14910 H 1434.05 -3.68508 1.37715 0
M  V30 14911 H 1436.06 -4.87116 0.945109 0
M  V30 14912 N 1435.24 -1.07045 -1.15668 0
M  V30 14913 C 1436.46 -0.812802 -1.9081 0
M  V30 14914 C 1436.89 0.627827 -1.77313 0
M  V30 14915 O 1436.24 1.43836 -1.10368 0
M  V30 14916 C 1436.29 -1.2219 -3.39267 0
M  V30 14917 O 1435.4 -0.365305 -4.10779 0
M  V30 14918 H 1434.74 -0.296385 -0.594182 0
M  V30 14919 H 1437.27 -1.42825 -1.465 0
M  V30 14920 H 1437.28 -1.19674 -3.90054 0
M  V30 14921 H 1435.95 -2.27121 -3.48409 0
M  V30 14922 H 1434.53 -0.452687 -3.70142 0
M  V30 14923 N 1436.71 1.32449 -0.85411 0
M  V30 14924 C 1437.64 2.31383 -0.313697 0
M  V30 14925 C 1438.62 1.59656 0.586858 0
M  V30 14926 O 1439.81 1.87459 0.507216 0
M  V30 14927 C 1436.94 3.43693 0.499235 0
M  V30 14928 C 1435.89 4.26899 -0.306839 0
M  V30 14929 C 1435.22 5.30966 0.630795 0
M  V30 14930 C 1436.52 4.99318 -1.53229 0
M  V30 14931 H 1438.21 2.76832 -1.14037 0
M  V30 14932 H 1435.76 1.33091 -0.549805 0
M  V30 14933 H 1437.71 4.11944 0.887709 0
M  V30 14934 H 1436.44 2.96971 1.35926 0
M  V30 14935 H 1435.1 3.60294 -0.677061 0
M  V30 14936 H 1434.74 4.80498 1.48765 0
M  V30 14937 H 1434.44 5.87522 0.0954635 0
M  V30 14938 H 1435.97 6.0208 1.01646 0
M  V30 14939 H 1437.38 5.60253 -1.21614 0
M  V30 14940 H 1435.78 5.65596 -2.00552 0
M  V30 14941 H 1436.85 4.27213 -2.29383 0
M  V30 14942 N 1438.19 0.611994 1.45232 0
M  V30 14943 C 1439.44 0.108911 2.02207 0
M  V30 14944 C 1439.77 -1.26219 1.47983 0
M  V30 14945 O 1439.02 -1.84718 0.646368 0
M  V30 14946 C 1439.32 0.0243361 3.57392 0
M  V30 14947 C 1438.99 1.33168 4.30787 0
M  V30 14948 C 1437.65 1.68978 4.50555 0
M  V30 14949 C 1440 2.19549 4.72703 0
M  V30 14950 C 1437.33 2.90913 5.09496 0
M  V30 14951 C 1439.68 3.40737 5.32993 0
M  V30 14952 C 1438.34 3.76794 5.50983 0
M  V30 14953 H 1437.61 0.0398534 0.739927 0
M  V30 14954 H 1440.26 0.794492 1.74241 0
M  V30 14955 H 1438.57 -0.74453 3.84661 0
M  V30 14956 H 1440.26 -0.381139 3.99185 0
M  V30 14957 H 1436.85 1.04296 4.15717 0
M  V30 14958 H 1441.04 1.93181 4.57159 0
M  V30 14959 H 1436.29 3.1895 5.21614 0
M  V30 14960 H 1440.47 4.07919 5.64425 0
M  V30 14961 H 1438.09 4.71364 5.96423 0
M  V30 14962 N 1439.67 -1.53632 0.351409 0
M  V30 14963 C 1440.91 -2.02951 -0.242935 0
M  V30 14964 C 1441.27 -1.23346 -1.47138 0
M  V30 14965 O 1442.47 -1.62602 -2.14042 0
M  V30 14966 C 1440.75 -3.53272 -0.541633 0
M  V30 14967 S 1442.3 -4.24485 -1.11167 0
M  V30 14968 H 1439.12 -0.707367 -0.071784 0
M  V30 14969 H 1441.72 -1.89234 0.490993 0
M  V30 14970 H 1440.43 -4.08817 0.360137 0
M  V30 14971 H 1439.96 -3.71124 -1.30502 0
M  V30 14972 H 1441.97 -4.34469 -2.39689 0
M  V30 14973 N 1441.15 -0.0802183 -1.57396 0
M  V30 14974 C 1442.56 0.276428 -1.57188 0
M  V30 14975 C 1442.76 1.69456 -1.09027 0
M  V30 14976 O 1441.82 2.40792 -0.75997 0
M  V30 14977 C 1443.13 0.0784079 -3.00598 0
M  V30 14978 C 1444.68 0.1473 -3.12653 0
M  V30 14979 C 1445.16 -0.0225423 -4.57994 0
M  V30 14980 N 1446.65 0.0327854 -4.63188 0
M  V30 14981 C 1447.38 -0.0740922 -5.73352 0
M  V30 14982 N 1446.88 -0.234966 -6.92401 0
M  V30 14983 N 1448.67 -0.0164241 -5.62098 0
M  V30 14984 H 1440.82 -1.00695 -1.87014 0
M  V30 14985 H 1443.08 -0.393402 -0.862519 0
M  V30 14986 H 1442.79 -0.900488 -3.39977 0
M  V30 14987 H 1442.66 0.82713 -3.6802 0
M  V30 14988 H 1445.05 1.11669 -2.73156 0
M  V30 14989 H 1445.13 -0.632666 -2.47853 0
M  V30 14990 H 1444.78 -0.988733 -4.98183 0
M  V30 14991 H 1444.71 0.776933 -5.20837 0
M  V30 14992 H 1447.2 0.15519 -3.77581 0
M  V30 14993 H 1447.51 -0.308435 -7.72184 0
M  V30 14994 H 1445.86 -0.270439 -6.94474 0
M  V30 14995 H 1449.05 0.108019 -4.67975 0
M  V30 14996 H 1449.22 -0.10317 -6.47918 0
M  V30 14997 N 1442.63 1.56409 0.193394 0
M  V30 14998 C 1443.56 1.91211 1.26377 0
M  V30 14999 C 1444.57 0.802944 1.41622 0
M  V30 15000 O 1445.76 1.08136 1.42017 0
M  V30 15001 C 1442.86 2.13039 2.63567 0
M  V30 15002 C 1442.03 3.44192 2.69909 0
M  V30 15003 C 1441.09 3.55111 3.88307 0
M  V30 15004 O 1440.12 4.2792 3.75331 0
M  V30 15005 N 1441.32 2.88325 5.03834 0
M  V30 15006 H 1444.08 2.83624 0.968383 0
M  V30 15007 H 1441.65 1.57297 0.383302 0
M  V30 15008 H 1443.64 2.1763 3.41202 0
M  V30 15009 H 1442.21 1.27116 2.85588 0
M  V30 15010 H 1441.43 3.51452 1.78535 0
M  V30 15011 H 1442.72 4.30536 2.71139 0
M  V30 15012 H 1442.11 2.29003 5.17276 0
M  V30 15013 H 1440.67 2.98542 5.7941 0
M  V30 15014 N 1444.1 -0.461169 1.50702 0
M  V30 15015 C 1445.01 -1.58355 1.73092 0
M  V30 15016 C 1446.03 -1.62795 0.61431 0
M  V30 15017 O 1447.21 -1.8048 0.893806 0
M  V30 15018 C 1444.27 -2.94509 1.82936 0
M  V30 15019 C 1443.33 -3.00378 3.06711 0
M  V30 15020 C 1442.56 -4.30037 3.16076 0
M  V30 15021 O 1442.79 -5.21097 2.31978 0
M  V30 15022 O 1441.72 -4.41702 4.08881 0
M  V30 15023 H 1445.55 -1.42384 2.68255 0
M  V30 15024 H 1443.13 -0.641709 1.34916 0
M  V30 15025 H 1445.01 -3.75357 1.91534 0
M  V30 15026 H 1443.69 -3.10658 0.909581 0
M  V30 15027 H 1442.6 -2.18571 3.03608 0
M  V30 15028 H 1443.93 -2.89167 3.983 0
M  V30 15029 N 1445.58 -1.40446 -0.715026 0
M  V30 15030 C 1446.83 -1.3896 -1.47709 0
M  V30 15031 C 1447.16 0.00798698 -1.94198 0
M  V30 15032 O 1446.44 0.976732 -1.68197 0
M  V30 15033 C 1446.72 -2.37955 -2.70277 0
M  V30 15034 C 1446.57 -3.8674 -2.29678 0
M  V30 15035 C 1447.89 -2.34478 -3.72435 0
M  V30 15036 H 1445.01 -0.50607 -0.535782 0
M  V30 15037 H 1447.65 -1.71585 -0.815999 0
M  V30 15038 H 1445.8 -2.10264 -3.26682 0
M  V30 15039 H 1447.47 -4.2526 -1.7875 0
M  V30 15040 H 1445.72 -4.02547 -1.61674 0
M  V30 15041 H 1446.39 -4.51524 -3.17538 0
M  V30 15042 H 1448.86 -2.59007 -3.2566 0
M  V30 15043 H 1447.74 -3.05791 -4.55832 0
M  V30 15044 H 1448 -1.35661 -4.20771 0
M  V30 15045 N 1447.06 0.947303 -1.25952 0
M  V30 15046 C 1448.28 1.73261 -1.13997 0
M  V30 15047 C 1448.71 1.85666 0.301639 0
M  V30 15048 O 1448.07 1.34244 1.21854 0
M  V30 15049 C 1448.12 3.12046 -1.8072 0
M  V30 15050 O 1447.22 3.97684 -1.09182 0
M  V30 15051 H 1446.56 0.53182 -0.397572 0
M  V30 15052 H 1449.09 1.18689 -1.66656 0
M  V30 15053 H 1449.1 3.62468 -1.87299 0
M  V30 15054 H 1447.78 3.02334 -2.856 0
M  V30 15055 H 1446.35 3.56141 -1.10536 0
M  V30 15056 N 1448.54 1.07657 1.15099 0
M  V30 15057 C 1449.79 0.801609 1.85958 0
M  V30 15058 C 1450.11 -0.672415 1.82507 0
M  V30 15059 O 1449.37 -1.50958 1.2454 0
M  V30 15060 C 1449.67 1.25903 3.3449 0
M  V30 15061 C 1449.33 2.73954 3.58134 0
M  V30 15062 C 1448 3.14392 3.64296 0
M  V30 15063 C 1450.35 3.69502 3.67584 0
M  V30 15064 C 1447.68 4.49187 3.77422 0
M  V30 15065 C 1450.03 5.04063 3.82235 0
M  V30 15066 C 1448.69 5.44117 3.86643 0
M  V30 15067 H 1447.96 0.293329 0.68047 0
M  V30 15068 H 1450.61 1.34814 1.36005 0
M  V30 15069 H 1448.91 0.631943 3.8667 0
M  V30 15070 H 1450.61 1.02314 3.87728 0
M  V30 15071 H 1447.2 2.41652 3.53981 0
M  V30 15072 H 1451.38 3.39385 3.62121 0
M  V30 15073 H 1446.64 4.79685 3.79094 0
M  V30 15074 H 1450.81 5.7797 3.88489 0
M  V30 15075 H 1448.44 6.48567 3.96567 0
M  V30 15076 N 1450.02 -1.31994 0.861122 0
M  V30 15077 C 1450.96 -2.30666 0.299352 0
M  V30 15078 C 1451.96 -1.59133 -0.580779 0
M  V30 15079 O 1453.16 -1.73813 -0.467864 0
M  V30 15080 H 1449.54 -0.747932 0.0781091 0
M  V30 15081 H 1451.51 -2.7553 1.14567 0
M  V30 15082 C 1450.26 -3.44203 -0.491883 0
M  V30 15083 H 1449.58 -3.99412 0.17608 0
M  V30 15084 H 1451.02 -4.15384 -0.850434 0
M  V30 15085 C 1449.48 -2.92042 -1.67967 0
M  V30 15086 O 1450.01 -2.90073 -2.77886 0
M  V30 15087 N 1448.22 -2.48358 -1.50887 0
M  V30 15088 H 1447.76 -2.50159 -0.614683 0
M  V30 15089 H 1447.72 -2.13813 -2.30503 0
M  V30 15090 N 1451.49 -0.619688 -1.44906 0
M  V30 15091 C 1452.73 -0.122796 -2.04031 0
M  V30 15092 C 1453.1 1.2279 -1.47603 0
M  V30 15093 O 1454.3 1.81623 -1.98158 0
M  V30 15094 C 1452.57 -0.0968883 -3.57269 0
M  V30 15095 S 1454.13 0.33705 -4.37504 0
M  V30 15096 H 1450.95 -0.0554816 -0.708832 0
M  V30 15097 H 1453.55 -0.82051 -1.77448 0
M  V30 15098 H 1452.25 -1.08324 -3.95846 0
M  V30 15099 H 1451.78 0.622437 -3.88445 0
M  V30 15100 H 1453.8 1.58388 -4.70242 0
M  V30 15101 N 1452.97 1.53444 -0.359552 0
M  V30 15102 C 1454.22 2.00348 0.233109 0
M  V30 15103 C 1454.53 1.25104 1.50361 0
M  V30 15104 O 1455.74 1.62566 2.1745 0
M  V30 15105 C 1454.2 3.56871 0.465951 0
M  V30 15106 C 1453.8 4.40987 -0.789571 0
M  V30 15107 C 1455.55 4.12148 1.0166 0
M  V30 15108 C 1453.46 5.8905 -0.526646 0
M  V30 15109 H 1452.39 0.748502 0.0908851 0
M  V30 15110 H 1455.04 1.77182 -0.47736 0
M  V30 15111 H 1453.42 3.76167 1.23753 0
M  V30 15112 H 1454.59 4.33465 -1.56348 0
M  V30 15113 H 1452.91 3.96784 -1.263 0
M  V30 15114 H 1455.5 5.20395 1.22853 0
M  V30 15115 H 1455.85 3.66364 1.97694 0
M  V30 15116 H 1456.38 3.96626 0.305334 0
M  V30 15117 H 1453.12 6.39099 -1.45715 0
M  V30 15118 H 1452.64 5.99436 0.208875 0
M  V30 15119 H 1454.32 6.46826 -0.149889 0
M  V30 15120 N 1454.45 0.0885642 1.57351 0
M  V30 15121 C 1455.73 -0.618587 1.85561 0
M  V30 15122 C 1456.11 -1.86753 0.984206 0
M  V30 15123 O 1455.46 -2.28434 0.0548839 0
M  V30 15124 C 1455.67 -0.940222 3.36096 0
M  V30 15125 C 1457.01 -1.30649 4.04 0
M  V30 15126 O 1458.04 -1.03144 3.4094 0
M  V30 15127 O 1456.9 -1.82135 5.15256 0
M  V30 15128 H 1453.99 -0.308881 0.767152 0
M  V30 15129 H 1456.54 0.120767 1.6927 0
M  V30 15130 H 1455.31 -0.0538991 3.91263 0
M  V30 15131 H 1454.93 -1.73577 3.5771 0
M  V30 15132 N 1455.93 -1.56509 -0.185096 0
M  V30 15133 C 1456.84 -1.98552 -1.24958 0
M  V30 15134 C 1457.85 -0.894713 -1.49234 0
M  V30 15135 O 1459.03 -1.20126 -1.61653 0
M  V30 15136 C 1456.1 -2.32513 -2.57175 0
M  V30 15137 C 1455.16 -3.55351 -2.40882 0
M  V30 15138 C 1454.39 -3.87683 -3.66794 0
M  V30 15139 O 1454.61 -3.21167 -4.7139 0
M  V30 15140 O 1453.55 -4.8108 -3.61726 0
M  V30 15141 H 1457.37 -2.89342 -0.922756 0
M  V30 15142 H 1454.96 -1.44196 -0.390887 0
M  V30 15143 H 1456.84 -2.55387 -3.35195 0
M  V30 15144 H 1455.51 -1.44888 -2.89464 0
M  V30 15145 H 1454.42 -3.37712 -1.60939 0
M  V30 15146 H 1455.75 -4.43474 -2.13522 0
M  V30 15147 N 1457.41 0.45317 -1.50944 0
M  V30 15148 C 1458.82 1.03354 -1.55482 0
M  V30 15149 C 1459.17 1.92701 -0.368873 0
M  V30 15150 O 1458.29 2.10153 0.516208 0
M  V30 15151 C 1458.89 1.88118 -2.81775 0
M  V30 15152 C 1457.45 2.41232 -2.88936 0
M  V30 15153 C 1456.59 1.20032 -2.49975 0
M  V30 15154 H 1459.55 0.235059 -1.5695 0
M  V30 15155 H 1459.57 2.73394 -2.64643 0
M  V30 15156 H 1459.08 1.23064 -3.68072 0
M  V30 15157 H 1457.18 3.09788 -2.07032 0
M  V30 15158 H 1457.29 2.75113 -3.92237 0
M  V30 15159 H 1455.66 1.54072 -2.02815 0
M  V30 15160 H 1456.44 0.56612 -3.386 0
M  V30 15161 N 1458.88 1.40823 0.707568 0
M  V30 15162 C 1460.11 1.43061 1.50161 0
M  V30 15163 C 1460.53 0.0342144 1.88069 0
M  V30 15164 O 1459.89 -0.959674 1.53818 0
M  V30 15165 C 1459.94 2.33459 2.74826 0
M  V30 15166 O 1459.04 1.78336 3.71847 0
M  V30 15167 H 1458.39 0.48602 0.452417 0
M  V30 15168 H 1460.92 1.85147 0.870742 0
M  V30 15169 H 1460.93 2.48922 3.23267 0
M  V30 15170 H 1459.6 3.34927 2.46571 0
M  V30 15171 H 1458.18 1.7226 3.30728 0
M  V30 15172 N 1460.36 -0.94061 1.26453 0
M  V30 15173 C 1461.78 -1.21424 1.03578 0
M  V30 15174 C 1461.98 -2.00081 -0.238726 0
M  V30 15175 O 1461.03 -2.3404 -0.947709 0
M  V30 15176 C 1462.35 -1.97496 2.26751 0
M  V30 15177 C 1463.9 -2.10485 2.31657 0
M  V30 15178 C 1464.37 -2.89959 3.54525 0
M  V30 15179 N 1465.86 -2.97533 3.55005 0
M  V30 15180 C 1466.6 -3.59456 4.46742 0
M  V30 15181 N 1466.09 -4.22876 5.48769 0
M  V30 15182 N 1467.89 -3.56734 4.34393 0
M  V30 15183 H 1460.04 -0.414788 2.08311 0
M  V30 15184 H 1462.3 -0.246047 0.915513 0
M  V30 15185 H 1462.01 -1.47109 3.19456 0
M  V30 15186 H 1461.88 -2.98159 2.31043 0
M  V30 15187 H 1464.27 -2.60064 1.39466 0
M  V30 15188 H 1464.35 -1.09082 2.31376 0
M  V30 15189 H 1463.99 -2.41067 4.47045 0
M  V30 15190 H 1463.92 -3.91619 3.52054 0
M  V30 15191 H 1466.41 -2.52446 2.81211 0
M  V30 15192 H 1466.73 -4.68026 6.14956 0
M  V30 15193 H 1465.07 -4.21461 5.52626 0
M  V30 15194 H 1468.26 -3.06381 3.53904 0
M  V30 15195 H 1468.43 -4.04706 5.0608 0
M  V30 15196 N 1461.84 -1.08266 -1.14527 0
M  V30 15197 C 1463.08 -0.820945 -1.87189 0
M  V30 15198 C 1463.44 0.641556 -1.80964 0
M  V30 15199 O 1464.65 1.01871 -2.48749 0
M  V30 15200 C 1462.92 -1.32668 -3.31865 0
M  V30 15201 S 1464.48 -1.19705 -4.22157 0
M  V30 15202 H 1461.29 -0.297237 -0.645888 0
M  V30 15203 H 1463.9 -1.38364 -1.38114 0
M  V30 15204 H 1462.6 -2.38558 -3.33943 0
M  V30 15205 H 1462.13 -0.759588 -3.85997 0
M  V30 15206 H 1464.15 -0.140421 -4.96001 0
M  V30 15207 N 1463.32 1.31536 -0.86811 0
M  V30 15208 C 1464.55 2.00661 -0.491815 0
M  V30 15209 C 1464.96 1.65341 0.919733 0
M  V30 15210 O 1464.3 0.87773 1.61374 0
M  V30 15211 C 1464.36 3.55002 -0.566926 0
M  V30 15212 C 1464.03 4.1379 -1.93976 0
M  V30 15213 C 1465.02 4.31032 -2.90702 0
M  V30 15214 C 1462.71 4.4956 -2.24056 0
M  V30 15215 C 1464.7 4.8323 -4.15653 0
M  V30 15216 C 1462.39 5.01461 -3.49257 0
M  V30 15217 C 1463.39 5.18246 -4.44871 0
M  V30 15218 O 1463.08 5.69033 -5.67852 0
M  V30 15219 H 1462.81 0.648663 -0.190296 0
M  V30 15220 H 1465.36 1.68783 -1.17053 0
M  V30 15221 H 1463.59 3.86332 0.168704 0
M  V30 15222 H 1465.28 4.05385 -0.204323 0
M  V30 15223 H 1466.05 4.03717 -2.6877 0
M  V30 15224 H 1461.93 4.35772 -1.50412 0
M  V30 15225 H 1465.47 4.96247 -4.9029 0
M  V30 15226 H 1461.37 5.28209 -3.71033 0
M  V30 15227 H 1462.13 5.87405 -5.69998 0
M  V30 15228 N 1464.8 0.627364 1.44575 0
M  V30 15229 C 1466.04 0.130352 2.0208 0
M  V30 15230 C 1466.37 -1.24642 1.49314 0
M  V30 15231 O 1465.63 -1.84022 0.665923 0
M  V30 15232 C 1465.93 0.0622409 3.57346 0
M  V30 15233 C 1465.59 1.37729 4.2935 0
M  V30 15234 C 1464.25 1.73747 4.48737 0
M  V30 15235 C 1466.61 2.2455 4.70347 0
M  V30 15236 C 1463.93 2.96301 5.06382 0
M  V30 15237 C 1466.29 3.46371 5.29349 0
M  V30 15238 C 1464.95 3.82616 5.46956 0
M  V30 15239 H 1464.22 0.0476991 0.739463 0
M  V30 15240 H 1466.87 0.812928 1.73389 0
M  V30 15241 H 1465.17 -0.70369 3.85429 0
M  V30 15242 H 1466.87 -0.338778 3.99566 0
M  V30 15243 H 1463.46 1.08699 4.14587 0
M  V30 15244 H 1467.64 1.98019 4.55085 0
M  V30 15245 H 1462.9 3.24465 5.18201 0
M  V30 15246 H 1467.07 4.13882 5.60067 0
M  V30 15247 H 1464.7 4.77663 5.9139 0
M  V30 15248 N 1466.28 -1.53251 0.367684 0
M  V30 15249 C 1467.23 -2.22578 -0.494287 0
M  V30 15250 C 1468.21 -1.22175 -1.047 0
M  V30 15251 O 1469.4 -1.47613 -0.976696 0
M  V30 15252 C 1466.53 -3.02007 -1.63238 0
M  V30 15253 C 1465.62 -4.09788 -1.09244 0
M  V30 15254 N 1466.01 -5.05048 -0.275665 0
M  V30 15255 C 1464.31 -4.24532 -1.36705 0
M  V30 15256 C 1465.01 -5.81696 0.0201973 0
M  V30 15257 N 1463.98 -5.40518 -0.577991 0
M  V30 15258 H 1467.78 -2.93583 0.136532 0
M  V30 15259 H 1465.3 -1.61446 0.175813 0
M  V30 15260 H 1467.3 -3.50193 -2.26209 0
M  V30 15261 H 1465.96 -2.32533 -2.26624 0
M  V30 15262 H 1466.97 -5.1783 0.0853053 0
M  V30 15263 H 1463.64 -3.66285 -2.00354 0
M  V30 15264 H 1465.03 -6.68444 0.680622 0
M  V30 15265 N 1467.75 -0.0969077 -1.57302 0
M  V30 15266 C 1469.03 0.608737 -1.85886 0
M  V30 15267 C 1469.41 1.86228 -0.994096 0
M  V30 15268 O 1468.76 2.28402 -0.0669975 0
M  V30 15269 C 1468.97 0.922385 -3.3659 0
M  V30 15270 C 1470.32 1.28505 -4.04687 0
M  V30 15271 O 1471.34 1.01334 -3.41482 0
M  V30 15272 O 1470.2 1.794 -5.16215 0
M  V30 15273 H 1467.29 0.304808 -0.768779 0
M  V30 15274 H 1469.84 -0.129742 -1.69203 0
M  V30 15275 H 1468.61 0.0331488 -3.91286 0
M  V30 15276 H 1468.23 1.71678 -3.58626 0
M  V30 15277 N 1469.23 1.56605 0.176793 0
M  V30 15278 C 1470.48 1.81324 0.892535 0
M  V30 15279 C 1470.8 0.67301 1.83018 0
M  V30 15280 O 1470.07 -0.307498 1.93472 0
M  V30 15281 H 1468.65 0.668881 0.332576 0
M  V30 15282 H 1471.31 1.94086 0.17792 0
M  V30 15283 H 1470.41 2.75168 1.47272 0
M  V30 15284 N 1470.71 -0.445159 1.51182 0
M  V30 15285 C 1471.99 -1.20598 1.53998 0
M  V30 15286 C 1472.37 -2.08962 0.29967 0
M  V30 15287 O 1471.71 -2.17003 -0.715666 0
M  V30 15288 C 1471.92 -2.01461 2.84982 0
M  V30 15289 C 1473.27 -2.5877 3.36635 0
M  V30 15290 O 1474.3 -2.11679 2.86479 0
M  V30 15291 O 1473.16 -3.44637 4.24132 0
M  V30 15292 H 1470.25 -0.548635 0.618812 0
M  V30 15293 H 1472.8 -0.454865 1.6349 0
M  V30 15294 H 1471.57 -1.36511 3.66716 0
M  V30 15295 H 1471.19 -2.83654 2.78615 0
M  V30 15296 N 1472.19 -1.41197 -0.700089 0
M  V30 15297 C 1473.44 -1.40034 -1.45722 0
M  V30 15298 C 1473.76 -0.00876281 -1.94998 0
M  V30 15299 O 1473.03 0.948647 -1.71399 0
M  V30 15300 H 1471.61 -0.515433 -0.540683 0
M  V30 15301 H 1474.27 -1.76394 -0.828926 0
M  V30 15302 H 1473.36 -2.08477 -2.32258 0
M  V30 15303 N 1473.67 0.933891 -1.2695 0
M  V30 15304 C 1474.91 1.6834 -1.13091 0
M  V30 15305 C 1475.24 1.91484 0.32367 0
M  V30 15306 O 1474.52 1.50075 1.23724 0
M  V30 15307 C 1474.8 3.05374 -1.90838 0
M  V30 15308 C 1474.66 2.8951 -3.44244 0
M  V30 15309 C 1475.97 4.05607 -1.70795 0
M  V30 15310 H 1473.09 0.610944 -0.41221 0
M  V30 15311 H 1475.74 1.08416 -1.56032 0
M  V30 15312 H 1473.89 3.56526 -1.54343 0
M  V30 15313 H 1475.56 2.45523 -3.90533 0
M  V30 15314 H 1473.8 2.24981 -3.70899 0
M  V30 15315 H 1474.47 3.86734 -3.93879 0
M  V30 15316 H 1476.95 3.63443 -2.02604 0
M  V30 15317 H 1475.82 4.9949 -2.27597 0
M  V30 15318 H 1476.08 4.37231 -0.654327 0
M  V30 15319 N 1475.14 1.08871 1.13951 0
M  V30 15320 C 1476.38 0.830861 1.86751 0
M  V30 15321 C 1476.75 -0.63195 1.81302 0
M  V30 15322 O 1477.95 -1.0055 2.49285 0
M  V30 15323 C 1476.22 1.34426 3.31156 0
M  V30 15324 S 1477.78 1.21942 4.21516 0
M  V30 15325 H 1474.6 0.300658 0.644302 0
M  V30 15326 H 1477.2 1.39095 1.37378 0
M  V30 15327 H 1475.9 2.40326 3.32674 0
M  V30 15328 H 1475.43 0.780048 3.85589 0
M  V30 15329 H 1477.45 0.166724 4.9592 0
M  V30 15330 N 1476.62 -1.31073 0.875073 0
M  V30 15331 C 1477.53 -2.3215 0.338196 0
M  V30 15332 C 1478.55 -1.64928 -0.554504 0
M  V30 15333 O 1479.72 -1.96308 -0.449998 0
M  V30 15334 C 1476.79 -3.43804 -0.447163 0
M  V30 15335 C 1475.85 -4.26674 0.474106 0
M  V30 15336 C 1475.08 -5.32997 -0.273867 0
M  V30 15337 O 1475.31 -5.50288 -1.50129 0
M  V30 15338 O 1474.24 -6.00756 0.370913 0
M  V30 15339 H 1478.07 -2.80002 1.17612 0
M  V30 15340 H 1475.65 -1.35064 0.6386 0
M  V30 15341 H 1477.53 -4.11847 -0.892199 0
M  V30 15342 H 1476.21 -2.98105 -1.26155 0
M  V30 15343 H 1475.11 -3.61366 0.967748 0
M  V30 15344 H 1476.45 -4.75952 1.25423 0
M  V30 15345 N 1478.1 -0.635022 -1.4424 0
M  V30 15346 C 1479.01 0.0686832 -2.34499 0
M  V30 15347 C 1480.03 0.831574 -1.52843 0
M  V30 15348 O 1481.2 0.782954 -1.85558 0
M  V30 15349 C 1478.27 1.03543 -3.30877 0
M  V30 15350 C 1477.33 0.271484 -4.28441 0
M  V30 15351 C 1476.56 1.19218 -5.20214 0
M  V30 15352 O 1476.78 2.43101 -5.16002 0
M  V30 15353 O 1475.72 0.6744 -5.9811 0
M  V30 15354 H 1479.54 -0.673781 -2.96132 0
M  V30 15355 H 1477.13 -0.395211 -1.44078 0
M  V30 15356 H 1479.01 1.59151 -3.90191 0
M  V30 15357 H 1477.69 1.75844 -2.71773 0
M  V30 15358 H 1476.59 -0.327736 -3.72662 0
M  V30 15359 H 1477.93 -0.411584 -4.90476 0
M  V30 15360 N 1479.58 1.53054 -0.375806 0
M  V30 15361 C 1480.83 2.01401 0.210673 0
M  V30 15362 C 1481.15 1.26275 1.47935 0
M  V30 15363 O 1480.41 0.347611 1.92588 0
M  V30 15364 C 1480.71 3.53321 0.538419 0
M  V30 15365 C 1480.37 4.46376 -0.637126 0
M  V30 15366 C 1479.04 4.71534 -0.959653 0
M  V30 15367 C 1481.39 5.01364 -1.42421 0
M  V30 15368 C 1478.72 5.4893 -2.07105 0
M  V30 15369 C 1481.07 5.79975 -2.5261 0
M  V30 15370 C 1479.73 6.03416 -2.85386 0
M  V30 15371 H 1479 0.736979 0.0770907 0
M  V30 15372 H 1481.65 1.84574 -0.510376 0
M  V30 15373 H 1479.95 3.6815 1.34062 0
M  V30 15374 H 1481.65 3.88212 1.00461 0
M  V30 15375 H 1478.24 4.2695 -0.375722 0
M  V30 15376 H 1482.42 4.81865 -1.18828 0
M  V30 15377 H 1477.68 5.65309 -2.32886 0
M  V30 15378 H 1481.85 6.21588 -3.14008 0
M  V30 15379 H 1479.48 6.63172 -3.71627 0
M  V30 15380 N 1481.06 0.105248 1.57248 0
M  V30 15381 C 1481.97 -0.864007 2.1811 0
M  V30 15382 C 1482.98 -1.30282 1.15337 0
M  V30 15383 O 1484.16 -1.36864 1.4775 0
M  V30 15384 C 1481.22 -2.1014 2.75757 0
M  V30 15385 C 1480.28 -1.71583 3.9352 0
M  V30 15386 C 1479.52 -2.89424 4.48408 0
M  V30 15387 O 1479.74 -4.04449 4.02215 0
M  V30 15388 O 1478.67 -2.67303 5.39289 0
M  V30 15389 H 1482.5 -0.376131 3.01362 0
M  V30 15390 H 1480.09 -0.119643 1.4892 0
M  V30 15391 H 1481.97 -2.82638 3.1256 0
M  V30 15392 H 1480.64 -2.57961 1.95545 0
M  V30 15393 H 1479.55 -0.962347 3.6151 0
M  V30 15394 H 1480.88 -1.28517 4.75126 0
M  V30 15395 N 1482.53 -1.56697 -0.168486 0
M  V30 15396 C 1483.47 -1.93197 -1.23319 0
M  V30 15397 C 1484.48 -0.825373 -1.40326 0
M  V30 15398 O 1485.67 -1.10381 -1.40279 0
M  V30 15399 C 1482.77 -2.17205 -2.60145 0
M  V30 15400 C 1481.94 -3.48442 -2.64399 0
M  V30 15401 C 1481 -3.61244 -3.82609 0
M  V30 15402 O 1480.03 -4.33837 -3.68476 0
M  V30 15403 N 1481.23 -2.96304 -4.99183 0
M  V30 15404 H 1483.99 -2.85128 -0.923138 0
M  V30 15405 H 1481.55 -1.57887 -0.358229 0
M  V30 15406 H 1483.55 -2.23031 -3.37697 0
M  V30 15407 H 1482.12 -1.31643 -2.83529 0
M  V30 15408 H 1481.34 -3.54248 -1.72922 0
M  V30 15409 H 1482.62 -4.34795 -2.64255 0
M  V30 15410 H 1482.02 -2.37203 -5.13567 0
M  V30 15411 H 1480.58 -3.07722 -5.74587 0
M  V30 15412 N 1484.01 0.437135 -1.51416 0
M  V30 15413 C 1484.96 1.53061 -1.72745 0
M  V30 15414 C 1485.93 1.56045 -0.569149 0
M  V30 15415 O 1487.11 1.73052 -0.803602 0
M  V30 15416 C 1484.25 2.90774 -1.85861 0
M  V30 15417 C 1483.37 2.97318 -3.1341 0
M  V30 15418 C 1482.5 4.26156 -3.1712 0
M  V30 15419 C 1481.54 4.26568 -4.38983 0
M  V30 15420 N 1480.68 5.4693 -4.40241 0
M  V30 15421 H 1485.52 1.34177 -2.66084 0
M  V30 15422 H 1483.06 0.651803 -1.31871 0
M  V30 15423 H 1485.01 3.7068 -1.91447 0
M  V30 15424 H 1483.64 3.08216 -0.959306 0
M  V30 15425 H 1482.7 2.10074 -3.17132 0
M  V30 15426 H 1484.01 2.93485 -4.03321 0
M  V30 15427 H 1483.16 5.14435 -3.21623 0
M  V30 15428 H 1481.9 4.32646 -2.25098 0
M  V30 15429 H 1480.91 3.36681 -4.34656 0
M  V30 15430 H 1482.13 4.21741 -5.3227 0
M  V30 15431 H 1480.08 5.54141 -3.51089 0
M  V30 15432 H 1479.99 5.44977 -5.23962 0
M  V30 15433 H 1481.26 6.37241 -4.48937 0
M  V30 15434 N 1485.49 1.41566 0.692592 0
M  V30 15435 C 1486.72 1.44445 1.48132 0
M  V30 15436 C 1487.13 0.0505867 1.88732 0
M  V30 15437 O 1486.49 -0.930779 1.5698 0
M  V30 15438 C 1486.54 2.35582 2.74196 0
M  V30 15439 O 1486.26 3.69545 2.35305 0
M  V30 15440 C 1487.76 2.47296 3.67912 0
M  V30 15441 H 1484.98 0.491877 0.456396 0
M  V30 15442 H 1487.53 1.85884 0.852499 0
M  V30 15443 H 1485.68 1.97445 3.33308 0
M  V30 15444 H 1486.1 4.1818 3.16584 0
M  V30 15445 H 1487.57 3.15225 4.53141 0
M  V30 15446 H 1488.05 1.50517 4.12603 0
M  V30 15447 H 1488.65 2.86082 3.14702 0
M  V30 15448 N 1486.97 -0.927146 1.27443 0
M  V30 15449 C 1488.19 -1.71426 1.16739 0
M  V30 15450 C 1488.62 -1.86122 -0.272063 0
M  V30 15451 O 1487.98 -1.36165 -1.19703 0
M  V30 15452 C 1488.02 -3.09131 1.85661 0
M  V30 15453 O 1487.13 -3.95897 1.15495 0
M  V30 15454 H 1486.47 -0.525428 0.405983 0
M  V30 15455 H 1489 -1.16022 1.68523 0
M  V30 15456 H 1489.01 -3.59442 1.93042 0
M  V30 15457 H 1487.68 -2.97752 2.90373 0
M  V30 15458 H 1486.26 -3.54337 1.16187 0
M  V30 15459 N 1488.45 -1.09474 -1.13372 0
M  V30 15460 C 1489.7 -0.825968 -1.84013 0
M  V30 15461 C 1490.01 0.650623 -1.84462 0
M  V30 15462 O 1491.21 1.03495 -2.51 0
M  V30 15463 C 1489.67 -1.42769 -3.30371 0
M  V30 15464 C 1489.28 -2.93686 -3.38308 0
M  V30 15465 C 1491.02 -1.23788 -4.0605 0
M  V30 15466 C 1488.93 -3.46942 -4.78942 0
M  V30 15467 H 1487.86 -0.305322 -0.689416 0
M  V30 15468 H 1490.51 -1.31751 -1.27726 0
M  V30 15469 H 1488.89 -0.86384 -3.86463 0
M  V30 15470 H 1490.07 -3.56302 -2.92208 0
M  V30 15471 H 1488.38 -3.11706 -2.76094 0
M  V30 15472 H 1490.98 -1.61031 -5.09876 0
M  V30 15473 H 1491.32 -0.178578 -4.15917 0
M  V30 15474 H 1491.85 -1.76927 -3.56289 0
M  V30 15475 H 1488.59 -4.52495 -4.74267 0
M  V30 15476 H 1488.11 -2.8909 -5.25535 0
M  V30 15477 H 1489.79 -3.44176 -5.47861 0
M  V30 15478 N 1489.92 1.30607 -0.882012 0
M  V30 15479 C 1490.87 2.2821 -0.344826 0
M  V30 15480 C 1491.84 1.56254 0.563361 0
M  V30 15481 O 1493.03 1.84336 0.492416 0
M  V30 15482 C 1490.17 3.42319 0.437216 0
M  V30 15483 C 1489.28 4.29098 -0.499851 0
M  V30 15484 C 1488.41 5.30366 0.297497 0
M  V30 15485 C 1487.45 6.08795 -0.63523 0
M  V30 15486 N 1486.59 7.01986 0.12661 0
M  V30 15487 H 1491.43 2.73543 -1.18229 0
M  V30 15488 H 1488.97 1.34556 -0.594392 0
M  V30 15489 H 1490.93 4.07232 0.906521 0
M  V30 15490 H 1489.56 2.98063 1.23928 0
M  V30 15491 H 1488.61 3.6452 -1.08764 0
M  V30 15492 H 1489.92 4.83787 -1.21454 0
M  V30 15493 H 1489.07 6.01013 0.828786 0
M  V30 15494 H 1487.81 4.76364 1.04542 0
M  V30 15495 H 1486.82 5.37028 -1.17817 0
M  V30 15496 H 1488.04 6.64885 -1.3822 0
M  V30 15497 H 1485.99 6.50376 0.857125 0
M  V30 15498 H 1485.91 7.5415 -0.528512 0
M  V30 15499 H 1487.17 7.76879 0.638738 0
M  V30 15500 N 1491.4 0.642663 1.43901 0
M  V30 15501 C 1492.68 0.0821715 1.95427 0
M  V30 15502 C 1493.06 -1.3951 1.58431 0
M  V30 15503 O 1492.41 -2.11531 0.864118 0
M  V30 15504 C 1492.62 0.317229 3.47555 0
M  V30 15505 C 1493.97 0.216547 4.24047 0
M  V30 15506 O 1494.99 0.249216 3.55327 0
M  V30 15507 O 1493.85 0.131269 5.46342 0
M  V30 15508 H 1490.94 -0.0156936 0.826851 0
M  V30 15509 H 1493.49 0.715168 1.53894 0
M  V30 15510 H 1492.26 1.34184 3.67574 0
M  V30 15511 H 1491.88 -0.349348 3.96062 0
M  V30 15512 N 1492.88 -1.52852 0.383918 0
M  V30 15513 C 1494.12 -2.03421 -0.199832 0
M  V30 15514 C 1494.49 -1.26439 -1.44489 0
M  V30 15515 O 1495.69 -1.67105 -2.10545 0
M  V30 15516 C 1493.96 -3.54341 -0.466577 0
M  V30 15517 S 1495.52 -4.26747 -1.02138 0
M  V30 15518 H 1492.33 -0.70873 -0.0567636 0
M  V30 15519 H 1494.94 -1.8815 0.531022 0
M  V30 15520 H 1493.64 -4.07961 0.446772 0
M  V30 15521 H 1493.17 -3.73808 -1.226 0
M  V30 15522 H 1495.19 -4.39456 -2.3042 0
M  V30 15523 N 1494.36 -0.113586 -1.5719 0
M  V30 15524 C 1495.61 0.544642 -1.94623 0
M  V30 15525 C 1495.93 1.6756 -0.997428 0
M  V30 15526 O 1495.2 1.95829 -0.0527521 0
M  V30 15527 H 1493.78 0.204186 -0.718552 0
M  V30 15528 H 1496.44 -0.181258 -1.94055 0
M  V30 15529 H 1495.54 0.942765 -2.9752 0
M  V30 15530 N 1495.84 1.56784 0.160173 0
M  V30 15531 C 1497.08 1.82891 0.876278 0
M  V30 15532 C 1497.42 0.693173 1.81408 0
M  V30 15533 O 1496.69 -0.304136 1.92107 0
M  V30 15534 C 1496.97 3.19439 1.66226 0
M  V30 15535 C 1496.83 4.43557 0.746831 0
M  V30 15536 C 1498.15 3.53053 2.62758 0
M  V30 15537 H 1495.27 0.665285 0.31712 0
M  V30 15538 H 1497.91 1.89469 0.142004 0
M  V30 15539 H 1496.06 3.13962 2.28823 0
M  V30 15540 H 1497.73 4.61109 0.132876 0
M  V30 15541 H 1495.97 4.33764 0.0555625 0
M  V30 15542 H 1496.64 5.35675 1.33253 0
M  V30 15543 H 1499.12 3.59054 2.10284 0
M  V30 15544 H 1498 4.4965 3.14811 0
M  V30 15545 H 1498.26 2.78329 3.4349 0
M  V30 15546 N 1497.32 -0.429099 1.51646 0
M  V30 15547 C 1498.55 -1.19832 1.68297 0
M  V30 15548 C 1498.95 -1.85275 0.383378 0
M  V30 15549 O 1498.3 -1.71862 -0.648771 0
M  V30 15550 C 1498.36 -2.31803 2.74786 0
M  V30 15551 C 1498.02 -1.8666 4.17141 0
M  V30 15552 C 1499.02 -1.36544 5.01649 0
M  V30 15553 C 1496.7 -1.94101 4.63282 0
M  V30 15554 C 1498.7 -0.944655 6.30361 0
M  V30 15555 C 1496.39 -1.51634 5.91988 0
M  V30 15556 C 1497.38 -1.01899 6.75356 0
M  V30 15557 O 1497.07 -0.600375 8.01655 0
M  V30 15558 H 1496.8 -0.366924 0.567752 0
M  V30 15559 H 1499.36 -0.513643 1.98874 0
M  V30 15560 H 1497.59 -3.03573 2.39542 0
M  V30 15561 H 1499.28 -2.93639 2.80234 0
M  V30 15562 H 1500.04 -1.30184 4.67201 0
M  V30 15563 H 1495.92 -2.31758 3.98509 0
M  V30 15564 H 1499.47 -0.555763 6.95383 0
M  V30 15565 H 1495.36 -1.57667 6.25948 0
M  V30 15566 H 1496.13 -0.725485 8.15278 0
M  V30 15567 N 1498.79 -1.41931 -0.685074 0
M  V30 15568 C 1500.02 -1.45229 -1.47364 0
M  V30 15569 C 1500.44 -0.060595 -1.88703 0
M  V30 15570 O 1499.79 0.92244 -1.57472 0
M  V30 15571 C 1499.84 -2.37033 -2.72942 0
M  V30 15572 O 1499.57 -3.70787 -2.33342 0
M  V30 15573 C 1501.07 -2.49244 -3.66596 0
M  V30 15574 H 1498.29 -0.494291 -0.453781 0
M  V30 15575 H 1500.83 -1.86333 -0.84263 0
M  V30 15576 H 1498.99 -1.9921 -3.32256 0
M  V30 15577 H 1499.4 -4.19853 -3.14362 0
M  V30 15578 H 1500.87 -3.17624 -4.51463 0
M  V30 15579 H 1501.35 -1.52703 -4.11799 0
M  V30 15580 H 1501.96 -2.87747 -3.1318 0
M  V30 15581 N 1500.27 0.920374 -1.27933 0
M  V30 15582 C 1501.68 1.48385 -1.13309 0
M  V30 15583 C 1502.03 1.94202 0.279307 0
M  V30 15584 O 1501.16 1.81855 1.17294 0
M  V30 15585 C 1501.75 2.69681 -2.05079 0
M  V30 15586 C 1500.31 3.22229 -1.94539 0
M  V30 15587 C 1499.46 1.94948 -1.97207 0
M  V30 15588 H 1502.41 0.733744 -1.40719 0
M  V30 15589 H 1502.43 3.44717 -1.6109 0
M  V30 15590 H 1501.94 2.36304 -3.07867 0
M  V30 15591 H 1500.04 3.60348 -0.94764 0
M  V30 15592 H 1500.16 3.87927 -2.81157 0
M  V30 15593 H 1498.52 2.1176 -1.41527 0
M  V30 15594 H 1499.3 1.63875 -3.01662 0
M  V30 15595 N 1501.75 1.10074 1.1279 0
M  V30 15596 C 1502.68 0.704023 2.1812 0
M  V30 15597 C 1503.69 -0.25742 1.60752 0
M  V30 15598 O 1504.88 -0.0424559 1.7845 0
M  V30 15599 C 1501.98 0.0176666 3.38895 0
M  V30 15600 C 1501.16 1.00234 4.2576 0
M  V30 15601 C 1500.22 0.348158 5.25047 0
M  V30 15602 O 1499.24 0.997821 5.60386 0
M  V30 15603 N 1500.44 -0.894955 5.7356 0
M  V30 15604 H 1503.21 1.61024 2.52767 0
M  V30 15605 H 1500.77 0.989068 1.28176 0
M  V30 15606 H 1502.76 -0.431346 4.02395 0
M  V30 15607 H 1501.33 -0.7909 3.02429 0
M  V30 15608 H 1500.55 1.62972 3.58934 0
M  V30 15609 H 1501.84 1.669 4.80647 0
M  V30 15610 H 1501.24 -1.4422 5.47007 0
M  V30 15611 H 1499.79 -1.28718 6.38964 0
M  V30 15612 N 1503.23 -1.30138 0.888926 0
M  V30 15613 C 1504.48 -1.95602 0.508359 0
M  V30 15614 C 1504.8 -1.70495 -0.946377 0
M  V30 15615 O 1504.07 -1.03073 -1.66592 0
M  V30 15616 H 1502.65 -0.723728 0.185006 0
M  V30 15617 H 1505.31 -1.58594 1.13286 0
M  V30 15618 H 1504.4 -3.04559 0.681915 0
M  V30 15619 N 1504.71 -0.650285 -1.43559 0
M  V30 15620 C 1505.95 -0.162484 -2.01847 0
M  V30 15621 C 1506.28 1.22251 -1.51278 0
M  V30 15622 O 1505.54 1.82939 -0.695115 0
M  V30 15623 C 1505.83 -0.119084 -3.57202 0
M  V30 15624 C 1505.5 -1.44543 -4.27104 0
M  V30 15625 C 1504.16 -1.80864 -4.45917 0
M  V30 15626 C 1506.51 -2.32005 -4.66715 0
M  V30 15627 C 1503.84 -3.04319 -5.01604 0
M  V30 15628 C 1506.19 -3.54748 -5.23771 0
M  V30 15629 C 1504.86 -3.9127 -5.408 0
M  V30 15630 H 1504.13 -0.0594573 -0.738611 0
M  V30 15631 H 1506.78 -0.84041 -1.72074 0
M  V30 15632 H 1505.08 0.642282 -3.865 0
M  V30 15633 H 1506.78 0.275168 -4.00055 0
M  V30 15634 H 1503.37 -1.15281 -4.12805 0
M  V30 15635 H 1507.55 -2.05234 -4.51877 0
M  V30 15636 H 1502.81 -3.32668 -5.12974 0
M  V30 15637 H 1506.98 -4.2274 -5.53411 0
M  V30 15638 H 1504.61 -4.87011 -5.83716 0
M  V30 15639 N 1506.18 1.52647 -0.392018 0
M  V30 15640 C 1507.11 2.29446 0.433228 0
M  V30 15641 C 1508.09 1.32945 1.06111 0
M  V30 15642 O 1509.28 1.61841 1.07337 0
M  V30 15643 C 1506.41 3.10328 1.55929 0
M  V30 15644 C 1505.36 4.14735 1.05731 0
M  V30 15645 C 1504.69 4.83858 2.27565 0
M  V30 15646 C 1505.99 5.22154 0.123346 0
M  V30 15647 H 1507.68 2.9868 -0.207563 0
M  V30 15648 H 1505.23 1.43643 -0.101266 0
M  V30 15649 H 1507.18 3.62814 2.14346 0
M  V30 15650 H 1505.91 2.38832 2.22771 0
M  V30 15651 H 1504.57 3.63234 0.495653 0
M  V30 15652 H 1504.21 4.08907 2.92923 0
M  V30 15653 H 1503.91 5.54428 1.94637 0
M  V30 15654 H 1505.44 5.39149 2.86619 0
M  V30 15655 H 1506.85 5.69983 0.615784 0
M  V30 15656 H 1505.25 5.99987 -0.116304 0
M  V30 15657 H 1506.32 4.77796 -0.826969 0
M  V30 15658 N 1507.66 0.121921 1.57128 0
M  V30 15659 C 1508.94 -0.579087 1.86831 0
M  V30 15660 C 1509.32 -1.84623 1.0236 0
M  V30 15661 O 1508.67 -2.28266 0.103326 0
M  V30 15662 C 1508.88 -0.86872 3.38015 0
M  V30 15663 C 1510.23 -1.22051 4.0668 0
M  V30 15664 O 1511.25 -0.958889 3.43051 0
M  V30 15665 O 1510.11 -1.71164 5.19004 0
M  V30 15666 H 1507.2 -0.292539 0.773531 0
M  V30 15667 H 1509.75 0.156644 1.68975 0
M  V30 15668 H 1508.52 0.0291056 3.91289 0
M  V30 15669 H 1508.14 -1.65951 3.61312 0
M  V30 15670 N 1509.14 -1.56867 -0.151857 0
M  V30 15671 C 1510.07 -1.94494 -1.21263 0
M  V30 15672 C 1511.09 -0.84021 -1.39443 0
M  V30 15673 O 1512.27 -1.11863 -1.391 0
M  V30 15674 C 1509.37 -2.19952 -2.57826 0
M  V30 15675 C 1508.55 -3.51227 -2.60689 0
M  V30 15676 C 1507.61 -3.65282 -3.78756 0
M  V30 15677 O 1506.63 -4.3772 -3.63854 0
M  V30 15678 N 1507.83 -3.01582 -4.96012 0
M  V30 15679 H 1510.6 -2.86092 -0.892845 0
M  V30 15680 H 1508.16 -1.58258 -0.341463 0
M  V30 15681 H 1510.15 -2.266 -3.35312 0
M  V30 15682 H 1508.72 -1.34643 -2.82117 0
M  V30 15683 H 1507.94 -3.56062 -1.69155 0
M  V30 15684 H 1509.23 -4.37574 -2.59628 0
M  V30 15685 H 1508.63 -2.42637 -5.11022 0
M  V30 15686 H 1507.19 -3.13799 -5.71291 0
M  V30 15687 N 1510.62 0.421051 -1.51871 0
M  V30 15688 C 1511.86 1.16763 -1.66547 0
M  V30 15689 C 1512.22 1.88513 -0.38478 0
M  V30 15690 O 1511.51 1.81283 0.620237 0
M  V30 15691 C 1511.71 2.19819 -2.81806 0
M  V30 15692 C 1511.54 1.58186 -4.2096 0
M  V30 15693 C 1510.31 1.35972 -4.86662 0
M  V30 15694 C 1512.5 1.04921 -5.03484 0
M  V30 15695 N 1510.49 0.70107 -6.09884 0
M  V30 15696 C 1511.86 0.516784 -6.17842 0
M  V30 15697 C 1513.91 0.942524 -4.88898 0
M  V30 15698 C 1512.61 -0.111853 -7.19213 0
M  V30 15699 C 1514.64 0.327758 -5.90491 0
M  V30 15700 C 1514 -0.194044 -7.04133 0
M  V30 15701 H 1510.1 0.41436 -0.663197 0
M  V30 15702 H 1512.69 0.461765 -1.89145 0
M  V30 15703 H 1510.86 2.87776 -2.60844 0
M  V30 15704 H 1512.59 2.86752 -2.85579 0
M  V30 15705 H 1509.34 1.62596 -4.44814 0
M  V30 15706 H 1509.77 0.388716 -6.75883 0
M  V30 15707 H 1514.41 1.33179 -4.01277 0
M  V30 15708 H 1512.13 -0.513209 -8.06469 0
M  V30 15709 H 1515.71 0.246895 -5.81276 0
M  V30 15710 H 1514.59 -0.662259 -7.81399 0
M  V30 15711 N 1512.1 1.42293 0.677538 0
M  V30 15712 C 1513.06 1.45258 1.77293 0
M  V30 15713 C 1514.06 0.340554 1.57152 0
M  V30 15714 O 1515.25 0.601259 1.63495 0
M  V30 15715 C 1512.38 1.28156 3.15894 0
M  V30 15716 H 1513.57 2.42787 1.76052 0
M  V30 15717 H 1511.13 1.287 0.886908 0
M  V30 15718 H 1511.86 0.315381 3.22763 0
M  V30 15719 H 1511.65 2.08744 3.31916 0
M  V30 15720 H 1513.14 1.33107 3.95818 0
M  V30 15721 N 1513.57 -0.913576 1.28419 0
M  V30 15722 C 1514.8 -1.70178 1.18551 0
M  V30 15723 C 1515.22 -1.864 -0.252307 0
M  V30 15724 O 1514.58 -1.37427 -1.18252 0
M  V30 15725 C 1514.63 -3.07145 1.8893 0
M  V30 15726 O 1513.73 -3.9465 1.19688 0
M  V30 15727 H 1513.08 -0.521092 0.411533 0
M  V30 15728 H 1515.61 -1.14228 1.69744 0
M  V30 15729 H 1515.62 -3.57375 1.96843 0
M  V30 15730 H 1514.29 -2.94655 2.93515 0
M  V30 15731 H 1512.87 -3.53085 1.19939 0
M  V30 15732 N 1515.05 -1.1067 -1.12204 0
M  V30 15733 C 1516 -0.752659 -2.20086 0
M  V30 15734 C 1516.99 0.252284 -1.67511 0
M  V30 15735 O 1518.2 0.112398 -1.79649 0
M  V30 15736 H 1514.58 -0.225473 -0.717402 0
M  V30 15737 H 1516.55 -1.67136 -2.472 0
M  V30 15738 C 1515.3 -0.203345 -3.47105 0
M  V30 15739 H 1514.62 -0.967864 -3.87908 0
M  V30 15740 H 1516.06 0.00629123 -4.24 0
M  V30 15741 C 1514.52 1.06452 -3.1964 0
M  V30 15742 O 1515.05 2.14562 -3.39597 0
M  V30 15743 N 1513.25 0.984122 -2.73429 0
M  V30 15744 H 1512.8 0.104258 -2.57389 0
M  V30 15745 H 1512.76 1.83312 -2.55429 0
M  V30 15746 N 1516.53 1.29665 -0.895815 0
M  V30 15747 C 1517.49 2.26103 -0.3755 0
M  V30 15748 C 1518.49 1.53212 0.488126 0
M  V30 15749 O 1519.68 1.71706 0.293733 0
M  V30 15750 C 1516.82 3.37732 0.46364 0
M  V30 15751 H 1518.01 2.73643 -1.22718 0
M  V30 15752 H 1515.56 1.4104 -0.673613 0
M  V30 15753 H 1516.3 2.95526 1.33546 0
M  V30 15754 H 1516.08 3.91793 -0.155123 0
M  V30 15755 H 1517.57 4.09488 0.819112 0
M  V30 15756 N 1518.01 0.657889 1.43212 0
M  V30 15757 C 1519.23 0.179444 2.06622 0
M  V30 15758 C 1519.66 -1.14787 1.49015 0
M  V30 15759 O 1519.02 -1.71016 0.60192 0
M  V30 15760 C 1519.06 0.106826 3.60442 0
M  V30 15761 O 1518.17 -0.92962 4.01786 0
M  V30 15762 H 1517.51 0.0970131 0.656875 0
M  V30 15763 H 1520.04 0.902132 1.83638 0
M  V30 15764 H 1520.05 -0.07495 4.07931 0
M  V30 15765 H 1518.72 1.07574 4.01747 0
M  V30 15766 H 1517.3 -0.720255 3.65878 0
M  V30 15767 N 1519.49 -1.52437 0.400108 0
M  V30 15768 C 1520.73 -2.0201 -0.17887 0
M  V30 15769 C 1521.07 -1.2856 -1.45554 0
M  V30 15770 O 1520.34 -0.389236 -1.90565 0
M  V30 15771 C 1520.62 -3.57453 -0.435784 0
M  V30 15772 C 1520.48 -4.41562 0.85693 0
M  V30 15773 C 1521.8 -4.228 -1.2218 0
M  V30 15774 H 1518.91 -0.734256 -0.063535 0
M  V30 15775 H 1521.56 -1.82406 0.531801 0
M  V30 15776 H 1519.71 -3.74288 -1.04117 0
M  V30 15777 H 1521.38 -4.36456 1.49344 0
M  V30 15778 H 1519.62 -4.08138 1.46989 0
M  V30 15779 H 1520.29 -5.48374 0.631675 0
M  V30 15780 H 1522.77 -4.10009 -0.709359 0
M  V30 15781 H 1521.64 -5.3152 -1.37031 0
M  V30 15782 H 1521.91 -3.81153 -2.23998 0
M  V30 15783 N 1520.96 -0.130252 -1.57061 0
M  V30 15784 C 1522.19 0.535707 -2.00362 0
M  V30 15785 C 1522.61 1.58712 -1.00956 0
M  V30 15786 O 1521.97 1.81292 0.0171546 0
M  V30 15787 C 1522.02 1.12836 -3.42491 0
M  V30 15788 O 1521.12 2.24367 -3.46025 0
M  V30 15789 H 1520.47 0.132735 -0.650598 0
M  V30 15790 H 1523 -0.222047 -2.03392 0
M  V30 15791 H 1523.01 1.46115 -3.80939 0
M  V30 15792 H 1521.68 0.358304 -4.14354 0
M  V30 15793 H 1520.26 1.92443 -3.19406 0
M  V30 15794 N 1522.44 1.56945 0.143535 0
M  V30 15795 C 1523.39 1.94945 1.18239 0
M  V30 15796 C 1524.38 0.821157 1.38368 0
M  V30 15797 O 1525.57 1.08465 1.39873 0
M  V30 15798 C 1522.7 2.33653 2.51518 0
M  V30 15799 C 1521.78 3.53061 2.34966 0
M  V30 15800 N 1522.18 4.69493 1.88176 0
M  V30 15801 C 1520.47 3.58213 2.65706 0
M  V30 15802 C 1521.17 5.51581 1.84751 0
M  V30 15803 N 1520.15 4.93386 2.28192 0
M  V30 15804 H 1523.95 2.82438 0.81278 0
M  V30 15805 H 1521.47 1.58549 0.351555 0
M  V30 15806 H 1523.46 2.59083 3.26621 0
M  V30 15807 H 1522.12 1.47513 2.89257 0
M  V30 15808 H 1523.13 4.93182 1.5809 0
M  V30 15809 H 1519.81 2.82622 3.07297 0
M  V30 15810 H 1521.2 6.54934 1.50038 0
M  V30 15811 N 1523.92 -0.412991 1.52093 0
M  V30 15812 C 1524.85 -1.52187 1.71382 0
M  V30 15813 C 1525.87 -1.51567 0.594247 0
M  V30 15814 O 1527.06 -1.55902 0.869293 0
M  V30 15815 C 1524.16 -2.91086 1.73557 0
M  V30 15816 C 1523.33 -3.15941 3.0249 0
M  V30 15817 C 1522.39 -4.34692 2.96529 0
M  V30 15818 O 1521.41 -4.3216 3.70441 0
M  V30 15819 N 1522.62 -5.39594 2.14052 0
M  V30 15820 H 1525.38 -1.36036 2.67047 0
M  V30 15821 H 1522.94 -0.602243 1.50282 0
M  V30 15822 H 1524.93 -3.68589 1.67106 0
M  V30 15823 H 1523.5 -3.00714 0.85382 0
M  V30 15824 H 1522.72 -2.26517 3.2262 0
M  V30 15825 H 1524.01 -3.29388 3.87789 0
M  V30 15826 H 1523.41 -5.44498 1.53424 0
M  V30 15827 H 1521.97 -6.15855 2.13461 0
M  V30 15828 N 1525.4 -1.4265 -0.669982 0
M  V30 15829 C 1526.68 -1.33858 -1.42623 0
M  V30 15830 C 1527.06 0.0217285 -2.11089 0
M  V30 15831 O 1526.4 1.03748 -2.03589 0
M  V30 15832 C 1526.61 -2.51015 -2.42472 0
M  V30 15833 C 1527.96 -2.93348 -3.06972 0
M  V30 15834 O 1528.99 -2.5094 -2.52799 0
M  V30 15835 O 1527.85 -3.66762 -4.05151 0
M  V30 15836 H 1524.94 -0.528141 -0.636393 0
M  V30 15837 H 1527.49 -1.54667 -0.6983 0
M  V30 15838 H 1526.26 -3.41679 -1.90713 0
M  V30 15839 H 1525.88 -2.32218 -3.2274 0
M  V30 15840 N 1526.88 0.906753 -1.28902 0
M  V30 15841 C 1527.81 2.01497 -1.09233 0
M  V30 15842 C 1528.82 1.62746 -0.0419378 0
M  V30 15843 O 1530.01 1.76198 -0.285728 0
M  V30 15844 C 1527.11 3.32816 -0.639255 0
M  V30 15845 C 1526.28 4.00137 -1.76661 0
M  V30 15846 C 1525.34 5.09742 -1.30573 0
M  V30 15847 O 1524.37 5.32559 -2.00921 0
M  V30 15848 N 1525.57 5.80243 -0.17275 0
M  V30 15849 H 1528.34 2.18927 -2.04673 0
M  V30 15850 H 1525.9 1.0785 -1.20748 0
M  V30 15851 H 1527.89 4.03477 -0.31439 0
M  V30 15852 H 1526.46 3.11807 0.222498 0
M  V30 15853 H 1525.68 3.22933 -2.26071 0
M  V30 15854 H 1526.97 4.41859 -2.52266 0
M  V30 15855 H 1526.37 5.64184 0.413931 0
M  V30 15856 H 1524.92 6.51734 0.0927926 0
M  V30 15857 N 1528.36 1.11264 1.11616 0
M  V30 15858 C 1529.29 0.727118 2.17361 0
M  V30 15859 C 1530.3 -0.240356 1.61016 0
M  V30 15860 O 1531.49 -0.0235265 1.78484 0
M  V30 15861 C 1528.59 0.05361 3.38858 0
M  V30 15862 C 1527.76 1.04744 4.24673 0
M  V30 15863 C 1526.82 0.403827 5.24648 0
M  V30 15864 O 1525.85 1.0572 5.59296 0
M  V30 15865 N 1527.05 -0.834071 5.74477 0
M  V30 15866 H 1529.81 1.63696 2.51045 0
M  V30 15867 H 1527.38 1.00261 1.2712 0
M  V30 15868 H 1529.37 -0.388643 4.0283 0
M  V30 15869 H 1527.94 -0.758778 3.03251 0
M  V30 15870 H 1527.16 1.6677 3.57185 0
M  V30 15871 H 1528.45 1.71988 4.7885 0
M  V30 15872 H 1527.84 -1.3841 5.48506 0
M  V30 15873 H 1526.4 -1.21933 6.40293 0
M  V30 15874 N 1529.83 -1.29188 0.902679 0
M  V30 15875 C 1531.07 -1.97218 0.53707 0
M  V30 15876 C 1531.44 -1.69577 -0.900422 0
M  V30 15877 O 1532.64 -2.31086 -1.37305 0
M  V30 15878 C 1530.91 -3.47753 0.824796 0
M  V30 15879 S 1532.47 -4.35161 0.563943 0
M  V30 15880 H 1529.29 -0.682544 0.199136 0
M  V30 15881 H 1531.89 -1.56941 1.16575 0
M  V30 15882 H 1530.59 -3.65364 1.86916 0
M  V30 15883 H 1530.12 -3.92968 0.184342 0
M  V30 15884 H 1532.14 -4.92683 -0.589697 0
M  V30 15885 N 1531.31 -0.665475 -1.42861 0
M  V30 15886 C 1532.72 -0.26225 -1.84849 0
M  V30 15887 C 1533.07 1.19372 -1.55707 0
M  V30 15888 O 1532.2 1.91269 -1.01218 0
M  V30 15889 C 1532.79 -0.469189 -3.35535 0
M  V30 15890 C 1531.35 -0.120172 -3.76208 0
M  V30 15891 C 1530.5 -0.766153 -2.66506 0
M  V30 15892 H 1533.45 -0.868296 -1.32839 0
M  V30 15893 H 1533.47 0.281571 -3.79457 0
M  V30 15894 H 1532.98 -1.52894 -3.56714 0
M  V30 15895 H 1531.08 0.936505 -3.60639 0
M  V30 15896 H 1531.2 -0.554188 -4.75884 0
M  V30 15897 H 1529.56 -0.198292 -2.53927 0
M  V30 15898 H 1530.34 -1.82918 -2.9051 0
M  V30 15899 N 1532.79 1.52222 -0.408187 0
M  V30 15900 C 1534.04 2.01404 0.167574 0
M  V30 15901 C 1534.36 1.29572 1.45726 0
M  V30 15902 O 1533.63 0.421363 1.91315 0
M  V30 15903 H 1532.21 0.744174 0.0649156 0
M  V30 15904 H 1534.87 1.87148 -0.544212 0
M  V30 15905 H 1533.97 3.09966 0.36436 0
M  V30 15906 N 1534.27 0.138579 1.5699 0
M  V30 15907 C 1535.51 -0.509041 1.96927 0
M  V30 15908 C 1535.87 -1.63028 1.02174 0
M  V30 15909 O 1535.16 -1.9152 0.0552519 0
M  V30 15910 C 1535.36 -1.06969 3.41017 0
M  V30 15911 C 1535.18 -0.00429556 4.497 0
M  V30 15912 C 1533.95 0.434248 5.03431 0
M  V30 15913 C 1536.15 0.78404 5.08289 0
M  V30 15914 N 1534.13 1.48336 5.95709 0
M  V30 15915 C 1535.51 1.68386 5.96696 0
M  V30 15916 C 1537.56 0.832763 4.90886 0
M  V30 15917 C 1536.26 2.6282 6.69565 0
M  V30 15918 C 1538.29 1.7649 5.64451 0
M  V30 15919 C 1537.65 2.65226 6.5256 0
M  V30 15920 H 1533.75 -0.155325 0.766419 0
M  V30 15921 H 1536.33 0.231233 1.93322 0
M  V30 15922 H 1534.51 -1.7796 3.45231 0
M  V30 15923 H 1536.24 -1.68323 3.68035 0
M  V30 15924 H 1532.99 0.0380997 4.73585 0
M  V30 15925 H 1533.42 2.00743 6.46553 0
M  V30 15926 H 1538.06 0.160815 4.22494 0
M  V30 15927 H 1535.78 3.31019 7.37192 0
M  V30 15928 H 1539.36 1.80829 5.52985 0
M  V30 15929 H 1538.24 3.3618 7.08486 0
M  V30 15930 N 1535.75 -1.57019 -0.13521 0
M  V30 15931 C 1536.99 -1.84262 -0.847071 0
M  V30 15932 C 1537.32 -0.721946 -1.80282 0
M  V30 15933 O 1536.6 0.273535 -1.92567 0
M  V30 15934 C 1536.88 -3.22043 -1.61123 0
M  V30 15935 C 1536.74 -4.44689 -0.67617 0
M  V30 15936 C 1538.05 -3.57188 -2.57108 0
M  V30 15937 H 1535.17 -0.670246 -0.306496 0
M  V30 15938 H 1537.82 -1.89671 -0.111843 0
M  V30 15939 H 1535.97 -3.17563 -2.23799 0
M  V30 15940 H 1537.64 -4.61262 -0.0595009 0
M  V30 15941 H 1535.88 -4.33798 0.0134526 0
M  V30 15942 H 1536.55 -5.37727 -1.24714 0
M  V30 15943 H 1539.03 -3.62354 -2.04545 0
M  V30 15944 H 1537.9 -4.54602 -3.07617 0
M  V30 15945 H 1538.16 -2.83758 -3.39019 0
M  V30 15946 N 1537.22 0.404919 -1.52309 0
M  V30 15947 C 1538.47 1.14859 -1.65802 0
M  V30 15948 C 1538.79 1.91546 -0.396174 0
M  V30 15949 O 1539.99 2.68372 -0.410969 0
M  V30 15950 C 1538.45 2.09068 -2.92948 0
M  V30 15951 C 1538.06 1.37878 -4.26255 0
M  V30 15952 C 1539.8 2.83669 -3.15804 0
M  V30 15953 C 1537.71 2.30761 -5.44521 0
M  V30 15954 H 1536.64 0.432463 -0.61765 0
M  V30 15955 H 1539.29 0.412695 -1.78799 0
M  V30 15956 H 1537.67 2.86228 -2.7366 0
M  V30 15957 H 1538.84 0.660543 -4.56041 0
M  V30 15958 H 1537.16 0.753026 -4.09534 0
M  V30 15959 H 1539.76 3.53313 -4.0134 0
M  V30 15960 H 1540.1 3.46855 -2.30212 0
M  V30 15961 H 1540.63 2.13607 -3.35584 0
M  V30 15962 H 1537.37 1.72214 -6.32473 0
M  V30 15963 H 1536.89 3.00546 -5.19069 0
M  V30 15964 H 1538.57 2.91195 -5.77767 0
M  V30 15965 N 1538.7 1.43003 0.662408 0
M  V30 15966 C 1539.95 1.43422 1.41821 0
M  V30 15967 C 1540.26 0.0586909 1.95512 0
M  V30 15968 O 1541.47 -0.0596978 2.71434 0
M  V30 15969 C 1539.93 2.52344 2.56613 0
M  V30 15970 C 1539.53 3.95961 2.09569 0
M  V30 15971 C 1541.28 2.61945 3.34044 0
M  V30 15972 C 1539.19 4.96367 3.21518 0
M  V30 15973 H 1538.12 0.533485 0.532832 0
M  V30 15974 H 1540.77 1.68958 0.715911 0
M  V30 15975 H 1539.15 2.19993 3.2927 0
M  V30 15976 H 1540.32 4.37728 1.43984 0
M  V30 15977 H 1538.64 3.90322 1.45044 0
M  V30 15978 H 1541.23 3.34137 4.17441 0
M  V30 15979 H 1541.58 1.66708 3.81463 0
M  V30 15980 H 1542.11 2.93552 2.68463 0
M  V30 15981 H 1538.85 5.93124 2.79077 0
M  V30 15982 H 1538.37 4.59221 3.85845 0
M  V30 15983 H 1540.05 5.18652 3.86793 0
M  V30 15984 N 1540.18 -0.899904 1.29381 0
M  V30 15985 C 1541.43 -1.64712 1.17109 0
M  V30 15986 C 1541.75 -1.93011 -0.277772 0
M  V30 15987 O 1541.02 -1.55604 -1.19013 0
M  V30 15988 H 1539.6 -0.610532 0.430418 0
M  V30 15989 H 1542.26 -1.07905 1.62304 0
M  V30 15990 H 1541.36 -2.60362 1.72098 0
M  V30 15991 N 1541.66 -1.11854 -1.11024 0
M  V30 15992 C 1542.59 -0.738635 -2.16972 0
M  V30 15993 C 1543.6 0.231814 -1.61141 0
M  V30 15994 O 1544.79 0.0140607 -1.78494 0
M  V30 15995 C 1541.89 -0.0715797 -3.38824 0
M  V30 15996 C 1541.07 -1.06995 -4.24112 0
M  V30 15997 C 1540.12 -0.431644 -5.24427 0
M  V30 15998 O 1539.15 -1.08685 -5.58727 0
M  V30 15999 N 1540.35 0.803593 -5.74911 0
M  V30 16000 H 1543.12 -1.65025 -2.50174 0
M  V30 16001 H 1540.68 -1.00933 -1.26586 0
M  V30 16002 H 1542.67 0.367274 -4.0303 0
M  V30 16003 H 1541.24 0.742686 -3.03649 0
M  V30 16004 H 1540.46 -1.68662 -3.56296 0
M  V30 16005 H 1541.75 -1.74525 -4.77931 0
M  V30 16006 H 1541.15 1.355 -5.49232 0
M  V30 16007 H 1539.7 1.18536 -6.40931 0
M  V30 16008 N 1543.14 1.28707 -0.909517 0
M  V30 16009 C 1544.55 1.77212 -0.587613 0
M  V30 16010 C 1544.9 1.74495 0.896986 0
M  V30 16011 O 1544.02 1.33698 1.70158 0
M  V30 16012 C 1544.62 3.21794 -1.05989 0
M  V30 16013 C 1543.18 3.68038 -0.788983 0
M  V30 16014 C 1542.32 2.48576 -1.22903 0
M  V30 16015 H 1545.28 1.1523 -1.09122 0
M  V30 16016 H 1545.3 3.78397 -0.399469 0
M  V30 16017 H 1544.81 3.23739 -2.14043 0
M  V30 16018 H 1542.91 3.71558 0.278523 0
M  V30 16019 H 1543.02 4.58379 -1.39376 0
M  V30 16020 H 1541.39 2.46323 -0.647838 0
M  V30 16021 H 1542.17 2.53243 -2.31782 0
M  V30 16022 N 1544.61 0.673042 1.42506 0
M  V30 16023 C 1545.58 0.00283156 2.292 0
M  V30 16024 C 1546.58 -0.73077 1.43235 0
M  V30 16025 O 1547.77 -0.569037 1.64644 0
M  V30 16026 C 1544.9 -1.00666 3.25698 0
M  V30 16027 H 1546.09 0.765869 2.89956 0
M  V30 16028 H 1543.65 0.435301 1.50116 0
M  V30 16029 H 1544.38 -1.79825 2.69877 0
M  V30 16030 H 1544.17 -0.484043 3.89101 0
M  V30 16031 H 1545.66 -1.47409 3.90718 0
M  V30 16032 N 1546.09 -1.52004 0.416254 0
M  V30 16033 C 1547.06 -2.2579 -0.393882 0
M  V30 16034 C 1548.06 -1.28427 -0.967637 0
M  V30 16035 O 1549.25 -1.52311 -0.845396 0
M  V30 16036 C 1546.38 -3.03361 -1.55515 0
M  V30 16037 H 1547.57 -2.98835 0.252492 0
M  V30 16038 H 1545.12 -1.55384 0.168929 0
M  V30 16039 H 1545.86 -2.34682 -2.23818 0
M  V30 16040 H 1545.64 -3.74852 -1.15015 0
M  V30 16041 H 1547.13 -3.5931 -2.12805 0
M  V30 16042 N 1547.57 -0.146903 -1.56914 0
M  V30 16043 C 1548.8 0.514426 -2.00919 0
M  V30 16044 C 1549.22 1.57632 -1.02634 0
M  V30 16045 O 1548.58 1.813 -0.00207478 0
M  V30 16046 C 1548.63 1.09197 -3.43669 0
M  V30 16047 O 1547.73 2.20684 -3.48385 0
M  V30 16048 H 1547.07 0.125827 -0.651969 0
M  V30 16049 H 1549.6 -0.243607 -2.03145 0
M  V30 16050 H 1549.61 1.42066 -3.82467 0
M  V30 16051 H 1548.29 0.314336 -4.1471 0
M  V30 16052 H 1546.86 1.89045 -3.21429 0
M  V30 16053 N 1549.05 1.57088 0.126881 0
M  V30 16054 C 1549.98 1.96399 1.18153 0
M  V30 16055 C 1550.99 0.862288 1.38089 0
M  V30 16056 O 1552.18 1.14062 1.37303 0
M  V30 16057 C 1549.28 2.24026 2.54295 0
M  V30 16058 C 1548.46 3.5533 2.55068 0
M  V30 16059 C 1547.51 3.71261 3.72896 0
M  V30 16060 O 1546.54 4.43454 3.56844 0
M  V30 16061 N 1547.74 3.09435 4.91152 0
M  V30 16062 H 1550.51 2.87476 0.847217 0
M  V30 16063 H 1548.07 1.58781 0.316242 0
M  V30 16064 H 1550.06 2.31906 3.31665 0
M  V30 16065 H 1548.63 1.39114 2.79939 0
M  V30 16066 H 1547.85 3.58708 1.63468 0
M  V30 16067 H 1549.14 4.41649 2.52634 0
M  V30 16068 H 1548.54 2.50736 5.07097 0
M  V30 16069 H 1547.09 3.22848 5.66226 0
M  V30 16070 N 1550.53 -0.396836 1.52522 0
M  V30 16071 C 1551.77 -1.14432 1.67431 0
M  V30 16072 C 1552.11 -1.89842 0.409115 0
M  V30 16073 O 1551.38 -1.85244 -0.592863 0
M  V30 16074 C 1551.66 -2.12889 2.90431 0
M  V30 16075 C 1551.52 -1.41295 4.27031 0
M  V30 16076 C 1552.84 -3.13412 3.08967 0
M  V30 16077 H 1549.95 -0.414643 0.609295 0
M  V30 16078 H 1552.6 -0.428604 1.85103 0
M  V30 16079 H 1550.75 -2.73924 2.75495 0
M  V30 16080 H 1552.42 -0.832848 4.53719 0
M  V30 16081 H 1550.66 -0.714834 4.2787 0
M  V30 16082 H 1551.33 -2.13198 5.09167 0
M  V30 16083 H 1553.81 -2.62462 3.22883 0
M  V30 16084 H 1552.68 -3.79555 3.96522 0
M  V30 16085 H 1552.95 -3.81836 2.22831 0
M  V30 16086 N 1552.01 -1.43353 -0.654814 0
M  V30 16087 C 1553.25 -1.46387 -1.42654 0
M  V30 16088 C 1553.61 -0.0850538 -1.91812 0
M  V30 16089 O 1554.81 0.00990964 -2.68798 0
M  V30 16090 C 1553.08 -2.47594 -2.57744 0
M  V30 16091 S 1554.64 -2.69491 -3.46295 0
M  V30 16092 H 1551.46 -0.518053 -0.486972 0
M  V30 16093 H 1554.06 -1.80107 -0.760382 0
M  V30 16094 H 1552.76 -3.46513 -2.19902 0
M  V30 16095 H 1552.3 -2.15367 -3.29212 0
M  V30 16096 H 1554.31 -1.99297 -4.54418 0
M  V30 16097 N 1553.48 0.89303 -1.29857 0
M  V30 16098 C 1554.9 1.17496 -1.08013 0
M  V30 16099 C 1555.1 2.00829 0.164302 0
M  V30 16100 O 1554.16 2.37396 0.860194 0
M  V30 16101 C 1555.47 1.88944 -2.33924 0
M  V30 16102 C 1557.02 2.01742 -2.3931 0
M  V30 16103 C 1557.49 2.76601 -3.65042 0
M  V30 16104 N 1558.98 2.84152 -3.65803 0
M  V30 16105 C 1559.72 3.42628 -4.59776 0
M  V30 16106 N 1559.21 4.02218 -5.64086 0
M  V30 16107 N 1561.01 3.40366 -4.47334 0
M  V30 16108 H 1553.16 0.33719 -2.09706 0
M  V30 16109 H 1555.42 0.211899 -0.924014 0
M  V30 16110 H 1555.13 1.35151 -3.24695 0
M  V30 16111 H 1555 2.89379 -2.4195 0
M  V30 16112 H 1557.39 2.54708 -1.49022 0
M  V30 16113 H 1557.47 1.0042 -2.35265 0
M  V30 16114 H 1557.11 2.24309 -4.55684 0
M  V30 16115 H 1557.04 3.78283 -3.66346 0
M  V30 16116 H 1559.53 2.41835 -2.90386 0
M  V30 16117 H 1559.85 4.4488 -6.31903 0
M  V30 16118 H 1558.19 4.00661 -5.67887 0
M  V30 16119 H 1561.38 2.93035 -3.65031 0
M  V30 16120 H 1561.56 3.85644 -5.20752 0
M  V30 16121 N 1554.96 1.12442 1.10429 0
M  V30 16122 C 1556.19 0.902599 1.86174 0
M  V30 16123 C 1556.6 -0.548147 1.80668 0
M  V30 16124 O 1555.96 -1.37898 1.19543 0
M  V30 16125 C 1556.01 1.36912 3.34571 0
M  V30 16126 O 1555.73 2.763 3.39985 0
M  V30 16127 C 1557.23 1.18424 4.27189 0
M  V30 16128 H 1554.45 0.322534 0.588399 0
M  V30 16129 H 1557 1.49439 1.396 0
M  V30 16130 H 1555.15 0.82055 3.7861 0
M  V30 16131 H 1555.57 2.96772 4.32466 0
M  V30 16132 H 1557.04 1.55954 5.29511 0
M  V30 16133 H 1557.52 0.12483 4.39023 0
M  V30 16134 H 1558.12 1.72032 3.88954 0
M  V30 16135 N 1556.44 -1.28223 0.91633 0
M  V30 16136 C 1557.39 -2.27215 0.40521 0
M  V30 16137 C 1558.36 -1.57693 -0.521734 0
M  V30 16138 O 1559.54 -1.85577 -0.443369 0
M  V30 16139 C 1556.68 -3.43358 -0.346303 0
M  V30 16140 C 1555.79 -4.27622 0.613443 0
M  V30 16141 C 1554.93 -5.30969 -0.156775 0
M  V30 16142 C 1553.97 -6.06897 0.796418 0
M  V30 16143 N 1553.11 -7.02075 0.0595539 0
M  V30 16144 H 1557.95 -2.70312 1.2544 0
M  V30 16145 H 1555.48 -1.32933 0.629859 0
M  V30 16146 H 1557.44 -4.09492 -0.798231 0
M  V30 16147 H 1556.07 -3.01244 -1.15982 0
M  V30 16148 H 1555.12 -3.61508 1.1839 0
M  V30 16149 H 1556.43 -4.80397 1.34239 0
M  V30 16150 H 1555.59 -6.02999 -0.669146 0
M  V30 16151 H 1554.33 -4.78968 -0.918755 0
M  V30 16152 H 1553.33 -5.33716 1.32014 0
M  V30 16153 H 1554.56 -6.60987 1.558 0
M  V30 16154 H 1552.5 -6.5242 -0.684388 0
M  V30 16155 H 1552.42 -7.52484 0.728275 0
M  V30 16156 H 1553.69 -7.78299 -0.432538 0
M  V30 16157 N 1557.92 -0.68059 -1.42147 0
M  V30 16158 C 1559.16 -0.205567 -2.01755 0
M  V30 16159 C 1559.5 1.18677 -1.53718 0
M  V30 16160 O 1558.77 1.79796 -0.741867 0
M  V30 16161 C 1559.05 -0.246615 -3.59255 0
M  V30 16162 C 1558.91 -1.67483 -4.17456 0
M  V30 16163 C 1560.23 0.40196 -4.38261 0
M  V30 16164 H 1557.35 -0.0761717 -0.733053 0
M  V30 16165 H 1559.99 -0.866473 -1.69092 0
M  V30 16166 H 1558.14 0.316127 -3.87212 0
M  V30 16167 H 1559.81 -2.29026 -4.00431 0
M  V30 16168 H 1558.05 -2.2137 -3.73065 0
M  V30 16169 H 1558.72 -1.65519 -5.266 0
M  V30 16170 H 1561.2 -0.077135 -4.16028 0
M  V30 16171 H 1560.08 0.342627 -5.4783 0
M  V30 16172 H 1560.34 1.48044 -4.16576 0
M  V30 16173 N 1559.4 1.51781 -0.424309 0
M  V30 16174 C 1560.64 2.01157 0.147925 0
M  V30 16175 C 1560.96 1.31369 1.44919 0
M  V30 16176 O 1562.16 1.71643 2.10359 0
M  V30 16177 C 1560.62 3.58526 0.31417 0
M  V30 16178 C 1560.23 4.37242 -0.975898 0
M  V30 16179 C 1561.97 4.16088 0.840876 0
M  V30 16180 C 1559.88 5.86287 -0.776009 0
M  V30 16181 H 1558.81 0.751684 0.0590568 0
M  V30 16182 H 1561.46 1.74998 -0.552079 0
M  V30 16183 H 1559.84 3.81077 1.07687 0
M  V30 16184 H 1561.02 4.26444 -1.74592 0
M  V30 16185 H 1559.33 3.9107 -1.43015 0
M  V30 16186 H 1561.93 5.25138 1.0067 0
M  V30 16187 H 1562.27 3.7442 1.81977 0
M  V30 16188 H 1562.8 3.97565 0.136836 0
M  V30 16189 H 1559.54 6.32343 -1.7269 0
M  V30 16190 H 1559.06 5.99783 -0.0455544 0
M  V30 16191 H 1560.74 6.45609 -0.424095 0
M  V30 16192 N 1560.87 0.155222 1.56834 0
M  V30 16193 C 1562.15 -0.539327 1.88018 0
M  V30 16194 C 1562.53 -1.8241 1.06253 0
M  V30 16195 O 1561.88 -2.27996 0.151721 0
M  V30 16196 C 1562.09 -0.796826 3.39782 0
M  V30 16197 C 1563.44 -1.13397 4.09178 0
M  V30 16198 O 1564.46 -0.885907 3.45007 0
M  V30 16199 O 1563.32 -1.60117 5.22518 0
M  V30 16200 H 1560.41 -0.276066 0.779562 0
M  V30 16201 H 1562.96 0.192451 1.68605 0
M  V30 16202 H 1561.73 0.112097 3.91139 0
M  V30 16203 H 1561.35 -1.5825 3.6475 0
M  V30 16204 N 1562.35 -1.57153 -0.118549 0
M  V30 16205 C 1563.28 -2.03409 -1.1466 0
M  V30 16206 C 1564.26 -0.918636 -1.43161 0
M  V30 16207 O 1565.45 -1.18838 -1.53594 0
M  V30 16208 C 1562.58 -2.43879 -2.47265 0
M  V30 16209 C 1561.53 -3.58873 -2.33225 0
M  V30 16210 C 1560.86 -3.85244 -3.70798 0
M  V30 16211 C 1562.16 -4.90582 -1.79239 0
M  V30 16212 H 1563.85 -2.89545 -0.761862 0
M  V30 16213 H 1561.4 -1.39296 -0.365034 0
M  V30 16214 H 1563.35 -2.74844 -3.19435 0
M  V30 16215 H 1562.07 -1.54715 -2.8763 0
M  V30 16216 H 1560.73 -3.28119 -1.63504 0
M  V30 16217 H 1560.38 -2.93285 -4.08648 0
M  V30 16218 H 1560.08 -4.62649 -3.62257 0
M  V30 16219 H 1561.61 -4.18661 -4.44472 0
M  V30 16220 H 1563.02 -5.20079 -2.41227 0
M  V30 16221 H 1561.42 -5.71989 -1.81518 0
M  V30 16222 H 1562.49 -4.79065 -0.74999 0
M  V30 16223 N 1563.83 0.388742 -1.5273 0
M  V30 16224 C 1565.05 1.15946 -1.71963 0
M  V30 16225 C 1565.48 1.82949 -0.437173 0
M  V30 16226 O 1564.84 1.70834 0.607072 0
M  V30 16227 C 1564.89 2.18298 -2.87016 0
M  V30 16228 O 1563.99 3.24891 -2.54008 0
M  V30 16229 H 1563.33 0.337526 -0.571815 0
M  V30 16230 H 1565.86 0.452957 -1.99523 0
M  V30 16231 H 1565.87 2.6229 -3.12519 0
M  V30 16232 H 1564.55 1.68917 -3.80052 0
M  V30 16233 H 1563.12 2.86034 -2.39246 0
M  V30 16234 N 1565.31 1.43698 0.647203 0
M  V30 16235 C 1566.22 1.51781 1.78884 0
M  V30 16236 C 1567.23 0.404498 1.69233 0
M  V30 16237 O 1568.41 0.659509 1.90296 0
M  V30 16238 C 1565.47 1.44408 3.15194 0
M  V30 16239 C 1564.54 2.6646 3.36597 0
M  V30 16240 C 1563.77 2.59429 4.66403 0
M  V30 16241 O 1563.99 1.64537 5.46154 0
M  V30 16242 O 1562.93 3.50027 4.89658 0
M  V30 16243 H 1566.75 2.48198 1.75019 0
M  V30 16244 H 1564.34 1.25766 0.806436 0
M  V30 16245 H 1566.22 1.42761 3.96481 0
M  V30 16246 H 1564.89 0.511292 3.19637 0
M  V30 16247 H 1563.8 2.73679 2.5505 0
M  V30 16248 H 1565.13 3.58732 3.37005 0
M  V30 16249 N 1566.79 -0.886131 1.30328 0
M  V30 16250 C 1568.03 -1.6346 1.18849 0
M  V30 16251 C 1568.36 -1.93295 -0.257285 0
M  V30 16252 O 1567.63 -1.56858 -1.17356 0
M  V30 16253 H 1566.21 -0.605932 0.43687 0
M  V30 16254 H 1568.87 -1.06177 1.63439 0
M  V30 16255 H 1567.96 -2.58522 1.7485 0
M  V30 16256 N 1568.26 -1.13026 -1.09832 0
M  V30 16257 C 1569.51 -0.884093 -1.81292 0
M  V30 16258 C 1569.83 0.591608 -1.86439 0
M  V30 16259 O 1571.03 0.954571 -2.54166 0
M  V30 16260 C 1569.49 -1.53207 -3.25662 0
M  V30 16261 C 1569.1 -3.043 -3.28794 0
M  V30 16262 C 1570.84 -1.36644 -4.01906 0
M  V30 16263 C 1568.75 -3.62003 -4.67662 0
M  V30 16264 H 1567.68 -0.327101 -0.679353 0
M  V30 16265 H 1570.33 -1.35748 -1.2347 0
M  V30 16266 H 1568.71 -0.986353 -3.83519 0
M  V30 16267 H 1569.88 -3.65418 -2.80725 0
M  V30 16268 H 1568.2 -3.20332 -2.66038 0
M  V30 16269 H 1570.8 -1.7717 -5.04495 0
M  V30 16270 H 1571.14 -0.310809 -4.15138 0
M  V30 16271 H 1571.67 -1.88172 -3.5048 0
M  V30 16272 H 1568.41 -4.67354 -4.59631 0
M  V30 16273 H 1567.93 -3.05663 -5.16072 0
M  V30 16274 H 1569.61 -3.61432 -5.36634 0
M  V30 16275 N 1569.74 1.27735 -0.923117 0
M  V30 16276 C 1570.97 1.9922 -0.57672 0
M  V30 16277 C 1571.39 1.68446 0.837113 0
M  V30 16278 O 1570.75 0.922129 1.56098 0
M  V30 16279 C 1570.8 3.51528 -0.803768 0
M  V30 16280 O 1569.9 4.12186 0.132829 0
M  V30 16281 H 1569.24 0.625593 -0.222553 0
M  V30 16282 H 1571.77 1.62657 -1.24112 0
M  V30 16283 H 1571.78 4.01641 -0.717534 0
M  V30 16284 H 1570.46 3.7326 -1.83439 0
M  V30 16285 H 1569.04 3.729 -0.00292957 0
M  V30 16286 N 1571.22 0.688118 1.41784 0
M  V30 16287 C 1572.15 -0.02099 2.2919 0
M  V30 16288 C 1573.17 -0.752005 1.44391 0
M  V30 16289 O 1574.35 -0.603947 1.67972 0
M  V30 16290 C 1571.45 -1.0537 3.22103 0
M  V30 16291 C 1570.63 -0.393817 4.35624 0
M  V30 16292 C 1569.69 -1.32812 5.09163 0
M  V30 16293 O 1568.71 -0.823341 5.63214 0
M  V30 16294 N 1569.91 -2.66083 5.15927 0
M  V30 16295 H 1572.68 0.729389 2.90689 0
M  V30 16296 H 1570.24 0.533564 1.52855 0
M  V30 16297 H 1572.23 -1.6803 3.68169 0
M  V30 16298 H 1570.8 -1.70568 2.61964 0
M  V30 16299 H 1570.02 0.41253 3.92035 0
M  V30 16300 H 1571.31 0.065338 5.08758 0
M  V30 16301 H 1570.71 -3.09619 4.73448 0
M  V30 16302 H 1569.27 -3.23956 5.65593 0
M  V30 16303 N 1572.7 -1.51554 0.432352 0
M  V30 16304 C 1573.65 -2.24474 -0.39944 0
M  V30 16305 C 1574.63 -1.26505 -0.994242 0
M  V30 16306 O 1575.82 -1.51623 -0.913209 0
M  V30 16307 C 1572.95 -3.08659 -1.50282 0
M  V30 16308 C 1572.04 -4.14053 -0.917654 0
M  V30 16309 N 1572.43 -5.05763 -0.061209 0
M  V30 16310 C 1570.73 -4.29949 -1.18576 0
M  V30 16311 C 1571.43 -5.81087 0.266897 0
M  V30 16312 N 1570.41 -5.42484 -0.348218 0
M  V30 16313 H 1574.21 -2.92739 0.260928 0
M  V30 16314 H 1571.72 -1.60555 0.24413 0
M  V30 16315 H 1573.72 -3.59472 -2.11153 0
M  V30 16316 H 1572.38 -2.41936 -2.16557 0
M  V30 16317 H 1573.39 -5.17002 0.304858 0
M  V30 16318 H 1570.07 -3.74453 -1.84638 0
M  V30 16319 H 1571.46 -6.64956 0.963519 0
M  V30 16320 N 1574.18 -0.163538 -1.56749 0
M  V30 16321 C 1575.14 0.755801 -2.1638 0
M  V30 16322 C 1576.14 1.16359 -1.10982 0
M  V30 16323 O 1577.33 1.08182 -1.36537 0
M  V30 16324 C 1574.46 2.02775 -2.74035 0
M  V30 16325 H 1575.65 0.23681 -2.98964 0
M  V30 16326 H 1573.21 0.0859925 -1.56063 0
M  V30 16327 H 1573.94 2.59002 -1.95163 0
M  V30 16328 H 1573.73 1.74439 -3.5116 0
M  V30 16329 H 1575.22 2.684 -3.19923 0
M  V30 16330 N 1575.65 1.57214 0.110213 0
M  V30 16331 C 1576.9 1.86462 0.812616 0
M  V30 16332 C 1577.26 0.752442 1.77076 0
M  V30 16333 O 1576.55 -0.246845 1.90003 0
M  V30 16334 C 1576.74 3.19933 1.59304 0
M  V30 16335 C 1576.57 4.44028 0.711966 0
M  V30 16336 C 1575.34 5.03991 0.363447 0
M  V30 16337 C 1577.54 5.14294 0.0256587 0
M  V30 16338 N 1575.52 6.11631 -0.52737 0
M  V30 16339 C 1576.89 6.1576 -0.723813 0
M  V30 16340 C 1578.95 4.97875 -0.0498436 0
M  V30 16341 C 1577.65 7.02584 -1.54171 0
M  V30 16342 C 1579.68 5.85193 -0.854592 0
M  V30 16343 C 1579.04 6.86169 -1.59223 0
M  V30 16344 H 1575.14 0.732424 0.274006 0
M  V30 16345 H 1577.72 1.94552 0.0758925 0
M  V30 16346 H 1575.89 3.12923 2.30074 0
M  V30 16347 H 1577.62 3.36958 2.24146 0
M  V30 16348 H 1574.38 4.68283 0.707688 0
M  V30 16349 H 1574.8 6.70089 -0.964887 0
M  V30 16350 H 1579.45 4.1976 0.506097 0
M  V30 16351 H 1577.16 7.801 -2.10877 0
M  V30 16352 H 1580.75 5.74552 -0.915487 0
M  V30 16353 H 1579.63 7.52564 -2.20492 0
M  V30 16354 N 1577.13 -0.380637 1.52934 0
M  V30 16355 C 1578.36 -1.14417 1.72024 0
M  V30 16356 C 1578.77 -1.83962 0.442128 0
M  V30 16357 O 1578.11 -1.73839 -0.593766 0
M  V30 16358 C 1578.18 -2.22944 2.82022 0
M  V30 16359 C 1577.84 -1.73295 4.22869 0
M  V30 16360 C 1578.84 -1.20515 5.05739 0
M  V30 16361 C 1576.52 -1.79264 4.69222 0
M  V30 16362 C 1578.52 -0.743632 6.33047 0
M  V30 16363 C 1576.2 -1.32724 5.96513 0
M  V30 16364 C 1577.2 -0.803615 6.78256 0
M  V30 16365 O 1576.89 -0.34503 8.03159 0
M  V30 16366 H 1576.62 -0.348676 0.579138 0
M  V30 16367 H 1579.17 -0.450113 2.00407 0
M  V30 16368 H 1577.4 -2.95798 2.49079 0
M  V30 16369 H 1579.09 -2.84575 2.89434 0
M  V30 16370 H 1579.86 -1.15254 4.71107 0
M  V30 16371 H 1575.74 -2.18962 4.0568 0
M  V30 16372 H 1579.28 -0.334251 6.96799 0
M  V30 16373 H 1575.18 -1.37673 6.30648 0
M  V30 16374 H 1575.95 -0.465743 8.17174 0
M  V30 16375 N 1578.61 -1.44039 -0.639573 0
M  V30 16376 C 1580.02 -1.41236 -1.22104 0
M  V30 16377 C 1580.37 -0.123367 -1.95812 0
M  V30 16378 O 1579.5 0.776641 -2.01983 0
M  V30 16379 C 1580.09 -2.55853 -2.22092 0
M  V30 16380 C 1578.65 -2.56271 -2.75685 0
M  V30 16381 C 1577.8 -2.32877 -1.50544 0
M  V30 16382 H 1580.75 -1.52742 -0.430756 0
M  V30 16383 H 1580.77 -2.28123 -3.04533 0
M  V30 16384 H 1580.28 -3.49653 -1.68417 0
M  V30 16385 H 1578.38 -1.66389 -3.33385 0
M  V30 16386 H 1578.5 -3.54486 -3.22299 0
M  V30 16387 H 1576.86 -1.81807 -1.78377 0
M  V30 16388 H 1577.64 -3.2878 -0.987845 0
M  V30 16389 N 1580.09 0.879207 -1.30796 0
M  V30 16390 C 1581.33 1.6456 -1.21242 0
M  V30 16391 C 1581.69 1.90642 0.227986 0
M  V30 16392 O 1582.89 2.65059 0.446875 0
M  V30 16393 C 1581.16 2.94576 -2.02386 0
M  V30 16394 S 1582.72 3.85508 -2.09592 0
M  V30 16395 H 1579.54 0.564732 -0.43197 0
M  V30 16396 H 1582.14 1.04314 -1.65345 0
M  V30 16397 H 1580.85 2.73322 -3.06142 0
M  V30 16398 H 1580.38 3.59852 -1.58966 0
M  V30 16399 H 1582.39 4.80777 -1.2275 0
M  V30 16400 N 1581.57 1.13606 1.09231 0
M  V30 16401 C 1582.8 0.922295 1.85206 0
M  V30 16402 C 1583.21 -0.528954 1.81239 0
M  V30 16403 O 1582.57 -1.36622 1.20999 0
M  V30 16404 C 1582.62 1.40453 3.331 0
M  V30 16405 O 1582.34 2.7989 3.37036 0
M  V30 16406 C 1583.84 1.22948 4.25909 0
M  V30 16407 H 1581.06 0.328757 0.584945 0
M  V30 16408 H 1583.6 1.50911 1.38007 0
M  V30 16409 H 1581.76 0.86066 3.77719 0
M  V30 16410 H 1582.17 3.01342 4.29294 0
M  V30 16411 H 1583.65 1.61562 5.27827 0
M  V30 16412 H 1584.12 0.171387 4.38865 0
M  V30 16413 H 1584.73 1.76147 3.87108 0
M  V30 16414 N 1583.05 -1.27244 0.929878 0
M  V30 16415 C 1584.29 -1.93559 0.567267 0
M  V30 16416 C 1584.61 -1.73864 -0.896138 0
M  V30 16417 O 1585.81 -2.34538 -1.36763 0
M  V30 16418 C 1584.27 -3.46756 0.963743 0
M  V30 16419 C 1583.88 -3.75204 2.44798 0
M  V30 16420 C 1585.62 -4.19139 0.672487 0
M  V30 16421 C 1583.53 -5.21787 2.78375 0
M  V30 16422 H 1582.46 -0.724617 0.208437 0
M  V30 16423 H 1585.11 -1.44502 1.13099 0
M  V30 16424 H 1583.49 -3.94634 0.328654 0
M  V30 16425 H 1584.67 -3.38075 3.13116 0
M  V30 16426 H 1582.98 -3.16029 2.71136 0
M  V30 16427 H 1585.58 -5.27074 0.899816 0
M  V30 16428 H 1585.92 -4.14466 -0.390378 0
M  V30 16429 H 1586.45 -3.77091 1.26678 0
M  V30 16430 H 1583.19 -5.31552 3.83579 0
M  V30 16431 H 1582.71 -5.60054 2.14708 0
M  V30 16432 H 1584.39 -5.89685 2.66234 0
M  V30 16433 N 1584.52 -0.695628 -1.41417 0
M  V30 16434 C 1585.75 -0.234163 -2.06074 0
M  V30 16435 C 1586.17 1.10796 -1.52006 0
M  V30 16436 O 1585.53 1.6936 -0.64705 0
M  V30 16437 C 1585.58 -0.202353 -3.60032 0
M  V30 16438 O 1584.68 0.822767 -4.04109 0
M  V30 16439 H 1584.02 -0.114395 -0.654072 0
M  V30 16440 H 1586.55 -0.950503 -1.81181 0
M  V30 16441 H 1586.56 -0.0332321 -4.07986 0
M  V30 16442 H 1585.24 -1.18188 -3.98754 0
M  V30 16443 H 1583.82 0.622995 -3.67659 0
M  V30 16444 N 1586 1.51322 -0.440383 0
M  V30 16445 C 1587.23 2.06231 0.12347 0
M  V30 16446 C 1587.64 1.30754 1.36748 0
M  V30 16447 O 1586.98 0.36135 1.80111 0
M  V30 16448 C 1587.04 3.55892 0.508059 0
M  V30 16449 C 1586.71 4.52643 -0.629572 0
M  V30 16450 C 1587.71 4.97712 -1.50261 0
M  V30 16451 C 1585.39 4.95707 -0.81117 0
M  V30 16452 C 1587.38 5.84522 -2.54191 0
M  V30 16453 C 1585.07 5.82305 -1.85374 0
M  V30 16454 C 1586.07 6.26611 -2.7175 0
M  V30 16455 O 1585.76 7.11489 -3.74217 0
M  V30 16456 H 1585.49 0.675926 0.0100034 0
M  V30 16457 H 1588.04 1.95846 -0.619156 0
M  V30 16458 H 1586.27 3.64071 1.30343 0
M  V30 16459 H 1587.96 3.93302 1.00342 0
M  V30 16460 H 1588.73 4.65135 -1.37386 0
M  V30 16461 H 1584.61 4.60761 -0.148423 0
M  V30 16462 H 1588.15 6.19025 -3.21643 0
M  V30 16463 H 1584.05 6.14296 -1.98268 0
M  V30 16464 H 1584.82 7.29674 -3.70834 0
M  V30 16465 N 1587.48 0.171848 1.5666 0
M  V30 16466 C 1588.89 -0.34479 1.83489 0
M  V30 16467 C 1589.24 -1.63025 1.09167 0
M  V30 16468 O 1588.37 -2.13634 0.34488 0
M  V30 16469 C 1588.96 -0.63234 3.32847 0
M  V30 16470 C 1587.52 -1.09342 3.60169 0
M  V30 16471 C 1586.67 -0.129569 2.76997 0
M  V30 16472 H 1589.62 0.396101 1.53677 0
M  V30 16473 H 1589.64 -1.48434 3.50354 0
M  V30 16474 H 1589.15 0.303409 3.86912 0
M  V30 16475 H 1587.25 -2.04425 3.11514 0
M  V30 16476 H 1587.37 -1.00221 4.685 0
M  V30 16477 H 1585.73 -0.627033 2.46861 0
M  V30 16478 H 1586.51 0.800211 3.33844 0
M  V30 16479 N 1588.96 -1.5727 -0.101874 0
M  V30 16480 C 1590.19 -1.89667 -0.81914 0
M  V30 16481 C 1590.6 -0.763027 -1.73132 0
M  V30 16482 O 1589.94 0.274317 -1.8164 0
M  V30 16483 C 1590 -3.17252 -1.6909 0
M  V30 16484 C 1589.66 -4.4699 -0.951257 0
M  V30 16485 C 1590.66 -5.19123 -0.28417 0
M  V30 16486 C 1588.35 -4.93665 -0.927349 0
M  V30 16487 C 1590.34 -6.36163 0.396934 0
M  V30 16488 C 1588.03 -6.10619 -0.242456 0
M  V30 16489 C 1589.03 -6.81717 0.418514 0
M  V30 16490 O 1588.71 -7.96443 1.09244 0
M  V30 16491 H 1588.45 -0.632024 -0.239836 0
M  V30 16492 H 1591 -2.05222 -0.0855979 0
M  V30 16493 H 1589.23 -2.97825 -2.46651 0
M  V30 16494 H 1590.92 -3.35533 -2.28413 0
M  V30 16495 H 1591.68 -4.84107 -0.294146 0
M  V30 16496 H 1587.56 -4.38219 -1.43126 0
M  V30 16497 H 1591.11 -6.91594 0.913417 0
M  V30 16498 H 1587 -6.45089 -0.230303 0
M  V30 16499 H 1587.77 -8.12385 0.998647 0
M  V30 16500 N 1590.44 0.372521 -1.53134 0
M  V30 16501 C 1591.66 1.14116 -1.73183 0
M  V30 16502 C 1592.09 1.82475 -0.456553 0
M  V30 16503 O 1591.44 1.71468 0.588919 0
M  V30 16504 C 1591.49 2.15241 -2.89316 0
M  V30 16505 O 1590.6 3.22178 -2.57439 0
M  V30 16506 H 1589.94 0.331442 -0.575362 0
M  V30 16507 H 1592.47 0.431769 -1.99992 0
M  V30 16508 H 1592.48 2.58961 -3.15283 0
M  V30 16509 H 1591.15 1.64877 -3.81822 0
M  V30 16510 H 1589.73 2.83481 -2.42267 0
M  V30 16511 N 1591.91 1.44376 0.631925 0
M  V30 16512 C 1592.85 1.47167 1.75711 0
M  V30 16513 C 1593.86 0.365158 1.58652 0
M  V30 16514 O 1595.05 0.630852 1.66981 0
M  V30 16515 C 1592.15 1.28916 3.13423 0
M  V30 16516 C 1591.32 2.52798 3.56948 0
M  V30 16517 C 1590.38 2.29458 4.73535 0
M  V30 16518 O 1589.41 3.02941 4.81887 0
M  V30 16519 N 1590.61 1.32467 5.65184 0
M  V30 16520 H 1593.37 2.44168 1.73788 0
M  V30 16521 H 1590.93 1.39805 0.816465 0
M  V30 16522 H 1592.93 1.1115 3.89137 0
M  V30 16523 H 1591.5 0.402828 3.09994 0
M  V30 16524 H 1590.72 2.85846 2.71451 0
M  V30 16525 H 1592 3.35198 3.82779 0
M  V30 16526 H 1591.4 0.717762 5.61128 0
M  V30 16527 H 1589.96 1.2068 6.40531 0
M  V30 16528 N 1593.39 -0.872258 1.31261 0
M  V30 16529 C 1594.32 -1.99517 1.21306 0
M  V30 16530 C 1595.3 -1.69801 0.100775 0
M  V30 16531 O 1596.49 -1.92098 0.284984 0
M  V30 16532 C 1593.62 -3.34968 0.917249 0
M  V30 16533 C 1592.57 -3.78984 1.98885 0
M  V30 16534 C 1591.9 -5.11869 1.54578 0
M  V30 16535 C 1593.2 -3.96338 3.40167 0
M  V30 16536 H 1594.89 -2.08104 2.15251 0
M  V30 16537 H 1592.44 -0.999865 1.03628 0
M  V30 16538 H 1594.39 -4.1306 0.834217 0
M  V30 16539 H 1593.11 -3.26549 -0.0578721 0
M  V30 16540 H 1591.77 -3.0313 2.06174 0
M  V30 16541 H 1591.42 -4.99889 0.558581 0
M  V30 16542 H 1591.12 -5.4229 2.26265 0
M  V30 16543 H 1592.65 -5.92472 1.47678 0
M  V30 16544 H 1594.06 -4.64831 3.35566 0
M  V30 16545 H 1592.46 -4.38153 4.10051 0
M  V30 16546 H 1593.53 -2.9979 3.81122 0
M  V30 16547 N 1594.87 -1.14184 -1.08627 0
M  V30 16548 C 1595.83 -0.82954 -2.13662 0
M  V30 16549 C 1596.83 0.164794 -1.59953 0
M  V30 16550 O 1598.02 -0.0632831 -1.74085 0
M  V30 16551 C 1595.15 -0.236176 -3.40081 0
M  V30 16552 H 1596.35 -1.76038 -2.42797 0
M  V30 16553 H 1593.9 -0.947568 -1.24301 0
M  V30 16554 H 1594.64 0.70349 -3.16578 0
M  V30 16555 H 1594.42 -0.952341 -3.80359 0
M  V30 16556 H 1595.91 -0.03481 -4.17585 0
M  V30 16557 N 1596.35 1.26749 -0.936613 0
M  V30 16558 C 1597.28 2.25684 -0.399941 0
M  V30 16559 C 1598.29 1.55739 0.474271 0
M  V30 16560 O 1599.48 1.76203 0.285454 0
M  V30 16561 C 1596.58 3.35969 0.444733 0
M  V30 16562 C 1595.76 4.35453 -0.412258 0
M  V30 16563 C 1594.81 5.24889 0.37123 0
M  V30 16564 O 1593.84 5.68758 -0.224162 0
M  V30 16565 N 1595.04 5.55993 1.66889 0
M  V30 16566 H 1597.81 2.72368 -1.25043 0
M  V30 16567 H 1595.37 1.40468 -0.805 0
M  V30 16568 H 1597.36 3.92751 0.976159 0
M  V30 16569 H 1595.93 2.88816 1.196 0
M  V30 16570 H 1595.15 3.77808 -1.12493 0
M  V30 16571 H 1596.44 4.9892 -0.997822 0
M  V30 16572 H 1595.84 5.22224 2.17481 0
M  V30 16573 H 1594.39 6.15436 2.14666 0
M  V30 16574 N 1597.83 0.703118 1.41046 0
M  V30 16575 C 1599.05 0.246552 2.05426 0
M  V30 16576 C 1599.47 -1.10704 1.52938 0
M  V30 16577 O 1598.83 -1.69329 0.680733 0
M  V30 16578 C 1598.88 0.203953 3.60924 0
M  V30 16579 O 1598.6 1.50408 4.11472 0
M  V30 16580 C 1600.1 -0.272686 4.42461 0
M  V30 16581 H 1597.32 0.113157 0.66139 0
M  V30 16582 H 1599.86 0.957823 1.80682 0
M  V30 16583 H 1598.02 -0.458194 3.84681 0
M  V30 16584 H 1598.43 1.39622 5.05575 0
M  V30 16585 H 1599.91 -0.251357 5.51427 0
M  V30 16586 H 1600.38 -1.31282 4.1912 0
M  V30 16587 H 1600.99 0.358733 4.23784 0
M  V30 16588 N 1599.3 -1.51086 0.448402 0
M  V30 16589 C 1600.53 -2.06593 -0.112695 0
M  V30 16590 C 1600.95 -1.31471 -1.35502 0
M  V30 16591 O 1600.3 -0.377406 -1.78555 0
M  V30 16592 C 1600.36 -3.59008 -0.423769 0
M  V30 16593 O 1600.08 -4.31293 0.769259 0
M  V30 16594 C 1601.58 -4.31064 -1.03433 0
M  V30 16595 H 1598.8 -0.670993 -0.00301626 0
M  V30 16596 H 1601.34 -1.94532 0.630667 0
M  V30 16597 H 1599.5 -3.70946 -1.11704 0
M  V30 16598 H 1599.91 -5.2211 0.500162 0
M  V30 16599 H 1601.38 -5.38756 -1.20191 0
M  V30 16600 H 1601.86 -3.90075 -2.01837 0
M  V30 16601 H 1602.47 -4.23598 -0.380115 0
M  V30 16602 N 1600.78 -0.180154 -1.56567 0
M  V30 16603 C 1602.03 0.46252 -1.97147 0
M  V30 16604 C 1602.36 1.62654 -1.06649 0
M  V30 16605 O 1601.61 1.95432 -0.102417 0
M  V30 16606 C 1601.91 0.978895 -3.43733 0
M  V30 16607 C 1601.58 -0.0701623 -4.50845 0
M  V30 16608 C 1600.24 -0.358456 -4.79863 0
M  V30 16609 C 1602.59 -0.781763 -5.15304 0
M  V30 16610 C 1599.92 -1.36359 -5.70634 0
M  V30 16611 C 1602.27 -1.77594 -6.0716 0
M  V30 16612 C 1600.94 -2.07159 -6.3454 0
M  V30 16613 H 1600.21 0.169248 -0.721413 0
M  V30 16614 H 1602.85 -0.273976 -1.8953 0
M  V30 16615 H 1601.16 1.79338 -3.48346 0
M  V30 16616 H 1602.85 1.4853 -3.72478 0
M  V30 16617 H 1599.44 0.164708 -4.28283 0
M  V30 16618 H 1603.63 -0.572254 -4.9299 0
M  V30 16619 H 1598.88 -1.59872 -5.90128 0
M  V30 16620 H 1603.06 -2.33265 -6.56171 0
M  V30 16621 H 1600.69 -2.85191 -7.04677 0
M  V30 16622 N 1602.26 1.57322 0.0935319 0
M  V30 16623 C 1603.51 1.87313 0.792794 0
M  V30 16624 C 1603.86 0.771181 1.76268 0
M  V30 16625 O 1603.15 -0.226679 1.90254 0
M  V30 16626 C 1603.35 3.21605 1.55901 0
M  V30 16627 C 1603.18 4.44758 0.66483 0
M  V30 16628 C 1601.95 5.04348 0.309971 0
M  V30 16629 C 1604.15 5.14292 -0.0288905 0
M  V30 16630 N 1602.13 6.11037 -0.592212 0
M  V30 16631 C 1603.5 6.14958 -0.789082 0
M  V30 16632 C 1605.55 4.97794 -0.102647 0
M  V30 16633 C 1604.26 7.00909 -1.61614 0
M  V30 16634 C 1606.28 5.84254 -0.916612 0
M  V30 16635 C 1605.64 6.84441 -1.66492 0
M  V30 16636 H 1601.74 0.735289 0.266222 0
M  V30 16637 H 1604.33 1.94622 0.0552534 0
M  V30 16638 H 1602.5 3.15345 2.26742 0
M  V30 16639 H 1604.23 3.39317 2.20559 0
M  V30 16640 H 1600.99 4.69007 0.65798 0
M  V30 16641 H 1601.41 6.69028 -1.0359 0
M  V30 16642 H 1606.05 4.20273 0.461548 0
M  V30 16643 H 1603.77 7.7782 -2.1914 0
M  V30 16644 H 1607.36 5.73549 -0.976374 0
M  V30 16645 H 1606.24 7.50183 -2.28461 0
M  V30 16646 N 1603.74 -0.364395 1.53329 0
M  V30 16647 C 1604.67 -1.45243 1.8283 0
M  V30 16648 C 1605.65 -1.55834 0.681886 0
M  V30 16649 O 1606.83 -1.70383 0.931845 0
M  V30 16650 C 1603.96 -2.82565 2.01926 0
M  V30 16651 C 1602.92 -2.86797 3.17697 0
M  V30 16652 C 1602.24 -4.26806 3.22089 0
M  V30 16653 C 1603.54 -2.54212 4.56261 0
M  V30 16654 H 1605.24 -1.20804 2.73946 0
M  V30 16655 H 1602.78 -0.579705 1.31816 0
M  V30 16656 H 1604.74 -3.58709 2.21147 0
M  V30 16657 H 1603.46 -3.08394 1.07521 0
M  V30 16658 H 1602.12 -2.13105 2.98298 0
M  V30 16659 H 1601.77 -4.49712 2.25318 0
M  V30 16660 H 1601.47 -4.30553 3.99873 0
M  V30 16661 H 1602.99 -5.04821 3.43495 0
M  V30 16662 H 1604.41 -3.20069 4.75635 0
M  V30 16663 H 1602.8 -2.69273 5.36295 0
M  V30 16664 H 1603.87 -1.49458 4.61292 0
M  V30 16665 N 1605.22 -1.44709 -0.62426 0
M  V30 16666 C 1606.63 -1.28747 -0.9432 0
M  V30 16667 C 1606.83 -0.228265 -2.00203 0
M  V30 16668 O 1605.89 0.383506 -2.49571 0
M  V30 16669 C 1607.2 -2.66124 -1.39995 0
M  V30 16670 C 1608.75 -2.73889 -1.51506 0
M  V30 16671 C 1609.22 -4.11751 -2.00562 0
M  V30 16672 N 1610.72 -4.13962 -2.07821 0
M  V30 16673 C 1611.45 -5.1749 -2.46964 0
M  V30 16674 N 1610.95 -6.31376 -2.85195 0
M  V30 16675 N 1612.74 -5.04846 -2.47158 0
M  V30 16676 H 1604.89 -2.12264 0.0758746 0
M  V30 16677 H 1607.15 -0.947566 -0.0286915 0
M  V30 16678 H 1606.86 -3.4474 -0.696203 0
M  V30 16679 H 1606.73 -2.93474 -2.36967 0
M  V30 16680 H 1609.12 -1.95587 -2.20975 0
M  V30 16681 H 1609.2 -2.50272 -0.528911 0
M  V30 16682 H 1608.85 -4.90532 -1.31685 0
M  V30 16683 H 1608.78 -4.32749 -3.0006 0
M  V30 16684 H 1611.27 -3.31771 -1.80933 0
M  V30 16685 H 1611.58 -7.06179 -3.13896 0
M  V30 16686 H 1609.92 -6.34804 -2.8293 0
M  V30 16687 H 1613.12 -4.14927 -2.16686 0
M  V30 16688 H 1613.29 -5.85651 -2.77339 0
M  V30 16689 N 1606.69 0.865285 -1.31722 0
M  V30 16690 C 1607.66 1.95449 -1.19718 0
M  V30 16691 C 1608.66 1.60329 -0.123025 0
M  V30 16692 O 1609.85 1.70168 -0.372643 0
M  V30 16693 C 1606.98 3.30421 -0.838718 0
M  V30 16694 H 1608.17 2.07522 -2.16506 0
M  V30 16695 H 1605.73 1.05416 -1.154 0
M  V30 16696 H 1606.46 3.24048 0.127797 0
M  V30 16697 H 1606.25 3.57286 -1.61522 0
M  V30 16698 H 1607.74 4.10274 -0.77876 0
M  V30 16699 N 1608.17 1.14759 1.0802 0
M  V30 16700 C 1609.4 0.940521 1.8395 0
M  V30 16701 C 1609.81 -0.514424 1.82072 0
M  V30 16702 O 1609.15 -1.36835 1.22564 0
M  V30 16703 C 1609.22 1.3689 3.32417 0
M  V30 16704 C 1608.88 2.84019 3.58025 0
M  V30 16705 C 1609.88 3.82117 3.52538 0
M  V30 16706 C 1607.56 3.21526 3.85909 0
M  V30 16707 C 1609.56 5.15728 3.74571 0
M  V30 16708 C 1607.24 4.55312 4.07596 0
M  V30 16709 C 1608.24 5.52222 4.01921 0
M  V30 16710 O 1607.93 6.83592 4.23034 0
M  V30 16711 H 1607.66 0.334505 0.587437 0
M  V30 16712 H 1610.21 1.52763 1.37305 0
M  V30 16713 H 1608.44 0.725149 3.7984 0
M  V30 16714 H 1610.13 1.13202 3.89795 0
M  V30 16715 H 1610.9 3.54486 3.31005 0
M  V30 16716 H 1606.78 2.46686 3.89444 0
M  V30 16717 H 1610.32 5.91357 3.70057 0
M  V30 16718 H 1606.22 4.82661 4.28613 0
M  V30 16719 H 1606.99 6.89909 4.40418 0
M  V30 16720 N 1609.65 -1.26251 0.943322 0
M  V30 16721 C 1610.9 -1.93652 0.592032 0
M  V30 16722 C 1611.23 -1.73996 -0.869234 0
M  V30 16723 O 1610.48 -1.07165 -1.6375 0
M  V30 16724 C 1610.78 -3.46316 0.883167 0
M  V30 16725 C 1610.45 -3.86115 2.32866 0
M  V30 16726 C 1609.11 -3.9669 2.72379 0
M  V30 16727 C 1611.46 -4.06025 3.26792 0
M  V30 16728 C 1608.79 -4.24575 4.04911 0
M  V30 16729 C 1611.14 -4.35399 4.58923 0
M  V30 16730 C 1609.8 -4.4419 4.98248 0
M  V30 16731 H 1609.07 -0.708624 0.21664 0
M  V30 16732 H 1611.72 -1.50019 1.19023 0
M  V30 16733 H 1610.03 -3.91277 0.202452 0
M  V30 16734 H 1611.72 -3.96634 0.590108 0
M  V30 16735 H 1608.31 -3.78431 2.01217 0
M  V30 16736 H 1612.5 -3.9728 2.9746 0
M  V30 16737 H 1607.75 -4.29594 4.35039 0
M  V30 16738 H 1611.93 -4.49751 5.31692 0
M  V30 16739 H 1609.55 -4.65551 6.00971 0
M  V30 16740 N 1611.13 -0.710588 -1.40671 0
M  V30 16741 C 1612.35 -0.256007 -2.05814 0
M  V30 16742 C 1612.78 1.09178 -1.53173 0
M  V30 16743 O 1612.14 1.68665 -0.664977 0
M  V30 16744 C 1612.19 -0.240528 -3.59797 0
M  V30 16745 O 1611.29 0.779859 -4.04959 0
M  V30 16746 H 1610.63 -0.121326 -0.652822 0
M  V30 16747 H 1613.16 -0.969667 -1.80163 0
M  V30 16748 H 1613.17 -0.0765027 -4.07928 0
M  V30 16749 H 1611.85 -1.22411 -3.97478 0
M  V30 16750 H 1610.42 0.583965 -3.68299 0
M  V30 16751 N 1612.61 1.50847 -0.456408 0
M  V30 16752 C 1613.54 2.26004 0.381421 0
M  V30 16753 C 1614.55 1.30757 0.969872 0
M  V30 16754 O 1615.74 1.56375 0.86077 0
M  V30 16755 C 1612.84 3.01506 1.54748 0
M  V30 16756 C 1612.01 4.23997 1.07448 0
M  V30 16757 C 1611.07 4.81917 2.11288 0
M  V30 16758 O 1610.1 5.43238 1.69945 0
M  V30 16759 N 1611.3 4.67622 3.43962 0
M  V30 16760 H 1614.07 2.98545 -0.262823 0
M  V30 16761 H 1611.63 1.59347 -0.286357 0
M  V30 16762 H 1613.62 3.37137 2.23877 0
M  V30 16763 H 1612.19 2.31856 2.0967 0
M  V30 16764 H 1611.41 3.93642 0.209584 0
M  V30 16765 H 1612.7 5.03446 0.736144 0
M  V30 16766 H 1612.1 4.18821 3.8027 0
M  V30 16767 H 1610.65 5.07562 4.0893 0
M  V30 16768 N 1614.09 0.188454 1.56469 0
M  V30 16769 C 1615.5 -0.325309 1.83844 0
M  V30 16770 C 1615.85 -1.61858 1.1089 0
M  V30 16771 O 1614.97 -2.13256 0.36752 0
M  V30 16772 C 1615.57 -0.597002 3.33499 0
M  V30 16773 C 1614.13 -1.05515 3.61308 0
M  V30 16774 C 1613.27 -0.100182 2.77119 0
M  V30 16775 H 1616.22 0.412378 1.53249 0
M  V30 16776 H 1616.25 -1.44709 3.51908 0
M  V30 16777 H 1615.76 0.344429 3.86569 0
M  V30 16778 H 1613.86 -2.01109 3.13665 0
M  V30 16779 H 1613.97 -0.952461 4.69537 0
M  V30 16780 H 1612.34 -0.600815 2.47512 0
M  V30 16781 H 1613.12 0.835574 3.32976 0
M  V30 16782 N 1615.56 -1.5737 -0.0851874 0
M  V30 16783 C 1616.5 -1.98027 -1.13404 0
M  V30 16784 C 1617.47 -0.855036 -1.38304 0
M  V30 16785 O 1618.66 -1.11619 -1.51899 0
M  V30 16786 C 1615.79 -2.30553 -2.48119 0
M  V30 16787 C 1614.83 -3.52947 -2.39438 0
M  V30 16788 S 1615.66 -5.04293 -1.80136 0
M  V30 16789 C 1616.82 -5.40006 -3.16456 0
M  V30 16790 H 1617.05 -2.86681 -0.787488 0
M  V30 16791 H 1614.59 -1.5159 -0.293234 0
M  V30 16792 H 1616.54 -2.49968 -3.25617 0
M  V30 16793 H 1615.21 -1.42452 -2.7994 0
M  V30 16794 H 1614.4 -3.73179 -3.38753 0
M  V30 16795 H 1614 -3.33094 -1.70072 0
M  V30 16796 H 1616.29 -5.37257 -4.12748 0
M  V30 16797 H 1617.24 -6.40932 -3.01018 0
M  V30 16798 H 1617.64 -4.67465 -3.16444 0
M  V30 16799 N 1617.04 0.356258 -1.53521 0
M  V30 16800 C 1618.29 1.09953 -1.70406 0
M  V30 16801 C 1618.62 1.8869 -0.459304 0
M  V30 16802 O 1617.9 1.86751 0.54354 0
M  V30 16803 C 1618.18 2.05114 -2.95973 0
M  V30 16804 C 1618.03 1.29924 -4.30627 0
M  V30 16805 C 1619.35 3.0511 -3.17168 0
M  V30 16806 H 1616.47 0.398343 -0.620074 0
M  V30 16807 H 1619.11 0.379376 -1.86174 0
M  V30 16808 H 1617.26 2.66524 -2.82661 0
M  V30 16809 H 1618.93 0.71226 -4.55768 0
M  V30 16810 H 1617.18 0.601141 -4.29615 0
M  V30 16811 H 1617.85 1.99624 -5.1464 0
M  V30 16812 H 1620.32 2.53809 -3.29728 0
M  V30 16813 H 1619.2 3.68908 -4.06445 0
M  V30 16814 H 1619.46 3.75794 -2.32876 0
M  V30 16815 N 1618.52 1.45038 0.616577 0
M  V30 16816 C 1619.48 1.52647 1.70973 0
M  V30 16817 C 1620.48 0.406902 1.55567 0
M  V30 16818 O 1621.67 0.670062 1.60797 0
M  V30 16819 C 1618.8 1.41438 3.10174 0
M  V30 16820 H 1620 2.50036 1.65596 0
M  V30 16821 H 1617.55 1.32346 0.831524 0
M  V30 16822 H 1618.29 0.451991 3.21135 0
M  V30 16823 H 1618.07 2.22634 3.22764 0
M  V30 16824 H 1619.56 1.49776 3.89817 0
M  V30 16825 N 1620 -0.858287 1.32179 0
M  V30 16826 C 1620.96 -1.94811 1.20753 0
M  V30 16827 C 1621.96 -1.60261 0.131526 0
M  V30 16828 O 1623.15 -1.69968 0.381662 0
M  V30 16829 C 1620.28 -3.29972 0.856229 0
M  V30 16830 H 1621.48 -2.06371 2.17603 0
M  V30 16831 H 1619.03 -1.04802 1.15958 0
M  V30 16832 H 1619.76 -3.24111 -0.11061 0
M  V30 16833 H 1619.55 -3.56424 1.63414 0
M  V30 16834 H 1621.04 -4.09856 0.800507 0
M  V30 16835 N 1621.48 -1.1533 -1.07409 0
M  V30 16836 C 1622.44 -0.852155 -2.1277 0
M  V30 16837 C 1623.44 0.14782 -1.60119 0
M  V30 16838 O 1624.63 -0.0817436 -1.74008 0
M  V30 16839 C 1621.76 -0.272233 -3.39811 0
M  V30 16840 H 1622.95 -1.78604 -2.40917 0
M  V30 16841 H 1620.51 -0.960698 -1.23289 0
M  V30 16842 H 1621.24 0.669873 -3.17306 0
M  V30 16843 H 1621.03 -0.992629 -3.79327 0
M  V30 16844 H 1622.52 -0.0790986 -4.17525 0
M  V30 16845 N 1622.95 1.25748 -0.950004 0
M  V30 16846 C 1624.2 1.93622 -0.603186 0
M  V30 16847 C 1624.53 1.74271 0.856925 0
M  V30 16848 O 1623.81 1.08502 1.61423 0
M  V30 16849 C 1624.09 3.4715 -0.957024 0
M  V30 16850 C 1623.94 3.75747 -2.47253 0
M  V30 16851 C 1625.26 4.37488 -0.478754 0
M  V30 16852 H 1622.38 0.703206 -0.220612 0
M  V30 16853 H 1625.02 1.48453 -1.18582 0
M  V30 16854 H 1623.17 3.85753 -0.46122 0
M  V30 16855 H 1624.85 3.46808 -3.04174 0
M  V30 16856 H 1623.09 3.21516 -2.91222 0
M  V30 16857 H 1623.76 4.83097 -2.67061 0
M  V30 16858 H 1626.24 4.06162 -0.903987 0
M  V30 16859 H 1625.11 5.43682 -0.755073 0
M  V30 16860 H 1625.37 4.37712 0.621303 0
M  V30 16861 N 1624.43 0.718038 1.40292 0
M  V30 16862 C 1625.68 0.255581 2.00074 0
M  V30 16863 C 1625.99 -1.15859 1.57594 0
M  V30 16864 O 1627.2 -1.71969 2.10092 0
M  V30 16865 C 1625.66 0.406019 3.57602 0
M  V30 16866 C 1625.26 1.82699 4.09054 0
M  V30 16867 C 1627.01 0.00447854 4.245 0
M  V30 16868 C 1624.91 1.92788 5.59094 0
M  V30 16869 H 1623.84 0.0918012 0.748391 0
M  V30 16870 H 1626.5 0.88948 1.60501 0
M  V30 16871 H 1624.88 -0.296504 3.94888 0
M  V30 16872 H 1626.05 2.56009 3.8314 0
M  V30 16873 H 1624.37 2.18021 3.54761 0
M  V30 16874 H 1626.96 0.05911 5.34667 0
M  V30 16875 H 1627.31 -1.03779 4.03157 0
M  V30 16876 H 1627.84 0.657535 3.92328 0
M  V30 16877 H 1624.58 2.95145 5.85295 0
M  V30 16878 H 1624.1 1.23893 5.86865 0
M  V30 16879 H 1625.78 1.70114 6.24236 0
M  V30 16880 N 1625.91 -1.50602 0.464402 0
M  V30 16881 C 1627.16 -2.02587 -0.0930295 0
M  V30 16882 C 1627.49 -1.34618 -1.3997 0
M  V30 16883 O 1626.76 -0.469711 -1.88743 0
M  V30 16884 C 1627.05 -3.5898 -0.283783 0
M  V30 16885 C 1626.9 -4.3753 1.04344 0
M  V30 16886 C 1628.22 -4.27602 -1.04138 0
M  V30 16887 H 1625.34 -0.73629 -0.0323356 0
M  V30 16888 H 1627.98 -1.79986 0.608687 0
M  V30 16889 H 1626.13 -3.78368 -0.881488 0
M  V30 16890 H 1627.8 -4.29729 1.67721 0
M  V30 16891 H 1626.05 -4.01536 1.64168 0
M  V30 16892 H 1626.72 -5.45201 0.863691 0
M  V30 16893 H 1629.19 -4.12649 -0.534822 0
M  V30 16894 H 1628.07 -5.36854 -1.14364 0
M  V30 16895 H 1628.33 -3.9031 -2.0763 0
M  V30 16896 N 1627.39 -0.19675 -1.56367 0
M  V30 16897 C 1628.34 0.736299 -2.15784 0
M  V30 16898 C 1629.32 1.17513 -1.09907 0
M  V30 16899 O 1630.51 1.13325 -1.35965 0
M  V30 16900 C 1627.64 1.95491 -2.82202 0
M  V30 16901 C 1626.73 1.5369 -3.95272 0
M  V30 16902 N 1627.12 0.829952 -4.98944 0
M  V30 16903 C 1625.42 1.82607 -4.06904 0
M  V30 16904 C 1626.12 0.620262 -5.78384 0
M  V30 16905 N 1625.1 1.16949 -5.30871 0
M  V30 16906 H 1628.9 0.187476 -2.93301 0
M  V30 16907 H 1626.41 0.0029757 -1.624 0
M  V30 16908 H 1628.41 2.63384 -3.23163 0
M  V30 16909 H 1627.07 2.50844 -2.06173 0
M  V30 16910 H 1628.08 0.485245 -5.15622 0
M  V30 16911 H 1624.76 2.39457 -3.42004 0
M  V30 16912 H 1626.15 0.0593437 -6.71874 0
M  V30 16913 N 1628.87 1.57413 0.0768405 0
M  V30 16914 C 1629.8 2.06378 1.09226 0
M  V30 16915 C 1630.78 0.956269 1.40675 0
M  V30 16916 O 1631.96 1.22868 1.5039 0
M  V30 16917 C 1629.09 2.50349 2.40712 0
M  V30 16918 C 1628.05 3.64931 2.23628 0
M  V30 16919 C 1627.37 3.9494 3.60453 0
M  V30 16920 C 1628.67 4.95162 1.66169 0
M  V30 16921 H 1630.37 2.91463 0.684827 0
M  V30 16922 H 1627.91 1.40215 0.327974 0
M  V30 16923 H 1629.87 2.83216 3.12036 0
M  V30 16924 H 1628.59 1.62287 2.83426 0
M  V30 16925 H 1627.25 3.32339 1.54747 0
M  V30 16926 H 1626.9 3.04016 4.00728 0
M  V30 16927 H 1626.6 4.72091 3.49863 0
M  V30 16928 H 1628.12 4.30299 4.33215 0
M  V30 16929 H 1629.53 5.26292 2.27353 0
M  V30 16930 H 1627.93 5.76601 1.66289 0
M  V30 16931 H 1629 4.80885 0.62271 0
M  V30 16932 N 1630.34 -0.348112 1.53707 0
M  V30 16933 C 1631.59 -1.09048 1.70987 0
M  V30 16934 C 1631.92 -1.88444 0.469305 0
M  V30 16935 O 1631.2 -1.87037 -0.533629 0
M  V30 16936 C 1631.48 -2.03542 2.97057 0
M  V30 16937 C 1631.33 -1.27638 4.3131 0
M  V30 16938 C 1632.65 -3.03424 3.18782 0
M  V30 16939 H 1629.77 -0.395049 0.622178 0
M  V30 16940 H 1632.41 -0.369498 1.86373 0
M  V30 16941 H 1630.56 -2.65021 2.8407 0
M  V30 16942 H 1632.24 -0.688079 4.56139 0
M  V30 16943 H 1630.48 -0.578349 4.29927 0
M  V30 16944 H 1631.15 -1.96891 5.15692 0
M  V30 16945 H 1633.63 -2.52056 3.31069 0
M  V30 16946 H 1632.5 -3.66748 4.08396 0
M  V30 16947 H 1632.76 -3.74553 2.34866 0
M  V30 16948 N 1631.82 -1.45363 -0.608876 0
M  V30 16949 C 1633.05 -1.52836 -1.39459 0
M  V30 16950 C 1633.47 -0.160537 -1.88116 0
M  V30 16951 O 1632.82 0.837671 -1.6214 0
M  V30 16952 C 1632.87 -2.51168 -2.59994 0
M  V30 16953 O 1632.59 -3.82635 -2.13359 0
M  V30 16954 C 1634.1 -2.68326 -3.52868 0
M  V30 16955 H 1631.32 -0.51765 -0.426942 0
M  V30 16956 H 1633.86 -1.90538 -0.742674 0
M  V30 16957 H 1632.01 -2.16542 -3.2123 0
M  V30 16958 H 1632.43 -4.35927 -2.91665 0
M  V30 16959 H 1633.9 -3.41109 -4.33992 0
M  V30 16960 H 1634.38 -1.74317 -4.03126 0
M  V30 16961 H 1634.99 -3.03943 -2.97487 0
M  V30 16962 N 1633.3 0.851265 -1.32632 0
M  V30 16963 C 1634.58 1.58945 -1.13999 0
M  V30 16964 C 1634.96 2.08981 0.29836 0
M  V30 16965 O 1634.31 1.88226 1.2955 0
M  V30 16966 C 1634.52 2.73296 -2.17049 0
M  V30 16967 C 1635.86 3.42791 -2.50559 0
M  V30 16968 O 1636.89 2.83524 -2.15621 0
M  V30 16969 O 1635.75 4.49749 -3.10464 0
M  V30 16970 H 1632.84 0.700157 -0.440124 0
M  V30 16971 H 1635.39 0.895098 -1.44174 0
M  V30 16972 H 1634.16 2.33873 -3.13718 0
M  V30 16973 H 1633.78 3.50405 -1.87888 0
M  V30 16974 N 1634.78 1.15898 1.06796 0
M  V30 16975 C 1636.03 0.935488 1.79145 0
M  V30 16976 C 1636.35 -0.538433 1.87419 0
M  V30 16977 O 1635.62 -1.39124 1.37917 0
M  V30 16978 H 1634.2 0.343123 0.663533 0
M  V30 16979 H 1636.86 1.4607 1.29034 0
M  V30 16980 H 1635.96 1.34978 2.81402 0
M  V30 16981 N 1636.26 -1.25243 0.956659 0
M  V30 16982 C 1637.48 -1.97082 0.629791 0
M  V30 16983 C 1637.9 -1.71082 -0.798529 0
M  V30 16984 O 1637.26 -0.98805 -1.5344 0
M  V30 16985 C 1637.31 -3.5059 0.881406 0
M  V30 16986 O 1637.03 -3.75694 2.25356 0
M  V30 16987 C 1638.53 -4.39656 0.567203 0
M  V30 16988 H 1635.75 -0.628152 0.235938 0
M  V30 16989 H 1638.29 -1.5936 1.28159 0
M  V30 16990 H 1636.45 -3.86416 0.27599 0
M  V30 16991 H 1636.86 -4.70142 2.32523 0
M  V30 16992 H 1638.34 -5.46263 0.793785 0
M  V30 16993 H 1638.81 -4.36364 -0.498287 0
M  V30 16994 H 1639.42 -4.094 1.15203 0
M  V30 16995 N 1637.73 -0.725468 -1.3991 0
M  V30 16996 C 1638.96 -0.278797 -2.0471 0
M  V30 16997 C 1639.37 1.08796 -1.54791 0
M  V30 16998 O 1638.72 1.69685 -0.703763 0
M  V30 16999 C 1638.78 -0.191732 -3.58988 0
M  V30 17000 C 1638.44 -1.49539 -4.31842 0
M  V30 17001 C 1639.44 -2.43925 -4.59126 0
M  V30 17002 C 1637.12 -1.75705 -4.70567 0
M  V30 17003 C 1639.12 -3.62717 -5.24133 0
M  V30 17004 C 1636.8 -2.94776 -5.35304 0
M  V30 17005 C 1637.8 -3.88104 -5.62018 0
M  V30 17006 O 1637.49 -5.05085 -6.25415 0
M  V30 17007 H 1637.22 -0.121262 -0.665035 0
M  V30 17008 H 1639.78 -0.987188 -1.80122 0
M  V30 17009 H 1638.01 0.572683 -3.82436 0
M  V30 17010 H 1639.7 0.22168 -4.05294 0
M  V30 17011 H 1640.46 -2.24977 -4.29663 0
M  V30 17012 H 1636.34 -1.03912 -4.49136 0
M  V30 17013 H 1639.88 -4.35579 -5.44901 0
M  V30 17014 H 1635.78 -3.13629 -5.64187 0
M  V30 17015 H 1636.55 -5.05294 -6.4391 0
M  V30 17016 N 1639.21 1.50354 -0.472382 0
M  V30 17017 C 1640.44 2.06446 0.0796976 0
M  V30 17018 C 1640.85 1.33626 1.33943 0
M  V30 17019 O 1640.19 0.399473 1.79304 0
M  V30 17020 C 1640.26 3.56889 0.432455 0
M  V30 17021 C 1639.92 4.51205 -0.725443 0
M  V30 17022 C 1640.92 4.94413 -1.60784 0
M  V30 17023 C 1638.6 4.93875 -0.916135 0
M  V30 17024 C 1640.6 5.78998 -2.66533 0
M  V30 17025 C 1638.28 5.78242 -1.97684 0
M  V30 17026 C 1639.28 6.20706 -2.8498 0
M  V30 17027 O 1638.97 7.03391 -3.89224 0
M  V30 17028 H 1638.7 0.675986 -0.00433625 0
M  V30 17029 H 1641.25 1.94489 -0.660558 0
M  V30 17030 H 1639.48 3.66754 1.22591 0
M  V30 17031 H 1641.17 3.95342 0.919769 0
M  V30 17032 H 1641.94 4.62116 -1.47221 0
M  V30 17033 H 1637.82 4.60343 -0.246124 0
M  V30 17034 H 1641.36 6.12063 -3.34701 0
M  V30 17035 H 1637.26 6.09953 -2.11254 0
M  V30 17036 H 1638.03 7.21644 -3.86229 0
M  V30 17037 N 1640.69 0.205039 1.56261 0
M  V30 17038 C 1641.94 -0.430245 1.97467 0
M  V30 17039 C 1642.26 -1.6146 1.09342 0
M  V30 17040 O 1641.53 -1.95188 0.166836 0
M  V30 17041 H 1640.11 -0.161945 0.729234 0
M  V30 17042 H 1642.77 0.294089 1.92668 0
M  V30 17043 H 1641.87 -0.767699 3.02511 0
M  V30 17044 N 1642.17 -1.57451 -0.0684915 0
M  V30 17045 C 1643.45 -1.78483 -0.800209 0
M  V30 17046 C 1643.83 -0.793438 -1.95621 0
M  V30 17047 O 1643.17 0.172756 -2.27846 0
M  V30 17048 C 1643.38 -3.25069 -1.27008 0
M  V30 17049 C 1644.73 -3.8899 -1.70212 0
M  V30 17050 O 1645.76 -3.2898 -1.36566 0
M  V30 17051 O 1644.62 -4.94569 -2.32515 0
M  V30 17052 H 1641.71 -0.732598 -0.383704 0
M  V30 17053 H 1644.26 -1.69631 -0.0483117 0
M  V30 17054 H 1643.03 -3.88784 -0.443067 0
M  V30 17055 H 1642.65 -3.38657 -2.08319 0
M  V30 17056 N 1643.65 0.339955 -1.5389 0
M  V30 17057 C 1644.58 1.43837 -1.78448 0
M  V30 17058 C 1645.59 1.48559 -0.665885 0
M  V30 17059 O 1646.78 1.51577 -0.942686 0
M  V30 17060 C 1643.88 2.82474 -1.87248 0
M  V30 17061 C 1643.05 3.01149 -3.17219 0
M  V30 17062 C 1642.11 4.20049 -3.16931 0
M  V30 17063 O 1641.14 4.13994 -3.90638 0
M  V30 17064 N 1642.34 5.28767 -2.39553 0
M  V30 17065 H 1645.11 1.2314 -2.73234 0
M  V30 17066 H 1642.67 0.529855 -1.52984 0
M  V30 17067 H 1644.66 3.60196 -1.84502 0
M  V30 17068 H 1643.23 2.96297 -0.996322 0
M  V30 17069 H 1642.45 2.10867 -3.3306 0
M  V30 17070 H 1643.74 3.10511 -4.03063 0
M  V30 17071 H 1643.14 5.36557 -1.79228 0
M  V30 17072 H 1641.69 6.04969 -2.42601 0
M  V30 17073 N 1645.13 1.45684 0.601159 0
M  V30 17074 C 1646.07 1.54846 1.71147 0
M  V30 17075 C 1647.04 0.393914 1.61361 0
M  V30 17076 O 1648.23 0.608222 1.80846 0
M  V30 17077 C 1645.37 1.52723 3.09467 0
M  V30 17078 C 1644.48 2.78776 3.30012 0
M  V30 17079 C 1643.62 2.68281 4.58474 0
M  V30 17080 C 1642.65 3.89358 4.72299 0
M  V30 17081 N 1641.79 3.77359 5.92068 0
M  V30 17082 H 1646.63 2.49696 1.62653 0
M  V30 17083 H 1644.17 1.23894 0.793006 0
M  V30 17084 H 1646.13 1.49479 3.89502 0
M  V30 17085 H 1644.76 0.614189 3.16903 0
M  V30 17086 H 1643.81 2.9208 2.43708 0
M  V30 17087 H 1645.12 3.68563 3.36099 0
M  V30 17088 H 1644.27 2.63039 5.46713 0
M  V30 17089 H 1643.01 1.76103 4.54795 0
M  V30 17090 H 1642.02 3.94952 3.82482 0
M  V30 17091 H 1643.24 4.82609 4.77771 0
M  V30 17092 H 1641.19 2.87955 5.89422 0
M  V30 17093 H 1641.11 4.60786 5.99343 0
M  V30 17094 H 1642.37 3.76061 6.82787 0
M  V30 17095 N 1646.6 -0.84422 1.33082 0
M  V30 17096 C 1647.54 -1.96055 1.18722 0
M  V30 17097 C 1648.55 -1.62361 0.119538 0
M  V30 17098 O 1649.74 -1.74634 0.369469 0
M  V30 17099 C 1646.84 -3.29387 0.797318 0
M  V30 17100 C 1646.01 -3.91253 1.95551 0
M  V30 17101 C 1645.07 -5.02932 1.54745 0
M  V30 17102 O 1644.1 -5.22367 2.26101 0
M  V30 17103 N 1645.3 -5.78758 0.449394 0
M  V30 17104 H 1648.06 -2.08912 2.14886 0
M  V30 17105 H 1645.62 -1.01966 1.25756 0
M  V30 17106 H 1647.62 -4.01517 0.506536 0
M  V30 17107 H 1646.19 -3.12514 -0.0734775 0
M  V30 17108 H 1645.41 -3.11779 2.41221 0
M  V30 17109 H 1646.69 -4.2932 2.73061 0
M  V30 17110 H 1646.09 -5.65516 -0.14428 0
M  V30 17111 H 1644.65 -6.51434 0.218264 0
M  V30 17112 N 1648.08 -1.16463 -1.0618 0
M  V30 17113 C 1648.99 -0.886601 -2.17202 0
M  V30 17114 C 1650.01 0.141568 -1.73423 0
M  V30 17115 O 1651.18 -0.0353417 -2.01369 0
M  V30 17116 C 1648.25 -0.392829 -3.44467 0
M  V30 17117 C 1647.31 -1.48636 -4.02748 0
M  V30 17118 C 1646.54 -1.01606 -5.23939 0
M  V30 17119 O 1646.77 0.133753 -5.70243 0
M  V30 17120 O 1645.7 -1.80487 -5.74202 0
M  V30 17121 H 1649.53 -1.81502 -2.43497 0
M  V30 17122 H 1647.11 -0.944691 -1.15741 0
M  V30 17123 H 1648.99 -0.124501 -4.21216 0
M  V30 17124 H 1647.67 0.507566 -3.19696 0
M  V30 17125 H 1646.57 -1.80845 -3.27484 0
M  V30 17126 H 1647.91 -2.3621 -4.31817 0
M  V30 17127 N 1649.56 1.24734 -0.963288 0
M  V30 17128 C 1650.79 1.96745 -0.640234 0
M  V30 17129 C 1651.2 1.71503 0.789445 0
M  V30 17130 O 1650.56 0.996174 1.52914 0
M  V30 17131 C 1650.61 3.50118 -0.899987 0
M  V30 17132 O 1650.33 3.74494 -2.27346 0
M  V30 17133 C 1651.83 4.39349 -0.590511 0
M  V30 17134 H 1649.05 0.626892 -0.239266 0
M  V30 17135 H 1651.6 1.58678 -1.29002 0
M  V30 17136 H 1649.75 3.86264 -0.296478 0
M  V30 17137 H 1650.17 4.68902 -2.35013 0
M  V30 17138 H 1651.64 5.45834 -0.822744 0
M  V30 17139 H 1652.12 4.36622 0.475138 0
M  V30 17140 H 1652.72 4.08783 -1.17373 0
M  V30 17141 N 1651.04 0.732878 1.39523 0
M  V30 17142 C 1652.29 0.276787 1.99792 0
M  V30 17143 C 1652.6 -1.14181 1.58814 0
M  V30 17144 O 1653.81 -1.69731 2.11905 0
M  V30 17145 C 1652.26 0.443924 3.57152 0
M  V30 17146 C 1651.87 1.87027 4.07093 0
M  V30 17147 C 1653.61 0.0495022 4.24471 0
M  V30 17148 C 1651.52 1.98708 5.57018 0
M  V30 17149 H 1650.45 0.0997337 0.747375 0
M  V30 17150 H 1653.1 0.906454 1.59548 0
M  V30 17151 H 1651.48 -0.254605 3.95181 0
M  V30 17152 H 1652.66 2.60059 3.80403 0
M  V30 17153 H 1650.97 2.21772 3.52429 0
M  V30 17154 H 1653.57 0.115815 5.34575 0
M  V30 17155 H 1653.91 -0.994967 4.04235 0
M  V30 17156 H 1654.45 0.69911 3.91609 0
M  V30 17157 H 1651.18 3.01336 5.82131 0
M  V30 17158 H 1650.7 1.30111 5.85518 0
M  V30 17159 H 1652.38 1.76725 6.22396 0
M  V30 17160 N 1652.52 -1.50101 0.480349 0
M  V30 17161 C 1653.74 -2.07278 -0.0710872 0
M  V30 17162 C 1654.17 -1.34082 -1.31923 0
M  V30 17163 O 1653.52 -0.391251 -1.77028 0
M  V30 17164 C 1653.57 -3.59099 -0.328706 0
M  V30 17165 O 1652.68 -3.8764 -1.40745 0
M  V30 17166 H 1652.02 -0.66378 0.0170748 0
M  V30 17167 H 1654.55 -1.93178 0.674049 0
M  V30 17168 H 1654.56 -4.04049 -0.566435 0
M  V30 17169 H 1653.23 -4.11789 0.583316 0
M  V30 17170 H 1651.81 -3.54519 -1.15631 0
M  V30 17171 N 1653.99 -0.213323 -1.5615 0
M  V30 17172 C 1655.24 0.421221 -1.98377 0
M  V30 17173 C 1655.57 1.59998 -1.10065 0
M  V30 17174 O 1654.85 1.93869 -0.15654 0
M  V30 17175 C 1655.13 0.86375 -3.49587 0
M  V30 17176 C 1654.98 -0.318077 -4.48674 0
M  V30 17177 C 1656.3 1.72285 -4.04976 0
M  V30 17178 H 1653.42 0.151635 -0.721232 0
M  V30 17179 H 1656.06 -0.307907 -1.87488 0
M  V30 17180 H 1654.21 1.48503 -3.58998 0
M  V30 17181 H 1655.89 -0.956094 -4.51283 0
M  V30 17182 H 1654.13 -0.966881 -4.22888 0
M  V30 17183 H 1654.8 0.0343662 -5.51989 0
M  V30 17184 H 1657.28 1.19872 -3.98459 0
M  V30 17185 H 1656.15 2.0014 -5.11112 0
M  V30 17186 H 1656.41 2.68336 -3.51352 0
M  V30 17187 N 1655.47 1.57485 0.0601405 0
M  V30 17188 C 1656.4 2.01233 1.09717 0
M  V30 17189 C 1657.42 0.92008 1.34307 0
M  V30 17190 O 1658.61 1.19783 1.32342 0
M  V30 17191 C 1655.71 2.3461 2.44564 0
M  V30 17192 C 1654.88 3.65828 2.39768 0
M  V30 17193 C 1653.94 3.86743 3.56814 0
M  V30 17194 O 1652.96 4.5819 3.37714 0
M  V30 17195 N 1654.17 3.29988 4.77586 0
M  V30 17196 H 1656.93 2.9081 0.724526 0
M  V30 17197 H 1654.49 1.5998 0.248613 0
M  V30 17198 H 1656.48 2.45764 3.21531 0
M  V30 17199 H 1655.05 1.50862 2.73787 0
M  V30 17200 H 1654.27 3.65319 1.48107 0
M  V30 17201 H 1655.56 4.51966 2.33675 0
M  V30 17202 H 1654.96 2.72018 4.96007 0
M  V30 17203 H 1653.52 3.46573 5.52024 0
M  V30 17204 N 1656.95 -0.331789 1.54068 0
M  V30 17205 C 1657.88 -1.41332 1.8587 0
M  V30 17206 C 1658.86 -1.54353 0.714787 0
M  V30 17207 O 1660.05 -1.68368 0.967777 0
M  V30 17208 C 1657.18 -2.78218 2.07875 0
M  V30 17209 C 1656.13 -2.79994 3.23709 0
M  V30 17210 C 1655.46 -4.19878 3.31069 0
M  V30 17211 C 1656.76 -2.44476 4.6155 0
M  V30 17212 H 1658.45 -1.14966 2.76447 0
M  V30 17213 H 1656 -0.551615 1.33016 0
M  V30 17214 H 1657.95 -3.53937 2.28706 0
M  V30 17215 H 1656.67 -3.06044 1.14038 0
M  V30 17216 H 1655.33 -2.0673 3.02751 0
M  V30 17217 H 1654.98 -4.44831 2.34807 0
M  V30 17218 H 1654.68 -4.21974 4.08915 0
M  V30 17219 H 1656.2 -4.97421 3.54125 0
M  V30 17220 H 1657.62 -3.09908 4.82317 0
M  V30 17221 H 1656.02 -2.57837 5.41886 0
M  V30 17222 H 1657.09 -1.3964 4.64358 0
M  V30 17223 N 1658.43 -1.46001 -0.593424 0
M  V30 17224 C 1659.36 -1.58605 -1.71367 0
M  V30 17225 C 1660.34 -0.436866 -1.64394 0
M  V30 17226 O 1661.52 -0.661782 -1.82576 0
M  V30 17227 C 1658.65 -1.56587 -3.09996 0
M  V30 17228 C 1657.61 -2.70366 -3.31792 0
M  V30 17229 C 1656.93 -2.53406 -4.70839 0
M  V30 17230 C 1658.23 -4.12274 -3.20667 0
M  V30 17231 H 1659.93 -2.52379 -1.61076 0
M  V30 17232 H 1657.47 -1.21462 -0.773499 0
M  V30 17233 H 1659.43 -1.64 -3.88178 0
M  V30 17234 H 1658.15 -0.593511 -3.21162 0
M  V30 17235 H 1656.81 -2.62405 -2.56006 0
M  V30 17236 H 1656.46 -1.54278 -4.78756 0
M  V30 17237 H 1656.16 -3.29715 -4.86376 0
M  V30 17238 H 1657.68 -2.62694 -5.51203 0
M  V30 17239 H 1659.1 -4.21404 -3.88705 0
M  V30 17240 H 1657.49 -4.89085 -3.47729 0
M  V30 17241 H 1658.56 -4.33184 -2.17898 0
M  V30 17242 N 1659.91 0.83715 -1.33527 0
M  V30 17243 C 1661.18 1.57727 -1.15678 0
M  V30 17244 C 1661.56 2.09286 0.276178 0
M  V30 17245 O 1660.91 1.89589 1.27547 0
M  V30 17246 C 1661.12 2.70978 -2.19936 0
M  V30 17247 C 1662.47 3.40114 -2.5418 0
M  V30 17248 O 1663.49 2.81221 -2.18616 0
M  V30 17249 O 1662.35 4.46431 -3.15217 0
M  V30 17250 H 1659.45 0.69545 -0.447525 0
M  V30 17251 H 1661.99 0.879756 -1.45115 0
M  V30 17252 H 1660.76 2.30532 -3.16181 0
M  V30 17253 H 1660.39 3.48393 -1.91594 0
M  V30 17254 N 1661.38 1.17024 1.05561 0
M  V30 17255 C 1662.61 0.98075 1.82178 0
M  V30 17256 C 1663.03 -0.471027 1.8283 0
M  V30 17257 O 1662.38 -1.32703 1.25284 0
M  V30 17258 C 1662.44 1.50979 3.28463 0
M  V30 17259 O 1662.16 2.90471 3.27961 0
M  V30 17260 C 1663.66 1.36436 4.21782 0
M  V30 17261 H 1660.88 0.3472 0.574189 0
M  V30 17262 H 1663.42 1.55226 1.33136 0
M  V30 17263 H 1661.58 0.980393 3.74789 0
M  V30 17264 H 1661.99 3.14847 4.19489 0
M  V30 17265 H 1663.46 1.78272 5.2242 0
M  V30 17266 H 1663.94 0.310922 4.38098 0
M  V30 17267 H 1664.55 1.88374 3.81308 0
M  V30 17268 N 1662.86 -1.24221 0.969889 0
M  V30 17269 C 1663.81 -2.25292 0.501215 0
M  V30 17270 C 1664.78 -1.59764 -0.454382 0
M  V30 17271 O 1665.96 -1.87291 -0.364261 0
M  V30 17272 C 1663.1 -3.44518 -0.200361 0
M  V30 17273 C 1662.22 -4.24636 0.79426 0
M  V30 17274 C 1661.35 -5.31156 0.068568 0
M  V30 17275 C 1660.39 -6.02973 1.05311 0
M  V30 17276 N 1659.53 -7.0119 0.357274 0
M  V30 17277 H 1664.37 -2.64749 1.36792 0
M  V30 17278 H 1661.91 -1.30142 0.685673 0
M  V30 17279 H 1663.86 -4.1251 -0.623833 0
M  V30 17280 H 1662.49 -3.05892 -1.03101 0
M  V30 17281 H 1661.55 -3.56161 1.33616 0
M  V30 17282 H 1662.86 -4.74271 1.54493 0
M  V30 17283 H 1662.01 -6.05294 -0.412792 0
M  V30 17284 H 1660.75 -4.82434 -0.714781 0
M  V30 17285 H 1659.76 -5.27636 1.54532 0
M  V30 17286 H 1660.98 -6.53784 1.83694 0
M  V30 17287 H 1658.93 -6.54736 -0.407059 0
M  V30 17288 H 1658.84 -7.48718 1.04677 0
M  V30 17289 H 1660.11 -7.79433 -0.102045 0
M  V30 17290 N 1664.34 -0.740267 -1.39132 0
M  V30 17291 C 1665.62 -0.216602 -1.94397 0
M  V30 17292 C 1666 1.28264 -1.67665 0
M  V30 17293 O 1665.35 2.05075 -1.00778 0
M  V30 17294 C 1665.56 -0.555899 -3.44544 0
M  V30 17295 C 1666.9 -0.50815 -4.21548 0
M  V30 17296 O 1667.93 -0.493401 -3.52766 0
M  V30 17297 O 1666.79 -0.507321 -5.4414 0
M  V30 17298 H 1663.88 -0.0413037 -0.825968 0
M  V30 17299 H 1666.43 -0.819483 -1.48602 0
M  V30 17300 H 1665.2 -1.59187 -3.57457 0
M  V30 17301 H 1664.82 0.0756793 -3.97528 0
M  V30 17302 N 1665.82 1.49844 -0.488302 0
M  V30 17303 C 1666.75 2.26762 0.333396 0
M  V30 17304 C 1667.76 1.32785 0.941918 0
M  V30 17305 O 1668.95 1.58165 0.827407 0
M  V30 17306 C 1666.05 3.04721 1.48318 0
M  V30 17307 C 1665.23 4.26181 0.984303 0
M  V30 17308 C 1664.28 4.8629 2.01018 0
M  V30 17309 O 1663.31 5.4672 1.58384 0
M  V30 17310 N 1664.51 4.74813 3.33965 0
M  V30 17311 H 1667.28 2.97921 -0.32609 0
M  V30 17312 H 1664.84 1.58704 -0.320092 0
M  V30 17313 H 1666.83 3.4181 2.16676 0
M  V30 17314 H 1665.4 2.36251 2.04705 0
M  V30 17315 H 1664.62 3.93998 0.126039 0
M  V30 17316 H 1665.91 5.04895 0.62919 0
M  V30 17317 H 1665.31 4.26793 3.71301 0
M  V30 17318 H 1663.86 5.16122 3.98072 0
M  V30 17319 N 1667.3 0.221601 1.56034 0
M  V30 17320 C 1668.52 -0.417979 2.03145 0
M  V30 17321 C 1668.95 -1.52556 1.10038 0
M  V30 17322 O 1668.3 -1.81084 0.0885729 0
M  V30 17323 C 1668.35 -0.926762 3.48487 0
M  V30 17324 O 1667.46 -2.03811 3.58518 0
M  V30 17325 H 1666.8 -0.0945778 0.65723 0
M  V30 17326 H 1669.33 0.340252 2.01751 0
M  V30 17327 H 1669.34 -1.23656 3.8881 0
M  V30 17328 H 1668.01 -0.116115 4.15738 0
M  V30 17329 H 1666.59 -1.73494 3.30082 0
M  V30 17330 N 1668.77 -1.57515 -0.0517878 0
M  V30 17331 C 1669.72 -2.01507 -1.06672 0
M  V30 17332 C 1670.71 -0.900432 -1.33346 0
M  V30 17333 O 1671.9 -1.16435 -1.33311 0
M  V30 17334 C 1669.03 -2.4792 -2.37467 0
M  V30 17335 C 1668.12 -3.66159 -2.13982 0
M  V30 17336 N 1668.51 -4.79665 -1.60483 0
M  V30 17337 C 1666.8 -3.73095 -2.44369 0
M  V30 17338 C 1667.51 -5.61415 -1.52278 0
M  V30 17339 N 1666.48 -5.05851 -1.99038 0
M  V30 17340 H 1670.28 -2.86696 -0.646728 0
M  V30 17341 H 1667.8 -1.60329 -0.258518 0
M  V30 17342 H 1669.79 -2.77685 -3.1096 0
M  V30 17343 H 1668.45 -1.64127 -2.80165 0
M  V30 17344 H 1669.47 -5.0156 -1.29067 0
M  V30 17345 H 1666.14 -3.00057 -2.90296 0
M  V30 17346 H 1667.53 -6.62567 -1.11598 0
M  V30 17347 N 1670.25 0.323614 -1.54242 0
M  V30 17348 C 1671.53 1.07979 -1.63095 0
M  V30 17349 C 1671.91 2.0592 -0.464774 0
M  V30 17350 O 1671.26 2.22004 0.540961 0
M  V30 17351 C 1671.47 1.78178 -3.0009 0
M  V30 17352 C 1672.82 2.31201 -3.56134 0
M  V30 17353 O 1673.84 1.88245 -3.02394 0
M  V30 17354 O 1672.7 3.09843 -4.50177 0
M  V30 17355 H 1669.79 0.497726 -0.660453 0
M  V30 17356 H 1672.34 0.323509 -1.66588 0
M  V30 17357 H 1671.11 1.06938 -3.76404 0
M  V30 17358 H 1670.73 2.60616 -3.00275 0
M  V30 17359 N 1671.73 1.46313 0.585673 0
M  V30 17360 C 1672.66 1.59511 1.70524 0
M  V30 17361 C 1673.64 0.445578 1.6416 0
M  V30 17362 O 1674.83 0.671455 1.82223 0
M  V30 17363 C 1671.96 1.58229 3.09162 0
M  V30 17364 C 1670.91 2.72122 3.30354 0
M  V30 17365 C 1670.24 2.559 4.69489 0
M  V30 17366 C 1671.54 4.13969 3.18476 0
M  V30 17367 H 1673.23 2.53229 1.59735 0
M  V30 17368 H 1670.78 1.2187 0.767046 0
M  V30 17369 H 1672.73 1.66056 3.87303 0
M  V30 17370 H 1671.45 0.610535 3.20843 0
M  V30 17371 H 1670.11 2.63759 2.54611 0
M  V30 17372 H 1669.76 1.56814 4.77931 0
M  V30 17373 H 1669.46 3.32289 4.84621 0
M  V30 17374 H 1670.99 2.65613 5.49802 0
M  V30 17375 H 1672.4 4.23459 3.86465 0
M  V30 17376 H 1670.8 4.90922 3.45131 0
M  V30 17377 H 1671.87 4.34334 2.15598 0
M  V30 17378 N 1673.21 -0.830057 1.33969 0
M  V30 17379 C 1674.46 -1.58272 1.25675 0
M  V30 17380 C 1674.78 -1.94213 -0.175071 0
M  V30 17381 O 1674.05 -1.61694 -1.10597 0
M  V30 17382 H 1672.63 -0.586858 0.462176 0
M  V30 17383 H 1675.29 -0.991495 1.67796 0
M  V30 17384 H 1674.39 -2.50874 1.85658 0
M  V30 17385 N 1674.69 -1.17582 -1.04939 0
M  V30 17386 C 1675.62 -0.918221 -2.14688 0
M  V30 17387 C 1676.6 0.140757 -1.69517 0
M  V30 17388 O 1677.78 -0.0100118 -1.94197 0
M  V30 17389 C 1674.91 -0.433531 -3.44584 0
M  V30 17390 C 1673.87 -1.43199 -4.03334 0
M  V30 17391 C 1673.19 -0.805154 -5.28603 0
M  V30 17392 C 1674.49 -2.80598 -4.40525 0
M  V30 17393 H 1676.19 -1.83604 -2.36495 0
M  V30 17394 H 1673.73 -0.884202 -1.13657 0
M  V30 17395 H 1675.69 -0.240722 -4.20712 0
M  V30 17396 H 1674.41 0.519832 -3.22437 0
M  V30 17397 H 1673.07 -1.61158 -3.29277 0
M  V30 17398 H 1672.72 0.155124 -5.02761 0
M  V30 17399 H 1672.42 -1.4717 -5.68871 0
M  V30 17400 H 1673.94 -0.622677 -6.07417 0
M  V30 17401 H 1675.36 -2.66341 -5.07676 0
M  V30 17402 H 1673.75 -3.43854 -4.91817 0
M  V30 17403 H 1674.82 -3.34815 -3.50752 0
M  V30 17404 N 1676.17 1.23705 -0.976463 0
M  V30 17405 C 1677.12 2.22789 -0.484676 0
M  V30 17406 C 1678.1 1.5482 0.43814 0
M  V30 17407 O 1679.29 1.74965 0.267635 0
M  V30 17408 C 1676.42 3.42624 0.21541 0
M  V30 17409 C 1675.51 4.17827 -0.726745 0
M  V30 17410 N 1675.9 4.70053 -1.86771 0
M  V30 17411 C 1674.2 4.42728 -0.539282 0
M  V30 17412 C 1674.9 5.27229 -2.45773 0
M  V30 17413 N 1673.87 5.14932 -1.742 0
M  V30 17414 H 1677.67 2.60795 -1.35511 0
M  V30 17415 H 1675.19 1.39191 -0.836644 0
M  V30 17416 H 1677.19 4.12775 0.585009 0
M  V30 17417 H 1675.85 3.06135 1.08218 0
M  V30 17418 H 1676.86 4.66519 -2.24901 0
M  V30 17419 H 1673.53 4.16541 0.282799 0
M  V30 17420 H 1674.92 5.78284 -3.42106 0
M  V30 17421 N 1677.64 0.747635 1.38738 0
M  V30 17422 C 1678.89 0.301593 2.00545 0
M  V30 17423 C 1679.22 -1.11208 1.59205 0
M  V30 17424 O 1678.5 -1.76052 0.826806 0
M  V30 17425 C 1678.78 0.417739 3.57669 0
M  V30 17426 C 1678.63 1.87209 4.0899 0
M  V30 17427 C 1679.95 -0.192403 4.39679 0
M  V30 17428 H 1677.07 0.11106 0.728584 0
M  V30 17429 H 1679.71 0.946162 1.64766 0
M  V30 17430 H 1677.86 -0.131024 3.88279 0
M  V30 17431 H 1679.54 2.4787 3.89048 0
M  V30 17432 H 1677.78 2.38917 3.62079 0
M  V30 17433 H 1678.45 1.90455 5.18103 0
M  V30 17434 H 1680.93 0.27554 4.15187 0
M  V30 17435 H 1679.8 -0.0808605 5.4884 0
M  V30 17436 H 1680.06 -1.28 4.23165 0
M  V30 17437 N 1679.12 -1.49583 0.496242 0
M  V30 17438 C 1680.05 -2.31885 -0.274139 0
M  V30 17439 C 1681.03 -1.39939 -0.96701 0
M  V30 17440 O 1682.22 -1.6885 -0.959333 0
M  V30 17441 C 1679.35 -3.20332 -1.34181 0
M  V30 17442 C 1678.3 -4.21033 -0.769091 0
M  V30 17443 C 1677.63 -4.98385 -1.93693 0
M  V30 17444 C 1678.93 -5.21764 0.236648 0
M  V30 17445 H 1680.62 -2.9654 0.412824 0
M  V30 17446 H 1678.17 -1.42605 0.199979 0
M  V30 17447 H 1680.12 -3.76718 -1.88843 0
M  V30 17448 H 1678.84 -2.53611 -2.05789 0
M  V30 17449 H 1677.5 -3.65785 -0.244252 0
M  V30 17450 H 1677.15 -4.28115 -2.64058 0
M  V30 17451 H 1676.85 -5.66519 -1.55981 0
M  V30 17452 H 1678.38 -5.57613 -2.48798 0
M  V30 17453 H 1679.79 -5.72871 -0.221672 0
M  V30 17454 H 1678.19 -5.97761 0.529346 0
M  V30 17455 H 1679.26 -4.70964 1.15415 0
M  V30 17456 N 1680.6 -0.229873 -1.55915 0
M  V30 17457 C 1681.82 0.4072 -2.03363 0
M  V30 17458 C 1682.25 1.5197 -1.10845 0
M  V30 17459 O 1681.61 1.81034 -0.098175 0
M  V30 17460 C 1681.66 0.908268 -3.48974 0
M  V30 17461 O 1680.76 2.01907 -3.59593 0
M  V30 17462 H 1680.1 0.091091 -0.657722 0
M  V30 17463 H 1682.63 -0.350947 -2.01568 0
M  V30 17464 H 1682.64 1.21593 -3.8946 0
M  V30 17465 H 1681.32 0.0940655 -4.15794 0
M  V30 17466 H 1679.89 1.71741 -3.30998 0
M  V30 17467 N 1682.08 1.5754 0.0434337 0
M  V30 17468 C 1683.32 1.90452 0.742119 0
M  V30 17469 C 1683.68 0.826884 1.73282 0
M  V30 17470 O 1684.88 1.0399 2.4787 0
M  V30 17471 C 1683.15 3.28549 1.40679 0
M  V30 17472 S 1684.71 3.83268 2.13662 0
M  V30 17473 H 1681.53 0.667021 0.246178 0
M  V30 17474 H 1684.13 1.955 -0.00280947 0
M  V30 17475 H 1682.84 4.04856 0.672322 0
M  V30 17476 H 1682.37 3.26769 2.19056 0
M  V30 17477 H 1684.38 3.60836 3.40605 0
M  V30 17478 N 1683.56 -0.31543 1.54411 0
M  V30 17479 C 1684.97 -0.660254 1.45302 0
M  V30 17480 C 1685.17 -1.91316 0.632493 0
M  V30 17481 O 1684.23 -2.52142 0.134493 0
M  V30 17482 C 1685.54 -0.826685 2.89113 0
M  V30 17483 C 1687.09 -0.923503 2.99066 0
M  V30 17484 C 1687.56 -1.12204 4.44043 0
M  V30 17485 N 1689.05 -1.18859 4.47691 0
M  V30 17486 C 1689.79 -1.36024 5.57032 0
M  V30 17487 N 1689.29 -1.5018 6.76327 0
M  V30 17488 N 1691.08 -1.38797 5.44694 0
M  V30 17489 H 1683.23 0.507961 2.06237 0
M  V30 17490 H 1685.49 0.165515 0.933439 0
M  V30 17491 H 1685.2 0.0228371 3.51693 0
M  V30 17492 H 1685.07 -1.72007 3.35698 0
M  V30 17493 H 1687.46 -1.76352 2.36609 0
M  V30 17494 H 1687.54 -0.00641189 2.55799 0
M  V30 17495 H 1687.18 -0.286844 5.07089 0
M  V30 17496 H 1687.11 -2.05313 4.84927 0
M  V30 17497 H 1689.61 -1.0933 3.61739 0
M  V30 17498 H 1689.92 -1.62992 7.55416 0
M  V30 17499 H 1688.26 -1.47262 6.79219 0
M  V30 17500 H 1691.45 -1.27339 4.50447 0
M  V30 17501 H 1691.63 -1.51832 6.29961 0
M  V30 17502 N 1685.03 -1.46622 -0.577906 0
M  V30 17503 C 1685.98 -1.57926 -1.70769 0
M  V30 17504 C 1686.98 -0.447509 -1.63382 0
M  V30 17505 O 1688.18 -0.624559 -1.68817 0
M  V30 17506 H 1684.56 -0.496618 -0.56469 0
M  V30 17507 H 1686.53 -2.52908 -1.58367 0
M  V30 17508 C 1685.28 -1.59124 -3.09152 0
M  V30 17509 H 1684.6 -2.45549 -3.15509 0
M  V30 17510 H 1686.04 -1.71087 -3.8795 0
M  V30 17511 C 1684.5 -0.320734 -3.3537 0
M  V30 17512 O 1685.03 0.586999 -3.97388 0
M  V30 17513 N 1683.24 -0.207156 -2.89861 0
M  V30 17514 H 1682.78 -0.946744 -2.39572 0
M  V30 17515 H 1682.74 0.642028 -3.07775 0
M  V30 17516 N 1686.51 0.822941 -1.34408 0
M  V30 17517 C 1687.46 1.95524 -1.25988 0
M  V30 17518 C 1688.45 1.68662 -0.157994 0
M  V30 17519 O 1689.66 1.77079 -0.322966 0
M  V30 17520 H 1686.04 0.642117 -0.391394 0
M  V30 17521 H 1688.01 1.99747 -2.21683 0
M  V30 17522 C 1686.76 3.32026 -1.03218 0
M  V30 17523 H 1686.08 3.53244 -1.87239 0
M  V30 17524 H 1687.52 4.11706 -1.01363 0
M  V30 17525 C 1685.98 3.3586 0.264523 0
M  V30 17526 O 1686.51 3.81232 1.26589 0
M  V30 17527 N 1684.71 2.89072 0.297626 0
M  V30 17528 H 1684.26 2.52341 -0.517836 0
M  V30 17529 H 1684.22 2.92019 1.165 0
M  V30 17530 N 1687.99 1.18137 1.04314 0
M  V30 17531 C 1689.4 0.979768 1.58926 0
M  V30 17532 C 1689.75 -0.471214 1.90457 0
M  V30 17533 O 1688.88 -1.34812 1.69277 0
M  V30 17534 C 1689.47 1.77219 2.88754 0
M  V30 17535 C 1688.03 1.61501 3.39992 0
M  V30 17536 C 1687.18 1.76824 2.13609 0
M  V30 17537 H 1690.13 1.32717 0.870162 0
M  V30 17538 H 1690.15 1.2598 3.59039 0
M  V30 17539 H 1689.66 2.82818 2.65773 0
M  V30 17540 H 1687.76 0.58427 3.67991 0
M  V30 17541 H 1687.88 2.4115 4.13985 0
M  V30 17542 H 1686.24 1.19747 2.24795 0
M  V30 17543 H 1687.02 2.83853 1.93087 0
M  V30 17544 N 1689.47 -1.23186 0.98301 0
M  V30 17545 C 1690.4 -2.27054 0.544858 0
M  V30 17546 C 1691.38 -1.64749 -0.423281 0
M  V30 17547 O 1692.56 -1.91611 -0.316075 0
M  V30 17548 C 1689.69 -3.46972 -0.150976 0
M  V30 17549 C 1688.65 -4.21647 0.734707 0
M  V30 17550 C 1687.97 -5.34618 -0.0934874 0
M  V30 17551 C 1689.27 -4.81372 2.02679 0
M  V30 17552 H 1690.97 -2.63957 1.41305 0
M  V30 17553 H 1688.51 -1.26885 0.680895 0
M  V30 17554 H 1690.47 -4.18784 -0.468825 0
M  V30 17555 H 1689.19 -3.09137 -1.05364 0
M  V30 17556 H 1687.85 -3.51655 1.03605 0
M  V30 17557 H 1687.5 -4.93025 -0.996768 0
M  V30 17558 H 1687.2 -5.85503 0.496019 0
M  V30 17559 H 1688.72 -6.09251 -0.405658 0
M  V30 17560 H 1690.14 -5.45178 1.77353 0
M  V30 17561 H 1688.53 -5.42554 2.56429 0
M  V30 17562 H 1689.6 -4.01972 2.71194 0
M  V30 17563 N 1690.95 -0.754982 -1.38339 0
M  V30 17564 C 1692.2 -0.308537 -1.99326 0
M  V30 17565 C 1692.51 1.1164 -1.60611 0
M  V30 17566 O 1693.71 1.66339 -2.14578 0
M  V30 17567 C 1692.17 -0.500688 -3.564 0
M  V30 17568 C 1691.78 -1.9348 -4.04066 0
M  V30 17569 C 1693.52 -0.117026 -4.24339 0
M  V30 17570 C 1691.43 -2.07544 -5.53786 0
M  V30 17571 H 1690.36 -0.111611 -0.745694 0
M  V30 17572 H 1693.01 -0.931722 -1.58086 0
M  V30 17573 H 1691.39 0.191702 -3.95536 0
M  V30 17574 H 1692.57 -2.66077 -3.76217 0
M  V30 17575 H 1690.88 -2.27351 -3.48856 0
M  V30 17576 H 1693.48 -0.200847 -5.34323 0
M  V30 17577 H 1693.82 0.930531 -4.05767 0
M  V30 17578 H 1694.35 -0.761323 -3.90447 0
M  V30 17579 H 1691.09 -3.10559 -5.77264 0
M  V30 17580 H 1690.61 -1.39409 -5.83374 0
M  V30 17581 H 1692.29 -1.86605 -6.19506 0
M  V30 17582 N 1692.42 1.49318 -0.504168 0
M  V30 17583 C 1693.67 2.01658 0.0410881 0
M  V30 17584 C 1693.99 1.38866 1.37752 0
M  V30 17585 O 1695.19 1.82552 2.00965 0
M  V30 17586 C 1693.65 3.59687 0.123682 0
M  V30 17587 C 1693.26 4.31454 -1.2063 0
M  V30 17588 C 1695 4.19961 0.619134 0
M  V30 17589 C 1692.91 5.81349 -1.0857 0
M  V30 17590 H 1691.84 0.753757 0.0191287 0
M  V30 17591 H 1694.49 1.71826 -0.644066 0
M  V30 17592 H 1692.87 3.86249 0.873355 0
M  V30 17593 H 1694.04 4.1659 -1.96951 0
M  V30 17594 H 1692.36 3.82939 -1.63544 0
M  V30 17595 H 1694.96 5.29736 0.726925 0
M  V30 17596 H 1695.3 3.83539 1.61874 0
M  V30 17597 H 1695.83 3.97731 -0.0740966 0
M  V30 17598 H 1692.57 6.22301 -2.05967 0
M  V30 17599 H 1692.09 5.98698 -0.363422 0
M  V30 17600 H 1693.77 6.42453 -0.765722 0
M  V30 17601 N 1693.9 0.238138 1.5579 0
M  V30 17602 C 1695.31 -0.266656 1.84786 0
M  V30 17603 C 1695.66 -1.58248 1.15983 0
M  V30 17604 O 1694.79 -2.11979 0.43518 0
M  V30 17605 C 1695.38 -0.4906 3.35229 0
M  V30 17606 C 1693.94 -0.939672 3.64482 0
M  V30 17607 C 1693.09 -0.0119682 2.77297 0
M  V30 17608 H 1696.04 0.460924 1.51859 0
M  V30 17609 H 1696.06 -1.3344 3.56334 0
M  V30 17610 H 1695.57 0.467239 3.85277 0
M  V30 17611 H 1693.68 -1.91029 3.19904 0
M  V30 17612 H 1693.79 -0.8026 4.72329 0
M  V30 17613 H 1692.15 -0.521767 2.49298 0
M  V30 17614 H 1692.94 0.941085 3.30149 0
M  V30 17615 N 1695.38 -1.57561 -0.0350783 0
M  V30 17616 C 1696.63 -1.89276 -0.728172 0
M  V30 17617 C 1696.96 -0.835137 -1.75326 0
M  V30 17618 O 1696.23 0.150516 -1.93917 0
M  V30 17619 C 1696.52 -3.31638 -1.40316 0
M  V30 17620 C 1696.37 -4.48089 -0.391996 0
M  V30 17621 C 1697.69 -3.72816 -2.33872 0
M  V30 17622 H 1694.81 -0.688381 -0.26325 0
M  V30 17623 H 1697.45 -1.89998 0.00900661 0
M  V30 17624 H 1695.6 -3.31153 -2.0315 0
M  V30 17625 H 1697.27 -4.60706 0.233965 0
M  V30 17626 H 1695.52 -4.32834 0.289305 0
M  V30 17627 H 1696.19 -5.4457 -0.902641 0
M  V30 17628 H 1698.66 -3.74629 -1.81086 0
M  V30 17629 H 1697.54 -4.73245 -2.78084 0
M  V30 17630 H 1697.8 -3.04744 -3.20287 0
M  V30 17631 N 1696.86 0.307236 -1.54576 0
M  V30 17632 C 1698.1 1.04476 -1.73818 0
M  V30 17633 C 1698.44 1.87134 -0.519102 0
M  V30 17634 O 1697.71 1.88386 0.483852 0
M  V30 17635 C 1698 1.95594 -3.02349 0
M  V30 17636 C 1697.85 1.16158 -4.34543 0
M  V30 17637 C 1699.17 2.94865 -3.26715 0
M  V30 17638 H 1696.29 0.378415 -0.632433 0
M  V30 17639 H 1698.93 0.319955 -1.87287 0
M  V30 17640 H 1697.08 2.57396 -2.90997 0
M  V30 17641 H 1698.75 0.5669 -4.57803 0
M  V30 17642 H 1696.99 0.464158 -4.3131 0
M  V30 17643 H 1697.66 1.8315 -5.2073 0
M  V30 17644 H 1700.14 2.4319 -3.37636 0
M  V30 17645 H 1699.02 3.55791 -4.17976 0
M  V30 17646 H 1699.28 3.68195 -2.44714 0
M  V30 17647 N 1698.34 1.46926 0.570122 0
M  V30 17648 C 1699.29 1.54854 1.67345 0
M  V30 17649 C 1700.27 0.40843 1.5563 0
M  V30 17650 O 1701.46 0.657596 1.64331 0
M  V30 17651 C 1698.59 1.55369 3.0613 0
M  V30 17652 C 1697.68 2.74718 3.23096 0
M  V30 17653 N 1698.07 3.99532 3.10173 0
M  V30 17654 C 1696.37 2.71207 3.54066 0
M  V30 17655 C 1697.07 4.79391 3.29483 0
M  V30 17656 N 1696.04 4.11484 3.55221 0
M  V30 17657 H 1699.85 2.49141 1.55903 0
M  V30 17658 H 1697.36 1.42741 0.774518 0
M  V30 17659 H 1699.36 1.59136 3.85333 0
M  V30 17660 H 1698.02 0.62167 3.18693 0
M  V30 17661 H 1699.03 4.3059 2.87772 0
M  V30 17662 H 1695.7 1.87086 3.73236 0
M  V30 17663 H 1697.09 5.88307 3.24569 0
M  V30 17664 N 1699.82 -0.815801 1.34842 0
M  V30 17665 C 1701.09 -1.55867 1.18173 0
M  V30 17666 C 1701.47 -2.09698 -0.242848 0
M  V30 17667 O 1700.82 -1.91594 -1.24514 0
M  V30 17668 C 1701.03 -2.67445 2.24219 0
M  V30 17669 C 1702.38 -3.36027 2.59559 0
M  V30 17670 O 1703.4 -2.77708 2.23062 0
M  V30 17671 O 1702.26 -4.4136 3.22279 0
M  V30 17672 H 1699.36 -0.688242 0.458533 0
M  V30 17673 H 1701.9 -0.856558 1.46496 0
M  V30 17674 H 1700.67 -2.25473 3.19809 0
M  V30 17675 H 1700.3 -3.453 1.97113 0
M  V30 17676 N 1701.29 -1.18689 -1.03686 0
M  V30 17677 C 1702.22 -0.94094 -2.13702 0
M  V30 17678 C 1703.2 0.12277 -1.69656 0
M  V30 17679 O 1704.39 -0.0306085 -1.94176 0
M  V30 17680 C 1701.52 -0.470054 -3.44104 0
M  V30 17681 C 1700.47 -1.47468 -4.01792 0
M  V30 17682 C 1699.8 -0.861174 -5.2772 0
M  V30 17683 C 1701.1 -2.85254 -4.37524 0
M  V30 17684 H 1702.79 -1.86102 -2.34534 0
M  V30 17685 H 1700.34 -0.896207 -1.12713 0
M  V30 17686 H 1702.29 -0.28533 -4.20433 0
M  V30 17687 H 1701.02 0.485604 -3.2297 0
M  V30 17688 H 1699.68 -1.64641 -3.2755 0
M  V30 17689 H 1699.32 0.10179 -5.02897 0
M  V30 17690 H 1699.02 -1.53196 -5.67278 0
M  V30 17691 H 1700.55 -0.687066 -6.06722 0
M  V30 17692 H 1701.96 -2.71711 -5.04823 0
M  V30 17693 H 1700.36 -3.49051 -4.88143 0
M  V30 17694 H 1701.43 -3.38516 -3.47181 0
M  V30 17695 N 1702.77 1.22662 -0.989529 0
M  V30 17696 C 1704 1.95883 -0.681511 0
M  V30 17697 C 1704.42 1.72646 0.746646 0
M  V30 17698 O 1703.78 1.00358 1.5099 0
M  V30 17699 C 1703.83 3.46773 -0.988975 0
M  V30 17700 O 1702.93 4.12311 -0.0858485 0
M  V30 17701 H 1702.27 0.612916 -0.255401 0
M  V30 17702 H 1704.8 1.5585 -1.32559 0
M  V30 17703 H 1704.81 3.97273 -0.929426 0
M  V30 17704 H 1703.49 3.63011 -2.02967 0
M  V30 17705 H 1702.06 3.7236 -0.200592 0
M  V30 17706 N 1704.25 0.762308 1.37937 0
M  V30 17707 C 1705.18 0.100528 2.28979 0
M  V30 17708 C 1706.19 -0.674409 1.48174 0
M  V30 17709 O 1707.38 -0.514059 1.70938 0
M  V30 17710 C 1704.48 -0.881478 3.27236 0
M  V30 17711 C 1703.66 -0.162349 4.37099 0
M  V30 17712 C 1702.72 -1.05636 5.15488 0
M  V30 17713 O 1701.74 -0.523636 5.66786 0
M  V30 17714 N 1702.94 -2.3836 5.29306 0
M  V30 17715 H 1705.71 0.882451 2.86414 0
M  V30 17716 H 1703.27 0.613839 1.49812 0
M  V30 17717 H 1705.26 -1.48278 3.76558 0
M  V30 17718 H 1703.83 -1.56443 2.70637 0
M  V30 17719 H 1703.05 0.61976 3.89298 0
M  V30 17720 H 1704.34 0.334928 5.07696 0
M  V30 17721 H 1703.74 -2.84087 4.89194 0
M  V30 17722 H 1702.29 -2.9352 5.8197 0
M  V30 17723 N 1705.73 -1.49049 0.51208 0
M  V30 17724 C 1707.14 -1.86579 0.0670687 0
M  V30 17725 C 1707.49 -1.42339 -1.35034 0
M  V30 17726 O 1706.61 -0.806142 -2.00824 0
M  V30 17727 C 1707.21 -3.38605 0.114936 0
M  V30 17728 C 1705.77 -3.75396 -0.274787 0
M  V30 17729 C 1704.92 -2.73068 0.482613 0
M  V30 17730 H 1707.87 -1.41208 0.724287 0
M  V30 17731 H 1707.89 -3.74416 -0.677722 0
M  V30 17732 H 1707.4 -3.70774 1.14666 0
M  V30 17733 H 1705.5 -3.48837 -1.30933 0
M  V30 17734 H 1705.61 -4.79071 0.0523691 0
M  V30 17735 H 1703.98 -2.54607 -0.0689364 0
M  V30 17736 H 1704.76 -3.08081 1.51463 0
M  V30 17737 N 1707.21 -0.246397 -1.55662 0
M  V30 17738 C 1708.45 0.378487 -1.98931 0
M  V30 17739 C 1708.78 1.57984 -1.13452 0
M  V30 17740 O 1708.04 1.94822 -0.185214 0
M  V30 17741 C 1708.33 0.832225 -3.47576 0
M  V30 17742 C 1708 -0.261318 -4.50142 0
M  V30 17743 C 1706.66 -0.56166 -4.77911 0
M  V30 17744 C 1709.01 -0.999618 -5.11524 0
M  V30 17745 C 1706.34 -1.60438 -5.64337 0
M  V30 17746 C 1708.69 -2.03186 -5.99081 0
M  V30 17747 C 1707.36 -2.33885 -6.25183 0
M  V30 17748 H 1706.63 0.138498 -0.727942 0
M  V30 17749 H 1709.28 -0.354116 -1.88197 0
M  V30 17750 H 1707.58 1.64402 -3.55639 0
M  V30 17751 H 1709.28 1.32598 -3.78442 0
M  V30 17752 H 1705.87 -0.0170894 -4.28597 0
M  V30 17753 H 1710.05 -0.780833 -4.90119 0
M  V30 17754 H 1705.31 -1.84758 -5.82816 0
M  V30 17755 H 1709.48 -2.60886 -6.45687 0
M  V30 17756 H 1707.11 -3.14822 -6.91947 0
M  V30 17757 N 1708.68 1.57577 0.026722 0
M  V30 17758 C 1709.91 1.93359 0.727714 0
M  V30 17759 C 1710.32 0.844761 1.69294 0
M  V30 17760 O 1709.66 -0.187342 1.82742 0
M  V30 17761 C 1709.73 3.24958 1.53761 0
M  V30 17762 C 1709.39 4.5102 0.736909 0
M  V30 17763 C 1710.39 5.19887 0.036166 0
M  V30 17764 C 1708.07 4.97528 0.690759 0
M  V30 17765 C 1710.07 6.33545 -0.700003 0
M  V30 17766 C 1707.75 6.1108 -0.0491539 0
M  V30 17767 C 1708.75 6.78943 -0.743293 0
M  V30 17768 O 1708.44 7.90324 -1.47119 0
M  V30 17769 H 1708.17 0.642747 0.209408 0
M  V30 17770 H 1710.73 2.05396 -0.0124135 0
M  V30 17771 H 1708.96 3.09254 2.32161 0
M  V30 17772 H 1710.64 3.46049 2.12144 0
M  V30 17773 H 1711.41 4.84959 0.0628368 0
M  V30 17774 H 1707.29 4.44549 1.22055 0
M  V30 17775 H 1710.83 6.86448 -1.24235 0
M  V30 17776 H 1706.73 6.45453 -0.0777396 0
M  V30 17777 H 1707.5 8.06695 -1.38511 0
M  V30 17778 N 1710.16 -0.299034 1.54737 0
M  V30 17779 C 1711.11 -1.37055 1.82208 0
M  V30 17780 C 1712.1 -1.45855 0.679357 0
M  V30 17781 O 1713.29 -1.49974 0.940044 0
M  V30 17782 C 1710.42 -2.73525 2.07459 0
M  V30 17783 C 1709.5 -2.6894 3.27921 0
M  V30 17784 N 1709.89 -2.33972 4.48432 0
M  V30 17785 C 1708.19 -3.0004 3.29988 0
M  V30 17786 C 1708.89 -2.38734 5.30454 0
M  V30 17787 N 1707.87 -2.76167 4.68223 0
M  V30 17788 H 1711.67 -1.08986 2.72945 0
M  V30 17789 H 1709.18 -0.507618 1.54263 0
M  V30 17790 H 1711.18 -3.50787 2.25287 0
M  V30 17791 H 1709.84 -3.02503 1.1799 0
M  V30 17792 H 1710.85 -2.06392 4.74998 0
M  V30 17793 H 1707.53 -3.33901 2.50632 0
M  V30 17794 H 1708.92 -2.1448 6.36748 0
M  V30 17795 N 1711.64 -1.47227 -0.562322 0
M  V30 17796 C 1712.86 -1.5744 -1.35008 0
M  V30 17797 C 1713.29 -0.223223 -1.86771 0
M  V30 17798 O 1712.65 0.800078 -1.62691 0
M  V30 17799 C 1712.7 -2.5992 -2.49948 0
M  V30 17800 O 1711.8 -2.14836 -3.52022 0
M  V30 17801 H 1711.14 -0.529064 -0.401232 0
M  V30 17802 H 1713.67 -1.92966 -0.680084 0
M  V30 17803 H 1713.68 -2.80177 -2.96588 0
M  V30 17804 H 1712.36 -3.58031 -2.11629 0
M  V30 17805 H 1710.93 -2.04655 -3.11722 0
M  V30 17806 N 1713.12 0.808639 -1.35273 0
M  V30 17807 C 1714.05 1.92839 -1.23878 0
M  V30 17808 C 1715.06 1.61987 -0.162543 0
M  V30 17809 O 1716.25 1.73593 -0.41564 0
M  V30 17810 C 1713.35 3.27158 -0.884369 0
M  V30 17811 C 1712.52 3.85931 -2.05855 0
M  V30 17812 C 1711.58 4.98652 -1.68025 0
M  V30 17813 O 1710.61 5.16188 -2.39871 0
M  V30 17814 N 1711.81 5.77363 -0.602684 0
M  V30 17815 H 1714.58 2.03141 -2.20349 0
M  V30 17816 H 1712.14 0.985956 -1.28415 0
M  V30 17817 H 1714.13 4.00033 -0.612814 0
M  V30 17818 H 1712.7 3.12599 -0.00940584 0
M  V30 17819 H 1711.92 3.05274 -2.49402 0
M  V30 17820 H 1713.21 4.21929 -2.84347 0
M  V30 17821 H 1712.61 5.657 -0.00570741 0
M  V30 17822 H 1711.16 6.50627 -0.390903 0
M  V30 17823 N 1714.6 1.19237 1.03055 0
M  V30 17824 C 1715.56 0.930536 2.0946 0
M  V30 17825 C 1716.56 -0.0882907 1.60557 0
M  V30 17826 O 1717.75 0.146269 1.73585 0
M  V30 17827 C 1714.88 0.398165 3.38567 0
M  V30 17828 H 1716.07 1.87422 2.34122 0
M  V30 17829 H 1713.63 1.00579 1.19639 0
M  V30 17830 H 1714.36 -0.551646 3.19574 0
M  V30 17831 H 1714.15 1.13273 3.75382 0
M  V30 17832 H 1715.64 0.234006 4.16944 0
M  V30 17833 N 1716.07 -1.22136 0.99602 0
M  V30 17834 C 1717.32 -1.9125 0.674632 0
M  V30 17835 C 1717.65 -1.77331 -0.791655 0
M  V30 17836 O 1716.93 -1.14419 -1.57285 0
M  V30 17837 C 1717.21 -3.43359 1.08521 0
M  V30 17838 C 1717.06 -3.66312 2.61028 0
M  V30 17839 C 1718.38 -4.3541 0.640795 0
M  V30 17840 H 1715.5 -0.694534 0.246559 0
M  V30 17841 H 1718.14 -1.4395 1.2401 0
M  V30 17842 H 1716.29 -3.83775 0.604071 0
M  V30 17843 H 1717.97 -3.3528 3.16836 0
M  V30 17844 H 1716.21 -3.10485 3.02954 0
M  V30 17845 H 1716.88 -4.72852 2.84807 0
M  V30 17846 H 1719.36 -4.02527 1.05411 0
M  V30 17847 H 1718.23 -5.40505 0.956337 0
M  V30 17848 H 1718.49 -4.39717 -0.458421 0
M  V30 17849 N 1717.55 -0.769612 -1.37531 0
M  V30 17850 C 1718.97 -0.449 -1.53154 0
M  V30 17851 C 1719.17 1.03568 -1.72847 0
M  V30 17852 O 1718.22 1.82154 -1.74861 0
M  V30 17853 C 1719.54 -1.26221 -2.72926 0
M  V30 17854 C 1721.09 -1.2539 -2.86786 0
M  V30 17855 C 1721.56 -2.05041 -4.09539 0
M  V30 17856 N 1723.05 -2.02384 -4.16647 0
M  V30 17857 C 1723.79 -2.60798 -5.10658 0
M  V30 17858 N 1723.28 -3.27991 -6.10241 0
M  V30 17859 N 1725.08 -2.5064 -5.03126 0
M  V30 17860 H 1717.23 -1.73161 -1.23 0
M  V30 17861 H 1719.49 -0.734977 -0.598759 0
M  V30 17862 H 1719.2 -2.31423 -2.64832 0
M  V30 17863 H 1719.07 -0.889937 -3.66551 0
M  V30 17864 H 1721.46 -0.209869 -2.94353 0
M  V30 17865 H 1721.54 -1.6658 -1.94126 0
M  V30 17866 H 1721.18 -3.09464 -4.02734 0
M  V30 17867 H 1721.11 -1.61234 -5.01309 0
M  V30 17868 H 1723.6 -1.53464 -3.45337 0
M  V30 17869 H 1723.92 -3.69942 -6.785 0
M  V30 17870 H 1722.26 -3.32089 -6.10526 0
M  V30 17871 H 1725.45 -1.97762 -4.24273 0
M  V30 17872 H 1725.62 -2.96458 -5.76209 0
M  V30 17873 N 1719.03 1.48775 -0.519977 0
M  V30 17874 C 1720.28 2.02792 0.0177768 0
M  V30 17875 C 1720.61 1.3972 1.34878 0
M  V30 17876 O 1719.88 0.539438 1.8687 0
M  V30 17877 C 1720.17 3.59786 0.150355 0
M  V30 17878 C 1720.02 4.33356 -1.20511 0
M  V30 17879 C 1721.34 4.31172 0.881959 0
M  V30 17880 H 1718.46 0.736983 0.00498634 0
M  V30 17881 H 1721.1 1.77603 -0.675069 0
M  V30 17882 H 1719.25 3.81378 0.740452 0
M  V30 17883 H 1720.92 4.23209 -1.83554 0
M  V30 17884 H 1719.17 3.95167 -1.78957 0
M  V30 17885 H 1719.84 5.4162 -1.06544 0
M  V30 17886 H 1722.31 4.14349 0.381302 0
M  V30 17887 H 1721.19 5.40729 0.943601 0
M  V30 17888 H 1721.45 3.97747 1.93001 0
M  V30 17889 N 1720.51 0.254649 1.55529 0
M  V30 17890 C 1721.73 -0.374795 2.03985 0
M  V30 17891 C 1722.16 -1.50188 1.13249 0
M  V30 17892 O 1721.52 -1.80855 0.126963 0
M  V30 17893 C 1721.56 -0.852635 3.50375 0
M  V30 17894 O 1720.67 -1.9616 3.6276 0
M  V30 17895 H 1720.01 -0.0806157 0.659088 0
M  V30 17896 H 1722.54 0.38297 2.00984 0
M  V30 17897 H 1722.55 -1.15381 3.91345 0
M  V30 17898 H 1721.22 -0.0279044 4.15891 0
M  V30 17899 H 1719.8 -1.66453 3.33688 0
M  V30 17900 N 1721.99 -1.57589 -0.0183649 0
M  V30 17901 C 1723.23 -1.89757 -0.707008 0
M  V30 17902 C 1723.56 -0.853257 -1.74785 0
M  V30 17903 O 1722.82 0.144406 -1.95166 0
M  V30 17904 C 1723.12 -3.28677 -1.4038 0
M  V30 17905 C 1722.78 -4.48142 -0.497917 0
M  V30 17906 C 1721.44 -4.80558 -0.248444 0
M  V30 17907 C 1723.8 -5.21046 0.126883 0
M  V30 17908 C 1721.12 -5.8326 0.634428 0
M  V30 17909 C 1723.48 -6.24686 0.997521 0
M  V30 17910 C 1722.14 -6.5557 1.25635 0
M  V30 17911 H 1721.41 -0.694369 -0.258713 0
M  V30 17912 H 1724.06 -1.91471 0.0332176 0
M  V30 17913 H 1722.36 -3.23 -2.21761 0
M  V30 17914 H 1724.06 -3.50818 -1.94236 0
M  V30 17915 H 1720.65 -4.22803 -0.702519 0
M  V30 17916 H 1724.83 -4.96272 -0.0528705 0
M  V30 17917 H 1720.09 -6.05558 0.843157 0
M  V30 17918 H 1724.26 -6.80315 1.48811 0
M  V30 17919 H 1721.89 -7.34972 1.94218 0
M  V30 17920 N 1723.46 0.290824 -1.54893 0
M  V30 17921 C 1724.69 1.04775 -1.78988 0
M  V30 17922 C 1725.11 1.79799 -0.552637 0
M  V30 17923 O 1724.47 1.74349 0.497199 0
M  V30 17924 C 1724.52 1.99603 -3.00318 0
M  V30 17925 O 1723.62 3.08079 -2.74155 0
M  V30 17926 H 1722.97 0.300478 -0.592123 0
M  V30 17927 H 1725.5 0.325151 -2.02 0
M  V30 17928 H 1725.51 2.41884 -3.28567 0
M  V30 17929 H 1724.18 1.44406 -3.90025 0
M  V30 17930 H 1722.76 2.7024 -2.56953 0
M  V30 17931 N 1724.94 1.47523 0.554506 0
M  V30 17932 C 1726.17 1.58154 1.34172 0
M  V30 17933 C 1726.59 0.233124 1.8665 0
M  V30 17934 O 1725.95 -0.791439 1.63113 0
M  V30 17935 C 1726 2.61242 2.48566 0
M  V30 17936 O 1725.1 2.167 3.50877 0
M  V30 17937 H 1724.44 0.531184 0.398421 0
M  V30 17938 H 1726.97 1.93324 0.669841 0
M  V30 17939 H 1726.98 2.81746 2.95098 0
M  V30 17940 H 1725.66 3.59148 2.09727 0
M  V30 17941 H 1724.24 2.06305 3.10632 0
M  V30 17942 N 1726.42 -0.801453 1.357 0
M  V30 17943 C 1727.83 -1.37581 1.26208 0
M  V30 17944 C 1728.18 -1.95928 -0.103326 0
M  V30 17945 O 1727.31 -1.91676 -1.00445 0
M  V30 17946 C 1727.9 -2.50122 2.28527 0
M  V30 17947 C 1726.46 -3.03405 2.2276 0
M  V30 17948 C 1725.61 -1.76401 2.13958 0
M  V30 17949 H 1728.56 -0.60407 1.46754 0
M  V30 17950 H 1728.58 -3.28814 1.91472 0
M  V30 17951 H 1728.09 -2.07626 3.27892 0
M  V30 17952 H 1726.19 -3.50352 1.26822 0
M  V30 17953 H 1726.31 -3.61038 3.14942 0
M  V30 17954 H 1724.67 -1.98158 1.60017 0
M  V30 17955 H 1725.45 -1.3605 3.15191 0
M  V30 17956 N 1727.9 -1.19782 -1.02421 0
M  V30 17957 C 1728.83 -0.963553 -2.12692 0
M  V30 17958 C 1729.81 0.104769 -1.69777 0
M  V30 17959 O 1730.99 -0.0512017 -1.94132 0
M  V30 17960 C 1728.12 -0.506525 -3.43586 0
M  V30 17961 C 1727.08 -1.51722 -4.00206 0
M  V30 17962 C 1726.4 -0.917097 -5.26776 0
M  V30 17963 C 1727.7 -2.89879 -4.34474 0
M  V30 17964 H 1729.4 -1.88579 -2.32547 0
M  V30 17965 H 1726.94 -0.908111 -1.11756 0
M  V30 17966 H 1728.9 -0.329907 -4.20107 0
M  V30 17967 H 1727.62 0.451322 -3.23467 0
M  V30 17968 H 1726.28 -1.68106 -3.25785 0
M  V30 17969 H 1725.93 0.0484457 -5.02977 0
M  V30 17970 H 1725.63 -1.59204 -5.65622 0
M  V30 17971 H 1727.15 -0.751379 -6.05959 0
M  V30 17972 H 1728.57 -2.7705 -5.01913 0
M  V30 17973 H 1726.96 -3.54209 -4.84413 0
M  V30 17974 H 1728.03 -3.42179 -3.43571 0
M  V30 17975 N 1729.38 1.21606 -1.00248 0
M  V30 17976 C 1730.62 1.9089 -0.684765 0
M  V30 17977 C 1730.96 1.77749 0.78224 0
M  V30 17978 O 1730.23 1.15251 1.56676 0
M  V30 17979 C 1730.51 3.42778 -1.1034 0
M  V30 17980 C 1730.37 3.64923 -2.62967 0
M  V30 17981 C 1731.69 4.35064 -0.663877 0
M  V30 17982 H 1728.81 0.693217 -0.250239 0
M  V30 17983 H 1731.45 1.4329 -1.24772 0
M  V30 17984 H 1729.6 3.83449 -0.624415 0
M  V30 17985 H 1731.27 3.33595 -3.18609 0
M  V30 17986 H 1729.51 3.08874 -3.04596 0
M  V30 17987 H 1730.18 4.71335 -2.87311 0
M  V30 17988 H 1732.66 4.01962 -1.07544 0
M  V30 17989 H 1731.54 5.3999 -0.984987 0
M  V30 17990 H 1731.8 4.39954 0.435095 0
M  V30 17991 N 1730.86 0.776895 1.37121 0
M  V30 17992 C 1731.82 0.172839 2.28547 0
M  V30 17993 C 1732.82 -0.622508 1.48262 0
M  V30 17994 O 1734.01 -0.44534 1.68411 0
M  V30 17995 C 1731.14 -0.762294 3.32268 0
M  V30 17996 H 1732.33 0.978842 2.83476 0
M  V30 17997 H 1729.89 0.545454 1.46474 0
M  V30 17998 H 1730.62 -1.59311 2.82472 0
M  V30 17999 H 1730.41 -0.194084 3.91619 0
M  V30 18000 H 1731.9 -1.1802 4.00576 0
M  V30 18001 N 1732.33 -1.48497 0.527859 0
M  V30 18002 C 1733.58 -2.01698 -0.00900086 0
M  V30 18003 C 1733.9 -1.4104 -1.35525 0
M  V30 18004 O 1735.1 -1.85726 -1.98035 0
M  V30 18005 C 1733.56 -3.59839 -0.0664428 0
M  V30 18006 C 1733.17 -4.2948 1.27479 0
M  V30 18007 C 1734.91 -4.20893 -0.552244 0
M  V30 18008 C 1732.82 -5.79548 1.17805 0
M  V30 18009 H 1731.75 -0.753966 -0.00713463 0
M  V30 18010 H 1734.4 -1.70779 0.67132 0
M  V30 18011 H 1732.78 -3.8759 -0.811795 0
M  V30 18012 H 1733.95 -4.13403 2.03554 0
M  V30 18013 H 1732.27 -3.80289 1.69616 0
M  V30 18014 H 1734.87 -5.30825 -0.642556 0
M  V30 18015 H 1735.21 -3.86066 -1.55752 0
M  V30 18016 H 1735.74 -3.97563 0.137363 0
M  V30 18017 H 1732.48 -6.18945 2.15841 0
M  V30 18018 H 1732 -5.98044 0.458624 0
M  V30 18019 H 1733.68 -6.41153 0.867834 0
M  V30 18020 N 1733.81 -0.262893 -1.55392 0
M  V30 18021 C 1735.04 0.363972 -2.04181 0
M  V30 18022 C 1735.46 1.49585 -1.14044 0
M  V30 18023 O 1734.82 1.80785 -0.136553 0
M  V30 18024 C 1734.87 0.834041 -3.50822 0
M  V30 18025 O 1733.97 1.94234 -3.63795 0
M  V30 18026 H 1733.31 0.0771193 -0.659506 0
M  V30 18027 H 1735.84 -0.393623 -2.00778 0
M  V30 18028 H 1735.85 1.13304 -3.91952 0
M  V30 18029 H 1734.53 0.00584833 -4.159 0
M  V30 18030 H 1733.1 1.64681 -3.34566 0
M  V30 18031 N 1735.29 1.57597 0.0100073 0
M  V30 18032 C 1736.54 1.89754 0.695559 0
M  V30 18033 C 1736.86 0.862983 1.74865 0
M  V30 18034 O 1736.13 -0.100949 1.9564 0
M  V30 18035 H 1734.71 0.700331 0.259895 0
M  V30 18036 H 1737.37 1.94879 -0.0285521 0
M  V30 18037 H 1736.47 2.89213 1.17313 0
M  V30 18038 N 1736.77 -0.282606 1.55045 0
M  V30 18039 C 1738.01 -1.01698 1.75458 0
M  V30 18040 C 1738.35 -1.86284 0.548808 0
M  V30 18041 O 1737.62 -1.89131 -0.45382 0
M  V30 18042 C 1737.9 -1.90759 3.05423 0
M  V30 18043 C 1737.76 -1.0923 4.36336 0
M  V30 18044 C 1739.08 -2.8963 3.31364 0
M  V30 18045 H 1736.2 -0.368305 0.638373 0
M  V30 18046 H 1738.84 -0.290118 1.87772 0
M  V30 18047 H 1736.99 -2.52734 2.95055 0
M  V30 18048 H 1738.66 -0.493996 4.58647 0
M  V30 18049 H 1736.9 -0.395481 4.31994 0
M  V30 18050 H 1737.57 -1.74842 5.23578 0
M  V30 18051 H 1740.05 -2.37788 3.41462 0
M  V30 18052 H 1738.93 -3.49096 4.23584 0
M  V30 18053 H 1739.19 -3.64255 2.50541 0
M  V30 18054 N 1738.25 -1.47815 -0.546675 0
M  V30 18055 C 1739.21 -1.6063 -1.63495 0
M  V30 18056 C 1740.21 -0.480661 -1.53448 0
M  V30 18057 O 1741.4 -0.746017 -1.57417 0
M  V30 18058 C 1738.53 -1.56076 -3.03073 0
M  V30 18059 H 1739.72 -2.57652 -1.53478 0
M  V30 18060 H 1737.28 -1.36162 -0.767433 0
M  V30 18061 H 1738.01 -0.604694 -3.18613 0
M  V30 18062 H 1737.8 -2.3778 -3.11774 0
M  V30 18063 H 1739.29 -1.68204 -3.82227 0
M  V30 18064 N 1739.72 0.794246 -1.36123 0
M  V30 18065 C 1740.65 1.92105 -1.32732 0
M  V30 18066 C 1741.63 1.68925 -0.199603 0
M  V30 18067 O 1742.82 1.90109 -0.396498 0
M  V30 18068 C 1739.95 3.29051 -1.11098 0
M  V30 18069 C 1738.9 3.66743 -2.20643 0
M  V30 18070 C 1738.23 5.01986 -1.84159 0
M  V30 18071 C 1739.53 3.75831 -3.62696 0
M  V30 18072 H 1741.22 1.952 -2.27018 0
M  V30 18073 H 1738.77 0.937746 -1.09281 0
M  V30 18074 H 1740.72 4.07494 -1.07362 0
M  V30 18075 H 1739.45 3.26331 -0.132614 0
M  V30 18076 H 1738.11 2.90594 -2.23497 0
M  V30 18077 H 1737.75 4.95782 -0.849081 0
M  V30 18078 H 1737.45 5.28175 -2.57497 0
M  V30 18079 H 1738.98 5.82855 -1.8197 0
M  V30 18080 H 1740.39 4.44476 -3.62096 0
M  V30 18081 H 1738.79 4.135 -4.34899 0
M  V30 18082 H 1739.86 2.7706 -3.97952 0
M  V30 18083 N 1741.2 1.20323 1.01785 0
M  V30 18084 C 1742.62 0.957818 1.27664 0
M  V30 18085 C 1742.82 -0.363377 1.98196 0
M  V30 18086 O 1741.87 -1.09221 2.27656 0
M  V30 18087 C 1743.19 2.13957 2.11289 0
M  V30 18088 C 1744.73 2.18041 2.2456 0
M  V30 18089 C 1745.21 3.35698 3.11562 0
M  V30 18090 N 1746.7 3.35704 3.1915 0
M  V30 18091 C 1747.44 4.2339 3.86689 0
M  V30 18092 N 1746.93 5.21251 4.56366 0
M  V30 18093 N 1748.72 4.11235 3.832 0
M  V30 18094 H 1740.88 2.05309 0.544242 0
M  V30 18095 H 1743.14 0.898335 0.302817 0
M  V30 18096 H 1742.84 3.09631 1.66798 0
M  V30 18097 H 1742.72 2.11946 3.12024 0
M  V30 18098 H 1745.11 1.22931 2.68276 0
M  V30 18099 H 1745.19 2.24101 1.23338 0
M  V30 18100 H 1744.83 4.31095 2.68551 0
M  V30 18101 H 1744.76 3.26876 4.12868 0
M  V30 18102 H 1747.25 2.64874 2.69537 0
M  V30 18103 H 1747.56 5.84485 5.05566 0
M  V30 18104 H 1745.91 5.25189 4.55195 0
M  V30 18105 H 1749.1 3.34052 3.27913 0
M  V30 18106 H 1749.27 4.79782 4.35561 0
M  V30 18107 N 1742.68 -1.21073 1.00892 0
M  V30 18108 C 1743.9 -1.94774 0.712588 0
M  V30 18109 C 1744.33 -1.73812 -0.719085 0
M  V30 18110 O 1743.69 -1.02747 -1.49374 0
M  V30 18111 C 1743.74 -3.45156 1.04402 0
M  V30 18112 O 1742.84 -4.12122 0.151433 0
M  V30 18113 H 1742.18 -0.608775 0.26512 0
M  V30 18114 H 1744.71 -1.53721 1.35022 0
M  V30 18115 H 1744.72 -3.95744 0.992511 0
M  V30 18116 H 1743.4 -3.59736 2.08716 0
M  V30 18117 H 1741.97 -3.71994 0.259805 0
M  V30 18118 N 1744.16 -0.784156 -1.36707 0
M  V30 18119 C 1745.41 -0.354133 -1.99379 0
M  V30 18120 C 1745.73 1.07276 -1.62241 0
M  V30 18121 O 1744.99 1.75481 -0.866317 0
M  V30 18122 C 1745.29 -0.459004 -3.5444 0
M  V30 18123 C 1744.95 -1.84594 -4.11383 0
M  V30 18124 C 1743.62 -2.22543 -4.26648 0
M  V30 18125 C 1745.97 -2.75433 -4.42477 0
M  V30 18126 C 1743.3 -3.50744 -4.70315 0
M  V30 18127 C 1745.65 -4.03056 -4.87574 0
M  V30 18128 C 1744.31 -4.41034 -5.01044 0
M  V30 18129 H 1743.58 -0.129586 -0.729581 0
M  V30 18130 H 1746.23 -1.00059 -1.6328 0
M  V30 18131 H 1744.53 0.27097 -3.90862 0
M  V30 18132 H 1746.23 -0.107393 -4.00856 0
M  V30 18133 H 1742.82 -1.54103 -3.99938 0
M  V30 18134 H 1747 -2.4737 -4.30258 0
M  V30 18135 H 1742.26 -3.80047 -4.78931 0
M  V30 18136 H 1746.43 -4.73563 -5.10599 0
M  V30 18137 H 1744.06 -5.4043 -5.34639 0
M  V30 18138 N 1745.64 1.48215 -0.535727 0
M  V30 18139 C 1746.91 1.95505 0.0609376 0
M  V30 18140 C 1747.29 1.47806 1.5072 0
M  V30 18141 O 1746.64 0.707142 2.17283 0
M  V30 18142 C 1746.85 3.48944 -0.0622609 0
M  V30 18143 C 1748.2 4.24496 0.0940805 0
M  V30 18144 O 1749.22 3.56198 0.0112532 0
M  V30 18145 O 1748.08 5.4584 0.268547 0
M  V30 18146 H 1745.18 0.82349 0.0761079 0
M  V30 18147 H 1747.72 1.58711 -0.600732 0
M  V30 18148 H 1746.49 3.76401 -1.06949 0
M  V30 18149 H 1746.12 3.92448 0.637999 0
M  V30 18150 N 1747.11 0.27113 1.5525 0
M  V30 18151 C 1748.06 -0.634087 2.2379 0
M  V30 18152 C 1749.06 -1.16101 1.23357 0
M  V30 18153 O 1750.26 -1.1151 1.413 0
M  V30 18154 H 1746.64 -0.223023 0.718168 0
M  V30 18155 H 1748.61 -0.0331304 2.98382 0
M  V30 18156 C 1747.36 -1.80879 2.96948 0
M  V30 18157 H 1746.68 -1.41252 3.74016 0
M  V30 18158 H 1748.12 -2.41888 3.48233 0
M  V30 18159 C 1746.58 -2.69481 2.02192 0
M  V30 18160 O 1747.11 -3.69725 1.57056 0
M  V30 18161 N 1745.32 -2.36565 1.68776 0
M  V30 18162 H 1744.86 -1.55096 2.05677 0
M  V30 18163 H 1744.82 -2.96119 1.05646 0
M  V30 18164 N 1748.59 -1.576 -0.00164943 0
M  V30 18165 C 1749.84 -1.90496 -0.686842 0
M  V30 18166 C 1750.17 -0.871747 -1.7387 0
M  V30 18167 O 1749.42 0.123698 -1.95309 0
M  V30 18168 C 1749.72 -3.30147 -1.36886 0
M  V30 18169 C 1749.39 -4.48645 -0.450358 0
M  V30 18170 C 1748.05 -4.80795 -0.197461 0
M  V30 18171 C 1750.4 -5.20882 0.18214 0
M  V30 18172 C 1747.73 -5.82554 0.696255 0
M  V30 18173 C 1750.08 -6.23593 1.06372 0
M  V30 18174 C 1748.75 -6.54201 1.32581 0
M  V30 18175 H 1748.02 -0.697074 -0.251333 0
M  V30 18176 H 1750.66 -1.91425 0.0535238 0
M  V30 18177 H 1748.97 -3.25334 -2.18323 0
M  V30 18178 H 1750.66 -3.52859 -1.90504 0
M  V30 18179 H 1747.25 -4.23525 -0.657635 0
M  V30 18180 H 1751.44 -4.963 -0.000231234 0
M  V30 18181 H 1746.69 -6.0463 0.907337 0
M  V30 18182 H 1750.87 -6.78698 1.56018 0
M  V30 18183 H 1748.5 -7.3287 2.02002 0
M  V30 18184 N 1750.07 0.274379 -1.55193 0
M  V30 18185 C 1751.35 1.02736 -1.66447 0
M  V30 18186 C 1751.73 2.04337 -0.530051 0
M  V30 18187 O 1751.08 2.23613 0.470058 0
M  V30 18188 C 1751.29 1.6854 -3.05606 0
M  V30 18189 C 1752.63 2.19754 -3.63309 0
M  V30 18190 O 1753.66 1.78529 -3.0823 0
M  V30 18191 O 1752.52 2.95364 -4.59807 0
M  V30 18192 H 1749.61 0.476462 -0.675953 0
M  V30 18193 H 1752.16 0.270347 -1.67533 0
M  V30 18194 H 1750.93 0.949086 -3.79616 0
M  V30 18195 H 1750.55 2.50931 -3.08414 0
M  V30 18196 N 1751.55 1.48103 0.538828 0
M  V30 18197 C 1752.96 1.49312 1.12085 0
M  V30 18198 C 1753.31 0.257965 1.94497 0
M  V30 18199 O 1752.44 -0.635654 2.06854 0
M  V30 18200 C 1753.03 2.70545 2.03939 0
M  V30 18201 C 1751.59 2.74654 2.57376 0
M  V30 18202 C 1750.74 2.42695 1.34144 0
M  V30 18203 H 1753.69 1.55347 0.324512 0
M  V30 18204 H 1753.71 2.4856 2.88094 0
M  V30 18205 H 1753.22 3.60424 1.4393 0
M  V30 18206 H 1751.32 1.8896 3.21131 0
M  V30 18207 H 1751.43 3.75846 2.97114 0
M  V30 18208 H 1749.8 1.93663 1.65429 0
M  V30 18209 H 1750.58 3.34804 0.759009 0
M  V30 18210 N 1753.03 -0.787016 1.36542 0
M  V30 18211 C 1754.27 -1.54728 1.311 0
M  V30 18212 C 1754.61 -1.93895 -0.108853 0
M  V30 18213 O 1753.88 -1.62896 -1.06278 0
M  V30 18214 C 1754.16 -2.82272 2.23594 0
M  V30 18215 C 1754.02 -2.49457 3.74287 0
M  V30 18216 C 1755.34 -3.84112 2.14816 0
M  V30 18217 H 1752.45 -0.561347 0.477555 0
M  V30 18218 H 1755.1 -0.904027 1.67115 0
M  V30 18219 H 1753.25 -3.37163 1.93011 0
M  V30 18220 H 1754.92 -2.00599 4.15401 0
M  V30 18221 H 1753.16 -1.82366 3.93605 0
M  V30 18222 H 1753.83 -3.40563 4.3442 0
M  V30 18223 H 1756.31 -3.38674 2.41741 0
M  V30 18224 H 1755.18 -4.71101 2.817 0
M  V30 18225 H 1755.45 -4.2725 1.13621 0
M  V30 18226 N 1754.5 -1.20861 -1.01145 0
M  V30 18227 C 1755.73 -1.04769 -1.78413 0
M  V30 18228 C 1756.15 0.402846 -1.84452 0
M  V30 18229 O 1755.5 1.27962 -1.30123 0
M  V30 18230 C 1755.56 -1.63065 -3.22633 0
M  V30 18231 O 1755.28 -3.02443 -3.16954 0
M  V30 18232 C 1756.78 -1.51996 -4.16428 0
M  V30 18233 H 1754 -0.368271 -0.560908 0
M  V30 18234 H 1756.54 -1.6006 -1.27283 0
M  V30 18235 H 1754.7 -1.11882 -3.70892 0
M  V30 18236 H 1755.11 -3.30199 -4.07515 0
M  V30 18237 H 1756.58 -1.97539 -5.15444 0
M  V30 18238 H 1757.06 -0.473305 -4.36642 0
M  V30 18239 H 1757.67 -2.02396 -3.74054 0
M  V30 18240 N 1755.98 1.20536 -1.01532 0
M  V30 18241 C 1756.91 2.2553 -0.604866 0
M  V30 18242 C 1757.89 1.65814 0.379452 0
M  V30 18243 O 1759.08 1.92381 0.265162 0
M  V30 18244 C 1756.21 3.4725 0.0589292 0
M  V30 18245 C 1755.16 4.19551 -0.846241 0
M  V30 18246 C 1754.49 5.34678 -0.0482901 0
M  V30 18247 C 1755.79 4.75829 -2.1537 0
M  V30 18248 H 1757.48 2.60117 -1.48254 0
M  V30 18249 H 1755.03 1.25035 -0.714297 0
M  V30 18250 H 1756.98 4.1988 0.357627 0
M  V30 18251 H 1755.71 3.11822 0.97131 0
M  V30 18252 H 1754.36 3.48785 -1.12892 0
M  V30 18253 H 1754.01 4.95494 0.8657 0
M  V30 18254 H 1753.71 5.83982 -0.651081 0
M  V30 18255 H 1755.24 6.10112 0.243983 0
M  V30 18256 H 1756.65 5.40284 -1.91745 0
M  V30 18257 H 1755.05 5.35564 -2.70723 0
M  V30 18258 H 1756.12 3.94641 -2.81756 0
M  V30 18259 N 1757.46 0.791395 1.36289 0
M  V30 18260 C 1758.69 0.375566 2.03971 0
M  V30 18261 C 1759.11 -1.00061 1.59277 0
M  V30 18262 O 1758.47 -1.64501 0.762182 0
M  V30 18263 C 1758.52 0.449891 3.57783 0
M  V30 18264 O 1757.62 -0.54243 4.08817 0
M  V30 18265 H 1756.96 0.159181 0.644637 0
M  V30 18266 H 1759.49 1.07306 1.74203 0
M  V30 18267 H 1759.5 0.314206 4.06788 0
M  V30 18268 H 1758.18 1.45377 3.89665 0
M  V30 18269 H 1756.75 -0.368243 3.71077 0
M  V30 18270 N 1758.94 -1.47929 0.54358 0
M  V30 18271 C 1760.16 -2.07393 0.0168905 0
M  V30 18272 C 1760.59 -1.39557 -1.26117 0
M  V30 18273 O 1759.95 -0.465983 -1.75209 0
M  V30 18274 C 1760 -3.6017 -0.176105 0
M  V30 18275 O 1759.1 -3.9326 -1.24178 0
M  V30 18276 H 1758.44 -0.662459 0.0452126 0
M  V30 18277 H 1760.97 -1.90145 0.755376 0
M  V30 18278 H 1760.98 -4.06088 -0.394555 0
M  V30 18279 H 1759.66 -4.08944 0.757445 0
M  V30 18280 H 1758.23 -3.59105 -1.0049 0
M  V30 18281 N 1760.42 -0.27936 -1.55104 0
M  V30 18282 C 1761.66 0.337344 -2.01597 0
M  V30 18283 C 1762.02 1.52732 -1.16348 0
M  V30 18284 O 1763.22 2.21394 -1.5244 0
M  V30 18285 C 1761.49 0.705839 -3.50361 0
M  V30 18286 S 1763.05 1.30847 -4.18837 0
M  V30 18287 H 1759.87 0.104703 -0.703248 0
M  V30 18288 H 1762.47 -0.402184 -1.91318 0
M  V30 18289 H 1761.18 -0.169038 -4.10052 0
M  V30 18290 H 1760.71 1.47672 -3.64632 0
M  V30 18291 H 1762.72 2.59696 -4.22815 0
M  V30 18292 N 1761.9 1.57599 -0.0067085 0
M  V30 18293 C 1762.83 2.05706 1.01084 0
M  V30 18294 C 1763.84 0.976216 1.30284 0
M  V30 18295 O 1765.03 1.25288 1.27142 0
M  V30 18296 C 1762.13 2.44771 2.34393 0
M  V30 18297 C 1761.3 3.75668 2.24036 0
M  V30 18298 C 1760.36 4.01528 3.4009 0
M  V30 18299 O 1759.39 4.72101 3.17977 0
M  V30 18300 N 1760.59 3.49947 4.6316 0
M  V30 18301 H 1763.35 2.93622 0.600532 0
M  V30 18302 H 1760.92 1.6089 0.180536 0
M  V30 18303 H 1762.91 2.5918 3.10818 0
M  V30 18304 H 1761.48 1.62339 2.67142 0
M  V30 18305 H 1760.7 3.71272 1.3248 0
M  V30 18306 H 1761.99 4.6147 2.14295 0
M  V30 18307 H 1761.38 2.92811 4.84023 0
M  V30 18308 H 1759.94 3.69675 5.36828 0
M  V30 18309 N 1763.37 -0.266145 1.55336 0
M  V30 18310 C 1764.79 -0.613693 1.47329 0
M  V30 18311 C 1764.99 -1.89207 0.693038 0
M  V30 18312 O 1764.05 -2.51586 0.214642 0
M  V30 18313 C 1765.36 -0.734287 2.91597 0
M  V30 18314 C 1766.91 -0.82789 3.01853 0
M  V30 18315 C 1767.38 -0.980205 4.47388 0
M  V30 18316 N 1768.87 -1.04556 4.51245 0
M  V30 18317 C 1769.61 -1.18233 5.61078 0
M  V30 18318 N 1769.1 -1.28587 6.80762 0
M  V30 18319 N 1770.9 -1.21398 5.48834 0
M  V30 18320 H 1763.05 0.573316 2.04516 0
M  V30 18321 H 1765.31 0.195128 0.927701 0
M  V30 18322 H 1765.02 0.134714 3.51442 0
M  V30 18323 H 1764.89 -1.6124 3.41001 0
M  V30 18324 H 1767.28 -1.68735 2.421 0
M  V30 18325 H 1767.36 0.0749719 2.5569 0
M  V30 18326 H 1767 -0.125373 5.07745 0
M  V30 18327 H 1766.93 -1.89782 4.91213 0
M  V30 18328 H 1769.42 -0.977667 3.65034 0
M  V30 18329 H 1769.74 -1.38876 7.60219 0
M  V30 18330 H 1768.08 -1.25579 6.8356 0
M  V30 18331 H 1771.27 -1.12944 4.5427 0
M  V30 18332 H 1771.45 -1.31713 6.34473 0
M  V30 18333 N 1764.85 -1.48386 -0.530967 0
M  V30 18334 C 1766.1 -1.56045 -1.28431 0
M  V30 18335 C 1766.42 -0.235695 -1.9357 0
M  V30 18336 O 1765.69 0.742677 -1.81276 0
M  V30 18337 H 1764.27 -0.574868 -0.477007 0
M  V30 18338 H 1766.93 -1.84844 -0.617955 0
M  V30 18339 H 1766.03 -2.34096 -2.0641 0
M  V30 18340 N 1766.33 0.779763 -1.36958 0
M  V30 18341 C 1767.24 1.92394 -1.34245 0
M  V30 18342 C 1768.26 1.72292 -0.243187 0
M  V30 18343 O 1769.43 1.95665 -0.477211 0
M  V30 18344 C 1766.5 3.27402 -1.14057 0
M  V30 18345 C 1765.56 3.60213 -2.33548 0
M  V30 18346 C 1764.79 4.88779 -2.14314 0
M  V30 18347 O 1765.01 5.59231 -1.12327 0
M  V30 18348 O 1763.95 5.20469 -3.02316 0
M  V30 18349 H 1767.77 1.97633 -2.30596 0
M  V30 18350 H 1765.36 0.921386 -1.17605 0
M  V30 18351 H 1767.24 4.08172 -1.04755 0
M  V30 18352 H 1765.92 3.23033 -0.207744 0
M  V30 18353 H 1764.82 2.7971 -2.48421 0
M  V30 18354 H 1766.16 3.69317 -3.25371 0
M  V30 18355 N 1767.81 1.21396 1.00503 0
M  V30 18356 C 1769.04 1.05714 1.77855 0
M  V30 18357 C 1769.45 -0.393058 1.84663 0
M  V30 18358 O 1768.81 -1.2727 1.308 0
M  V30 18359 C 1768.86 1.64774 3.21763 0
M  V30 18360 O 1768.58 3.0412 3.15346 0
M  V30 18361 C 1770.08 1.54202 4.15616 0
M  V30 18362 H 1767.3 0.371241 0.558947 0
M  V30 18363 H 1769.84 1.60733 1.26433 0
M  V30 18364 H 1768 1.13847 3.70294 0
M  V30 18365 H 1768.41 3.32356 4.05758 0
M  V30 18366 H 1769.89 2.00269 5.14389 0
M  V30 18367 H 1770.36 0.496455 4.36385 0
M  V30 18368 H 1770.97 2.04377 3.72975 0
M  V30 18369 N 1769.29 -1.19996 1.0217 0
M  V30 18370 C 1770.52 -1.93186 0.732311 0
M  V30 18371 C 1770.92 -1.75303 -0.711724 0
M  V30 18372 O 1770.27 -1.06756 -1.49495 0
M  V30 18373 C 1770.33 -3.45466 0.994655 0
M  V30 18374 C 1769.99 -3.87114 2.42882 0
M  V30 18375 C 1770.99 -3.92459 3.40987 0
M  V30 18376 C 1768.67 -4.18958 2.77091 0
M  V30 18377 C 1770.67 -4.29067 4.7136 0
M  V30 18378 C 1768.36 -4.5524 4.07676 0
M  V30 18379 C 1769.35 -4.60267 5.04622 0
M  V30 18380 O 1769.04 -4.95713 6.32869 0
M  V30 18381 H 1768.77 -0.62069 0.267806 0
M  V30 18382 H 1771.33 -1.53287 1.3672 0
M  V30 18383 H 1769.56 -3.85514 0.30261 0
M  V30 18384 H 1771.25 -3.99887 0.696049 0
M  V30 18385 H 1772.01 -3.68016 3.15895 0
M  V30 18386 H 1767.89 -4.14233 2.02317 0
M  V30 18387 H 1771.44 -4.32905 5.47027 0
M  V30 18388 H 1767.33 -4.7914 4.32545 0
M  V30 18389 H 1768.1 -5.13687 6.37234 0
M  V30 18390 N 1770.76 -0.798611 -1.35867 0
M  V30 18391 C 1771.99 -0.386378 -2.03769 0
M  V30 18392 C 1772.41 0.992154 -1.59806 0
M  V30 18393 O 1771.77 1.64094 -0.770895 0
M  V30 18394 C 1771.82 -0.468859 -3.57539 0
M  V30 18395 O 1770.92 0.520742 -4.09099 0
M  V30 18396 H 1770.26 -0.162597 -0.643784 0
M  V30 18397 H 1772.79 -1.08228 -1.73631 0
M  V30 18398 H 1772.8 -0.335775 -4.06616 0
M  V30 18399 H 1771.48 -1.47441 -3.88888 0
M  V30 18400 H 1770.06 0.348559 -3.71267 0
M  V30 18401 N 1772.24 1.47639 -0.551417 0
M  V30 18402 C 1773.65 1.86336 -0.116513 0
M  V30 18403 C 1774 1.45869 1.31213 0
M  V30 18404 O 1773.13 0.859103 1.98616 0
M  V30 18405 C 1773.72 3.38181 -0.204671 0
M  V30 18406 C 1772.28 3.75992 0.175161 0
M  V30 18407 C 1771.43 2.71692 -0.554843 0
M  V30 18408 H 1774.38 1.39238 -0.761471 0
M  V30 18409 H 1774.4 3.76081 0.578214 0
M  V30 18410 H 1773.91 3.67604 -1.24456 0
M  V30 18411 H 1772.01 3.52186 1.21638 0
M  V30 18412 H 1772.13 4.78764 -0.179368 0
M  V30 18413 H 1770.49 2.547 0.00140775 0
M  V30 18414 H 1771.27 3.03957 -1.59578 0
M  V30 18415 N 1773.72 0.287581 1.54954 0
M  V30 18416 C 1774.68 -0.581465 2.21702 0
M  V30 18417 C 1775.68 -1.07172 1.19878 0
M  V30 18418 O 1776.87 -0.969899 1.44702 0
M  V30 18419 C 1774.01 -1.80358 2.89282 0
M  V30 18420 H 1775.2 0.00151035 2.999 0
M  V30 18421 H 1772.75 0.0382953 1.56253 0
M  V30 18422 H 1773.49 -2.42674 2.15128 0
M  V30 18423 H 1773.27 -1.45983 3.63911 0
M  V30 18424 H 1774.76 -2.42129 3.4024 0
M  V30 18425 N 1775.2 -1.57593 0.0150662 0
M  V30 18426 C 1776.11 -2.12807 -0.987437 0
M  V30 18427 C 1777.12 -1.07691 -1.3667 0
M  V30 18428 O 1778.3 -1.39674 -1.45097 0
M  V30 18429 C 1775.37 -2.63276 -2.2558 0
M  V30 18430 C 1774.43 -3.83053 -1.93827 0
M  V30 18431 C 1773.66 -4.31106 -3.14616 0
M  V30 18432 O 1773.88 -3.78405 -4.26809 0
M  V30 18433 O 1772.82 -5.23104 -2.97734 0
M  V30 18434 H 1776.64 -2.98715 -0.548015 0
M  V30 18435 H 1774.23 -1.47991 -0.20469 0
M  V30 18436 H 1776.11 -2.95869 -3.00066 0
M  V30 18437 H 1774.78 -1.80459 -2.68731 0
M  V30 18438 H 1773.69 -3.55409 -1.1677 0
M  V30 18439 H 1775.02 -4.6699 -1.55502 0
M  V30 18440 N 1776.68 0.257904 -1.55475 0
M  V30 18441 C 1777.61 1.34176 -1.85821 0
M  V30 18442 C 1778.62 1.44821 -0.743696 0
M  V30 18443 O 1779.81 1.46367 -1.02171 0
M  V30 18444 C 1776.91 2.72151 -2.01958 0
M  V30 18445 C 1776.08 2.83911 -3.32736 0
M  V30 18446 C 1775.14 4.02659 -3.38751 0
M  V30 18447 O 1774.17 3.92705 -4.12034 0
M  V30 18448 N 1775.37 5.15325 -2.67245 0
M  V30 18449 H 1778.14 1.08483 -2.79377 0
M  V30 18450 H 1775.7 0.448017 -1.55578 0
M  V30 18451 H 1777.69 3.4991 -2.03335 0
M  V30 18452 H 1776.26 2.906 -1.15198 0
M  V30 18453 H 1775.48 1.92915 -3.43769 0
M  V30 18454 H 1776.77 2.88709 -4.18956 0
M  V30 18455 H 1776.16 5.26303 -2.07418 0
M  V30 18456 H 1774.72 5.91259 -2.74328 0
M  V30 18457 N 1778.15 1.48666 0.52309 0
M  V30 18458 C 1779.38 1.60965 1.30787 0
M  V30 18459 C 1779.8 0.272663 1.86113 0
M  V30 18460 O 1779.16 -0.756662 1.64755 0
M  V30 18461 C 1779.21 2.66455 2.42969 0
M  V30 18462 O 1778.31 2.24094 3.46202 0
M  V30 18463 H 1777.66 0.539516 0.387064 0
M  V30 18464 H 1780.19 1.94702 0.628683 0
M  V30 18465 H 1780.2 2.87942 2.89056 0
M  V30 18466 H 1778.87 3.63516 2.02062 0
M  V30 18467 H 1777.45 2.12848 3.06186 0
M  V30 18468 N 1779.63 -0.772489 1.37369 0
M  V30 18469 C 1780.87 -1.54405 1.33935 0
M  V30 18470 C 1781.24 -1.9185 -0.0757718 0
M  V30 18471 O 1782.44 -2.67772 -0.234832 0
M  V30 18472 C 1780.71 -2.77561 2.25154 0
M  V30 18473 S 1782.27 -3.67634 2.39564 0
M  V30 18474 H 1779.09 -0.52862 0.475481 0
M  V30 18475 H 1781.69 -0.908446 1.73111 0
M  V30 18476 H 1780.39 -2.4813 3.26894 0
M  V30 18477 H 1779.92 -3.46081 1.87059 0
M  V30 18478 H 1781.94 -4.69502 1.60567 0
M  V30 18479 N 1781.11 -1.21927 -0.998575 0
M  V30 18480 C 1782.36 -1.04194 -1.73987 0
M  V30 18481 C 1782.69 0.4227 -1.89544 0
M  V30 18482 O 1781.96 1.31353 -1.43446 0
M  V30 18483 C 1782.25 -1.74717 -3.14874 0
M  V30 18484 C 1782.1 -3.28741 -3.07001 0
M  V30 18485 C 1783.42 -1.49495 -4.13931 0
M  V30 18486 H 1780.54 -0.379918 -0.631531 0
M  V30 18487 H 1783.18 -1.5019 -1.16374 0
M  V30 18488 H 1781.33 -1.35615 -3.64062 0
M  V30 18489 H 1783 -3.77252 -2.65478 0
M  V30 18490 H 1781.25 -3.58711 -2.43944 0
M  V30 18491 H 1781.92 -3.73258 -4.06672 0
M  V30 18492 H 1784.39 -1.83451 -3.73477 0
M  V30 18493 H 1783.27 -2.01344 -5.10639 0
M  V30 18494 H 1783.53 -0.426324 -4.4004 0
M  V30 18495 N 1782.59 1.19452 -1.02805 0
M  V30 18496 C 1783.54 2.20533 -0.578732 0
M  V30 18497 C 1784.52 1.56539 0.372081 0
M  V30 18498 O 1785.71 1.75943 0.193185 0
M  V30 18499 C 1782.84 3.43229 0.0698982 0
M  V30 18500 C 1781.93 4.14368 -0.903306 0
M  V30 18501 N 1782.32 4.61709 -2.0654 0
M  V30 18502 C 1780.62 4.40042 -0.726572 0
M  V30 18503 C 1781.32 5.1633 -2.67914 0
M  V30 18504 N 1780.3 5.0708 -1.95884 0
M  V30 18505 H 1784.1 2.54813 -1.46451 0
M  V30 18506 H 1781.61 1.35517 -0.894927 0
M  V30 18507 H 1783.61 4.14885 0.409411 0
M  V30 18508 H 1782.27 3.1045 0.951368 0
M  V30 18509 H 1783.28 4.5656 -2.44485 0
M  V30 18510 H 1779.96 4.17366 0.105875 0
M  V30 18511 H 1781.35 5.63254 -3.66326 0
M  V30 18512 N 1784.07 0.805805 1.35442 0
M  V30 18513 C 1785.31 0.385808 1.98791 0
M  V30 18514 C 1785.64 -1.04681 1.63927 0
M  V30 18515 O 1784.9 -1.7408 0.894125 0
M  V30 18516 C 1785.2 0.515335 3.53665 0
M  V30 18517 C 1784.86 1.91115 4.08394 0
M  V30 18518 C 1783.52 2.29302 4.23053 0
M  V30 18519 C 1785.88 2.82437 4.38039 0
M  V30 18520 C 1783.2 3.58182 4.64675 0
M  V30 18521 C 1785.56 4.10762 4.811 0
M  V30 18522 C 1784.22 4.48949 4.93964 0
M  V30 18523 H 1783.49 0.141177 0.727427 0
M  V30 18524 H 1786.14 1.02644 1.61667 0
M  V30 18525 H 1784.44 -0.208753 3.91243 0
M  V30 18526 H 1786.14 0.171152 4.00635 0
M  V30 18527 H 1782.73 1.60446 3.97436 0
M  V30 18528 H 1786.91 2.54183 4.26268 0
M  V30 18529 H 1782.17 3.87618 4.72824 0
M  V30 18530 H 1786.34 4.81626 5.03 0
M  V30 18531 H 1783.97 5.48867 5.25974 0
M  V30 18532 N 1785.54 -1.47344 0.559239 0
M  V30 18533 C 1786.51 -2.28516 -0.17688 0
M  V30 18534 C 1787.51 -1.37065 -0.840823 0
M  V30 18535 O 1788.7 -1.59676 -0.696373 0
M  V30 18536 C 1785.83 -3.16803 -1.25892 0
M  V30 18537 H 1787.02 -2.95068 0.536174 0
M  V30 18538 H 1784.58 -1.53067 0.316263 0
M  V30 18539 H 1785.31 -2.54947 -2.00431 0
M  V30 18540 H 1785.1 -3.84108 -0.787625 0
M  V30 18541 H 1786.59 -3.77958 -1.77589 0
M  V30 18542 N 1787.02 -0.295795 -1.54799 0
M  V30 18543 C 1788.26 0.315943 -2.01943 0
M  V30 18544 C 1788.63 1.5149 -1.17961 0
M  V30 18545 O 1789.83 2.19765 -1.5478 0
M  V30 18546 C 1788.1 0.668639 -3.5109 0
M  V30 18547 S 1789.66 1.26398 -4.20201 0
M  V30 18548 H 1786.48 0.0972386 -0.704319 0
M  V30 18549 H 1789.08 -0.422454 -1.90881 0
M  V30 18550 H 1787.78 -0.21252 -4.09849 0
M  V30 18551 H 1787.31 1.43796 -3.66178 0
M  V30 18552 H 1789.33 2.55196 -4.25546 0
M  V30 18553 N 1788.5 1.57583 -0.0234236 0
M  V30 18554 C 1789.41 2.13328 0.976138 0
M  V30 18555 C 1790.43 1.08414 1.36097 0
M  V30 18556 O 1791.6 1.40441 1.44354 0
M  V30 18557 C 1788.67 2.64469 2.24181 0
M  V30 18558 C 1787.73 3.84076 1.91793 0
M  V30 18559 C 1786.96 4.32768 3.12326 0
M  V30 18560 O 1787.19 3.80663 4.24797 0
M  V30 18561 O 1786.12 5.24676 2.94956 0
M  V30 18562 H 1789.95 2.99001 0.532166 0
M  V30 18563 H 1787.53 1.48098 0.196838 0
M  V30 18564 H 1789.41 2.97456 2.98492 0
M  V30 18565 H 1788.09 1.81881 2.6777 0
M  V30 18566 H 1786.99 3.56023 1.14883 0
M  V30 18567 H 1788.33 4.67808 1.53024 0
M  V30 18568 N 1789.98 -0.249655 1.5561 0
M  V30 18569 C 1790.93 -1.30906 1.90085 0
M  V30 18570 C 1791.9 -1.4796 0.754784 0
M  V30 18571 O 1793.08 -1.61988 1.00819 0
M  V30 18572 C 1790.22 -2.66 2.19859 0
M  V30 18573 C 1789.33 -2.56976 3.47257 0
M  V30 18574 C 1788.47 -3.84404 3.66615 0
M  V30 18575 C 1787.51 -3.69986 4.87623 0
M  V30 18576 N 1786.65 -4.89301 5.03517 0
M  V30 18577 H 1791.49 -1.00805 2.80432 0
M  V30 18578 H 1789.02 -0.486509 1.38822 0
M  V30 18579 H 1790.98 -3.44632 2.35126 0
M  V30 18580 H 1789.61 -2.94254 1.32719 0
M  V30 18581 H 1788.66 -1.69927 3.40337 0
M  V30 18582 H 1789.97 -2.42231 4.36034 0
M  V30 18583 H 1789.13 -4.7148 3.81826 0
M  V30 18584 H 1787.87 -4.02043 2.76066 0
M  V30 18585 H 1786.87 -2.81294 4.72391 0
M  V30 18586 H 1788.1 -3.53845 5.7963 0
M  V30 18587 H 1786.04 -5.07306 4.15905 0
M  V30 18588 H 1785.96 -4.77176 5.86378 0
M  V30 18589 H 1787.23 -5.77883 5.23137 0
M  V30 18590 N 1791.46 -1.48941 -0.515198 0
M  V30 18591 C 1792.69 -1.61396 -1.29457 0
M  V30 18592 C 1793.1 -0.279847 -1.86714 0
M  V30 18593 O 1792.46 0.732861 -1.67139 0
M  V30 18594 C 1792.51 -2.67194 -2.43494 0
M  V30 18595 O 1792.23 -3.95429 -1.88593 0
M  V30 18596 C 1793.73 -2.90224 -3.35089 0
M  V30 18597 H 1790.95 -0.543754 -0.393157 0
M  V30 18598 H 1793.49 -1.94875 -0.619996 0
M  V30 18599 H 1791.65 -2.36532 -3.06808 0
M  V30 18600 H 1792.06 -4.53593 -2.63351 0
M  V30 18601 H 1793.54 -3.68018 -4.1142 0
M  V30 18602 H 1794.01 -1.99601 -3.91224 0
M  V30 18603 H 1794.62 -3.22247 -2.77555 0
M  V30 18604 N 1792.94 0.765193 -1.37777 0
M  V30 18605 C 1794.21 1.51374 -1.23876 0
M  V30 18606 C 1794.59 2.10455 0.164852 0
M  V30 18607 O 1793.94 1.96084 1.17318 0
M  V30 18608 C 1794.15 2.58939 -2.33991 0
M  V30 18609 C 1795.5 3.26162 -2.71852 0
M  V30 18610 O 1796.52 2.69238 -2.33216 0
M  V30 18611 O 1795.38 4.29094 -3.38438 0
M  V30 18612 H 1792.48 0.670749 -0.48376 0
M  V30 18613 H 1795.02 0.801597 -1.49574 0
M  V30 18614 H 1793.79 2.13448 -3.27957 0
M  V30 18615 H 1793.42 3.37747 -2.09793 0
M  V30 18616 N 1794.41 1.22455 0.992094 0
M  V30 18617 C 1795.65 1.06119 1.74694 0
M  V30 18618 C 1796.02 -0.396703 1.87857 0
M  V30 18619 O 1797.22 -0.680936 2.60032 0
M  V30 18620 C 1795.49 1.75374 3.11414 0
M  V30 18621 S 1797.05 1.74461 4.02627 0
M  V30 18622 H 1793.87 0.380011 0.600927 0
M  V30 18623 H 1796.47 1.55408 1.18611 0
M  V30 18624 H 1795.17 2.8061 2.99477 0
M  V30 18625 H 1794.7 1.26319 3.72568 0
M  V30 18626 H 1796.72 0.794871 4.89792 0
M  V30 18627 N 1795.89 -1.18905 1.03437 0
M  V30 18628 C 1797.3 -1.70402 0.762893 0
M  V30 18629 C 1797.65 -1.82633 -0.716908 0
M  V30 18630 O 1796.78 -1.50136 -1.55847 0
M  V30 18631 C 1797.37 -3.09501 1.37822 0
M  V30 18632 C 1795.93 -3.58235 1.1552 0
M  V30 18633 C 1795.08 -2.34953 1.47284 0
M  V30 18634 H 1798.03 -1.03669 1.2016 0
M  V30 18635 H 1798.05 -3.7246 0.778079 0
M  V30 18636 H 1797.56 -3.00566 2.45523 0
M  V30 18637 H 1795.66 -3.72475 0.096646 0
M  V30 18638 H 1795.78 -4.42034 1.84778 0
M  V30 18639 H 1794.14 -2.38557 0.892333 0
M  V30 18640 H 1794.92 -2.28643 2.5608 0
M  V30 18641 N 1797.37 -0.812977 -1.35013 0
M  V30 18642 C 1798.28 -0.229534 -2.33474 0
M  V30 18643 C 1799.3 0.630837 -1.62162 0
M  V30 18644 O 1800.47 0.541083 -1.93995 0
M  V30 18645 C 1797.54 0.607055 -3.41344 0
M  V30 18646 C 1796.6 -0.274554 -4.28421 0
M  V30 18647 C 1795.83 0.522202 -5.31139 0
M  V30 18648 O 1796.05 1.75636 -5.42686 0
M  V30 18649 O 1794.99 -0.0902666 -6.01832 0
M  V30 18650 H 1798.81 -1.04423 -2.85183 0
M  V30 18651 H 1796.4 -0.5749 -1.37896 0
M  V30 18652 H 1798.28 1.08335 -4.07236 0
M  V30 18653 H 1796.96 1.39924 -2.91895 0
M  V30 18654 H 1795.86 -0.798124 -3.65487 0
M  V30 18655 H 1797.2 -1.03084 -4.81284 0
M  V30 18656 N 1798.85 1.47045 -0.567045 0
M  V30 18657 C 1799.78 2.32929 0.163191 0
M  V30 18658 C 1800.76 1.44393 0.899142 0
M  V30 18659 O 1801.94 1.73235 0.87768 0
M  V30 18660 C 1799.07 3.26369 1.18745 0
M  V30 18661 C 1798.03 4.24223 0.567335 0
M  V30 18662 C 1797.35 5.07058 1.69693 0
M  V30 18663 C 1798.65 5.2004 -0.485319 0
M  V30 18664 H 1800.35 2.94233 -0.553837 0
M  V30 18665 H 1797.89 1.41488 -0.267789 0
M  V30 18666 H 1799.85 3.85299 1.70654 0
M  V30 18667 H 1798.57 2.6314 1.93455 0
M  V30 18668 H 1797.23 3.66534 0.0694525 0
M  V30 18669 H 1796.88 4.40226 2.43331 0
M  V30 18670 H 1796.58 5.73316 1.28774 0
M  V30 18671 H 1798.1 5.68848 2.2191 0
M  V30 18672 H 1799.52 5.73277 -0.0519049 0
M  V30 18673 H 1797.91 5.94554 -0.813942 0
M  V30 18674 H 1798.98 4.64921 -1.37754 0
M  V30 18675 N 1800.33 0.304 1.5464 0
M  V30 18676 C 1801.29 -0.557917 2.22306 0
M  V30 18677 C 1802.29 -1.05895 1.21008 0
M  V30 18678 O 1803.48 -0.954497 1.45722 0
M  V30 18679 C 1800.61 -1.77279 2.91178 0
M  V30 18680 H 1801.8 0.0333187 2.99881 0
M  V30 18681 H 1799.36 0.0548659 1.56204 0
M  V30 18682 H 1800.09 -2.40378 2.17689 0
M  V30 18683 H 1799.88 -1.42115 3.65439 0
M  V30 18684 H 1801.37 -2.38507 3.42789 0
M  V30 18685 N 1801.8 -1.57568 0.0317802 0
M  V30 18686 C 1803.05 -1.92194 -0.647238 0
M  V30 18687 C 1803.38 -0.908747 -1.71626 0
M  V30 18688 O 1802.66 0.0681334 -1.94381 0
M  V30 18689 C 1802.94 -3.3729 -1.26124 0
M  V30 18690 C 1802.79 -4.49348 -0.201594 0
M  V30 18691 C 1804.11 -3.824 -2.17849 0
M  V30 18692 H 1801.23 -0.698927 -0.233817 0
M  V30 18693 H 1803.87 -1.89789 0.0895831 0
M  V30 18694 H 1802.02 -3.39471 -1.88922 0
M  V30 18695 H 1803.7 -4.59299 0.429155 0
M  V30 18696 H 1801.94 -4.31218 0.472624 0
M  V30 18697 H 1802.61 -5.47908 -0.670859 0
M  V30 18698 H 1805.09 -3.81972 -1.65034 0
M  V30 18699 H 1803.96 -4.84614 -2.57761 0
M  V30 18700 H 1804.22 -3.18054 -3.07073 0
M  V30 18701 N 1803.28 0.241399 -1.5574 0
M  V30 18702 C 1804.19 1.32034 -1.93918 0
M  V30 18703 C 1805.21 1.52363 -0.840331 0
M  V30 18704 O 1806.38 1.65879 -1.1422 0
M  V30 18705 C 1803.45 2.6539 -2.2309 0
M  V30 18706 C 1802.51 2.53536 -3.46436 0
M  V30 18707 C 1801.74 3.80532 -3.74208 0
M  V30 18708 O 1801.97 4.82662 -3.03964 0
M  V30 18709 O 1800.9 3.78834 -4.67727 0
M  V30 18710 H 1804.73 1.02647 -2.85827 0
M  V30 18711 H 1802.31 0.442616 -1.42693 0
M  V30 18712 H 1804.19 3.44184 -2.43137 0
M  V30 18713 H 1802.87 2.94499 -1.34358 0
M  V30 18714 H 1801.78 1.73009 -3.3169 0
M  V30 18715 H 1803.11 2.29371 -4.35488 0
M  V30 18716 N 1804.76 1.49212 0.507292 0
M  V30 18717 C 1805.71 1.65894 1.6304 0
M  V30 18718 C 1806.7 0.524951 1.61061 0
M  V30 18719 O 1807.91 0.704392 1.65645 0
M  V30 18720 H 1804.28 0.522994 0.540353 0
M  V30 18721 H 1806.25 2.60176 1.4612 0
M  V30 18722 C 1805 1.73692 3.01208 0
M  V30 18723 H 1804.33 2.60323 3.03434 0
M  V30 18724 H 1805.77 1.89402 3.79346 0
M  V30 18725 C 1804.23 0.480378 3.33458 0
M  V30 18726 O 1804.76 -0.396732 3.99736 0
M  V30 18727 N 1802.96 0.345216 2.88542 0
M  V30 18728 H 1802.51 1.05997 2.34782 0
M  V30 18729 H 1802.47 -0.494453 3.10488 0
M  V30 18730 N 1806.24 -0.757876 1.38181 0
M  V30 18731 C 1807.2 -1.85317 1.34871 0
M  V30 18732 C 1808.2 -1.58844 0.250041 0
M  V30 18733 O 1809.39 -1.66668 0.506688 0
M  V30 18734 C 1806.52 -3.22712 1.09864 0
M  V30 18735 H 1807.72 -1.89661 2.32312 0
M  V30 18736 H 1805.27 -0.959122 1.23412 0
M  V30 18737 H 1806 -3.24039 0.130112 0
M  V30 18738 H 1805.79 -3.4332 1.89403 0
M  V30 18739 H 1807.28 -4.02789 1.10232 0
M  V30 18740 N 1807.72 -1.22979 -0.985586 0
M  V30 18741 C 1808.94 -1.08615 -1.76685 0
M  V30 18742 C 1809.37 0.35859 -1.8465 0
M  V30 18743 O 1808.72 1.25924 -1.30433 0
M  V30 18744 C 1808.77 -1.71039 -3.17456 0
M  V30 18745 O 1807.88 -0.969018 -4.00854 0
M  V30 18746 H 1807.22 -0.38103 -0.543794 0
M  V30 18747 H 1809.75 -1.62927 -1.23757 0
M  V30 18748 H 1809.76 -1.76064 -3.68056 0
M  V30 18749 H 1808.43 -2.76168 -3.10973 0
M  V30 18750 H 1807.01 -0.995318 -3.59371 0
M  V30 18751 N 1809.19 1.18355 -1.04066 0
M  V30 18752 C 1810.12 2.24196 -0.652568 0
M  V30 18753 C 1811.11 1.66581 0.344195 0
M  V30 18754 O 1812.29 1.929 0.224296 0
M  V30 18755 C 1809.42 3.47297 -0.0147409 0
M  V30 18756 C 1808.37 4.17661 -0.935044 0
M  V30 18757 C 1807.7 5.34455 -0.161692 0
M  V30 18758 C 1809 4.71153 -2.25415 0
M  V30 18759 H 1810.69 2.56914 -1.53738 0
M  V30 18760 H 1808.24 1.23492 -0.740658 0
M  V30 18761 H 1810.19 4.20544 0.268484 0
M  V30 18762 H 1808.92 3.13812 0.904949 0
M  V30 18763 H 1807.58 3.46312 -1.20265 0
M  V30 18764 H 1807.22 4.97219 0.760404 0
M  V30 18765 H 1806.92 5.82469 -0.774805 0
M  V30 18766 H 1808.45 6.10493 0.114515 0
M  V30 18767 H 1809.86 5.36095 -2.03163 0
M  V30 18768 H 1808.26 5.29701 -2.82022 0
M  V30 18769 H 1809.33 3.88576 -2.90064 0
M  V30 18770 N 1810.67 0.820125 1.3458 0
M  V30 18771 C 1811.62 0.22828 2.31477 0
M  V30 18772 C 1812.61 -0.629439 1.57272 0
M  V30 18773 O 1813.82 -0.521091 1.72292 0
M  V30 18774 H 1810.2 0.0550728 0.749981 0
M  V30 18775 H 1812.17 1.0604 2.78923 0
M  V30 18776 C 1810.92 -0.597495 3.42528 0
M  V30 18777 H 1810.24 0.0531749 3.99765 0
M  V30 18778 H 1811.68 -0.977765 4.12572 0
M  V30 18779 C 1810.14 -1.76868 2.86739 0
M  V30 18780 O 1810.67 -2.86674 2.81391 0
M  V30 18781 N 1808.87 -1.58453 2.436 0
M  V30 18782 H 1808.42 -0.691318 2.4815 0
M  V30 18783 H 1808.38 -2.36969 2.06624 0
M  V30 18784 N 1812.15 -1.46743 0.574835 0
M  V30 18785 C 1813.39 -2.04312 0.0599973 0
M  V30 18786 C 1813.75 -1.43757 -1.27271 0
M  V30 18787 O 1814.96 -1.92479 -1.87631 0
M  V30 18788 C 1813.23 -3.57398 -0.0130197 0
M  V30 18789 S 1814.79 -4.3626 -0.471425 0
M  V30 18790 H 1811.6 -0.710203 0.0336583 0
M  V30 18791 H 1814.21 -1.79887 0.765555 0
M  V30 18792 H 1812.91 -3.9899 0.961003 0
M  V30 18793 H 1812.44 -3.86347 -0.741591 0
M  V30 18794 H 1814.46 -4.65149 -1.72773 0
M  V30 18795 N 1813.63 -0.312197 -1.54477 0
M  V30 18796 C 1814.85 0.298829 -2.05236 0
M  V30 18797 C 1815.28 1.45881 -1.18745 0
M  V30 18798 O 1814.64 1.80259 -0.193999 0
M  V30 18799 C 1814.68 0.722008 -3.53298 0
M  V30 18800 O 1813.79 1.82562 -3.6979 0
M  V30 18801 H 1813.13 0.0560985 -0.661626 0
M  V30 18802 H 1815.66 -0.4573 -1.99424 0
M  V30 18803 H 1815.67 1.00777 -3.95358 0
M  V30 18804 H 1814.34 -0.12647 -4.15708 0
M  V30 18805 H 1812.92 1.53954 -3.39636 0
M  V30 18806 N 1815.11 1.57549 -0.040136 0
M  V30 18807 C 1816.33 1.96967 0.649517 0
M  V30 18808 C 1816.76 0.917056 1.64231 0
M  V30 18809 O 1816.11 -0.120899 1.80896 0
M  V30 18810 C 1816.16 3.35471 1.32256 0
M  V30 18811 O 1815.27 3.32615 2.43806 0
M  V30 18812 H 1814.61 0.641933 0.169758 0
M  V30 18813 H 1817.14 2.04329 -0.105261 0
M  V30 18814 H 1817.15 3.71951 1.6768 0
M  V30 18815 H 1815.82 4.11623 0.594895 0
M  V30 18816 H 1814.4 3.07867 2.10411 0
M  V30 18817 N 1816.58 -0.233136 1.55866 0
M  V30 18818 C 1817.81 -0.980602 1.82754 0
M  V30 18819 C 1818.23 -1.77624 0.618988 0
M  V30 18820 O 1817.59 -1.76074 -0.432148 0
M  V30 18821 C 1817.64 -1.88319 3.07519 0
M  V30 18822 O 1816.74 -2.97692 2.85401 0
M  V30 18823 H 1816.09 -0.278295 0.602867 0
M  V30 18824 H 1818.62 -0.249956 2.03067 0
M  V30 18825 H 1818.63 -2.29523 3.37318 0
M  V30 18826 H 1817.3 -1.29831 3.95116 0
M  V30 18827 H 1815.88 -2.60517 2.66805 0
M  V30 18828 N 1818.06 -1.49479 -0.499372 0
M  V30 18829 C 1819.34 -1.4955 -1.26071 0
M  V30 18830 C 1819.72 -0.224142 -2.09907 0
M  V30 18831 O 1819.07 0.793432 -2.14282 0
M  V30 18832 C 1819.28 -2.77534 -2.11604 0
M  V30 18833 C 1820.63 -3.27088 -2.70738 0
M  V30 18834 O 1821.65 -2.78662 -2.2187 0
M  V30 18835 O 1820.51 -4.11432 -3.59703 0
M  V30 18836 H 1817.6 -0.598631 -0.570587 0
M  V30 18837 H 1820.15 -1.61744 -0.513509 0
M  V30 18838 H 1818.92 -3.61556 -1.49642 0
M  V30 18839 H 1818.54 -2.68208 -2.93514 0
M  V30 18840 N 1819.54 0.750537 -1.38581 0
M  V30 18841 C 1820.96 1.05401 -1.19845 0
M  V30 18842 C 1821.16 2.0144 -0.0492317 0
M  V30 18843 O 1820.21 2.45169 0.604037 0
M  V30 18844 C 1821.53 1.63117 -2.52613 0
M  V30 18845 C 1823.07 1.75274 -2.59322 0
M  V30 18846 C 1823.55 2.36401 -3.92273 0
M  V30 18847 N 1825.04 2.43829 -3.9383 0
M  V30 18848 C 1825.78 2.92028 -4.93465 0
M  V30 18849 N 1825.27 3.4024 -6.03497 0
M  V30 18850 N 1827.06 2.91096 -4.80853 0
M  V30 18851 H 1819.22 0.113286 -2.12098 0
M  V30 18852 H 1821.48 0.112886 -0.941255 0
M  V30 18853 H 1821.18 1.00017 -3.37179 0
M  V30 18854 H 1821.06 2.62138 -2.71226 0
M  V30 18855 H 1823.45 2.375 -1.7515 0
M  V30 18856 H 1823.53 0.74949 -2.44574 0
M  V30 18857 H 1823.17 1.74807 -4.7687 0
M  V30 18858 H 1823.1 3.37373 -4.04335 0
M  V30 18859 H 1825.59 2.09734 -3.14357 0
M  V30 18860 H 1825.9 3.75482 -6.7545 0
M  V30 18861 H 1824.25 3.38289 -6.07113 0
M  V30 18862 H 1827.44 2.52744 -3.94003 0
M  V30 18863 H 1827.61 3.28346 -5.58653 0
M  V30 18864 N 1821.02 1.235 0.979051 0
M  V30 18865 C 1822.25 1.09304 1.75318 0
M  V30 18866 C 1822.66 -0.358266 1.85777 0
M  V30 18867 O 1822 -1.25956 1.33719 0
M  V30 18868 C 1822.06 1.6457 3.1962 0
M  V30 18869 C 1821.73 3.1334 3.32666 0
M  V30 18870 C 1822.72 4.1062 3.18885 0
M  V30 18871 C 1820.41 3.53076 3.57271 0
M  V30 18872 C 1822.4 5.45617 3.29515 0
M  V30 18873 C 1820.09 4.88218 3.67541 0
M  V30 18874 C 1821.09 5.84298 3.53674 0
M  V30 18875 O 1820.78 7.16985 3.63577 0
M  V30 18876 H 1820.51 0.383087 0.556974 0
M  V30 18877 H 1823.06 1.6385 1.23864 0
M  V30 18878 H 1821.29 1.04446 3.72328 0
M  V30 18879 H 1822.98 1.4583 3.78799 0
M  V30 18880 H 1823.75 3.81264 2.99771 0
M  V30 18881 H 1819.63 2.78804 3.67136 0
M  V30 18882 H 1823.17 6.20592 3.18608 0
M  V30 18883 H 1819.07 5.17249 3.86165 0
M  V30 18884 H 1819.83 7.24752 3.80364 0
M  V30 18885 N 1822.5 -1.17802 1.04693 0
M  V30 18886 C 1823.45 -2.19584 0.613744 0
M  V30 18887 C 1824.43 -1.57111 -0.34713 0
M  V30 18888 O 1825.62 -1.76228 -0.16517 0
M  V30 18889 C 1822.75 -3.43297 -0.0152847 0
M  V30 18890 C 1821.84 -4.12879 0.969114 0
M  V30 18891 N 1822.23 -4.58364 2.13859 0
M  V30 18892 C 1820.53 -4.3883 0.796487 0
M  V30 18893 C 1821.23 -5.12003 2.76094 0
M  V30 18894 N 1820.2 -5.039 2.03926 0
M  V30 18895 H 1824.01 -2.5245 1.50486 0
M  V30 18896 H 1821.52 -1.34076 0.916373 0
M  V30 18897 H 1823.52 -4.15484 -0.343354 0
M  V30 18898 H 1822.18 -3.11924 -0.901858 0
M  V30 18899 H 1823.19 -4.52613 2.51718 0
M  V30 18900 H 1819.87 -4.17481 -0.0394627 0
M  V30 18901 H 1821.26 -5.57355 3.7524 0
M  V30 18902 N 1823.98 -0.827251 -1.34143 0
M  V30 18903 C 1825.22 -0.41656 -1.9776 0
M  V30 18904 C 1825.54 1.02488 -1.65895 0
M  V30 18905 O 1824.81 1.71219 -0.951891 0
M  V30 18906 H 1823.39 -0.151044 -0.73157 0
M  V30 18907 H 1826.06 -1.05765 -1.63706 0
M  V30 18908 H 1825.15 -0.539101 -3.07409 0
M  V30 18909 N 1825.45 1.46436 -0.582609 0
M  V30 18910 C 1826.42 2.28769 0.140502 0
M  V30 18911 C 1827.42 1.38385 0.818911 0
M  V30 18912 O 1828.61 1.60763 0.670882 0
M  V30 18913 C 1825.74 3.18765 1.20836 0
M  V30 18914 H 1826.93 2.94178 -0.583049 0
M  V30 18915 H 1824.48 1.52544 -0.340575 0
M  V30 18916 H 1825.22 2.58103 1.9635 0
M  V30 18917 H 1825 3.85312 0.726417 0
M  V30 18918 H 1826.49 3.80735 1.71553 0
M  V30 18919 N 1826.93 0.320385 1.54309 0
M  V30 18920 C 1827.86 -0.580992 2.21714 0
M  V30 18921 C 1828.88 -1.08236 1.21609 0
M  V30 18922 O 1830.07 -0.996489 1.48096 0
M  V30 18923 C 1827.17 -1.80961 2.86542 0
M  V30 18924 C 1826.34 -1.44746 4.12756 0
M  V30 18925 C 1825.4 -2.53327 4.61207 0
M  V30 18926 O 1824.42 -2.17605 5.25963 0
M  V30 18927 N 1825.63 -3.84204 4.35164 0
M  V30 18928 H 1828.39 -0.00384608 2.997 0
M  V30 18929 H 1825.95 0.143444 1.61263 0
M  V30 18930 H 1827.94 -2.52985 3.1588 0
M  V30 18931 H 1826.51 -2.29468 2.12281 0
M  V30 18932 H 1825.73 -0.55899 3.90217 0
M  V30 18933 H 1827.02 -1.18116 4.949 0
M  V30 18934 H 1826.42 -4.16026 3.83326 0
M  V30 18935 H 1824.98 -4.52468 4.69165 0
M  V30 18936 N 1828.41 -1.57525 0.0484906 0
M  V30 18937 C 1829.65 -1.94455 -0.629818 0
M  V30 18938 C 1830.01 -0.926505 -1.68166 0
M  V30 18939 O 1831.21 -1.18265 -2.41385 0
M  V30 18940 C 1829.49 -3.36192 -1.21284 0
M  V30 18941 S 1831.04 -3.95073 -1.90953 0
M  V30 18942 H 1827.86 -0.680239 -0.20687 0
M  V30 18943 H 1830.46 -1.95151 0.116787 0
M  V30 18944 H 1829.17 -4.08087 -0.435136 0
M  V30 18945 H 1828.7 -3.38985 -1.99632 0
M  V30 18946 H 1830.71 -3.80081 -3.18987 0
M  V30 18947 N 1829.89 0.224867 -1.55988 0
M  V30 18948 C 1831.12 0.966727 -1.82926 0
M  V30 18949 C 1831.53 1.78078 -0.627177 0
M  V30 18950 O 1830.89 1.77966 0.404277 0
M  V30 18951 C 1830.94 1.88696 -3.08344 0
M  V30 18952 O 1830.66 1.10581 -4.23914 0
M  V30 18953 C 1832.16 2.74299 -3.48246 0
M  V30 18954 H 1829.38 0.283479 -0.608178 0
M  V30 18955 H 1831.92 0.241097 -2.03074 0
M  V30 18956 H 1830.08 2.56658 -2.90182 0
M  V30 18957 H 1830.49 1.73019 -4.95141 0
M  V30 18958 H 1831.97 3.34577 -4.39047 0
M  V30 18959 H 1832.44 3.46526 -2.69845 0
M  V30 18960 H 1833.05 2.11755 -3.68836 0
M  V30 18961 N 1831.37 1.49742 0.491438 0
M  V30 18962 C 1832.61 1.59947 1.24679 0
M  V30 18963 C 1832.94 0.289598 1.92029 0
M  V30 18964 O 1832.22 -0.707544 1.81174 0
M  V30 18965 C 1832.5 2.7655 2.30634 0
M  V30 18966 C 1832.36 4.1736 1.67723 0
M  V30 18967 C 1833.67 2.88764 3.3212 0
M  V30 18968 H 1830.79 0.582173 0.451934 0
M  V30 18969 H 1833.44 1.8206 0.543517 0
M  V30 18970 H 1831.59 2.57826 2.90616 0
M  V30 18971 H 1833.26 4.47623 1.11495 0
M  V30 18972 H 1831.5 4.22562 0.981 0
M  V30 18973 H 1832.17 4.94838 2.44621 0
M  V30 18974 H 1834.65 3.05838 2.82139 0
M  V30 18975 H 1833.52 3.7201 4.03608 0
M  V30 18976 H 1833.78 1.98517 3.95023 0
M  V30 18977 N 1832.84 -0.743177 1.38977 0
M  V30 18978 C 1834.07 -1.53753 1.39193 0
M  V30 18979 C 1834.49 -1.88095 -0.0136591 0
M  V30 18980 O 1833.85 -1.51326 -0.998508 0
M  V30 18981 C 1833.9 -2.80679 2.26389 0
M  V30 18982 O 1833 -3.76265 1.68815 0
M  V30 18983 H 1832.35 -0.464639 0.474349 0
M  V30 18984 H 1834.88 -0.917579 1.82871 0
M  V30 18985 H 1834.89 -3.29498 2.40614 0
M  V30 18986 H 1833.56 -2.55014 3.28543 0
M  V30 18987 H 1832.14 -3.35004 1.63788 0
M  V30 18988 N 1834.32 -1.24018 -0.972487 0
M  V30 18989 C 1835.56 -1.08885 -1.72984 0
M  V30 18990 C 1835.93 0.366766 -1.88464 0
M  V30 18991 O 1837.13 0.639481 -2.61083 0
M  V30 18992 C 1835.4 -1.80306 -3.08585 0
M  V30 18993 S 1836.96 -1.80844 -3.99801 0
M  V30 18994 H 1833.78 -0.389523 -0.594805 0
M  V30 18995 H 1836.38 -1.57275 -1.16124 0
M  V30 18996 H 1835.08 -2.85339 -2.94975 0
M  V30 18997 H 1834.61 -1.3223 -3.70512 0
M  V30 18998 H 1836.63 -0.872692 -4.88465 0
M  V30 18999 N 1835.8 1.17245 -1.05316 0
M  V30 19000 C 1837.22 1.39535 -0.774741 0
M  V30 19001 C 1837.42 1.91388 0.63031 0
M  V30 19002 O 1836.47 2.10631 1.39251 0
M  V30 19003 C 1837.79 2.38497 -1.83139 0
M  V30 19004 C 1839.33 2.52201 -1.85375 0
M  V30 19005 C 1839.81 3.54437 -2.90066 0
M  V30 19006 N 1841.3 3.61956 -2.89037 0
M  V30 19007 C 1842.03 4.40824 -3.66691 0
M  V30 19008 N 1841.53 5.23196 -4.54134 0
M  V30 19009 N 1843.32 4.35709 -3.55125 0
M  V30 19010 H 1835.47 0.819186 -1.95967 0
M  V30 19011 H 1837.74 0.422515 -0.848637 0
M  V30 19012 H 1837.44 2.07471 -2.83987 0
M  V30 19013 H 1837.32 3.38016 -1.67407 0
M  V30 19014 H 1839.7 2.82536 -0.851904 0
M  V30 19015 H 1839.79 1.52751 -2.05184 0
M  V30 19016 H 1839.43 3.2484 -3.90437 0
M  V30 19017 H 1839.36 4.53593 -2.67508 0
M  V30 19018 H 1841.85 3.03146 -2.25635 0
M  V30 19019 H 1842.16 5.80562 -5.10067 0
M  V30 19020 H 1840.51 5.22573 -4.58194 0
M  V30 19021 H 1843.7 3.70411 -2.86205 0
M  V30 19022 H 1843.87 4.9693 -4.1589 0
M  V30 19023 N 1837.28 0.834353 1.33702 0
M  V30 19024 C 1838.51 0.441228 2.02141 0
M  V30 19025 C 1838.92 -0.956226 1.62794 0
M  V30 19026 O 1838.28 -1.6207 0.839027 0
M  V30 19027 C 1838.33 0.547035 3.57337 0
M  V30 19028 O 1838.05 1.88942 3.95262 0
M  V30 19029 C 1839.55 0.150282 4.43045 0
M  V30 19030 H 1836.77 0.175681 0.647593 0
M  V30 19031 H 1839.32 1.12568 1.7073 0
M  V30 19032 H 1837.47 -0.0894532 3.87297 0
M  V30 19033 H 1837.88 1.87174 4.89965 0
M  V30 19034 H 1839.36 0.275374 5.51313 0
M  V30 19035 H 1839.84 -0.907361 4.29725 0
M  V30 19036 H 1840.44 0.761025 4.18436 0
M  V30 19037 N 1838.76 -1.46125 0.590367 0
M  V30 19038 C 1840 -2.01947 0.0787256 0
M  V30 19039 C 1840.33 -1.4634 -1.28878 0
M  V30 19040 O 1839.6 -0.651011 -1.84767 0
M  V30 19041 H 1838.18 -0.746543 0.0261125 0
M  V30 19042 H 1840.84 -1.79136 0.767877 0
M  V30 19043 H 1839.93 -3.12096 0.0154914 0
M  V30 19044 N 1840.23 -0.328564 -1.54137 0
M  V30 19045 C 1841.46 0.273928 -2.04776 0
M  V30 19046 C 1841.87 1.45942 -1.20406 0
M  V30 19047 O 1841.22 1.82271 -0.228693 0
M  V30 19048 C 1841.28 0.766914 -3.51225 0
M  V30 19049 C 1840.94 -0.296932 -4.56034 0
M  V30 19050 C 1841.94 -1.13468 -5.07367 0
M  V30 19051 C 1839.62 -0.446557 -5.00311 0
M  V30 19052 C 1841.62 -2.10773 -6.01543 0
M  V30 19053 C 1839.3 -1.42302 -5.94301 0
M  V30 19054 C 1840.3 -2.25207 -6.44803 0
M  V30 19055 O 1839.99 -3.21194 -7.36946 0
M  V30 19056 H 1839.72 0.0593978 -0.673385 0
M  V30 19057 H 1842.28 -0.474303 -1.99849 0
M  V30 19058 H 1840.51 1.56614 -3.53566 0
M  V30 19059 H 1842.2 1.2883 -3.84912 0
M  V30 19060 H 1842.96 -1.03009 -4.73935 0
M  V30 19061 H 1838.84 0.188865 -4.60613 0
M  V30 19062 H 1842.38 -2.75521 -6.40885 0
M  V30 19063 H 1838.28 -1.52822 -6.27149 0
M  V30 19064 H 1839.05 -3.16491 -7.54835 0
M  V30 19065 N 1841.71 1.57497 -0.0568439 0
M  V30 19066 C 1842.96 1.932 0.61658 0
M  V30 19067 C 1843.29 0.935936 1.70158 0
M  V30 19068 O 1842.57 -0.0372005 1.94464 0
M  V30 19069 C 1842.85 3.39254 1.20742 0
M  V30 19070 C 1842.7 4.49612 0.130081 0
M  V30 19071 C 1844.02 3.85817 2.11738 0
M  V30 19072 H 1841.14 0.702558 0.222668 0
M  V30 19073 H 1843.78 1.89622 -0.119765 0
M  V30 19074 H 1841.93 3.42434 1.83497 0
M  V30 19075 H 1843.6 4.58559 -0.502172 0
M  V30 19076 H 1841.85 4.30411 -0.541167 0
M  V30 19077 H 1842.52 5.48906 0.583606 0
M  V30 19078 H 1844.99 3.8455 1.58936 0
M  V30 19079 H 1843.87 4.88653 2.50019 0
M  V30 19080 H 1844.13 3.22899 3.01974 0
M  V30 19081 N 1843.19 -0.216591 1.56105 0
M  V30 19082 C 1844.12 -1.27155 1.95841 0
M  V30 19083 C 1845.1 -1.48626 0.827313 0
M  V30 19084 O 1846.29 -1.60725 1.09 0
M  V30 19085 C 1843.42 -2.62032 2.27939 0
M  V30 19086 C 1842.37 -2.55211 3.43586 0
M  V30 19087 C 1841.7 -3.94163 3.61303 0
M  V30 19088 C 1843 -2.09566 4.78413 0
M  V30 19089 H 1844.69 -0.941435 2.84214 0
M  V30 19090 H 1842.24 -0.451427 1.36741 0
M  V30 19091 H 1844.19 -3.35997 2.5433 0
M  V30 19092 H 1842.91 -2.96742 1.36426 0
M  V30 19093 H 1841.57 -1.83703 3.17252 0
M  V30 19094 H 1841.22 -4.26188 2.67156 0
M  V30 19095 H 1840.92 -3.90479 4.3909 0
M  V30 19096 H 1842.44 -4.69782 3.90047 0
M  V30 19097 H 1843.86 -2.73277 5.03977 0
M  V30 19098 H 1842.26 -2.16931 5.59518 0
M  V30 19099 H 1843.33 -1.0481 4.73437 0
M  V30 19100 N 1844.67 -1.5 -0.48349 0
M  V30 19101 C 1845.6 -1.64096 -1.60016 0
M  V30 19102 C 1846.61 -0.522896 -1.54174 0
M  V30 19103 O 1847.8 -0.795621 -1.59788 0
M  V30 19104 C 1844.9 -1.5979 -2.98865 0
M  V30 19105 C 1844.08 -2.87422 -3.29708 0
M  V30 19106 C 1843.13 -2.75928 -4.48051 0
M  V30 19107 O 1842.16 -3.49878 -4.4897 0
M  V30 19108 N 1843.36 -1.88648 -5.48992 0
M  V30 19109 H 1846.13 -2.60411 -1.48345 0
M  V30 19110 H 1843.69 -1.47309 -0.671691 0
M  V30 19111 H 1845.68 -1.4973 -3.75983 0
M  V30 19112 H 1844.25 -0.712613 -3.04369 0
M  V30 19113 H 1843.47 -3.11702 -2.4132 0
M  V30 19114 H 1844.76 -3.72002 -3.4712 0
M  V30 19115 H 1844.16 -1.27857 -5.51062 0
M  V30 19116 H 1842.71 -1.845 -6.25142 0
M  V30 19117 N 1846.15 0.735796 -1.39369 0
M  V30 19118 C 1847.4 1.49079 -1.35861 0
M  V30 19119 C 1847.71 1.95553 0.0429472 0
M  V30 19120 O 1848.91 2.70758 0.200614 0
M  V30 19121 C 1847.37 2.69375 -2.38674 0
M  V30 19122 C 1846.98 2.29854 -3.8454 0
M  V30 19123 C 1848.72 3.47199 -2.44239 0
M  V30 19124 C 1846.63 3.46868 -4.78996 0
M  V30 19125 H 1845.56 0.559825 -0.505086 0
M  V30 19126 H 1848.21 0.80271 -1.65012 0
M  V30 19127 H 1846.59 3.40253 -2.02592 0
M  V30 19128 H 1847.77 1.66527 -4.29657 0
M  V30 19129 H 1846.08 1.65123 -3.82261 0
M  V30 19130 H 1848.68 4.34234 -3.12002 0
M  V30 19131 H 1849.02 3.89608 -1.46668 0
M  V30 19132 H 1849.55 2.83349 -2.7921 0
M  V30 19133 H 1846.29 3.0951 -5.77827 0
M  V30 19134 H 1845.81 4.09178 -4.38558 0
M  V30 19135 H 1847.49 4.13213 -4.9786 0
M  V30 19136 N 1847.63 1.24532 0.965897 0
M  V30 19137 C 1849.04 1.0111 1.23486 0
M  V30 19138 C 1849.24 -0.278989 1.99559 0
M  V30 19139 O 1848.3 -0.99467 2.32083 0
M  V30 19140 C 1849.61 2.22726 2.02024 0
M  V30 19141 C 1851.16 2.27369 2.1511 0
M  V30 19142 C 1851.63 3.48611 2.97043 0
M  V30 19143 N 1853.12 3.48938 3.04625 0
M  V30 19144 C 1853.86 4.3941 3.68384 0
M  V30 19145 N 1853.36 5.40138 4.33847 0
M  V30 19146 N 1855.15 4.27117 3.65414 0
M  V30 19147 H 1847.3 2.07433 0.456674 0
M  V30 19148 H 1849.56 0.91037 0.264443 0
M  V30 19149 H 1849.27 3.16427 1.53515 0
M  V30 19150 H 1849.14 2.24989 3.02754 0
M  V30 19151 H 1851.53 1.34198 2.62821 0
M  V30 19152 H 1851.61 2.29131 1.13722 0
M  V30 19153 H 1851.25 4.42097 2.50025 0
M  V30 19154 H 1851.18 3.44093 3.98632 0
M  V30 19155 H 1853.68 2.76067 2.58061 0
M  V30 19156 H 1853.99 6.05402 4.80321 0
M  V30 19157 H 1852.33 5.44022 4.3251 0
M  V30 19158 H 1855.52 3.47659 3.1345 0
M  V30 19159 H 1855.7 4.97824 4.1482 0
M  V30 19160 N 1849.1 -1.16685 1.05936 0
M  V30 19161 C 1850.52 -1.39122 0.78213 0
M  V30 19162 C 1850.72 -1.9172 -0.620152 0
M  V30 19163 O 1849.78 -2.11366 -1.38132 0
M  V30 19164 C 1851.09 -2.37522 1.84401 0
M  V30 19165 C 1852.64 -2.51214 1.8671 0
M  V30 19166 C 1853.11 -3.52894 2.91942 0
M  V30 19167 N 1854.6 -3.60418 2.90952 0
M  V30 19168 C 1855.34 -4.38873 3.69023 0
M  V30 19169 N 1854.83 -5.20781 4.56902 0
M  V30 19170 N 1856.63 -4.3382 3.57431 0
M  V30 19171 H 1848.78 -0.808781 1.96399 0
M  V30 19172 H 1851.04 -0.418008 0.850866 0
M  V30 19173 H 1850.75 -2.05962 2.85084 0
M  V30 19174 H 1850.62 -3.37123 1.69197 0
M  V30 19175 H 1853.01 -2.8208 0.866875 0
M  V30 19176 H 1853.09 -1.51661 2.05992 0
M  V30 19177 H 1852.73 -3.22765 3.92155 0
M  V30 19178 H 1852.66 -4.52168 2.6991 0
M  V30 19179 H 1855.15 -3.01945 2.27239 0
M  V30 19180 H 1855.47 -5.77848 5.13138 0
M  V30 19181 H 1853.81 -5.20136 4.60959 0
M  V30 19182 H 1857 -3.68888 2.88165 0
M  V30 19183 H 1857.18 -4.94717 4.1852 0
M  V30 19184 N 1850.58 -0.841432 -1.33258 0
M  V30 19185 C 1851.86 -0.360204 -1.92255 0
M  V30 19186 C 1852.24 1.15474 -1.76717 0
M  V30 19187 O 1851.59 1.97035 -1.15713 0
M  V30 19188 C 1851.8 -0.809942 -3.39472 0
M  V30 19189 C 1853.14 -0.819444 -4.16618 0
M  V30 19190 O 1854.17 -0.753715 -3.48134 0
M  V30 19191 O 1853.03 -0.909553 -5.38878 0
M  V30 19192 H 1850.12 -0.102458 -0.820629 0
M  V30 19193 H 1852.67 -0.927455 -1.42114 0
M  V30 19194 H 1851.44 -1.85263 -3.44664 0
M  V30 19195 H 1851.06 -0.219406 -3.96994 0
M  V30 19196 N 1852.06 1.4581 -0.598108 0
M  V30 19197 C 1853.34 1.95588 -0.0220376 0
M  V30 19198 C 1853.72 1.54066 1.44316 0
M  V30 19199 O 1853.06 0.798663 2.14088 0
M  V30 19200 C 1853.27 3.48366 -0.210204 0
M  V30 19201 C 1854.62 4.24513 -0.0860474 0
M  V30 19202 O 1855.65 3.55925 -0.139833 0
M  V30 19203 O 1854.51 5.46488 0.0367961 0
M  V30 19204 H 1851.6 0.825977 0.0411123 0
M  V30 19205 H 1854.15 1.56021 -0.667506 0
M  V30 19206 H 1852.92 3.71526 -1.22818 0
M  V30 19207 H 1852.54 3.94801 0.470974 0
M  V30 19208 N 1853.54 0.336733 1.53961 0
M  V30 19209 C 1854.45 -0.531812 2.28493 0
M  V30 19210 C 1855.46 -1.11784 1.33343 0
M  V30 19211 O 1856.64 -1.13499 1.66373 0
M  V30 19212 C 1853.7 -1.67031 3.03812 0
M  V30 19213 C 1852.77 -1.11475 4.14574 0
M  V30 19214 C 1852 -2.19898 4.86292 0
M  V30 19215 O 1852.22 -3.40492 4.57625 0
M  V30 19216 O 1851.16 -1.84576 5.72901 0
M  V30 19217 H 1854.98 0.0738624 3.0361 0
M  V30 19218 H 1852.57 0.101996 1.49051 0
M  V30 19219 H 1854.45 -2.33286 3.50936 0
M  V30 19220 H 1853.12 -2.26192 2.31558 0
M  V30 19221 H 1852.03 -0.416915 3.7177 0
M  V30 19222 H 1853.36 -0.568092 4.88911 0
M  V30 19223 N 1855.02 -1.57465 0.0651956 0
M  V30 19224 C 1855.95 -2.15374 -0.902018 0
M  V30 19225 C 1856.93 -1.07904 -1.31494 0
M  V30 19226 O 1858.11 -1.35909 -1.38717 0
M  V30 19227 C 1855.24 -2.71005 -2.17195 0
M  V30 19228 C 1854.2 -3.83583 -1.89864 0
M  V30 19229 C 1853.52 -4.25789 -3.23432 0
M  V30 19230 C 1854.82 -5.08112 -1.20913 0
M  V30 19231 H 1856.52 -2.96445 -0.419631 0
M  V30 19232 H 1854.06 -1.42599 -0.200401 0
M  V30 19233 H 1856.01 -3.1016 -2.8527 0
M  V30 19234 H 1854.74 -1.87146 -2.67664 0
M  V30 19235 H 1853.4 -3.44921 -1.24197 0
M  V30 19236 H 1853.05 -3.38861 -3.71729 0
M  V30 19237 H 1852.75 -5.01673 -3.05938 0
M  V30 19238 H 1854.27 -4.67555 -3.92715 0
M  V30 19239 H 1855.68 -5.44624 -1.79046 0
M  V30 19240 H 1854.08 -5.8923 -1.137 0
M  V30 19241 H 1855.15 -4.84538 -0.187224 0
M  V30 19242 N 1856.49 0.20831 -1.56217 0
M  V30 19243 C 1857.74 0.928839 -1.7904 0
M  V30 19244 C 1858.06 1.84968 -0.636108 0
M  V30 19245 O 1859.26 2.60984 -0.748302 0
M  V30 19246 C 1857.72 1.70192 -3.17116 0
M  V30 19247 C 1857.33 0.826564 -4.40309 0
M  V30 19248 C 1859.07 2.41287 -3.49257 0
M  V30 19249 C 1856.98 1.59775 -5.69408 0
M  V30 19250 H 1855.91 0.350563 -0.667549 0
M  V30 19251 H 1858.56 0.182398 -1.82591 0
M  V30 19252 H 1856.94 2.49176 -3.07778 0
M  V30 19253 H 1858.11 0.076324 -4.60737 0
M  V30 19254 H 1856.43 0.227092 -4.1578 0
M  V30 19255 H 1859.03 2.99511 -4.42942 0
M  V30 19256 H 1859.37 3.14827 -2.72377 0
M  V30 19257 H 1859.9 1.69282 -3.59984 0
M  V30 19258 H 1856.64 0.905384 -6.49217 0
M  V30 19259 H 1856.16 2.32227 -5.5302 0
M  V30 19260 H 1857.84 2.155 -6.10056 0
M  V30 19261 N 1857.97 1.50255 0.475528 0
M  V30 19262 C 1858.92 1.68794 1.57408 0
M  V30 19263 C 1859.89 0.529252 1.57442 0
M  V30 19264 O 1861.07 0.759301 1.75041 0
M  V30 19265 C 1858.21 1.78401 2.9541 0
M  V30 19266 C 1857.33 3.05742 3.05198 0
M  V30 19267 C 1856.46 3.06172 4.34088 0
M  V30 19268 C 1855.5 4.27985 4.37602 0
M  V30 19269 N 1854.64 4.26179 5.57957 0
M  V30 19270 H 1859.48 2.62583 1.40905 0
M  V30 19271 H 1857.01 1.30169 0.685152 0
M  V30 19272 H 1858.97 1.81952 3.75432 0
M  V30 19273 H 1857.6 0.880556 3.10558 0
M  V30 19274 H 1856.65 3.11683 2.18077 0
M  V30 19275 H 1857.97 3.95722 3.03654 0
M  V30 19276 H 1857.12 3.08427 5.22454 0
M  V30 19277 H 1855.86 2.14014 4.38234 0
M  V30 19278 H 1854.86 4.25947 3.47634 0
M  V30 19279 H 1856.09 5.21364 4.35151 0
M  V30 19280 H 1854.04 3.36873 5.62897 0
M  V30 19281 H 1853.95 5.09923 5.58135 0
M  V30 19282 H 1855.22 4.32574 6.4846 0
M  V30 19283 N 1859.45 -0.728395 1.39758 0
M  V30 19284 C 1860.67 -1.52268 1.40816 0
M  V30 19285 C 1861.1 -1.88099 0.00629167 0
M  V30 19286 O 1860.46 -1.52376 -0.982402 0
M  V30 19287 C 1860.51 -2.78262 2.29353 0
M  V30 19288 O 1859.61 -3.74453 1.72796 0
M  V30 19289 H 1858.95 -0.459582 0.47925 0
M  V30 19290 H 1861.48 -0.898132 1.83833 0
M  V30 19291 H 1861.49 -3.26927 2.44096 0
M  V30 19292 H 1860.17 -2.51515 3.31229 0
M  V30 19293 H 1858.74 -3.33248 1.67332 0
M  V30 19294 N 1860.93 -1.25042 -0.959279 0
M  V30 19295 C 1861.86 -1.00807 -2.05841 0
M  V30 19296 C 1862.87 0.0253938 -1.6278 0
M  V30 19297 O 1864.06 -0.212625 -1.77229 0
M  V30 19298 C 1861.16 -0.501088 -3.35175 0
M  V30 19299 C 1860.33 -1.59964 -4.071 0
M  V30 19300 C 1859.39 -1.09383 -5.14705 0
M  V30 19301 O 1858.42 -1.78728 -5.40412 0
M  V30 19302 N 1859.62 0.0673296 -5.80461 0
M  V30 19303 H 1862.39 -1.95446 -2.27203 0
M  V30 19304 H 1859.95 -1.16185 -1.1275 0
M  V30 19305 H 1861.94 -0.147283 -4.04432 0
M  V30 19306 H 1860.51 0.351241 -3.1062 0
M  V30 19307 H 1859.73 -2.12524 -3.32005 0
M  V30 19308 H 1861.02 -2.3378 -4.51912 0
M  V30 19309 H 1860.42 0.646867 -5.61989 0
M  V30 19310 H 1858.97 0.362206 -6.50793 0
M  V30 19311 N 1862.41 1.16121 -1.06553 0
M  V30 19312 C 1863.63 1.90611 -0.804673 0
M  V30 19313 C 1864.05 1.77576 0.641255 0
M  V30 19314 O 1863.41 1.12218 1.43921 0
M  V30 19315 C 1863.46 3.41231 -1.19348 0
M  V30 19316 O 1863.18 3.53879 -2.58266 0
M  V30 19317 C 1864.68 4.32764 -0.960738 0
M  V30 19318 H 1861.9 0.604358 -0.291534 0
M  V30 19319 H 1864.44 1.47174 -1.41986 0
M  V30 19320 H 1862.6 3.82361 -0.622772 0
M  V30 19321 H 1863.01 4.47298 -2.73907 0
M  V30 19322 H 1864.49 5.36898 -1.28238 0
M  V30 19323 H 1864.96 4.39078 0.103389 0
M  V30 19324 H 1865.57 3.97365 -1.51595 0
M  V30 19325 N 1863.88 0.848487 1.3281 0
M  V30 19326 C 1865.13 0.44797 1.97073 0
M  V30 19327 C 1865.45 -0.998358 1.67505 0
M  V30 19328 O 1864.72 -1.69683 0.97901 0
M  V30 19329 H 1863.3 0.162663 0.729075 0
M  V30 19330 H 1865.97 1.08356 1.62003 0
M  V30 19331 H 1865.06 0.587939 3.06512 0
M  V30 19332 N 1865.36 -1.4549 0.605832 0
M  V30 19333 C 1866.77 -1.85775 0.18559 0
M  V30 19334 C 1867.12 -1.50638 -1.25708 0
M  V30 19335 O 1866.25 -0.932227 -1.95291 0
M  V30 19336 C 1866.84 -3.37189 0.330043 0
M  V30 19337 C 1865.4 -3.76383 -0.0354934 0
M  V30 19338 C 1864.55 -2.69446 0.655297 0
M  V30 19339 H 1867.5 -1.36316 0.812624 0
M  V30 19340 H 1867.52 -3.77968 -0.438236 0
M  V30 19341 H 1867.03 -3.62731 1.38014 0
M  V30 19342 H 1865.14 -3.56458 -1.08483 0
M  V30 19343 H 1865.25 -4.77769 0.356935 0
M  V30 19344 H 1863.61 -2.5453 0.0931235 0
M  V30 19345 H 1864.4 -2.97825 1.70749 0
M  V30 19346 N 1866.84 -0.344893 -1.5378 0
M  V30 19347 C 1868.07 0.255228 -2.05824 0
M  V30 19348 C 1868.49 1.43329 -1.21812 0
M  V30 19349 O 1867.85 1.79807 -0.232191 0
M  V30 19350 C 1867.9 0.646906 -3.5475 0
M  V30 19351 O 1867 1.74677 -3.7358 0
M  V30 19352 H 1866.34 0.0420518 -0.662667 0
M  V30 19353 H 1868.87 -0.499498 -1.98409 0
M  V30 19354 H 1868.88 0.923686 -3.97407 0
M  V30 19355 H 1867.56 -0.214619 -4.15346 0
M  V30 19356 H 1866.13 1.46715 -3.42825 0
M  V30 19357 N 1868.32 1.57428 -0.0735454 0
M  V30 19358 C 1869.56 1.93843 0.596054 0
M  V30 19359 C 1869.9 0.953931 1.69156 0
M  V30 19360 O 1869.17 -0.0165729 1.94493 0
M  V30 19361 C 1869.46 3.40516 1.17137 0
M  V30 19362 C 1869.31 4.49725 0.0823861 0
M  V30 19363 C 1870.63 3.88042 2.07634 0
M  V30 19364 H 1867.75 0.70488 0.215204 0
M  V30 19365 H 1870.39 1.89484 -0.139871 0
M  V30 19366 H 1868.54 3.44361 1.79855 0
M  V30 19367 H 1870.21 4.58 -0.55078 0
M  V30 19368 H 1868.45 4.29813 -0.586788 0
M  V30 19369 H 1869.12 5.49494 0.525354 0
M  V30 19370 H 1871.6 3.86214 1.54849 0
M  V30 19371 H 1870.48 4.91277 2.44822 0
M  V30 19372 H 1870.74 3.26084 2.98532 0
M  V30 19373 N 1869.8 -0.200022 1.56326 0
M  V30 19374 C 1871.02 -0.937503 1.84441 0
M  V30 19375 C 1871.44 -1.77058 0.655428 0
M  V30 19376 O 1870.8 -1.78587 -0.375913 0
M  V30 19377 C 1870.85 -1.83766 3.11307 0
M  V30 19378 O 1870.57 -1.03823 4.2562 0
M  V30 19379 C 1872.07 -2.68724 3.52565 0
M  V30 19380 H 1869.29 -0.273767 0.612611 0
M  V30 19381 H 1871.83 -0.208759 2.03432 0
M  V30 19382 H 1869.99 -2.52009 2.94228 0
M  V30 19383 H 1870.4 -1.6512 4.97831 0
M  V30 19384 H 1871.88 -3.2755 4.44314 0
M  V30 19385 H 1872.35 -3.4219 2.75323 0
M  V30 19386 H 1872.96 -2.0586 3.72158 0
M  V30 19387 N 1871.27 -1.50505 -0.467553 0
M  V30 19388 C 1872.52 -1.6191 -1.22118 0
M  V30 19389 C 1872.85 -0.320112 -1.91544 0
M  V30 19390 O 1872.13 0.678631 -1.82277 0
M  V30 19391 C 1872.41 -2.80184 -2.26206 0
M  V30 19392 C 1872.26 -4.19975 -1.61062 0
M  V30 19393 C 1873.58 -2.94011 -3.27484 0
M  V30 19394 H 1870.7 -0.589289 -0.442615 0
M  V30 19395 H 1873.34 -1.82902 -0.514484 0
M  V30 19396 H 1871.49 -2.62417 -2.86478 0
M  V30 19397 H 1873.17 -4.4934 -1.04359 0
M  V30 19398 H 1871.41 -4.24069 -0.91365 0
M  V30 19399 H 1872.08 -4.98667 -2.36718 0
M  V30 19400 H 1874.56 -3.10288 -2.77238 0
M  V30 19401 H 1873.43 -3.78384 -3.97639 0
M  V30 19402 H 1873.69 -2.04777 -3.91815 0
M  V30 19403 N 1872.75 0.720973 -1.40142 0
M  V30 19404 C 1873.98 1.51012 -1.41431 0
M  V30 19405 C 1874.4 1.88796 -0.0125516 0
M  V30 19406 O 1873.75 1.55073 0.962217 0
M  V30 19407 C 1873.8 2.78886 -2.3001 0
M  V30 19408 O 1873.52 2.42703 -3.64729 0
M  V30 19409 C 1875.03 3.7282 -2.39834 0
M  V30 19410 H 1872.25 0.466214 -0.482582 0
M  V30 19411 H 1874.79 0.889777 -1.84128 0
M  V30 19412 H 1872.94 3.37219 -1.90689 0
M  V30 19413 H 1873.36 3.24945 -4.11717 0
M  V30 19414 H 1874.83 4.594 -3.06032 0
M  V30 19415 H 1875.31 4.15552 -1.42173 0
M  V30 19416 H 1875.92 3.20402 -2.79684 0
M  V30 19417 N 1874.23 1.25549 0.952634 0
M  V30 19418 C 1875.47 1.11623 1.7123 0
M  V30 19419 C 1875.83 -0.336737 1.89024 0
M  V30 19420 O 1877.04 -0.597864 2.62067 0
M  V30 19421 C 1875.31 1.85192 3.05677 0
M  V30 19422 S 1876.87 1.87182 3.96873 0
M  V30 19423 H 1873.68 0.398936 0.588533 0
M  V30 19424 H 1876.29 1.59103 1.13607 0
M  V30 19425 H 1874.99 2.89995 2.90398 0
M  V30 19426 H 1874.52 1.38108 3.68361 0
M  V30 19427 H 1876.54 0.950292 4.87015 0
M  V30 19428 N 1875.71 -1.15554 1.07168 0
M  V30 19429 C 1876.94 -1.90182 0.81477 0
M  V30 19430 C 1877.35 -1.77914 -0.631829 0
M  V30 19431 O 1876.71 -1.1298 -1.43324 0
M  V30 19432 C 1876.76 -3.40593 1.21155 0
M  V30 19433 O 1876.48 -3.52504 2.60139 0
M  V30 19434 C 1877.98 -4.32248 0.983675 0
M  V30 19435 H 1875.2 -0.602804 0.294735 0
M  V30 19436 H 1877.75 -1.46419 1.42764 0
M  V30 19437 H 1875.9 -3.82026 0.643041 0
M  V30 19438 H 1876.31 -4.45839 2.76275 0
M  V30 19439 H 1877.79 -5.3621 1.31084 0
M  V30 19440 H 1878.27 -4.39127 -0.0801022 0
M  V30 19441 H 1878.87 -3.96556 1.537 0
M  V30 19442 N 1877.19 -0.855519 -1.32358 0
M  V30 19443 C 1878.1 -0.303696 -2.32626 0
M  V30 19444 C 1879.11 0.578927 -1.64087 0
M  V30 19445 O 1880.29 0.479091 -1.95619 0
M  V30 19446 C 1877.35 0.498152 -3.43103 0
M  V30 19447 C 1876.42 -0.410714 -4.27331 0
M  V30 19448 C 1875.65 0.35296 -5.32532 0
M  V30 19449 O 1875.87 1.58282 -5.47999 0
M  V30 19450 O 1874.81 -0.281689 -6.0124 0
M  V30 19451 H 1878.63 -1.13443 -2.81717 0
M  V30 19452 H 1876.22 -0.618479 -1.35997 0
M  V30 19453 H 1878.1 0.95324 -4.10477 0
M  V30 19454 H 1876.77 1.30567 -2.96199 0
M  V30 19455 H 1875.68 -0.913997 -3.62763 0
M  V30 19456 H 1877.01 -1.18344 -4.77761 0
M  V30 19457 N 1878.67 1.45167 -0.61354 0
M  V30 19458 C 1879.91 2.01796 -0.110844 0
M  V30 19459 C 1880.23 1.48372 1.26534 0
M  V30 19460 O 1879.5 0.680323 1.83707 0
M  V30 19461 H 1878.08 0.746034 -0.0379861 0
M  V30 19462 H 1880.75 1.77892 -0.796279 0
M  V30 19463 H 1879.84 3.12032 -0.0651413 0
M  V30 19464 N 1880.14 0.353044 1.53595 0
M  V30 19465 C 1881.09 -0.499326 2.25334 0
M  V30 19466 C 1882.06 -1.08781 1.25522 0
M  V30 19467 O 1883.25 -1.12265 1.54276 0
M  V30 19468 C 1880.39 -1.63955 3.03666 0
M  V30 19469 C 1879.5 -1.07745 4.18348 0
M  V30 19470 C 1878.63 -2.18575 4.84147 0
M  V30 19471 C 1877.67 -1.59765 5.90882 0
M  V30 19472 N 1876.81 -2.64376 6.50423 0
M  V30 19473 H 1881.65 0.118959 2.97762 0
M  V30 19474 H 1879.19 0.0704777 1.46931 0
M  V30 19475 H 1881.14 -2.31097 3.47347 0
M  V30 19476 H 1879.77 -2.22868 2.33516 0
M  V30 19477 H 1878.83 -0.296678 3.79241 0
M  V30 19478 H 1880.14 -0.607375 4.95088 0
M  V30 19479 H 1879.29 -2.93563 5.30948 0
M  V30 19480 H 1878.03 -2.68929 4.06852 0
M  V30 19481 H 1877.04 -0.832863 5.43455 0
M  V30 19482 H 1878.26 -1.10251 6.70091 0
M  V30 19483 H 1876.21 -3.13968 5.75986 0
M  V30 19484 H 1876.12 -2.22019 7.22664 0
M  V30 19485 H 1877.39 -3.39105 7.01875 0
M  V30 19486 N 1881.62 -1.57387 0.0818932 0
M  V30 19487 C 1882.87 -1.94964 -0.579705 0
M  V30 19488 C 1883.22 -0.962306 -1.66606 0
M  V30 19489 O 1882.52 0.0138288 -1.91595 0
M  V30 19490 C 1882.71 -3.36939 -1.19193 0
M  V30 19491 C 1882.54 -4.49392 -0.166414 0
M  V30 19492 C 1881.31 -5.04669 0.252475 0
M  V30 19493 C 1883.51 -5.10785 0.600288 0
M  V30 19494 N 1881.49 -6.0067 1.26764 0
M  V30 19495 C 1882.86 -6.02379 1.46765 0
M  V30 19496 C 1884.91 -4.9357 0.655252 0
M  V30 19497 C 1883.62 -6.78605 2.38511 0
M  V30 19498 C 1885.64 -5.70447 1.56026 0
M  V30 19499 C 1885.01 -6.61697 2.41528 0
M  V30 19500 H 1881.1 -0.760321 -0.182854 0
M  V30 19501 H 1883.69 -1.9403 0.161389 0
M  V30 19502 H 1881.86 -3.38591 -1.9029 0
M  V30 19503 H 1883.59 -3.61727 -1.81482 0
M  V30 19504 H 1880.35 -4.73414 -0.132657 0
M  V30 19505 H 1880.77 -6.5337 1.77303 0
M  V30 19506 H 1885.41 -4.22799 0.00839717 0
M  V30 19507 H 1883.13 -7.48646 3.04228 0
M  V30 19508 H 1886.72 -5.59144 1.60776 0
M  V30 19509 H 1885.6 -7.20145 3.1042 0
M  V30 19510 N 1883.1 0.191729 -1.56429 0
M  V30 19511 C 1884.05 1.25706 -1.95706 0
M  V30 19512 C 1885.04 1.46938 -0.842948 0
M  V30 19513 O 1886.25 1.47759 -1.02797 0
M  V30 19514 H 1882.62 0.422099 -0.622364 0
M  V30 19515 H 1884.59 0.8988 -2.84542 0
M  V30 19516 C 1883.34 2.59366 -2.3157 0
M  V30 19517 H 1882.67 2.43845 -3.16827 0
M  V30 19518 H 1884.11 3.32646 -2.62912 0
M  V30 19519 C 1882.56 3.16609 -1.15155 0
M  V30 19520 O 1883.09 3.9941 -0.428355 0
M  V30 19521 N 1881.3 2.75402 -0.927467 0
M  V30 19522 H 1880.85 2.08172 -1.5173 0
M  V30 19523 H 1880.81 3.1404 -0.150348 0
M  V30 19524 N 1884.58 1.50751 0.459565 0
M  V30 19525 C 1885.52 1.70454 1.55609 0
M  V30 19526 C 1886.49 0.545921 1.56872 0
M  V30 19527 O 1887.68 0.777824 1.74226 0
M  V30 19528 C 1884.82 1.81524 2.93501 0
M  V30 19529 C 1883.93 3.08962 3.01938 0
M  V30 19530 C 1883.07 3.10758 4.30816 0
M  V30 19531 C 1882.11 4.32602 4.33038 0
M  V30 19532 N 1881.24 4.32073 5.53405 0
M  V30 19533 H 1886.08 2.64062 1.38112 0
M  V30 19534 H 1883.62 1.30889 0.671307 0
M  V30 19535 H 1885.58 1.85923 3.73481 0
M  V30 19536 H 1884.21 0.913445 3.09606 0
M  V30 19537 H 1883.26 3.13979 2.14759 0
M  V30 19538 H 1884.57 3.9892 2.9944 0
M  V30 19539 H 1883.73 3.13951 5.19153 0
M  V30 19540 H 1882.47 2.1865 4.3594 0
M  V30 19541 H 1881.47 4.2961 3.43097 0
M  V30 19542 H 1882.7 5.2595 4.29596 0
M  V30 19543 H 1880.64 3.42824 5.59292 0
M  V30 19544 H 1880.56 5.15814 5.52695 0
M  V30 19545 H 1881.83 4.39428 6.43835 0
M  V30 19546 N 1886.06 -0.713531 1.40522 0
M  V30 19547 C 1886.99 -1.83847 1.36868 0
M  V30 19548 C 1888 -1.60482 0.273746 0
M  V30 19549 O 1889.19 -1.70318 0.534238 0
M  V30 19550 C 1886.29 -3.20288 1.10764 0
M  V30 19551 C 1885.46 -3.70833 2.31952 0
M  V30 19552 C 1884.52 -4.85893 2.01977 0
M  V30 19553 O 1883.55 -4.98438 2.74861 0
M  V30 19554 N 1884.75 -5.7184 0.998985 0
M  V30 19555 H 1887.51 -1.87479 2.3382 0
M  V30 19556 H 1885.08 -0.895151 1.34902 0
M  V30 19557 H 1887.07 -3.94861 0.886932 0
M  V30 19558 H 1885.64 -3.11791 0.224726 0
M  V30 19559 H 1884.86 -2.87368 2.6984 0
M  V30 19560 H 1886.15 -4.01339 3.12738 0
M  V30 19561 H 1885.54 -5.64317 0.395392 0
M  V30 19562 H 1884.1 -6.46388 0.838178 0
M  V30 19563 N 1887.53 -1.26053 -0.945962 0
M  V30 19564 C 1888.78 -1.1148 -1.69411 0
M  V30 19565 C 1889.11 0.341927 -1.91166 0
M  V30 19566 O 1888.39 1.2515 -1.48888 0
M  V30 19567 C 1888.67 -1.87915 -3.07181 0
M  V30 19568 C 1888.52 -3.41466 -2.92781 0
M  V30 19569 C 1889.84 -1.66917 -4.07218 0
M  V30 19570 H 1886.96 -0.406361 -0.614849 0
M  V30 19571 H 1889.6 -1.54991 -1.099 0
M  V30 19572 H 1887.75 -1.50934 -3.57982 0
M  V30 19573 H 1889.43 -3.88172 -2.49238 0
M  V30 19574 H 1887.67 -3.68735 -2.2851 0
M  V30 19575 H 1888.34 -3.90171 -3.90475 0
M  V30 19576 H 1890.82 -1.99127 -3.6536 0
M  V30 19577 H 1889.69 -2.22821 -5.01639 0
M  V30 19578 H 1889.95 -0.612576 -4.37835 0
M  V30 19579 N 1889.01 1.14984 -1.07779 0
M  V30 19580 C 1889.97 2.1806 -0.705879 0
M  V30 19581 C 1890.97 1.58748 0.256082 0
M  V30 19582 O 1892.16 1.74162 0.0364678 0
M  V30 19583 C 1889.3 3.40875 -0.0411253 0
M  V30 19584 H 1890.49 2.52476 -1.61852 0
M  V30 19585 H 1888.04 1.29522 -0.874863 0
M  V30 19586 H 1888.78 3.12032 0.883548 0
M  V30 19587 H 1888.56 3.85186 -0.73306 0
M  V30 19588 H 1890.05 4.171 0.204275 0
M  V30 19589 N 1890.49 0.862526 1.31902 0
M  V30 19590 C 1891.73 0.47617 1.98776 0
M  V30 19591 C 1892.09 -0.952142 1.66728 0
M  V30 19592 O 1893.29 -1.44346 2.26754 0
M  V30 19593 C 1891.57 0.71747 3.50124 0
M  V30 19594 S 1893.12 0.429862 4.36689 0
M  V30 19595 H 1889.94 0.178053 0.688344 0
M  V30 19596 H 1892.54 1.11694 1.60451 0
M  V30 19597 H 1891.25 1.75592 3.70939 0
M  V30 19598 H 1890.78 0.0634148 3.93349 0
M  V30 19599 H 1892.79 -0.740921 4.90637 0
M  V30 19600 N 1891.97 -1.4484 0.62123 0
M  V30 19601 C 1892.88 -2.34423 -0.0910566 0
M  V30 19602 C 1893.89 -1.52042 -0.846121 0
M  V30 19603 O 1895.07 -1.84802 -0.800625 0
M  V30 19604 C 1892.14 -3.29874 -1.06696 0
M  V30 19605 C 1891.2 -4.28162 -0.312354 0
M  V30 19606 C 1890.43 -5.19053 -1.24177 0
M  V30 19607 O 1890.65 -5.13659 -2.48014 0
M  V30 19608 O 1889.59 -5.97439 -0.731442 0
M  V30 19609 H 1893.41 -2.96761 0.645493 0
M  V30 19610 H 1891 -1.44448 0.381445 0
M  V30 19611 H 1892.88 -3.88654 -1.62867 0
M  V30 19612 H 1891.55 -2.70083 -1.78429 0
M  V30 19613 H 1890.46 -3.72957 0.292161 0
M  V30 19614 H 1891.79 -4.90847 0.364763 0
M  V30 19615 N 1893.45 -0.361184 -1.53405 0
M  V30 19616 C 1894.86 0.118972 -1.86321 0
M  V30 19617 C 1895.21 1.48531 -1.28191 0
M  V30 19618 O 1894.33 2.07851 -0.602253 0
M  V30 19619 C 1894.93 0.222658 -3.38068 0
M  V30 19620 C 1893.49 0.647065 -3.70796 0
M  V30 19621 C 1892.63 -0.208424 -2.76516 0
M  V30 19622 H 1895.59 -0.580142 -1.47716 0
M  V30 19623 H 1895.61 1.04702 -3.65811 0
M  V30 19624 H 1895.12 -0.771922 -3.80346 0
M  V30 19625 H 1893.22 1.65003 -3.34073 0
M  V30 19626 H 1893.33 0.424724 -4.77214 0
M  V30 19627 H 1891.7 0.322011 -2.52656 0
M  V30 19628 H 1892.48 -1.20046 -3.21627 0
M  V30 19629 N 1894.92 1.57341 -0.0902386 0
M  V30 19630 C 1896.17 1.94464 0.575461 0
M  V30 19631 C 1896.5 0.971819 1.68135 0
M  V30 19632 O 1895.78 0.00405665 1.945 0
M  V30 19633 C 1896.06 3.41739 1.13518 0
M  V30 19634 C 1895.91 4.49787 0.0346821 0
M  V30 19635 C 1897.23 3.90222 2.03506 0
M  V30 19636 H 1894.35 0.707123 0.207716 0
M  V30 19637 H 1896.99 1.89325 -0.15996 0
M  V30 19638 H 1895.14 3.46249 1.76192 0
M  V30 19639 H 1896.82 4.5739 -0.599326 0
M  V30 19640 H 1895.06 4.29166 -0.632342 0
M  V30 19641 H 1895.73 5.50021 0.467044 0
M  V30 19642 H 1898.21 3.87834 1.50744 0
M  V30 19643 H 1897.08 4.93846 2.39598 0
M  V30 19644 H 1897.34 3.29232 2.95057 0
M  V30 19645 N 1896.4 -0.183431 1.56529 0
M  V30 19646 C 1897.68 -0.928567 1.72154 0
M  V30 19647 C 1898.06 -2.00899 0.648284 0
M  V30 19648 O 1897.41 -2.25973 -0.338886 0
M  V30 19649 C 1897.62 -1.50436 3.14913 0
M  V30 19650 C 1898.97 -1.98198 3.75503 0
M  V30 19651 O 1899.99 -1.60255 3.18115 0
M  V30 19652 O 1898.85 -2.68054 4.76245 0
M  V30 19653 H 1895.94 -0.436242 0.702582 0
M  V30 19654 H 1898.49 -0.17221 1.68824 0
M  V30 19655 H 1897.26 -0.726145 3.84503 0
M  V30 19656 H 1896.88 -2.32523 3.22519 0
M  V30 19657 N 1897.88 -1.50992 -0.451564 0
M  V30 19658 C 1899.12 -1.64605 -1.21179 0
M  V30 19659 C 1899.48 -0.347889 -1.88822 0
M  V30 19660 O 1900.69 -0.359643 -2.66383 0
M  V30 19661 C 1898.96 -2.8067 -2.21267 0
M  V30 19662 S 1900.52 -3.14531 -3.05967 0
M  V30 19663 H 1897.33 -0.58007 -0.411145 0
M  V30 19664 H 1899.94 -1.88849 -0.505611 0
M  V30 19665 H 1898.64 -3.73449 -1.70187 0
M  V30 19666 H 1898.17 -2.58572 -2.96486 0
M  V30 19667 H 1900.19 -2.59864 -4.22712 0
M  V30 19668 N 1899.36 0.706069 -1.40899 0
M  V30 19669 C 1900.58 1.50008 -1.43221 0
M  V30 19670 C 1901.01 1.88065 -0.0362158 0
M  V30 19671 O 1900.37 1.5392 0.958036 0
M  V30 19672 C 1900.41 2.74578 -2.33751 0
M  V30 19673 O 1899.52 3.71657 -1.78731 0
M  V30 19674 H 1898.86 0.451899 -0.486501 0
M  V30 19675 H 1901.39 0.868772 -1.85239 0
M  V30 19676 H 1901.4 3.23002 -2.49266 0
M  V30 19677 H 1900.07 2.46214 -3.35189 0
M  V30 19678 H 1898.65 3.30544 -1.72612 0
M  V30 19679 N 1900.84 1.26553 0.939264 0
M  V30 19680 C 1902.09 1.11599 1.68014 0
M  V30 19681 C 1902.4 -0.339956 1.92623 0
M  V30 19682 O 1903.6 -0.610203 2.64554 0
M  V30 19683 C 1902.06 1.94913 3.02551 0
M  V30 19684 C 1901.67 3.45094 2.85682 0
M  V30 19685 C 1903.41 1.88574 3.80316 0
M  V30 19686 C 1901.32 4.20648 4.15703 0
M  V30 19687 H 1900.25 0.414037 0.630151 0
M  V30 19688 H 1902.9 1.50878 1.04441 0
M  V30 19689 H 1901.28 1.48469 3.67115 0
M  V30 19690 H 1902.46 3.99321 2.29956 0
M  V30 19691 H 1900.77 3.5269 2.21357 0
M  V30 19692 H 1903.37 2.42307 4.76646 0
M  V30 19693 H 1903.71 0.856867 4.07386 0
M  V30 19694 H 1904.24 2.32852 3.22529 0
M  V30 19695 H 1900.98 5.24013 3.93816 0
M  V30 19696 H 1900.5 3.71202 4.71136 0
M  V30 19697 H 1902.18 4.29199 4.84146 0
M  V30 19698 N 1902.31 -1.14411 1.08387 0
M  V30 19699 C 1903.73 -1.67013 0.83448 0
M  V30 19700 C 1904.08 -1.85509 -0.638802 0
M  V30 19701 O 1903.2 -1.56611 -1.49338 0
M  V30 19702 C 1903.8 -3.03377 1.50825 0
M  V30 19703 C 1902.36 -3.53013 1.3061 0
M  V30 19704 C 1901.5 -2.28494 1.57117 0
M  V30 19705 H 1904.45 -0.984794 1.24449 0
M  V30 19706 H 1904.47 -3.68824 0.935352 0
M  V30 19707 H 1903.99 -2.89883 2.5805 0
M  V30 19708 H 1902.09 -3.7173 0.254538 0
M  V30 19709 H 1902.2 -4.33799 2.0336 0
M  V30 19710 H 1900.56 -2.34558 0.99271 0
M  V30 19711 H 1901.35 -2.17576 2.65547 0
M  V30 19712 N 1903.79 -0.869509 -1.31443 0
M  V30 19713 C 1905.07 -0.400903 -1.91447 0
M  V30 19714 C 1905.45 1.117 -1.79127 0
M  V30 19715 O 1904.8 1.94536 -1.19866 0
M  V30 19716 C 1905.01 -0.881767 -3.37677 0
M  V30 19717 C 1906.36 -0.90763 -4.14786 0
M  V30 19718 O 1907.38 -0.82739 -3.46457 0
M  V30 19719 O 1906.24 -1.02365 -5.36827 0
M  V30 19720 H 1903.33 -0.119842 -0.818271 0
M  V30 19721 H 1905.88 -0.957391 -1.40115 0
M  V30 19722 H 1904.65 -1.92533 -3.40657 0
M  V30 19723 H 1904.27 -0.303565 -3.96439 0
M  V30 19724 N 1905.27 1.44508 -0.628902 0
M  V30 19725 C 1906.22 2.27784 0.0991943 0
M  V30 19726 C 1907.2 1.38538 0.818285 0
M  V30 19727 O 1908.4 1.62364 0.704759 0
M  V30 19728 C 1905.53 3.25816 1.0816 0
M  V30 19729 C 1904.61 4.2255 0.362249 0
M  V30 19730 N 1905 5.02133 -0.607915 0
M  V30 19731 C 1903.3 4.4185 0.60699 0
M  V30 19732 C 1904 5.7246 -1.03271 0
M  V30 19733 N 1902.98 5.42326 -0.371966 0
M  V30 19734 H 1906.78 2.86721 -0.645621 0
M  V30 19735 H 1904.29 1.55918 -0.45423 0
M  V30 19736 H 1906.29 3.8423 1.6178 0
M  V30 19737 H 1904.95 2.6844 1.82674 0
M  V30 19738 H 1905.96 5.08435 -0.985626 0
M  V30 19739 H 1902.64 3.95575 1.33517 0
M  V30 19740 H 1904.03 6.46383 -1.83409 0
M  V30 19741 N 1906.75 0.369315 1.53212 0
M  V30 19742 C 1907.7 -0.491919 2.2263 0
M  V30 19743 C 1908.68 -1.0457 1.22286 0
M  V30 19744 O 1909.88 -0.975125 1.47717 0
M  V30 19745 C 1907 -1.62916 3.02181 0
M  V30 19746 C 1906.09 -1.08808 4.09904 0
M  V30 19747 N 1906.48 -0.270291 5.05077 0
M  V30 19748 C 1904.78 -1.36253 4.24678 0
M  V30 19749 C 1905.48 0.0263875 5.81694 0
M  V30 19750 N 1904.46 -0.572239 5.4058 0
M  V30 19751 H 1908.26 0.139657 2.93568 0
M  V30 19752 H 1905.77 0.177531 1.61427 0
M  V30 19753 H 1907.77 -2.25837 3.50433 0
M  V30 19754 H 1906.43 -2.26376 2.32774 0
M  V30 19755 H 1907.44 0.0908158 5.1782 0
M  V30 19756 H 1904.12 -1.99964 3.66498 0
M  V30 19757 H 1905.51 0.687735 6.68371 0
M  V30 19758 N 1908.23 -1.57291 0.0985816 0
M  V30 19759 C 1909.16 -2.11249 -0.889184 0
M  V30 19760 C 1910.17 -1.05051 -1.24371 0
M  V30 19761 O 1911.36 -1.32488 -1.19621 0
M  V30 19762 C 1908.46 -2.58021 -2.19724 0
M  V30 19763 C 1907.63 -3.88091 -2.01752 0
M  V30 19764 C 1906.69 -4.20674 -3.16101 0
M  V30 19765 O 1905.72 -4.89837 -2.89911 0
M  V30 19766 N 1906.92 -3.76356 -4.41969 0
M  V30 19767 H 1909.69 -2.96624 -0.42832 0
M  V30 19768 H 1907.25 -1.61669 -0.0864254 0
M  V30 19769 H 1909.24 -2.76861 -2.95178 0
M  V30 19770 H 1907.81 -1.77638 -2.57223 0
M  V30 19771 H 1907.03 -3.78364 -1.10608 0
M  V30 19772 H 1908.32 -4.7318 -1.87026 0
M  V30 19773 H 1907.72 -3.20533 -4.66128 0
M  V30 19774 H 1906.27 -4.00344 -5.14361 0
M  V30 19775 N 1909.71 0.175127 -1.56624 0
M  V30 19776 C 1910.95 0.89369 -1.82047 0
M  V30 19777 C 1911.28 1.82061 -0.675831 0
M  V30 19778 O 1910.56 1.91808 0.322453 0
M  V30 19779 C 1910.84 1.69266 -3.17838 0
M  V30 19780 C 1910.7 0.789122 -4.42824 0
M  V30 19781 C 1912.01 2.66115 -3.50529 0
M  V30 19782 H 1909.13 0.323454 -0.662228 0
M  V30 19783 H 1911.78 0.160077 -1.89324 0
M  V30 19784 H 1909.93 2.31808 -3.11765 0
M  V30 19785 H 1911.6 0.17687 -4.60961 0
M  V30 19786 H 1909.84 0.0969508 -4.33692 0
M  V30 19787 H 1910.51 1.38358 -5.34379 0
M  V30 19788 H 1912.99 2.137 -3.57031 0
M  V30 19789 H 1911.86 3.19087 -4.46626 0
M  V30 19790 H 1912.12 3.4613 -2.75038 0
M  V30 19791 N 1911.18 1.5123 0.44355 0
M  V30 19792 C 1912.41 1.67146 1.21432 0
M  V30 19793 C 1912.82 0.365681 1.85632 0
M  V30 19794 O 1912.16 -0.665141 1.71235 0
M  V30 19795 C 1912.23 2.72562 2.34415 0
M  V30 19796 C 1911.89 4.15341 1.90632 0
M  V30 19797 C 1912.89 5.00323 1.41325 0
M  V30 19798 C 1910.57 4.61409 1.98513 0
M  V30 19799 C 1912.57 6.29431 1.00476 0
M  V30 19800 C 1910.25 5.90515 1.57276 0
M  V30 19801 C 1911.25 6.74353 1.08339 0
M  V30 19802 O 1910.94 8.01046 0.676843 0
M  V30 19803 H 1910.67 0.564225 0.372325 0
M  V30 19804 H 1913.23 1.98375 0.532597 0
M  V30 19805 H 1911.46 2.36634 3.05845 0
M  V30 19806 H 1913.14 2.77419 2.96299 0
M  V30 19807 H 1913.91 4.65938 1.34636 0
M  V30 19808 H 1909.79 3.96279 2.3555 0
M  V30 19809 H 1913.33 6.94821 0.622093 0
M  V30 19810 H 1909.23 6.24415 1.63633 0
M  V30 19811 H 1910 8.14549 0.803247 0
M  V30 19812 N 1912.66 -0.698586 1.41271 0
M  V30 19813 C 1913.62 -1.7943 1.4261 0
M  V30 19814 C 1914.62 -1.57641 0.317187 0
M  V30 19815 O 1915.81 -1.64369 0.576922 0
M  V30 19816 C 1912.95 -3.17762 1.23452 0
M  V30 19817 H 1914.14 -1.79637 2.40147 0
M  V30 19818 H 1911.69 -0.905916 1.27369 0
M  V30 19819 H 1912.43 -3.23195 0.267431 0
M  V30 19820 H 1912.21 -3.34978 2.03794 0
M  V30 19821 H 1913.7 -3.97751 1.27217 0
M  V30 19822 N 1914.14 -1.27049 -0.93254 0
M  V30 19823 C 1915.1 -1.09404 -2.01404 0
M  V30 19824 C 1916.1 -0.0395757 -1.60751 0
M  V30 19825 O 1917.29 -0.283746 -1.71874 0
M  V30 19826 C 1914.42 -0.665948 -3.34332 0
M  V30 19827 H 1915.62 -2.05434 -2.18488 0
M  V30 19828 H 1913.17 -1.09768 -1.11268 0
M  V30 19829 H 1913.91 0.295952 -3.22947 0
M  V30 19830 H 1913.69 -1.42745 -3.65194 0
M  V30 19831 H 1915.18 -0.564591 -4.13766 0
M  V30 19832 N 1915.62 1.13835 -1.08993 0
M  V30 19833 C 1916.84 1.89402 -0.845071 0
M  V30 19834 C 1917.27 1.78353 0.597641 0
M  V30 19835 O 1916.63 1.12793 1.41942 0
M  V30 19836 C 1916.67 3.37144 -1.27931 0
M  V30 19837 O 1915.78 4.101 -0.434975 0
M  V30 19838 H 1915.12 0.589066 -0.306427 0
M  V30 19839 H 1917.65 1.44055 -1.45291 0
M  V30 19840 H 1917.66 3.87967 -1.26277 0
M  V30 19841 H 1916.33 3.44504 -2.33002 0
M  V30 19842 H 1914.91 3.6932 -0.515447 0
M  V30 19843 N 1917.1 0.876467 1.3098 0
M  V30 19844 C 1918.34 0.49064 1.96466 0
M  V30 19845 C 1918.67 -0.958443 1.69246 0
M  V30 19846 O 1917.93 -1.69096 0.985144 0
M  V30 19847 C 1918.22 0.70208 3.50436 0
M  V30 19848 C 1917.89 2.12494 3.9769 0
M  V30 19849 C 1916.55 2.51405 4.10303 0
M  V30 19850 C 1918.9 3.0526 4.22452 0
M  V30 19851 C 1916.23 3.82309 4.45035 0
M  V30 19852 C 1918.58 4.35686 4.5865 0
M  V30 19853 C 1917.25 4.74502 4.69472 0
M  V30 19854 H 1916.52 0.179538 0.718921 0
M  V30 19855 H 1919.17 1.1107 1.55999 0
M  V30 19856 H 1917.47 -0.00106996 3.918 0
M  V30 19857 H 1919.17 0.383279 3.99164 0
M  V30 19858 H 1915.76 1.81287 3.88372 0
M  V30 19859 H 1919.94 2.76422 4.12195 0
M  V30 19860 H 1915.2 4.12136 4.51612 0
M  V30 19861 H 1919.37 5.07612 4.76763 0
M  V30 19862 H 1917 5.75976 4.9614 0
M  V30 19863 N 1918.57 -1.44173 0.636557 0
M  V30 19864 C 1919.8 -2.06866 0.148751 0
M  V30 19865 C 1920.22 -1.47295 -1.16987 0
M  V30 19866 O 1919.58 -0.576466 -1.71891 0
M  V30 19867 C 1919.63 -3.60561 0.0533064 0
M  V30 19868 O 1918.73 -4.00361 -0.989163 0
M  V30 19869 H 1918.07 -0.658243 0.087251 0
M  V30 19870 H 1920.6 -1.84956 0.874772 0
M  V30 19871 H 1920.61 -4.07775 -0.135499 0
M  V30 19872 H 1919.29 -4.033 1.01599 0
M  V30 19873 H 1917.87 -3.64769 -0.77449 0
M  V30 19874 N 1920.05 -0.377435 -1.53014 0
M  V30 19875 C 1921.29 0.208453 -2.03334 0
M  V30 19876 C 1921.66 1.45024 -1.25826 0
M  V30 19877 O 1922.86 2.11252 -1.66211 0
M  V30 19878 C 1921.13 0.481594 -3.5414 0
M  V30 19879 S 1922.69 1.03946 -4.26311 0
M  V30 19880 H 1919.5 0.0597675 -0.708483 0
M  V30 19881 H 1922.11 -0.523042 -1.88373 0
M  V30 19882 H 1920.81 -0.429474 -4.08147 0
M  V30 19883 H 1920.34 1.24184 -3.73285 0
M  V30 19884 H 1922.36 2.3228 -4.38475 0
M  V30 19885 N 1921.53 1.57237 -0.106922 0
M  V30 19886 C 1922.94 1.81906 0.420368 0
M  V30 19887 C 1923.29 1.02332 1.67399 0
M  V30 19888 O 1922.42 0.256247 2.14877 0
M  V30 19889 C 1923.01 3.29947 0.769432 0
M  V30 19890 C 1921.57 3.55339 1.24141 0
M  V30 19891 C 1920.72 2.76224 0.243997 0
M  V30 19892 H 1923.67 1.55184 -0.332216 0
M  V30 19893 H 1923.69 3.43916 1.62794 0
M  V30 19894 H 1923.2 3.87836 -0.14316 0
M  V30 19895 H 1921.3 3.02795 2.17131 0
M  V30 19896 H 1921.42 4.63956 1.19508 0
M  V30 19897 H 1919.78 2.44057 0.728574 0
M  V30 19898 H 1920.56 3.36867 -0.661482 0
M  V30 19899 N 1923.01 -0.166818 1.56715 0
M  V30 19900 C 1923.92 -1.22632 1.99996 0
M  V30 19901 C 1924.93 -1.4818 0.912068 0
M  V30 19902 O 1926.11 -1.6024 1.22005 0
M  V30 19903 C 1923.18 -2.54444 2.35498 0
M  V30 19904 C 1922.24 -2.36718 3.58138 0
M  V30 19905 C 1921.47 -3.62244 3.91937 0
M  V30 19906 O 1921.69 -4.67609 3.26646 0
M  V30 19907 O 1920.63 -3.56087 4.85269 0
M  V30 19908 H 1924.45 -0.888926 2.90399 0
M  V30 19909 H 1922.04 -0.374032 1.44642 0
M  V30 19910 H 1923.92 -3.32191 2.59281 0
M  V30 19911 H 1922.59 -2.87753 1.48256 0
M  V30 19912 H 1921.5 -1.56987 3.39567 0
M  V30 19913 H 1922.83 -2.08332 4.45936 0
M  V30 19914 N 1924.49 -1.51463 -0.435524 0
M  V30 19915 C 1925.73 -1.63897 -1.18247 0
M  V30 19916 C 1926.06 -0.358322 -1.9168 0
M  V30 19917 O 1925.33 0.625888 -1.85633 0
M  V30 19918 H 1923.91 -0.60404 -0.439482 0
M  V30 19919 H 1926.57 -1.884 -0.49915 0
M  V30 19920 H 1925.66 -2.46749 -1.91105 0
M  V30 19921 N 1925.96 0.691085 -1.4164 0
M  V30 19922 C 1927.19 1.47978 -1.44603 0
M  V30 19923 C 1927.61 1.88727 -0.0525951 0
M  V30 19924 O 1926.96 1.57079 0.929107 0
M  V30 19925 C 1927.02 2.73945 -2.35874 0
M  V30 19926 O 1926.74 2.34912 -3.69795 0
M  V30 19927 C 1928.24 3.67649 -2.47688 0
M  V30 19928 H 1925.46 0.455873 -0.492363 0
M  V30 19929 H 1928 0.850521 -1.85974 0
M  V30 19930 H 1926.16 3.33098 -1.97799 0
M  V30 19931 H 1926.57 3.16139 -4.18517 0
M  V30 19932 H 1928.04 4.52806 -3.15707 0
M  V30 19933 H 1928.52 4.12443 -1.50956 0
M  V30 19934 H 1929.13 3.14397 -2.86417 0
M  V30 19935 N 1927.44 1.27542 0.925789 0
M  V30 19936 C 1928.67 1.1681 1.70772 0
M  V30 19937 C 1929.09 -0.274824 1.86789 0
M  V30 19938 O 1928.44 -1.18694 1.38629 0
M  V30 19939 C 1928.49 1.84904 3.10633 0
M  V30 19940 O 1928.21 3.23559 2.95366 0
M  V30 19941 C 1929.72 1.80322 4.04968 0
M  V30 19942 H 1926.94 0.406036 0.534206 0
M  V30 19943 H 1929.48 1.68448 1.15955 0
M  V30 19944 H 1927.63 1.37166 3.62304 0
M  V30 19945 H 1928.05 3.57488 3.838 0
M  V30 19946 H 1929.52 2.32577 5.00611 0
M  V30 19947 H 1930 0.772975 4.32344 0
M  V30 19948 H 1930.61 2.27683 3.59222 0
M  V30 19949 N 1928.92 -1.13255 1.09595 0
M  V30 19950 C 1930.17 -1.84571 0.833056 0
M  V30 19951 C 1930.5 -1.83622 -0.641341 0
M  V30 19952 O 1929.75 -1.27084 -1.48823 0
M  V30 19953 C 1930.05 -3.32304 1.31562 0
M  V30 19954 C 1929.72 -3.53433 2.79993 0
M  V30 19955 C 1928.38 -3.58907 3.2053 0
M  V30 19956 C 1930.73 -3.61259 3.75687 0
M  V30 19957 C 1928.06 -3.69744 4.55529 0
M  V30 19958 C 1930.41 -3.73624 5.10478 0
M  V30 19959 C 1929.07 -3.77352 5.50601 0
M  V30 19960 H 1928.34 -0.675393 0.304837 0
M  V30 19961 H 1930.99 -1.33697 1.37103 0
M  V30 19962 H 1929.3 -3.85542 0.697482 0
M  V30 19963 H 1930.99 -3.85935 1.0888 0
M  V30 19964 H 1927.58 -3.49828 2.47625 0
M  V30 19965 H 1931.77 -3.56308 3.45483 0
M  V30 19966 H 1927.02 -3.70897 4.8605 0
M  V30 19967 H 1931.2 -3.78623 5.84481 0
M  V30 19968 H 1928.82 -3.85501 6.55204 0
M  V30 19969 N 1930.4 -0.883401 -1.30514 0
M  V30 19970 C 1931.65 -0.500062 -1.95816 0
M  V30 19971 C 1931.97 0.953596 -1.70093 0
M  V30 19972 O 1931.24 1.67027 -1.02365 0
M  V30 19973 H 1929.82 -0.181936 -0.724506 0
M  V30 19974 H 1932.48 -1.12613 -1.59073 0
M  V30 19975 H 1931.58 -0.668998 -3.04846 0
M  V30 19976 N 1931.88 1.43833 -0.644194 0
M  V30 19977 C 1933.1 2.06784 -0.159719 0
M  V30 19978 C 1933.53 1.47913 1.16204 0
M  V30 19979 O 1932.88 0.585574 1.71583 0
M  V30 19980 C 1932.93 3.60527 -0.0724271 0
M  V30 19981 O 1932.04 4.0088 0.967917 0
M  V30 19982 H 1931.38 0.657771 -0.0907406 0
M  V30 19983 H 1933.91 1.8449 -0.884568 0
M  V30 19984 H 1933.92 4.07841 0.113872 0
M  V30 19985 H 1932.59 4.02755 -1.03736 0
M  V30 19986 H 1931.17 3.65174 0.755135 0
M  V30 19987 N 1933.35 0.385544 1.52811 0
M  V30 19988 C 1934.29 -0.486433 2.23979 0
M  V30 19989 C 1935.3 -1.02981 1.2609 0
M  V30 19990 O 1936.49 -0.932779 1.52189 0
M  V30 19991 C 1933.59 -1.68645 2.93959 0
M  V30 19992 C 1932.76 -1.2711 4.18523 0
M  V30 19993 C 1931.82 -2.33538 4.71536 0
M  V30 19994 O 1930.85 -1.95101 5.34719 0
M  V30 19995 N 1932.05 -3.65401 4.51068 0
M  V30 19996 H 1934.81 0.12327 2.99446 0
M  V30 19997 H 1932.37 0.211712 1.6051 0
M  V30 19998 H 1934.37 -2.3936 3.26326 0
M  V30 19999 H 1932.94 -2.20257 2.21823 0
M  V30 20000 H 1932.16 -0.392983 3.92236 0
M  V30 20001 H 1933.44 -0.970192 4.99464 0
M  V30 20002 H 1932.84 -3.99393 4.00626 0
M  V30 20003 H 1931.4 -4.32162 4.87934 0
M  V30 20004 N 1934.83 -1.57178 0.115259 0
M  V30 20005 C 1936.07 -1.96951 -0.546776 0
M  V30 20006 C 1936.44 -0.996997 -1.64085 0
M  V30 20007 O 1937.64 -1.28396 -2.36152 0
M  V30 20008 C 1935.91 -3.41033 -1.06916 0
M  V30 20009 S 1937.47 -4.02816 -1.74024 0
M  V30 20010 H 1934.29 -0.688401 -0.177833 0
M  V30 20011 H 1936.89 -1.9448 0.199452 0
M  V30 20012 H 1935.59 -4.09565 -0.261661 0
M  V30 20013 H 1935.12 -3.47147 -1.85075 0
M  V30 20014 H 1937.14 -3.93268 -3.0258 0
M  V30 20015 N 1936.31 0.158505 -1.56801 0
M  V30 20016 C 1937.54 0.892291 -1.87224 0
M  V30 20017 C 1937.96 1.74468 -0.703029 0
M  V30 20018 O 1937.32 1.77936 0.347649 0
M  V30 20019 C 1937.37 1.73433 -3.16154 0
M  V30 20020 O 1936.47 2.83736 -2.99279 0
M  V30 20021 H 1935.81 0.249214 -0.615458 0
M  V30 20022 H 1938.34 0.152785 -2.04029 0
M  V30 20023 H 1938.35 2.13168 -3.47884 0
M  V30 20024 H 1937.03 1.10831 -4.00861 0
M  V30 20025 H 1935.6 2.47491 -2.78931 0
M  V30 20026 N 1937.79 1.51692 0.427485 0
M  V30 20027 C 1939.04 1.64847 1.17608 0
M  V30 20028 C 1939.36 0.369447 1.90959 0
M  V30 20029 O 1938.62 -0.646897 1.84699 0
M  V30 20030 C 1938.92 2.80871 2.21011 0
M  V30 20031 C 1938.58 4.19782 1.64602 0
M  V30 20032 C 1937.25 4.5757 1.48941 0
M  V30 20033 C 1939.6 5.06423 1.23226 0
M  V30 20034 C 1936.93 5.79695 0.903941 0
M  V30 20035 C 1939.28 6.29137 0.661048 0
M  V30 20036 C 1937.94 6.65689 0.491424 0
M  V30 20037 H 1937.21 0.603218 0.430359 0
M  V30 20038 H 1939.86 1.85749 0.465774 0
M  V30 20039 H 1938.16 2.5423 2.98118 0
M  V30 20040 H 1939.86 2.88248 2.78772 0
M  V30 20041 H 1936.45 3.89995 1.7777 0
M  V30 20042 H 1940.64 4.77828 1.34142 0
M  V30 20043 H 1935.89 6.06653 0.76037 0
M  V30 20044 H 1940.07 6.95608 0.331975 0
M  V30 20045 H 1937.69 7.60192 0.0356395 0
M  V30 20046 N 1939.27 -0.683564 1.42004 0
M  V30 20047 C 1940.2 -1.80902 1.40737 0
M  V30 20048 C 1941.21 -1.59865 0.307725 0
M  V30 20049 O 1942.4 -1.69146 0.570244 0
M  V30 20050 C 1939.5 -3.17867 1.17533 0
M  V30 20051 C 1938.67 -3.65829 2.39766 0
M  V30 20052 C 1937.73 -4.81499 2.12238 0
M  V30 20053 O 1936.76 -4.92495 2.85371 0
M  V30 20054 N 1937.96 -5.69592 1.12006 0
M  V30 20055 H 1940.73 -1.82478 2.37744 0
M  V30 20056 H 1938.29 -0.866335 1.36771 0
M  V30 20057 H 1940.28 -3.92891 0.970489 0
M  V30 20058 H 1938.85 -3.11244 0.290811 0
M  V30 20059 H 1938.07 -2.81579 2.75874 0
M  V30 20060 H 1939.36 -3.94615 3.2118 0
M  V30 20061 H 1938.76 -5.63351 0.515003 0
M  V30 20062 H 1937.31 -6.44465 0.975098 0
M  V30 20063 N 1940.75 -1.28031 -0.919012 0
M  V30 20064 C 1941.99 -1.16124 -1.6821 0
M  V30 20065 C 1942.35 0.286502 -1.8985 0
M  V30 20066 O 1943.55 0.528171 -2.6356 0
M  V30 20067 C 1941.82 -1.93232 -3.0066 0
M  V30 20068 S 1943.38 -1.97638 -3.91771 0
M  V30 20069 H 1940.2 -0.4144 -0.577749 0
M  V30 20070 H 1942.8 -1.62059 -1.09349 0
M  V30 20071 H 1941.5 -2.97593 -2.82607 0
M  V30 20072 H 1941.04 -1.47825 -3.6457 0
M  V30 20073 H 1943.05 -1.07908 -4.84325 0
M  V30 20074 N 1942.22 1.12672 -1.10194 0
M  V30 20075 C 1943.64 1.36123 -0.833225 0
M  V30 20076 C 1943.84 1.93889 0.548569 0
M  V30 20077 O 1942.9 2.16347 1.30192 0
M  V30 20078 C 1944.21 2.30515 -1.93089 0
M  V30 20079 C 1945.76 2.44111 -1.95905 0
M  V30 20080 C 1946.23 3.41816 -3.04838 0
M  V30 20081 N 1947.72 3.49371 -3.04128 0
M  V30 20082 C 1948.46 4.24874 -3.85058 0
M  V30 20083 N 1947.95 5.03464 -4.75916 0
M  V30 20084 N 1949.75 4.20255 -3.73285 0
M  V30 20085 H 1941.9 0.735332 -1.99265 0
M  V30 20086 H 1944.16 0.386141 -0.865794 0
M  V30 20087 H 1943.87 1.95239 -2.92531 0
M  V30 20088 H 1943.74 3.30611 -1.81593 0
M  V30 20089 H 1946.13 2.78669 -0.97097 0
M  V30 20090 H 1946.21 1.43911 -2.11479 0
M  V30 20091 H 1945.85 3.07988 -4.03864 0
M  V30 20092 H 1945.78 4.41839 -2.86506 0
M  V30 20093 H 1948.27 2.93303 -2.38289 0
M  V30 20094 H 1948.59 5.58406 -5.34231 0
M  V30 20095 H 1946.93 5.02669 -4.79946 0
M  V30 20096 H 1950.12 3.57939 -3.01658 0
M  V30 20097 H 1950.3 4.78843 -4.36593 0
M  V30 20098 N 1943.7 0.89031 1.30043 0
M  V30 20099 C 1944.65 0.332451 2.25563 0
M  V30 20100 C 1945.64 -0.542139 1.51491 0
M  V30 20101 O 1946.83 -0.38569 1.72747 0
M  V30 20102 C 1943.96 -0.447303 3.40373 0
M  V30 20103 C 1943.04 0.441676 4.21794 0
M  V30 20104 N 1943.43 1.54459 4.81639 0
M  V30 20105 C 1941.73 0.237754 4.45366 0
M  V30 20106 C 1942.43 2.09448 5.42685 0
M  V30 20107 N 1941.41 1.38873 5.25562 0
M  V30 20108 H 1945.21 1.17511 2.69385 0
M  V30 20109 H 1942.72 0.74031 1.44545 0
M  V30 20110 H 1944.72 -0.863632 4.07857 0
M  V30 20111 H 1943.38 -1.28733 2.9809 0
M  V30 20112 H 1944.39 1.92741 4.80699 0
M  V30 20113 H 1941.07 -0.564672 4.13664 0
M  V30 20114 H 1942.46 3.02096 6.00156 0
M  V30 20115 N 1945.18 -1.43489 0.651812 0
M  V30 20116 C 1946.59 -1.85091 0.2446 0
M  V30 20117 C 1946.94 -1.54561 -1.20852 0
M  V30 20118 O 1946.07 -0.993885 -1.92226 0
M  V30 20119 C 1946.66 -3.35968 0.43715 0
M  V30 20120 C 1945.22 -3.76306 0.0842681 0
M  V30 20121 C 1944.37 -2.67225 0.740688 0
M  V30 20122 H 1947.32 -1.33662 0.855581 0
M  V30 20123 H 1947.34 -3.79171 -0.317766 0
M  V30 20124 H 1946.85 -3.58157 1.49484 0
M  V30 20125 H 1944.95 -3.59729 -0.970875 0
M  V30 20126 H 1945.07 -4.76391 0.508752 0
M  V30 20127 H 1943.43 -2.54105 0.174053 0
M  V30 20128 H 1944.21 -2.92242 1.80137 0
M  V30 20129 N 1946.66 -0.393643 -1.52605 0
M  V30 20130 C 1947.62 0.427358 -2.25181 0
M  V30 20131 C 1948.62 0.986595 -1.26976 0
M  V30 20132 O 1949.81 0.867913 -1.51039 0
M  V30 20133 C 1946.94 1.60001 -3.01019 0
M  V30 20134 H 1948.14 -0.208101 -2.99177 0
M  V30 20135 H 1945.69 -0.145844 -1.55618 0
M  V30 20136 H 1946.42 2.27278 -2.31334 0
M  V30 20137 H 1946.21 1.20567 -3.73103 0
M  V30 20138 H 1947.7 2.18115 -3.56112 0
M  V30 20139 N 1948.14 1.57115 -0.123593 0
M  V30 20140 C 1949.07 2.12637 0.855463 0
M  V30 20141 C 1950.08 1.07017 1.22683 0
M  V30 20142 O 1951.27 1.34374 1.17498 0
M  V30 20143 C 1948.37 2.61484 2.15591 0
M  V30 20144 C 1947.54 3.91252 1.95553 0
M  V30 20145 C 1946.6 4.25649 3.09369 0
M  V30 20146 O 1945.63 4.94387 2.82082 0
M  V30 20147 N 1946.83 3.83339 4.35926 0
M  V30 20148 H 1949.59 2.97267 0.381076 0
M  V30 20149 H 1947.16 1.61786 0.0606943 0
M  V30 20150 H 1949.15 2.81522 2.90736 0
M  V30 20151 H 1947.72 1.81708 2.54364 0
M  V30 20152 H 1946.94 3.80076 1.04575 0
M  V30 20153 H 1948.23 4.76095 1.79474 0
M  V30 20154 H 1947.62 3.27908 4.6097 0
M  V30 20155 H 1946.18 4.08477 5.07927 0
M  V30 20156 N 1949.61 -0.150187 1.56883 0
M  V30 20157 C 1950.54 -1.18735 2.01058 0
M  V30 20158 C 1951.52 -1.44983 0.889606 0
M  V30 20159 O 1952.71 -1.55958 1.15719 0
M  V30 20160 C 1949.84 -2.52129 2.38848 0
M  V30 20161 C 1948.79 -2.40408 3.54101 0
M  V30 20162 C 1948.12 -3.78484 3.77695 0
M  V30 20163 C 1949.42 -1.89087 4.86871 0
M  V30 20164 H 1951.11 -0.820044 2.87951 0
M  V30 20165 H 1948.66 -0.393025 1.38533 0
M  V30 20166 H 1950.61 -3.24908 2.68352 0
M  V30 20167 H 1949.34 -2.90688 1.48889 0
M  V30 20168 H 1948 -1.70082 3.24758 0
M  V30 20169 H 1947.64 -4.14474 2.84992 0
M  V30 20170 H 1947.34 -3.71504 4.55256 0
M  V30 20171 H 1948.87 -4.52816 4.09621 0
M  V30 20172 H 1950.28 -2.51656 5.15114 0
M  V30 20173 H 1948.68 -1.93005 5.68216 0
M  V30 20174 H 1949.75 -0.846357 4.77457 0
M  V30 20175 N 1951.09 -1.51916 -0.419434 0
M  V30 20176 C 1952.04 -1.7452 -1.51035 0
M  V30 20177 C 1953.01 -0.587321 -1.5537 0
M  V30 20178 O 1954.19 -0.823744 -1.72102 0
M  V30 20179 C 1951.33 -1.89242 -2.88585 0
M  V30 20180 C 1950.45 -3.16859 -2.9364 0
M  V30 20181 C 1949.58 -3.22072 -4.22426 0
M  V30 20182 C 1948.62 -4.43931 -4.21416 0
M  V30 20183 N 1947.76 -4.46594 -5.41755 0
M  V30 20184 H 1952.6 -2.67631 -1.31063 0
M  V30 20185 H 1950.14 -1.32623 -0.636368 0
M  V30 20186 H 1952.09 -1.9576 -3.68421 0
M  V30 20187 H 1950.72 -0.995211 -3.07076 0
M  V30 20188 H 1949.78 -3.19562 -2.06359 0
M  V30 20189 H 1951.09 -4.06719 -2.88758 0
M  V30 20190 H 1950.24 -3.27605 -5.10647 0
M  V30 20191 H 1948.98 -2.30131 -4.29989 0
M  V30 20192 H 1947.99 -4.38555 -3.31586 0
M  V30 20193 H 1949.21 -5.37155 -4.15501 0
M  V30 20194 H 1947.16 -3.57532 -5.50006 0
M  V30 20195 H 1947.07 -5.30286 -5.38825 0
M  V30 20196 H 1948.34 -4.56343 -6.31958 0
M  V30 20197 N 1952.57 0.676023 -1.42365 0
M  V30 20198 C 1953.82 1.43324 -1.42487 0
M  V30 20199 C 1954.14 1.94955 -0.0418589 0
M  V30 20200 O 1953.41 1.72984 0.919418 0
M  V30 20201 H 1951.99 0.531857 -0.524535 0
M  V30 20202 H 1954.65 0.798867 -1.77775 0
M  V30 20203 H 1953.75 2.28686 -2.12389 0
M  V30 20204 N 1954.05 1.28517 0.912209 0
M  V30 20205 C 1955 1.12437 2.03619 0
M  V30 20206 C 1955.99 0.0432331 1.69345 0
M  V30 20207 O 1957.2 0.202116 1.78862 0
M  V30 20208 H 1953.57 0.34694 0.667185 0
M  V30 20209 H 1955.54 2.07625 2.14323 0
M  V30 20210 C 1954.29 0.804603 3.38262 0
M  V30 20211 H 1953.61 1.62849 3.65131 0
M  V30 20212 H 1955.05 0.732055 4.17633 0
M  V30 20213 C 1953.51 -0.491715 3.33292 0
M  V30 20214 O 1954.04 -1.52155 3.71768 0
M  V30 20215 N 1952.25 -0.493007 2.86388 0
M  V30 20216 H 1951.8 0.34549 2.55273 0
M  V30 20217 H 1951.75 -1.36038 2.83445 0
M  V30 20218 N 1955.53 -1.12086 1.1079 0
M  V30 20219 C 1956.47 -2.20006 0.755001 0
M  V30 20220 C 1957.47 -1.67538 -0.250501 0
M  V30 20221 O 1958.67 -1.79661 -0.110486 0
M  V30 20222 H 1955.05 -0.717162 0.226237 0
M  V30 20223 H 1957.02 -2.47022 1.67399 0
M  V30 20224 C 1955.77 -3.47083 0.207038 0
M  V30 20225 H 1955.09 -3.87805 0.971991 0
M  V30 20226 H 1956.53 -4.24 -0.00177915 0
M  V30 20227 C 1954.99 -3.19753 -1.06112 0
M  V30 20228 O 1955.52 -3.39825 -2.142 0
M  V30 20229 N 1953.73 -2.73534 -0.981212 0
M  V30 20230 H 1953.27 -2.574 -0.101519 0
M  V30 20231 H 1953.23 -2.55624 -1.83041 0
M  V30 20232 N 1957 -0.897194 -1.29569 0
M  V30 20233 C 1958.23 -0.536465 -2.00342 0
M  V30 20234 C 1958.65 0.87088 -1.66725 0
M  V30 20235 O 1958.01 1.57924 -0.890492 0
M  V30 20236 C 1958.06 -0.732781 -3.53076 0
M  V30 20237 O 1957.16 0.215848 -4.11835 0
M  V30 20238 H 1956.51 -0.209904 -0.62995 0
M  V30 20239 H 1959.04 -1.20809 -1.65125 0
M  V30 20240 H 1959.05 -0.636468 -4.03005 0
M  V30 20241 H 1957.72 -1.75882 -3.7688 0
M  V30 20242 H 1956.3 0.0722012 -3.7283 0
M  V30 20243 N 1958.48 1.43142 -0.659413 0
M  V30 20244 C 1959.41 2.33495 0.0147266 0
M  V30 20245 C 1960.39 1.49819 0.805493 0
M  V30 20246 O 1961.58 1.78466 0.765732 0
M  V30 20247 C 1958.71 3.33261 0.977483 0
M  V30 20248 C 1957.66 4.26972 0.296396 0
M  V30 20249 C 1956.99 5.16824 1.37103 0
M  V30 20250 C 1958.29 5.15901 -0.815063 0
M  V30 20251 H 1959.98 2.90115 -0.739837 0
M  V30 20252 H 1957.53 1.39499 -0.357229 0
M  V30 20253 H 1959.48 3.95372 1.45805 0
M  V30 20254 H 1958.21 2.74911 1.76328 0
M  V30 20255 H 1956.86 3.66234 -0.16379 0
M  V30 20256 H 1956.51 4.5481 2.14842 0
M  V30 20257 H 1956.21 5.80345 0.920528 0
M  V30 20258 H 1957.74 5.81809 1.85284 0
M  V30 20259 H 1959.15 5.71786 -0.416382 0
M  V30 20260 H 1957.55 5.88175 -1.19041 0
M  V30 20261 H 1958.62 4.5522 -1.67042 0
M  V30 20262 N 1959.96 0.40173 1.52394 0
M  V30 20263 C 1960.89 -0.41861 2.29717 0
M  V30 20264 C 1961.87 -1.05263 1.33618 0
M  V30 20265 O 1963.06 -1.06304 1.62521 0
M  V30 20266 C 1960.19 -1.5395 3.11314 0
M  V30 20267 C 1959.14 -1.03088 4.154 0
M  V30 20268 C 1958.47 -2.2448 4.85297 0
M  V30 20269 C 1959.77 -0.0900956 5.22222 0
M  V30 20270 H 1961.46 0.226577 2.98541 0
M  V30 20271 H 1959.01 0.110411 1.43576 0
M  V30 20272 H 1960.96 -2.12031 3.64171 0
M  V30 20273 H 1959.68 -2.21246 2.40246 0
M  V30 20274 H 1958.34 -0.472515 3.63542 0
M  V30 20275 H 1957.99 -2.90313 4.10764 0
M  V30 20276 H 1957.69 -1.91103 5.55656 0
M  V30 20277 H 1959.21 -2.83181 5.40963 0
M  V30 20278 H 1960.63 -0.579479 5.70364 0
M  V30 20279 H 1959.03 0.154505 5.99901 0
M  V30 20280 H 1960.1 0.857375 4.7726 0
M  V30 20281 N 1961.44 -1.57047 0.131923 0
M  V30 20282 C 1962.67 -1.99989 -0.530289 0
M  V30 20283 C 1963.08 -1.01182 -1.59397 0
M  V30 20284 O 1962.44 -0.00657368 -1.82499 0
M  V30 20285 C 1962.49 -3.42898 -1.14469 0
M  V30 20286 O 1962.21 -4.37926 -0.123503 0
M  V30 20287 C 1963.71 -4.0104 -1.88897 0
M  V30 20288 H 1960.93 -0.656371 -0.139348 0
M  V30 20289 H 1963.48 -2.03291 0.222069 0
M  V30 20290 H 1961.63 -3.40495 -1.84775 0
M  V30 20291 H 1962.04 -5.21376 -0.571587 0
M  V30 20292 H 1963.52 -5.03077 -2.27196 0
M  V30 20293 H 1964 -3.40903 -2.76915 0
M  V30 20294 H 1964.6 -4.07027 -1.23324 0
M  V30 20295 N 1962.92 0.141865 -1.5696 0
M  V30 20296 C 1964.16 0.859765 -1.85438 0
M  V30 20297 C 1964.52 1.78114 -0.716905 0
M  V30 20298 O 1965.72 2.53888 -0.882864 0
M  V30 20299 C 1963.99 1.60949 -3.19108 0
M  V30 20300 S 1965.55 2.37211 -3.69156 0
M  V30 20301 H 1962.37 0.287408 -0.650321 0
M  V30 20302 H 1964.97 0.11945 -1.95135 0
M  V30 20303 H 1963.68 0.92418 -3.99859 0
M  V30 20304 H 1963.21 2.39062 -3.12431 0
M  V30 20305 H 1965.22 3.62503 -3.38831 0
M  V30 20306 N 1964.39 1.52136 0.411372 0
M  V30 20307 C 1965.33 1.70036 1.52194 0
M  V30 20308 C 1966.31 0.547941 1.53089 0
M  V30 20309 O 1967.49 0.775017 1.71831 0
M  V30 20310 C 1964.62 1.73764 2.9073 0
M  V30 20311 C 1963.66 2.95279 3.07754 0
M  V30 20312 S 1964.5 4.55662 2.81305 0
M  V30 20313 C 1965.65 4.62173 4.22075 0
M  V30 20314 H 1965.88 2.63966 1.36781 0
M  V30 20315 H 1963.42 1.42147 0.6028 0
M  V30 20316 H 1965.38 1.76597 3.70572 0
M  V30 20317 H 1964.04 0.809659 3.03485 0
M  V30 20318 H 1963.23 2.94363 4.09104 0
M  V30 20319 H 1962.83 2.90322 2.35773 0
M  V30 20320 H 1965.12 4.39412 5.15678 0
M  V30 20321 H 1966.07 5.641 4.28015 0
M  V30 20322 H 1966.47 3.91228 4.06941 0
M  V30 20323 N 1965.87 -0.668464 1.42721 0
M  V30 20324 C 1966.78 -1.81118 1.49109 0
M  V30 20325 C 1967.8 -1.69815 0.379331 0
M  V30 20326 O 1968.98 -1.91254 0.631187 0
M  V30 20327 C 1966.04 -3.17303 1.39713 0
M  V30 20328 C 1965.1 -3.40515 2.61434 0
M  V30 20329 C 1964.33 -4.70203 2.52477 0
M  V30 20330 O 1964.56 -5.48536 1.56411 0
M  V30 20331 O 1963.49 -4.948 3.42719 0
M  V30 20332 H 1967.32 -1.78684 2.45572 0
M  V30 20333 H 1964.9 -0.825017 1.24554 0
M  V30 20334 H 1966.78 -3.98557 1.36859 0
M  V30 20335 H 1965.46 -3.2036 0.463785 0
M  V30 20336 H 1964.37 -2.59085 2.69863 0
M  V30 20337 H 1965.7 -3.42293 3.53689 0
M  V30 20338 N 1967.35 -1.28999 -0.905381 0
M  V30 20339 C 1968.63 -1.07329 -1.63523 0
M  V30 20340 C 1969.01 0.384519 -2.07568 0
M  V30 20341 O 1968.36 1.37223 -1.82708 0
M  V30 20342 C 1968.57 -2.05563 -2.82037 0
M  V30 20343 C 1969.91 -2.3617 -3.52858 0
M  V30 20344 O 1970.94 -2.03713 -2.92198 0
M  V30 20345 O 1969.8 -2.91601 -4.62202 0
M  V30 20346 H 1966.89 -0.410796 -0.717757 0
M  V30 20347 H 1969.44 -1.40349 -0.953949 0
M  V30 20348 H 1968.21 -3.03779 -2.46645 0
M  V30 20349 H 1967.83 -1.73238 -3.57875 0
M  V30 20350 N 1968.83 1.11497 -1.11383 0
M  V30 20351 C 1970.08 1.8286 -0.860611 0
M  V30 20352 C 1970.4 1.85032 0.615471 0
M  V30 20353 O 1969.67 1.32047 1.44708 0
M  V30 20354 H 1968.25 0.677153 -0.315392 0
M  V30 20355 H 1970.91 1.34963 -1.40609 0
M  V30 20356 H 1970.01 2.86743 -1.23227 0
M  V30 20357 N 1970.31 0.904053 1.29092 0
M  V30 20358 C 1971.24 0.401805 2.30017 0
M  V30 20359 C 1972.22 -0.525477 1.6178 0
M  V30 20360 O 1973.4 -0.435279 1.89259 0
M  V30 20361 C 1970.53 -0.367656 3.45348 0
M  V30 20362 C 1969.49 0.469596 4.25416 0
M  V30 20363 C 1968.81 -0.427624 5.32987 0
M  V30 20364 C 1970.11 1.7218 4.93104 0
M  V30 20365 H 1971.81 1.24523 2.72276 0
M  V30 20366 H 1969.35 0.600215 1.30895 0
M  V30 20367 H 1971.31 -0.729791 4.15033 0
M  V30 20368 H 1970.03 -1.2449 3.01944 0
M  V30 20369 H 1968.69 0.814119 3.57446 0
M  V30 20370 H 1968.34 -1.30313 4.85827 0
M  V30 20371 H 1968.04 0.128909 5.87459 0
M  V30 20372 H 1969.56 -0.785855 6.05522 0
M  V30 20373 H 1970.98 1.42914 5.55201 0
M  V30 20374 H 1969.37 2.21999 5.57527 0
M  V30 20375 H 1970.44 2.45526 4.18145 0
M  V30 20376 N 1971.79 -1.4279 0.666995 0
M  V30 20377 C 1973.03 -2.02464 0.194957 0
M  V30 20378 C 1973.39 -1.51758 -1.18268 0
M  V30 20379 O 1972.68 -0.706754 -1.78089 0
M  V30 20380 C 1972.87 -3.57038 0.160763 0
M  V30 20381 C 1972.7 -4.22744 1.53354 0
M  V30 20382 C 1971.47 -4.58242 2.12937 0
M  V30 20383 C 1973.67 -4.50848 2.47469 0
M  V30 20384 N 1971.65 -5.09089 3.43077 0
M  V30 20385 C 1973.02 -5.03161 3.62255 0
M  V30 20386 C 1975.08 -4.32828 2.46098 0
M  V30 20387 C 1973.78 -5.3935 4.75914 0
M  V30 20388 C 1975.81 -4.70089 3.58846 0
M  V30 20389 C 1975.17 -5.22547 4.7236 0
M  V30 20390 H 1971.27 -0.773336 0.116084 0
M  V30 20391 H 1973.85 -1.73765 0.87829 0
M  V30 20392 H 1972.02 -3.85272 -0.491957 0
M  V30 20393 H 1973.76 -4.03406 -0.32343 0
M  V30 20394 H 1970.51 -4.4374 1.65505 0
M  V30 20395 H 1970.93 -5.3895 4.09709 0
M  V30 20396 H 1975.58 -3.91533 1.59568 0
M  V30 20397 H 1973.29 -5.79583 5.63125 0
M  V30 20398 H 1976.88 -4.5783 3.59003 0
M  V30 20399 H 1975.76 -5.50842 5.5816 0
M  V30 20400 N 1973.26 -0.409806 -1.52179 0
M  V30 20401 C 1974.49 0.167702 -2.06721 0
M  V30 20402 C 1974.91 1.38034 -1.27782 0
M  V30 20403 O 1974.27 1.7866 -0.308244 0
M  V30 20404 C 1974.32 0.495862 -3.57174 0
M  V30 20405 O 1973.42 1.58675 -3.80652 0
M  V30 20406 H 1972.76 0.013908 -0.663854 0
M  V30 20407 H 1975.29 -0.583201 -1.96112 0
M  V30 20408 H 1975.3 0.754301 -4.00967 0
M  V30 20409 H 1973.98 -0.390588 -4.14062 0
M  V30 20410 H 1972.56 1.32042 -3.48739 0
M  V30 20411 N 1974.74 1.56975 -0.14025 0
M  V30 20412 C 1975.99 1.95906 0.512543 0
M  V30 20413 C 1976.32 1.02475 1.65315 0
M  V30 20414 O 1975.57 0.0526473 1.95629 0
M  V30 20415 C 1975.87 3.4113 1.06606 0
M  V30 20416 C 1975.54 4.50878 0.044598 0
M  V30 20417 C 1974.2 4.8062 -0.236217 0
M  V30 20418 C 1976.55 5.17126 -0.650368 0
M  V30 20419 C 1973.88 5.73919 -1.21792 0
M  V30 20420 C 1976.23 6.11483 -1.62084 0
M  V30 20421 C 1974.89 6.39607 -1.90943 0
M  V30 20422 H 1974.16 0.716872 0.187553 0
M  V30 20423 H 1976.81 1.90166 -0.225653 0
M  V30 20424 H 1975.12 3.43669 1.88145 0
M  V30 20425 H 1976.81 3.68577 1.57961 0
M  V30 20426 H 1973.4 4.27726 0.273651 0
M  V30 20427 H 1977.59 4.94286 -0.446606 0
M  V30 20428 H 1972.84 5.94005 -1.44802 0
M  V30 20429 H 1977.02 6.61895 -2.1649 0
M  V30 20430 H 1974.64 7.11707 -2.67165 0
M  V30 20431 N 1976.22 -0.133539 1.57033 0
M  V30 20432 C 1977.63 -0.692222 1.73393 0
M  V30 20433 C 1977.98 -1.81019 0.756735 0
M  V30 20434 O 1977.11 -2.16275 -0.0736448 0
M  V30 20435 C 1977.7 -1.26245 3.144 0
M  V30 20436 C 1976.26 -1.76756 3.32316 0
M  V30 20437 C 1975.41 -0.661397 2.69297 0
M  V30 20438 H 1978.36 0.0922563 1.58432 0
M  V30 20439 H 1978.38 -2.13221 3.15146 0
M  V30 20440 H 1977.89 -0.44855 3.85499 0
M  V30 20441 H 1975.99 -2.6067 2.66236 0
M  V30 20442 H 1976.11 -1.88702 4.40373 0
M  V30 20443 H 1974.47 -1.0914 2.30132 0
M  V30 20444 H 1975.25 0.141281 3.43009 0
M  V30 20445 N 1977.7 -1.52352 -0.403298 0
M  V30 20446 C 1978.61 -1.79011 -1.51631 0
M  V30 20447 C 1979.62 -0.676014 -1.60331 0
M  V30 20448 O 1980.8 -0.962058 -1.76936 0
M  V30 20449 C 1977.86 -1.94046 -2.8731 0
M  V30 20450 C 1976.93 -3.17955 -2.88449 0
M  V30 20451 C 1976.16 -3.32264 -4.17656 0
M  V30 20452 O 1976.38 -2.51703 -5.11861 0
M  V30 20453 O 1975.32 -4.25446 -4.25769 0
M  V30 20454 H 1979.14 -2.73495 -1.32038 0
M  V30 20455 H 1976.73 -1.37268 -0.589733 0
M  V30 20456 H 1978.61 -2.05724 -3.67771 0
M  V30 20457 H 1977.28 -1.02752 -3.06959 0
M  V30 20458 H 1976.19 -3.11731 -2.0682 0
M  V30 20459 H 1977.52 -4.0905 -2.7375 0
M  V30 20460 N 1979.18 0.660885 -1.43074 0
M  V30 20461 C 1980.14 1.75586 -1.47317 0
M  V30 20462 C 1981.14 1.56744 -0.358871 0
M  V30 20463 O 1982.33 1.62782 -0.620299 0
M  V30 20464 C 1979.46 3.14377 -1.31833 0
M  V30 20465 H 1980.65 1.73207 -2.44825 0
M  V30 20466 H 1978.21 0.871828 -1.29726 0
M  V30 20467 H 1978.94 3.22373 -0.353027 0
M  V30 20468 H 1978.73 3.29457 -2.12604 0
M  V30 20469 H 1980.22 3.94238 -1.37718 0
M  V30 20470 N 1980.65 1.29477 0.898527 0
M  V30 20471 C 1981.58 1.17262 2.01921 0
M  V30 20472 C 1982.57 0.0665442 1.6997 0
M  V30 20473 O 1983.75 0.246223 1.92633 0
M  V30 20474 C 1980.88 0.849575 3.36748 0
M  V30 20475 C 1979.83 1.91209 3.82914 0
M  V30 20476 C 1979.16 1.44234 5.14879 0
M  V30 20477 C 1980.46 3.32113 4.03111 0
M  V30 20478 H 1982.15 2.11015 2.12398 0
M  V30 20479 H 1979.7 1.01592 1.02054 0
M  V30 20480 H 1981.65 0.750826 4.14657 0
M  V30 20481 H 1980.38 -0.123652 3.26366 0
M  V30 20482 H 1979.04 2.00025 3.07222 0
M  V30 20483 H 1978.68 0.457753 5.00913 0
M  V30 20484 H 1978.38 2.15293 5.46738 0
M  V30 20485 H 1979.91 1.35711 5.95327 0
M  V30 20486 H 1981.32 3.26133 4.71498 0
M  V30 20487 H 1979.72 4.0114 4.46326 0
M  V30 20488 H 1980.79 3.75004 3.07408 0
M  V30 20489 N 1982.13 -1.10905 1.11972 0
M  V30 20490 C 1983.37 -1.84389 0.882045 0
M  V30 20491 C 1983.74 -1.82976 -0.581712 0
M  V30 20492 O 1984.94 -2.51963 -0.936372 0
M  V30 20493 C 1983.21 -3.27323 1.43507 0
M  V30 20494 S 1984.77 -4.17993 1.3352 0
M  V30 20495 H 1981.59 -0.635766 0.318312 0
M  V30 20496 H 1984.19 -1.3349 1.42831 0
M  V30 20497 H 1982.89 -3.2592 2.49408 0
M  V30 20498 H 1982.42 -3.83291 0.886085 0
M  V30 20499 H 1984.44 -4.95271 0.30342 0
M  V30 20500 N 1983.61 -0.910886 -1.2861 0
M  V30 20501 C 1984.52 -0.402088 -2.31129 0
M  V30 20502 C 1985.54 0.508811 -1.66394 0
M  V30 20503 O 1986.71 0.395691 -1.97475 0
M  V30 20504 C 1983.78 0.352182 -3.44907 0
M  V30 20505 C 1982.84 -0.59159 -4.25204 0
M  V30 20506 C 1982.07 0.126778 -5.33549 0
M  V30 20507 O 1982.29 1.34897 -5.54219 0
M  V30 20508 O 1981.23 -0.536442 -5.99505 0
M  V30 20509 H 1985.05 -1.25289 -2.76652 0
M  V30 20510 H 1982.64 -0.675604 -1.33251 0
M  V30 20511 H 1984.52 0.778285 -4.14151 0
M  V30 20512 H 1983.2 1.17886 -3.01471 0
M  V30 20513 H 1982.1 -1.06703 -3.5856 0
M  V30 20514 H 1983.44 -1.38501 -4.72312 0
M  V30 20515 N 1985.09 1.42434 -0.674558 0
M  V30 20516 C 1986.02 2.33498 -0.0100395 0
M  V30 20517 C 1987 1.50665 0.789558 0
M  V30 20518 O 1988.18 1.79268 0.74676 0
M  V30 20519 C 1985.31 3.34279 0.942081 0
M  V30 20520 C 1984.27 4.27263 0.251094 0
M  V30 20521 C 1983.59 5.18249 1.31614 0
M  V30 20522 C 1984.89 5.15008 -0.869735 0
M  V30 20523 H 1986.59 2.89314 -0.770566 0
M  V30 20524 H 1984.13 1.39112 -0.372004 0
M  V30 20525 H 1986.09 3.96896 1.41604 0
M  V30 20526 H 1984.81 2.76765 1.73403 0
M  V30 20527 H 1983.47 3.6604 -0.202625 0
M  V30 20528 H 1983.12 4.57063 2.10006 0
M  V30 20529 H 1982.82 5.81288 0.858923 0
M  V30 20530 H 1984.34 5.83742 1.79103 0
M  V30 20531 H 1985.76 5.71312 -0.477004 0
M  V30 20532 H 1984.15 5.86879 -1.25273 0
M  V30 20533 H 1985.22 4.53422 -1.71861 0
M  V30 20534 N 1986.57 0.417871 1.51959 0
M  V30 20535 C 1987.5 -0.448093 2.23757 0
M  V30 20536 C 1988.48 -1.04082 1.24923 0
M  V30 20537 O 1989.66 -1.08702 1.54 0
M  V30 20538 C 1986.79 -1.62276 2.97295 0
M  V30 20539 C 1985.83 -1.15258 4.10631 0
M  V30 20540 S 1986.67 -0.110541 5.35386 0
M  V30 20541 C 1987.82 -1.29033 6.12455 0
M  V30 20542 H 1988.06 0.161521 2.96861 0
M  V30 20543 H 1985.59 0.202231 1.5307 0
M  V30 20544 H 1987.55 -2.29628 3.40267 0
M  V30 20545 H 1986.21 -2.20373 2.23818 0
M  V30 20546 H 1985.4 -2.03044 4.61291 0
M  V30 20547 H 1985 -0.557582 3.6982 0
M  V30 20548 H 1987.3 -2.21233 6.40361 0
M  V30 20549 H 1988.24 -0.824085 7.03288 0
M  V30 20550 H 1988.65 -1.52008 5.43649 0
M  V30 20551 N 1988.04 -1.56898 0.148573 0
M  V30 20552 C 1989.28 -1.98067 -0.504877 0
M  V30 20553 C 1989.65 -1.03158 -1.61934 0
M  V30 20554 O 1990.85 -1.33377 -2.33375 0
M  V30 20555 C 1989.12 -3.43224 -0.99658 0
M  V30 20556 S 1990.68 -4.06417 -1.65441 0
M  V30 20557 H 1987.5 -0.692019 -0.163191 0
M  V30 20558 H 1990.1 -1.94013 0.240659 0
M  V30 20559 H 1988.8 -4.10028 -0.174727 0
M  V30 20560 H 1988.33 -3.50994 -1.7767 0
M  V30 20561 H 1990.35 -3.99598 -2.9417 0
M  V30 20562 N 1989.52 0.125209 -1.57102 0
M  V30 20563 C 1990.45 1.15521 -2.02922 0
M  V30 20564 C 1991.43 1.43549 -0.912559 0
M  V30 20565 O 1992.62 1.54097 -1.18185 0
M  V30 20566 C 1989.75 2.48297 -2.42829 0
M  V30 20567 C 1988.7 2.34744 -3.57881 0
M  V30 20568 C 1988.03 3.72427 -3.83669 0
M  V30 20569 C 1989.33 1.81317 -4.89818 0
M  V30 20570 H 1991.02 0.774129 -2.89219 0
M  V30 20571 H 1988.57 0.370935 -1.3914 0
M  V30 20572 H 1990.52 3.20597 -2.73487 0
M  V30 20573 H 1989.25 2.88283 -1.53495 0
M  V30 20574 H 1987.9 1.64893 -3.27423 0
M  V30 20575 H 1987.55 4.09887 -2.9155 0
M  V30 20576 H 1987.25 3.64215 -4.61109 0
M  V30 20577 H 1988.78 4.46242 -4.16773 0
M  V30 20578 H 1990.19 2.43429 -5.19052 0
M  V30 20579 H 1988.59 1.83941 -5.71214 0
M  V30 20580 H 1989.66 0.770291 -4.78743 0
M  V30 20581 N 1991 1.52564 0.395213 0
M  V30 20582 C 1991.96 1.76262 1.46508 0
M  V30 20583 C 1992.96 0.632579 1.47835 0
M  V30 20584 O 1994.15 0.900582 1.49115 0
M  V30 20585 C 1991.29 1.85771 2.85835 0
M  V30 20586 H 1992.48 2.71784 1.26782 0
M  V30 20587 H 1990.03 1.43191 0.626572 0
M  V30 20588 H 1990.77 0.922125 3.10914 0
M  V30 20589 H 1990.55 2.67936 2.86274 0
M  V30 20590 H 1992.04 2.05799 3.63368 0
M  V30 20591 N 1992.48 -0.653289 1.43422 0
M  V30 20592 C 1993.89 -1.23446 1.40064 0
M  V30 20593 C 1994.24 -1.95921 0.104677 0
M  V30 20594 O 1993.37 -2.01233 -0.79588 0
M  V30 20595 C 1993.96 -2.24523 2.53722 0
M  V30 20596 C 1992.52 -2.78117 2.53629 0
M  V30 20597 C 1991.67 -1.52759 2.3143 0
M  V30 20598 H 1994.62 -0.445312 1.52324 0
M  V30 20599 H 1994.64 -3.06696 2.25207 0
M  V30 20600 H 1994.15 -1.71746 3.4803 0
M  V30 20601 H 1992.25 -3.34957 1.632 0
M  V30 20602 H 1992.36 -3.25667 3.51394 0
M  V30 20603 H 1990.73 -1.80104 1.80096 0
M  V30 20604 H 1991.51 -1.01917 3.27823 0
M  V30 20605 N 1993.96 -1.29952 -0.891648 0
M  V30 20606 C 1995.37 -1.16586 -1.45824 0
M  V30 20607 C 1995.72 0.235978 -1.94776 0
M  V30 20608 O 1994.84 1.13214 -1.84422 0
M  V30 20609 C 1995.44 -2.11036 -2.65046 0
M  V30 20610 C 1994 -2.01668 -3.17816 0
M  V30 20611 C 1993.14 -2.015 -1.90507 0
M  V30 20612 H 1996.1 -1.42319 -0.702216 0
M  V30 20613 H 1996.12 -1.68729 -3.41044 0
M  V30 20614 H 1995.63 -3.13054 -2.29387 0
M  V30 20615 H 1993.73 -1.02767 -3.58147 0
M  V30 20616 H 1993.84 -2.89729 -3.81568 0
M  V30 20617 H 1992.21 -1.46209 -2.08555 0
M  V30 20618 H 1992.99 -3.05237 -1.57115 0
M  V30 20619 N 1995.44 1.1031 -1.12559 0
M  V30 20620 C 1996.85 1.63801 -0.895891 0
M  V30 20621 C 1997.2 1.87753 0.569511 0
M  V30 20622 O 1996.32 1.62046 1.43423 0
M  V30 20623 C 1996.92 2.9757 -1.6198 0
M  V30 20624 C 1995.48 3.47922 -1.43622 0
M  V30 20625 C 1994.62 2.22506 -1.65489 0
M  V30 20626 H 1997.57 0.937927 -1.28018 0
M  V30 20627 H 1997.6 3.65099 -1.07159 0
M  V30 20628 H 1997.11 2.80105 -2.68631 0
M  V30 20629 H 1995.21 3.70529 -0.392328 0
M  V30 20630 H 1995.32 4.25953 -2.1932 0
M  V30 20631 H 1993.69 2.30712 -1.07908 0
M  V30 20632 H 1994.47 2.07571 -2.7344 0
M  V30 20633 N 1996.91 0.917694 1.28125 0
M  V30 20634 C 1998.16 0.553715 1.95094 0
M  V30 20635 C 1998.49 -0.900999 1.72034 0
M  V30 20636 O 1997.77 -1.64132 1.04359 0
M  V30 20637 C 1998.05 0.868367 3.49473 0
M  V30 20638 C 1997.9 2.3761 3.81918 0
M  V30 20639 C 1999.22 0.367261 4.38565 0
M  V30 20640 H 1996.34 0.202644 0.708593 0
M  V30 20641 H 1998.98 1.14765 1.51423 0
M  V30 20642 H 1997.13 0.362898 3.86801 0
M  V30 20643 H 1998.81 2.95249 3.54437 0
M  V30 20644 H 1997.05 2.82945 3.28823 0
M  V30 20645 H 1997.72 2.5468 4.89737 0
M  V30 20646 H 2000.2 0.800328 4.08331 0
M  V30 20647 H 1999.07 0.616464 5.45427 0
M  V30 20648 H 1999.33 -0.732497 4.3599 0
M  V30 20649 N 1998.39 -1.42074 0.682102 0
M  V30 20650 C 1999.8 -1.8453 0.283805 0
M  V30 20651 C 2000.15 -1.5709 -1.17547 0
M  V30 20652 O 1999.28 -1.03444 -1.90075 0
M  V30 20653 C 1999.87 -3.34965 0.508316 0
M  V30 20654 C 1998.43 -3.76042 0.164069 0
M  V30 20655 C 1997.58 -2.65594 0.797204 0
M  V30 20656 H 2000.53 -1.31817 0.88374 0
M  V30 20657 H 2000.55 -3.7976 -0.237267 0
M  V30 20658 H 2000.06 -3.54905 1.57047 0
M  V30 20659 H 1998.16 -3.61707 -0.894353 0
M  V30 20660 H 1998.28 -4.75205 0.609688 0
M  V30 20661 H 1996.64 -2.53678 0.227913 0
M  V30 20662 H 1997.42 -2.88355 1.86296 0
M  V30 20663 N 1999.87 -0.425924 -1.51735 0
M  V30 20664 C 2000.82 0.405756 -2.29034 0
M  V30 20665 C 2001.81 1.03103 -1.3441 0
M  V30 20666 O 2003.02 0.967304 -1.518 0
M  V30 20667 H 1999.39 0.149651 -0.736959 0
M  V30 20668 H 2001.36 -0.267185 -2.97201 0
M  V30 20669 C 2000.11 1.50091 -3.13637 0
M  V30 20670 H 1999.44 1.02912 -3.86328 0
M  V30 20671 H 2000.88 2.05632 -3.70799 0
M  V30 20672 C 1999.33 2.47775 -2.28274 0
M  V30 20673 O 1999.86 3.52051 -1.9345 0
M  V30 20674 N 1998.07 2.18387 -1.91717 0
M  V30 20675 H 1997.62 1.3362 -2.20235 0
M  V30 20676 H 1997.58 2.83989 -1.34897 0
M  V30 20677 N 2001.35 1.56817 -0.156891 0
M  V30 20678 C 2002.31 2.16058 0.764967 0
M  V30 20679 C 2003.31 1.10488 1.16829 0
M  V30 20680 O 2004.5 1.36077 1.0876 0
M  V30 20681 C 2001.63 2.73173 2.03935 0
M  V30 20682 H 2002.83 2.98861 0.249482 0
M  V30 20683 H 2000.38 1.56025 0.0926074 0
M  V30 20684 H 2001.11 1.94064 2.59827 0
M  V30 20685 H 2000.9 3.50417 1.75926 0
M  V30 20686 H 2002.39 3.18783 2.69754 0
M  V30 20687 N 2002.83 -0.116876 1.57166 0
M  V30 20688 C 2004.1 -0.854715 1.75937 0
M  V30 20689 C 2004.48 -1.97969 0.732908 0
M  V30 20690 O 2003.83 -2.27207 -0.242738 0
M  V30 20691 C 2004.04 -1.36944 3.2101 0
M  V30 20692 C 2005.39 -1.82093 3.83572 0
M  V30 20693 O 2006.41 -1.46618 3.24625 0
M  V30 20694 O 2005.27 -2.47614 4.87186 0
M  V30 20695 H 2002.37 -0.40605 0.720453 0
M  V30 20696 H 2004.91 -0.100451 1.69402 0
M  V30 20697 H 2003.68 -0.56241 3.87237 0
M  V30 20698 H 2003.31 -2.18635 3.32091 0
M  V30 20699 N 2004.3 -1.52772 -0.387116 0
M  V30 20700 C 2005.23 -1.80654 -1.47941 0
M  V30 20701 C 2006.21 -0.658677 -1.56829 0
M  V30 20702 O 2007.4 -0.906449 -1.71747 0
M  V30 20703 C 2004.53 -1.97709 -2.85532 0
M  V30 20704 C 2003.48 -3.13404 -2.91482 0
M  V30 20705 C 2002.81 -3.15717 -4.3154 0
M  V30 20706 C 2004.11 -4.52437 -2.60957 0
M  V30 20707 H 2005.8 -2.72123 -1.24858 0
M  V30 20708 H 2003.35 -1.30941 -0.59921 0
M  V30 20709 H 2005.3 -2.15798 -3.61952 0
M  V30 20710 H 2004.03 -1.02931 -3.09956 0
M  V30 20711 H 2002.69 -2.95102 -2.1751 0
M  V30 20712 H 2002.33 -2.18618 -4.53007 0
M  V30 20713 H 2002.03 -3.93437 -4.36441 0
M  V30 20714 H 2003.56 -3.35963 -5.09864 0
M  V30 20715 H 2004.97 -4.70831 -3.27095 0
M  V30 20716 H 2003.37 -5.32238 -2.77205 0
M  V30 20717 H 2004.44 -4.59022 -1.5629 0
M  V30 20718 N 2005.78 0.645673 -1.43767 0
M  V30 20719 C 2006.71 1.77107 -1.45484 0
M  V30 20720 C 2007.73 1.58993 -0.350002 0
M  V30 20721 O 2008.92 1.67575 -0.61489 0
M  V30 20722 C 2006.02 3.14639 -1.25919 0
M  V30 20723 C 2005.19 3.59344 -2.49381 0
M  V30 20724 C 2004.25 4.75703 -2.24929 0
M  V30 20725 O 2003.27 4.84756 -2.98329 0
M  V30 20726 N 2004.48 5.66422 -1.27068 0
M  V30 20727 H 2007.24 1.7611 -2.42498 0
M  V30 20728 H 2004.8 0.829768 -1.3902 0
M  V30 20729 H 2006.79 3.9018 -1.07432 0
M  V30 20730 H 2005.36 3.10364 -0.37323 0
M  V30 20731 H 2004.58 2.74166 -2.83243 0
M  V30 20732 H 2005.87 3.8596 -3.3153 0
M  V30 20733 H 2005.27 5.61787 -0.664185 0
M  V30 20734 H 2003.83 6.41653 -1.14562 0
M  V30 20735 N 2007.26 1.30423 0.884744 0
M  V30 20736 C 2008.49 1.22184 1.66969 0
M  V30 20737 C 2008.9 -0.215259 1.87569 0
M  V30 20738 O 2008.26 -1.14224 1.42335 0
M  V30 20739 C 2008.31 1.94692 3.04593 0
M  V30 20740 O 2008.03 3.32792 2.84923 0
M  V30 20741 C 2009.53 1.93114 3.99026 0
M  V30 20742 H 2006.75 0.422826 0.521018 0
M  V30 20743 H 2009.3 1.72052 1.10537 0
M  V30 20744 H 2007.45 1.48623 3.57757 0
M  V30 20745 H 2007.87 3.69517 3.72233 0
M  V30 20746 H 2009.34 2.48386 4.92959 0
M  V30 20747 H 2009.82 0.91013 4.29666 0
M  V30 20748 H 2010.42 2.38996 3.51797 0
M  V30 20749 N 2008.74 -1.09711 1.13142 0
M  V30 20750 C 2009.7 -2.14443 0.809114 0
M  V30 20751 C 2010.7 -1.59789 -0.18005 0
M  V30 20752 O 2011.89 -1.74137 0.0466686 0
M  V30 20753 C 2009.02 -3.40291 0.203714 0
M  V30 20754 H 2010.22 -2.44466 1.73713 0
M  V30 20755 H 2007.77 -1.252 0.935663 0
M  V30 20756 H 2008.5 -3.15892 -0.733667 0
M  V30 20757 H 2008.29 -3.8125 0.916003 0
M  V30 20758 H 2009.78 -4.176 -0.00503851 0
M  V30 20759 N 2010.22 -0.924476 -1.27637 0
M  V30 20760 C 2011.63 -0.62423 -1.46886 0
M  V30 20761 C 2011.83 0.827429 -1.83728 0
M  V30 20762 O 2010.89 1.6056 -1.94876 0
M  V30 20763 C 2012.2 -1.57134 -2.56378 0
M  V30 20764 C 2013.75 -1.57921 -2.7024 0
M  V30 20765 C 2014.22 -2.5132 -3.82886 0
M  V30 20766 N 2015.72 -2.49509 -3.90256 0
M  V30 20767 C 2016.45 -3.18469 -4.76828 0
M  V30 20768 N 2015.95 -3.96797 -5.67912 0
M  V30 20769 N 2017.74 -3.07503 -4.7053 0
M  V30 20770 H 2009.89 -1.86302 -1.02006 0
M  V30 20771 H 2012.15 -0.79968 -0.509132 0
M  V30 20772 H 2011.86 -2.60679 -2.36092 0
M  V30 20773 H 2011.73 -1.31058 -3.537 0
M  V30 20774 H 2014.12 -0.55109 -2.89909 0
M  V30 20775 H 2014.2 -1.88045 -1.73415 0
M  V30 20776 H 2013.85 -3.54241 -3.63972 0
M  V30 20777 H 2013.78 -2.18494 -4.79132 0
M  V30 20778 H 2016.27 -1.9262 -3.25124 0
M  V30 20779 H 2016.58 -4.4641 -6.30823 0
M  V30 20780 H 2014.92 -4.00901 -5.67718 0
M  V30 20781 H 2018.12 -2.45806 -3.98368 0
M  V30 20782 H 2018.29 -3.61517 -5.37782 0
M  V30 20783 N 2011.69 1.41711 -0.689627 0
M  V30 20784 C 2012.93 2.03189 -0.222164 0
M  V30 20785 C 2013.3 1.53416 1.15445 0
M  V30 20786 O 2014.5 2.06781 1.71742 0
M  V30 20787 C 2012.77 3.56371 -0.271028 0
M  V30 20788 S 2014.33 4.38627 0.12326 0
M  V30 20789 H 2011.15 0.705282 -0.0899882 0
M  V30 20790 H 2013.75 1.73235 -0.906082 0
M  V30 20791 H 2012.45 3.90091 -1.27502 0
M  V30 20792 H 2011.98 3.91018 0.432235 0
M  V30 20793 H 2014 4.77408 1.35264 0
M  V30 20794 N 2013.17 0.433965 1.51507 0
M  V30 20795 C 2014.59 0.0860823 1.59368 0
M  V30 20796 C 2014.79 -1.40421 1.44513 0
M  V30 20797 O 2013.84 -2.17377 1.28465 0
M  V30 20798 C 2015.16 0.603181 2.94588 0
M  V30 20799 C 2016.71 0.563326 3.07889 0
M  V30 20800 C 2017.18 1.05734 4.45628 0
M  V30 20801 N 2018.67 1.01519 4.51938 0
M  V30 20802 C 2019.41 1.36835 5.56834 0
M  V30 20803 N 2018.9 1.79419 6.69164 0
M  V30 20804 N 2020.7 1.28673 5.47174 0
M  V30 20805 H 2012.85 1.40366 1.59408 0
M  V30 20806 H 2015.11 0.578206 0.751253 0
M  V30 20807 H 2014.82 1.64576 3.10818 0
M  V30 20808 H 2014.69 0.0262621 3.77191 0
M  V30 20809 H 2017.08 -0.470257 2.91329 0
M  V30 20810 H 2017.16 1.17661 2.27134 0
M  V30 20811 H 2016.8 2.08938 4.62934 0
M  V30 20812 H 2016.73 0.420634 5.24917 0
M  V30 20813 H 2019.22 0.702422 3.71314 0
M  V30 20814 H 2019.54 2.04612 7.45221 0
M  V30 20815 H 2017.88 1.83343 6.70381 0
M  V30 20816 H 2021.07 0.952726 4.58302 0
M  V30 20817 H 2021.24 1.56524 6.28812 0
M  V30 20818 N 2014.65 -1.56732 0.165206 0
M  V30 20819 C 2015.56 -2.2125 -0.780107 0
M  V30 20820 C 2016.58 -1.20227 -1.25784 0
M  V30 20821 O 2017.75 -1.52868 -1.31124 0
M  V30 20822 C 2014.82 -2.83579 -1.99459 0
M  V30 20823 C 2013.88 -3.99784 -1.56434 0
M  V30 20824 C 2013.11 -4.5913 -2.72094 0
M  V30 20825 O 2013.33 -4.17363 -3.88799 0
M  V30 20826 O 2012.27 -5.49101 -2.46519 0
M  V30 20827 H 2016.09 -3.02578 -0.260803 0
M  V30 20828 H 2013.68 -1.49268 -0.0627015 0
M  V30 20829 H 2015.56 -3.23123 -2.70499 0
M  V30 20830 H 2014.24 -2.05251 -2.50307 0
M  V30 20831 H 2013.14 -3.64921 -0.823629 0
M  V30 20832 H 2014.48 -4.79686 -1.10284 0
M  V30 20833 N 2016.13 0.10854 -1.57226 0
M  V30 20834 C 2017.08 1.15155 -2.02094 0
M  V30 20835 C 2018.07 1.42263 -0.919651 0
M  V30 20836 O 2019.28 1.42102 -1.10485 0
M  V30 20837 H 2015.65 0.388515 -0.643863 0
M  V30 20838 H 2017.62 0.746707 -2.88906 0
M  V30 20839 C 2016.37 2.46727 -2.44992 0
M  V30 20840 H 2015.69 2.26708 -3.29307 0
M  V30 20841 H 2017.13 3.18242 -2.80175 0
M  V30 20842 C 2015.59 3.10059 -1.31776 0
M  V30 20843 O 2016.12 3.96577 -0.639471 0
M  V30 20844 N 2014.33 2.70099 -1.07215 0
M  V30 20845 H 2013.88 1.99837 -1.62552 0
M  V30 20846 H 2013.83 3.12802 -0.316602 0
M  V30 20847 N 2017.61 1.52975 0.379009 0
M  V30 20848 C 2018.55 1.78463 1.46355 0
M  V30 20849 C 2019.52 0.628308 1.53758 0
M  V30 20850 O 2020.71 0.869084 1.69858 0
M  V30 20851 C 2017.85 1.96827 2.83467 0
M  V30 20852 C 2016.96 3.24533 2.85136 0
M  V30 20853 C 2016.1 3.33158 4.13738 0
M  V30 20854 C 2015.14 4.54948 4.09498 0
M  V30 20855 N 2014.27 4.60801 5.29724 0
M  V30 20856 H 2019.11 2.71012 1.23921 0
M  V30 20857 H 2016.65 1.34263 0.600982 0
M  V30 20858 H 2018.61 2.05459 3.63101 0
M  V30 20859 H 2017.24 1.07628 3.04329 0
M  V30 20860 H 2016.29 3.24921 1.97814 0
M  V30 20861 H 2017.6 4.14232 2.77873 0
M  V30 20862 H 2016.76 3.41029 5.01781 0
M  V30 20863 H 2015.49 2.41451 4.23737 0
M  V30 20864 H 2014.5 4.47193 3.19842 0
M  V30 20865 H 2015.72 5.47983 4.01113 0
M  V30 20866 H 2013.67 3.71989 5.40333 0
M  V30 20867 H 2013.59 5.44386 5.24576 0
M  V30 20868 H 2014.86 4.72938 6.19637 0
M  V30 20869 N 2019.08 -0.63804 1.44107 0
M  V30 20870 C 2020.03 -1.74386 1.46879 0
M  V30 20871 C 2021.02 -1.57366 0.335387 0
M  V30 20872 O 2022.21 -1.6722 0.580223 0
M  V30 20873 C 2019.34 -3.13044 1.40919 0
M  V30 20874 C 2018.43 -3.35559 2.59347 0
M  V30 20875 N 2018.82 -3.28473 3.84628 0
M  V30 20876 C 2017.11 -3.66332 2.54395 0
M  V30 20877 C 2017.82 -3.51487 4.635 0
M  V30 20878 N 2016.79 -3.74029 3.94465 0
M  V30 20879 H 2020.59 -1.67355 2.41598 0
M  V30 20880 H 2018.11 -0.840261 1.38973 0
M  V30 20881 H 2020.1 -3.92337 1.40988 0
M  V30 20882 H 2018.76 -3.21246 0.472328 0
M  V30 20883 H 2019.78 -3.07545 4.16697 0
M  V30 20884 H 2016.45 -3.81557 1.69471 0
M  V30 20885 H 2017.84 -3.51659 5.72526 0
M  V30 20886 N 2020.56 -1.3089 -0.877815 0
M  V30 20887 C 2021.51 -1.17878 -1.98427 0
M  V30 20888 C 2022.48 -0.0664893 -1.65967 0
M  V30 20889 O 2023.66 -0.237956 -1.8931 0
M  V30 20890 C 2020.8 -0.883984 -3.33586 0
M  V30 20891 C 2019.92 -2.07885 -3.78692 0
M  V30 20892 C 2019.05 -1.72152 -5.02531 0
M  V30 20893 C 2018.09 -2.88092 -5.40064 0
M  V30 20894 N 2017.23 -2.52607 -6.55083 0
M  V30 20895 H 2022.07 -2.12531 -2.08889 0
M  V30 20896 H 2019.61 -1.05732 -1.0227 0
M  V30 20897 H 2021.56 -0.693656 -4.11393 0
M  V30 20898 H 2020.19 0.0256933 -3.2279 0
M  V30 20899 H 2019.25 -2.3802 -2.96733 0
M  V30 20900 H 2020.56 -2.94687 -4.02444 0
M  V30 20901 H 2019.71 -1.49536 -5.87983 0
M  V30 20902 H 2018.45 -0.825297 -4.80666 0
M  V30 20903 H 2017.46 -3.11366 -4.53135 0
M  V30 20904 H 2018.68 -3.78412 -5.63898 0
M  V30 20905 H 2016.63 -1.65499 -6.3478 0
M  V30 20906 H 2016.54 -3.3294 -6.78739 0
M  V30 20907 H 2017.81 -2.33365 -7.43748 0
M  V30 20908 N 2022.04 1.0911 -1.13723 0
M  V30 20909 C 2023.29 1.81621 -0.902319 0
M  V30 20910 C 2023.62 1.85646 0.570009 0
M  V30 20911 O 2022.89 1.32706 1.42195 0
M  V30 20912 C 2023.18 3.27604 -1.49492 0
M  V30 20913 C 2023.03 3.3183 -3.03659 0
M  V30 20914 C 2024.35 4.24378 -1.16581 0
M  V30 20915 H 2021.47 0.659374 -0.329233 0
M  V30 20916 H 2024.11 1.27792 -1.40603 0
M  V30 20917 H 2022.26 3.73574 -1.06653 0
M  V30 20918 H 2023.93 2.94239 -3.55276 0
M  V30 20919 H 2022.18 2.71317 -3.38481 0
M  V30 20920 H 2022.85 4.34686 -3.40224 0
M  V30 20921 H 2025.32 3.8671 -1.53604 0
M  V30 20922 H 2024.2 5.24853 -1.60688 0
M  V30 20923 H 2024.46 4.42028 -0.0800013 0
M  V30 20924 N 2023.52 0.931232 1.27145 0
M  V30 20925 C 2024.77 0.572394 1.93825 0
M  V30 20926 C 2025.09 -0.88981 1.73515 0
M  V30 20927 O 2024.36 -1.63113 1.08494 0
M  V30 20928 H 2022.94 0.2087 0.717254 0
M  V30 20929 H 2025.6 1.18439 1.54784 0
M  V30 20930 H 2024.7 0.781679 3.02153 0
M  V30 20931 N 2025 -1.41343 0.697132 0
M  V30 20932 C 2026.22 -2.06049 0.236356 0
M  V30 20933 C 2026.65 -1.52124 -1.10634 0
M  V30 20934 O 2026.01 -0.648852 -1.69291 0
M  V30 20935 C 2026.05 -3.6001 0.206185 0
M  V30 20936 O 2025.16 -4.04197 -0.818466 0
M  V30 20937 H 2024.5 -0.65395 0.115091 0
M  V30 20938 H 2027.03 -1.8108 0.952431 0
M  V30 20939 H 2027.04 -4.07983 0.0375737 0
M  V30 20940 H 2025.71 -3.98628 1.18612 0
M  V30 20941 H 2024.29 -3.67725 -0.619082 0
M  V30 20942 N 2026.48 -0.441993 -1.51275 0
M  V30 20943 C 2027.72 0.122911 -2.02127 0
M  V30 20944 C 2028.05 1.42305 -1.32588 0
M  V30 20945 O 2027.31 1.90895 -0.431013 0
M  V30 20946 C 2027.6 0.384298 -3.55328 0
M  V30 20947 C 2027.27 -0.830593 -4.43184 0
M  V30 20948 C 2025.93 -1.16375 -4.66916 0
M  V30 20949 C 2028.28 -1.64084 -4.94698 0
M  V30 20950 C 2025.61 -2.30775 -5.39407 0
M  V30 20951 C 2027.96 -2.77587 -5.68444 0
M  V30 20952 C 2026.63 -3.11351 -5.90438 0
M  V30 20953 H 2025.9 0.0449764 -0.739634 0
M  V30 20954 H 2028.55 -0.59014 -1.8218 0
M  V30 20955 H 2026.85 1.17929 -3.73631 0
M  V30 20956 H 2028.55 0.834882 -3.92213 0
M  V30 20957 H 2025.14 -0.560991 -4.24913 0
M  V30 20958 H 2029.32 -1.39665 -4.76243 0
M  V30 20959 H 2024.58 -2.57243 -5.54649 0
M  V30 20960 H 2028.75 -3.40736 -6.07348 0
M  V30 20961 H 2026.38 -4.00108 -6.46388 0
M  V30 20962 N 2027.95 1.56642 -0.173515 0
M  V30 20963 C 2029.19 1.98845 0.473303 0
M  V30 20964 C 2029.56 1.05721 1.60272 0
M  V30 20965 O 2030.76 1.37073 2.31224 0
M  V30 20966 C 2029.03 3.44767 0.94185 0
M  V30 20967 S 2030.59 4.08998 1.58954 0
M  V30 20968 H 2027.41 0.694527 0.152161 0
M  V30 20969 H 2030.01 1.93606 -0.271494 0
M  V30 20970 H 2028.71 4.10254 0.109473 0
M  V30 20971 H 2028.24 3.53776 1.72063 0
M  V30 20972 H 2030.26 4.04227 2.87775 0
M  V30 20973 N 2029.43 -0.1002 1.57281 0
M  V30 20974 C 2030.38 -1.12192 2.01697 0
M  V30 20975 C 2031.35 -1.40092 0.892374 0
M  V30 20976 O 2032.53 -1.51641 1.158 0
M  V30 20977 C 2029.67 -2.43833 2.44212 0
M  V30 20978 C 2028.79 -2.22707 3.70169 0
M  V30 20979 C 2027.92 -3.47711 4.01585 0
M  V30 20980 C 2026.96 -3.21825 5.20668 0
M  V30 20981 N 2026.1 -4.39081 5.47862 0
M  V30 20982 H 2030.94 -0.736171 2.88764 0
M  V30 20983 H 2028.47 -0.351977 1.42827 0
M  V30 20984 H 2030.43 -3.20652 2.66904 0
M  V30 20985 H 2029.06 -2.80264 1.60162 0
M  V30 20986 H 2028.11 -1.36715 3.54983 0
M  V30 20987 H 2029.43 -1.99568 4.57137 0
M  V30 20988 H 2028.58 -4.3294 4.25027 0
M  V30 20989 H 2027.32 -3.739 3.1313 0
M  V30 20990 H 2026.32 -2.34988 4.97052 0
M  V30 20991 H 2027.55 -2.96987 6.10717 0
M  V30 20992 H 2025.5 -4.65355 4.62364 0
M  V30 20993 H 2025.41 -4.19114 6.2919 0
M  V30 20994 H 2026.68 -5.2539 5.75835 0
M  V30 20995 N 2030.91 -1.53174 -0.370891 0
M  V30 20996 C 2032.14 -1.72749 -1.13319 0
M  V30 20997 C 2032.55 -0.453832 -1.83676 0
M  V30 20998 O 2031.89 0.582685 -1.74214 0
M  V30 20999 C 2031.95 -2.83436 -2.21143 0
M  V30 21000 C 2031.62 -4.23963 -1.70599 0
M  V30 21001 C 2032.61 -5.06496 -1.17293 0
M  V30 21002 C 2030.3 -4.70354 -1.76273 0
M  V30 21003 C 2032.29 -6.33508 -0.703308 0
M  V30 21004 C 2029.98 -5.97346 -1.28923 0
M  V30 21005 C 2030.98 -6.78754 -0.760411 0
M  V30 21006 O 2030.67 -8.03363 -0.293883 0
M  V30 21007 H 2030.4 -0.581347 -0.344981 0
M  V30 21008 H 2032.95 -2.0069 -0.437343 0
M  V30 21009 H 2031.18 -2.50957 -2.94206 0
M  V30 21010 H 2032.87 -2.9124 -2.82726 0
M  V30 21011 H 2033.64 -4.71831 -1.12252 0
M  V30 21012 H 2029.52 -4.07066 -2.16375 0
M  V30 21013 H 2033.06 -6.96997 -0.289876 0
M  V30 21014 H 2028.96 -6.31511 -1.33655 0
M  V30 21015 H 2029.72 -8.17454 -0.413701 0
M  V30 21016 N 2032.39 0.630389 -1.44443 0
M  V30 21017 C 2033.33 1.74232 -1.51367 0
M  V30 21018 C 2034.3 1.62122 -0.361324 0
M  V30 21019 O 2035.49 1.82035 -0.571662 0
M  V30 21020 C 2032.63 3.12481 -1.46457 0
M  V30 21021 C 2031.74 3.35561 -2.72071 0
M  V30 21022 C 2030.88 4.63787 -2.58989 0
M  V30 21023 C 2029.92 4.80048 -3.79764 0
M  V30 21024 N 2029.05 5.99551 -3.65354 0
M  V30 21025 H 2033.89 1.6765 -2.46368 0
M  V30 21026 H 2031.43 0.817807 -1.22272 0
M  V30 21027 H 2033.39 3.92435 -1.41601 0
M  V30 21028 H 2032.02 3.18076 -0.550216 0
M  V30 21029 H 2031.07 2.49543 -2.8711 0
M  V30 21030 H 2032.38 3.43456 -3.61717 0
M  V30 21031 H 2031.54 5.51902 -2.51971 0
M  V30 21032 H 2030.28 4.58251 -1.66905 0
M  V30 21033 H 2029.28 3.90362 -3.87166 0
M  V30 21034 H 2030.51 4.87397 -4.72886 0
M  V30 21035 H 2028.45 5.95104 -2.76021 0
M  V30 21036 H 2028.37 6.08505 -4.48617 0
M  V30 21037 H 2029.64 6.90226 -3.62228 0
M  V30 21038 N 2033.87 1.31354 0.870861 0
M  V30 21039 C 2035.11 1.22287 1.63784 0
M  V30 21040 C 2035.47 -0.215843 1.90783 0
M  V30 21041 O 2036.67 -0.429989 2.65339 0
M  V30 21042 C 2034.94 2.04257 2.93281 0
M  V30 21043 S 2036.5 2.12043 3.84166 0
M  V30 21044 H 2033.32 0.435557 0.56197 0
M  V30 21045 H 2035.92 1.66006 1.03259 0
M  V30 21046 H 2034.62 3.07876 2.71367 0
M  V30 21047 H 2034.16 1.61254 3.58832 0
M  V30 21048 H 2036.17 1.25809 4.79986 0
M  V30 21049 N 2035.34 -1.08505 1.143 0
M  V30 21050 C 2036.29 -2.15397 0.829011 0
M  V30 21051 C 2037.26 -1.64728 -0.213016 0
M  V30 21052 O 2038.45 -1.90619 -0.0831625 0
M  V30 21053 C 2035.59 -3.43691 0.311546 0
M  V30 21054 C 2034.7 -4.08212 1.41375 0
M  V30 21055 C 2033.83 -5.24296 0.853639 0
M  V30 21056 C 2032.87 -5.80757 1.93359 0
M  V30 21057 N 2032.01 -6.88188 1.39073 0
M  V30 21058 H 2036.85 -2.41597 1.74456 0
M  V30 21059 H 2034.39 -1.18566 0.870668 0
M  V30 21060 H 2036.34 -4.17199 -0.00667521 0
M  V30 21061 H 2034.97 -3.17779 -0.567106 0
M  V30 21062 H 2034.03 -3.32474 1.84839 0
M  V30 21063 H 2035.34 -4.46196 2.2296 0
M  V30 21064 H 2034.49 -6.0474 0.487261 0
M  V30 21065 H 2033.23 -4.877 0.00682778 0
M  V30 21066 H 2032.24 -4.98967 2.30893 0
M  V30 21067 H 2033.46 -6.19412 2.78398 0
M  V30 21068 H 2031.41 -6.53553 0.566079 0
M  V30 21069 H 2031.32 -7.24992 2.14296 0
M  V30 21070 H 2032.59 -7.72366 1.05222 0
M  V30 21071 N 2036.82 -0.937962 -1.26649 0
M  V30 21072 C 2038.23 -0.626942 -1.75859 0
M  V30 21073 C 2038.58 0.857893 -1.7645 0
M  V30 21074 O 2037.71 1.67138 -1.37455 0
M  V30 21075 C 2038.3 -1.13131 -3.19354 0
M  V30 21076 C 2036.86 -0.870769 -3.66189 0
M  V30 21077 C 2036.01 -1.28409 -2.45777 0
M  V30 21078 H 2038.96 -1.11662 -1.12771 0
M  V30 21079 H 2038.98 -0.483659 -3.77414 0
M  V30 21080 H 2038.49 -2.21201 -3.18891 0
M  V30 21081 H 2036.59 0.195688 -3.72086 0
M  V30 21082 H 2036.71 -1.49552 -4.55161 0
M  V30 21083 H 2035.07 -0.702547 -2.44819 0
M  V30 21084 H 2035.85 -2.37365 -2.48017 0
M  V30 21085 N 2038.3 1.40971 -0.704618 0
M  V30 21086 C 2039.55 2.00682 -0.238954 0
M  V30 21087 C 2039.87 1.56119 1.16842 0
M  V30 21088 O 2039.14 0.795777 1.79009 0
M  V30 21089 H 2037.72 0.742108 -0.0853541 0
M  V30 21090 H 2040.38 1.72467 -0.9078 0
M  V30 21091 H 2039.48 3.10986 -0.26345 0
M  V30 21092 N 2039.78 0.45001 1.51039 0
M  V30 21093 C 2041.01 -0.110336 2.06305 0
M  V30 21094 C 2041.42 -1.35912 1.31623 0
M  V30 21095 O 2040.76 -1.79877 0.372811 0
M  V30 21096 C 2040.82 -0.485388 3.56208 0
M  V30 21097 C 2040.49 0.658381 4.52233 0
M  V30 21098 C 2041.48 1.53427 4.96746 0
M  V30 21099 C 2039.17 0.842718 4.9518 0
M  V30 21100 C 2041.16 2.57908 5.82891 0
M  V30 21101 C 2038.85 1.89078 5.81113 0
M  V30 21102 C 2039.85 2.75734 6.24868 0
M  V30 21103 O 2039.53 3.7874 7.09092 0
M  V30 21104 H 2039.27 -0.0056993 0.675976 0
M  V30 21105 H 2041.82 0.631614 1.95448 0
M  V30 21106 H 2040.05 -1.28022 3.64893 0
M  V30 21107 H 2041.74 -0.978357 3.93933 0
M  V30 21108 H 2042.51 1.40345 4.6425 0
M  V30 21109 H 2038.38 0.177759 4.60657 0
M  V30 21110 H 2041.93 3.25578 6.16964 0
M  V30 21111 H 2037.83 2.02176 6.13021 0
M  V30 21112 H 2038.59 3.75473 7.27298 0
M  V30 21113 N 2041.26 -1.56548 0.18182 0
M  V30 21114 C 2042.21 -2.15071 -0.756856 0
M  V30 21115 C 2043.19 -1.0878 -1.18557 0
M  V30 21116 O 2044.38 -1.34877 -1.14618 0
M  V30 21117 C 2041.51 -2.80324 -1.98175 0
M  V30 21118 C 2040.6 -3.93788 -1.57455 0
M  V30 21119 N 2040.99 -4.9813 -0.877524 0
M  V30 21120 C 2039.29 -4.05143 -1.86482 0
M  V30 21121 C 2039.99 -5.77765 -0.675425 0
M  V30 21122 N 2038.96 -5.29731 -1.22009 0
M  V30 21123 H 2042.77 -2.93109 -0.215455 0
M  V30 21124 H 2040.28 -1.62389 -0.0184721 0
M  V30 21125 H 2042.28 -3.20635 -2.66456 0
M  V30 21126 H 2040.94 -2.0377 -2.528 0
M  V30 21127 H 2041.95 -5.15135 -0.534425 0
M  V30 21128 H 2038.62 -3.39703 -2.42709 0
M  V30 21129 H 2040.01 -6.71787 -0.123453 0
M  V30 21130 N 2042.73 0.0918577 -1.57332 0
M  V30 21131 C 2043.98 0.795934 -1.86528 0
M  V30 21132 C 2044.31 1.78222 -0.771388 0
M  V30 21133 O 2043.59 1.93248 0.220326 0
M  V30 21134 C 2043.87 1.5218 -3.26364 0
M  V30 21135 C 2043.72 0.553281 -4.46384 0
M  V30 21136 C 2045.04 2.4716 -3.64143 0
M  V30 21137 H 2042.16 0.287896 -0.678443 0
M  V30 21138 H 2044.8 0.0594952 -1.89907 0
M  V30 21139 H 2042.95 2.14956 -3.23614 0
M  V30 21140 H 2044.63 -0.0677239 -4.6125 0
M  V30 21141 H 2042.87 -0.133076 -4.33596 0
M  V30 21142 H 2043.54 1.09838 -5.40962 0
M  V30 21143 H 2046.02 1.94474 -3.67857 0
M  V30 21144 H 2044.89 2.94964 -4.62912 0
M  V30 21145 H 2045.15 3.31065 -2.92999 0
M  V30 21146 N 2044.21 1.53368 0.362763 0
M  V30 21147 C 2045.62 1.61344 0.939417 0
M  V30 21148 C 2045.97 0.48262 1.90172 0
M  V30 21149 O 2045.1 -0.39054 2.12847 0
M  V30 21150 C 2045.69 2.92445 1.71059 0
M  V30 21151 C 2044.25 3.02747 2.23654 0
M  V30 21152 C 2043.4 2.5666 1.0498 0
M  V30 21153 H 2046.35 1.58068 0.141471 0
M  V30 21154 H 2046.37 2.80406 2.57201 0
M  V30 21155 H 2045.88 3.74728 1.00996 0
M  V30 21156 H 2043.99 2.25057 2.96951 0
M  V30 21157 H 2044.1 4.07877 2.51343 0
M  V30 21158 H 2042.46 2.11603 1.41761 0
M  V30 21159 H 2043.25 3.41364 0.364111 0
M  V30 21160 N 2045.69 -0.62272 1.44776 0
M  V30 21161 C 2046.94 -1.37937 1.47708 0
M  V30 21162 C 2047.26 -1.94665 0.114186 0
M  V30 21163 O 2046.53 -1.76277 -0.854583 0
M  V30 21164 H 2045.11 -0.512023 0.543914 0
M  V30 21165 H 2047.77 -0.732336 1.80618 0
M  V30 21166 H 2046.87 -2.20646 2.2073 0
M  V30 21167 N 2047.17 -1.31814 -0.863883 0
M  V30 21168 C 2048.39 -1.24961 -1.65528 0
M  V30 21169 C 2048.82 0.18096 -1.87228 0
M  V30 21170 O 2048.18 1.12919 -1.41842 0
M  V30 21171 C 2048.22 -2.00518 -2.99708 0
M  V30 21172 O 2047.33 -1.34668 -3.89793 0
M  V30 21173 H 2046.67 -0.431127 -0.505001 0
M  V30 21174 H 2049.2 -1.73981 -1.07665 0
M  V30 21175 H 2049.21 -2.10344 -3.49599 0
M  V30 21176 H 2047.88 -3.0455 -2.83235 0
M  V30 21177 H 2046.46 -1.33332 -3.48249 0
M  V30 21178 N 2048.65 1.07897 -1.14873 0
M  V30 21179 C 2049.87 1.84657 -0.944281 0
M  V30 21180 C 2050.3 1.8127 0.50226 0
M  V30 21181 O 2049.65 1.20159 1.35763 0
M  V30 21182 C 2049.7 3.29889 -1.45622 0
M  V30 21183 O 2048.81 4.07217 -0.651748 0
M  V30 21184 H 2048.15 0.571994 -0.337222 0
M  V30 21185 H 2050.68 1.36151 -1.52723 0
M  V30 21186 H 2050.69 3.80727 -1.46665 0
M  V30 21187 H 2049.36 3.31668 -2.50936 0
M  V30 21188 H 2047.94 3.66069 -0.710491 0
M  V30 21189 N 2050.12 0.944665 1.2615 0
M  V30 21190 C 2051.54 0.647519 1.45874 0
M  V30 21191 C 2051.74 -0.798095 1.85021 0
M  V30 21192 O 2050.8 -1.57439 1.97406 0
M  V30 21193 C 2052.11 1.61192 2.53845 0
M  V30 21194 C 2053.66 1.62201 2.67694 0
M  V30 21195 C 2054.13 2.5738 3.7884 0
M  V30 21196 N 2055.62 2.55686 3.86237 0
M  V30 21197 C 2056.36 3.26015 4.71701 0
M  V30 21198 N 2055.85 4.05782 5.61527 0
M  V30 21199 N 2057.65 3.1495 4.65578 0
M  V30 21200 H 2049.8 1.87901 0.990296 0
M  V30 21201 H 2052.06 0.807679 0.496345 0
M  V30 21202 H 2051.77 2.64402 2.31915 0
M  V30 21203 H 2051.64 1.36668 3.5157 0
M  V30 21204 H 2054.03 0.597142 2.88995 0
M  V30 21205 H 2054.11 1.9078 1.70402 0
M  V30 21206 H 2053.75 3.59987 3.5829 0
M  V30 21207 H 2053.68 2.26089 4.75596 0
M  V30 21208 H 2056.17 1.97768 3.22019 0
M  V30 21209 H 2056.49 4.56389 6.23642 0
M  V30 21210 H 2054.83 4.09882 5.61268 0
M  V30 21211 H 2058.02 2.52113 3.94407 0
M  V30 21212 H 2058.2 3.70027 5.31962 0
M  V30 21213 N 2051.6 -1.40596 0.712085 0
M  V30 21214 C 2052.55 -2.30729 0.0572693 0
M  V30 21215 C 2053.52 -1.48 -0.753997 0
M  V30 21216 O 2054.7 -1.76748 -0.71866 0
M  V30 21217 C 2051.84 -3.34184 -0.861092 0
M  V30 21218 C 2050.96 -4.31982 -0.0396747 0
M  V30 21219 C 2050.09 -5.22505 -0.957193 0
M  V30 21220 C 2049.13 -6.11963 -0.129658 0
M  V30 21221 N 2048.27 -6.94915 -1.00186 0
M  V30 21222 H 2053.11 -2.86161 0.831601 0
M  V30 21223 H 2050.65 -1.40923 0.421786 0
M  V30 21224 H 2052.6 -3.92732 -1.40775 0
M  V30 21225 H 2051.23 -2.80263 -1.60164 0
M  V30 21226 H 2050.29 -3.75245 0.624125 0
M  V30 21227 H 2051.6 -4.95164 0.601165 0
M  V30 21228 H 2050.75 -5.85967 -1.57251 0
M  V30 21229 H 2049.49 -4.59589 -1.63186 0
M  V30 21230 H 2048.5 -5.47534 0.49862 0
M  V30 21231 H 2049.72 -6.76938 0.541455 0
M  V30 21232 H 2047.67 -6.34591 -1.66225 0
M  V30 21233 H 2047.58 -7.54849 -0.41698 0
M  V30 21234 H 2048.85 -7.6283 -1.60347 0
M  V30 21235 N 2053.08 -0.458013 -1.50798 0
M  V30 21236 C 2054.31 0.10185 -2.0715 0
M  V30 21237 C 2054.73 1.33899 -1.32109 0
M  V30 21238 O 2054.09 1.77589 -0.364928 0
M  V30 21239 C 2054.14 0.381979 -3.58571 0
M  V30 21240 O 2053.24 1.46484 -3.85508 0
M  V30 21241 H 2052.58 -0.00721903 -0.663961 0
M  V30 21242 H 2055.11 -0.645297 -1.94157 0
M  V30 21243 H 2055.12 0.626354 -4.03163 0
M  V30 21244 H 2053.8 -0.522121 -4.1261 0
M  V30 21245 H 2052.37 1.20881 -3.52764 0
M  V30 21246 N 2054.56 1.56449 -0.190119 0
M  V30 21247 C 2055.51 2.1886 0.732745 0
M  V30 21248 C 2056.48 1.1343 1.21338 0
M  V30 21249 O 2057.66 1.4166 1.27817 0
M  V30 21250 C 2054.8 2.84809 1.94878 0
M  V30 21251 C 2053.91 4.04751 1.50998 0
M  V30 21252 C 2053.05 4.58572 2.68114 0
M  V30 21253 C 2052.09 5.70883 2.20815 0
M  V30 21254 N 2051.23 6.19132 3.3109 0
M  V30 21255 H 2056.07 2.97369 0.193776 0
M  V30 21256 H 2053.6 1.46861 0.0839065 0
M  V30 21257 H 2055.56 3.21213 2.66229 0
M  V30 21258 H 2054.19 2.08872 2.46115 0
M  V30 21259 H 2053.24 3.74043 0.69252 0
M  V30 21260 H 2054.55 4.85996 1.12292 0
M  V30 21261 H 2053.71 4.97256 3.47594 0
M  V30 21262 H 2052.45 3.76425 3.1009 0
M  V30 21263 H 2051.45 5.31733 1.39786 0
M  V30 21264 H 2052.68 6.54845 1.79875 0
M  V30 21265 H 2050.62 5.39908 3.72607 0
M  V30 21266 H 2050.54 6.95415 2.96538 0
M  V30 21267 H 2051.81 6.62468 4.108 0
M  V30 21268 N 2056.04 -0.0835127 1.57379 0
M  V30 21269 C 2056.98 -1.10046 2.02875 0
M  V30 21270 C 2057.95 -1.39138 0.907183 0
M  V30 21271 O 2059.14 -1.50405 1.17401 0
M  V30 21272 C 2056.28 -2.41229 2.46784 0
M  V30 21273 C 2055.39 -2.18769 3.72511 0
M  V30 21274 C 2054.53 -3.43432 4.05251 0
M  V30 21275 C 2053.57 -3.16284 5.24052 0
M  V30 21276 N 2052.7 -4.33246 5.52488 0
M  V30 21277 H 2057.54 -0.705503 2.89528 0
M  V30 21278 H 2055.08 -0.336809 1.43192 0
M  V30 21279 H 2057.04 -3.17803 2.7029 0
M  V30 21280 H 2055.67 -2.7855 1.63125 0
M  V30 21281 H 2054.72 -1.32942 3.56414 0
M  V30 21282 H 2056.03 -1.94708 4.59228 0
M  V30 21283 H 2055.19 -4.28408 4.29595 0
M  V30 21284 H 2053.93 -3.70558 3.17078 0
M  V30 21285 H 2052.93 -2.29703 4.99516 0
M  V30 21286 H 2054.16 -2.90493 6.13833 0
M  V30 21287 H 2052.1 -4.60425 4.67274 0
M  V30 21288 H 2052.02 -4.12417 6.336 0
M  V30 21289 H 2053.29 -5.19253 5.81375 0
M  V30 21290 N 2057.52 -1.53558 -0.354624 0
M  V30 21291 C 2058.93 -1.43575 -0.697019 0
M  V30 21292 C 2059.13 -0.583599 -1.92864 0
M  V30 21293 O 2058.19 -0.0702807 -2.52402 0
M  V30 21294 C 2059.5 -2.86916 -0.899995 0
M  V30 21295 C 2061.05 -2.96619 -0.999314 0
M  V30 21296 C 2061.52 -4.41044 -1.23468 0
M  V30 21297 N 2063.01 -4.44521 -1.30214 0
M  V30 21298 C 2063.75 -5.5339 -1.50156 0
M  V30 21299 N 2063.25 -6.72286 -1.67343 0
M  V30 21300 N 2065.04 -5.40985 -1.52614 0
M  V30 21301 H 2057.19 -2.07462 0.45531 0
M  V30 21302 H 2059.45 -0.937349 0.141706 0
M  V30 21303 H 2059.16 -3.51637 -0.066674 0
M  V30 21304 H 2059.03 -3.31212 -1.80495 0
M  V30 21305 H 2061.42 -2.32044 -1.82317 0
M  V30 21306 H 2061.5 -2.557 -0.0715092 0
M  V30 21307 H 2061.14 -5.06195 -0.415803 0
M  V30 21308 H 2061.07 -4.79545 -2.17588 0
M  V30 21309 H 2063.57 -3.5884 -1.18501 0
M  V30 21310 H 2063.88 -7.51023 -1.82164 0
M  V30 21311 H 2062.22 -6.75252 -1.645 0
M  V30 21312 H 2065.41 -4.4706 -1.38762 0
M  V30 21313 H 2065.59 -6.25893 -1.67815 0
M  V30 21314 N 2058.99 0.615033 -1.45104 0
M  V30 21315 C 2059.96 1.7081 -1.52828 0
M  V30 21316 C 2060.96 1.55523 -0.408557 0
M  V30 21317 O 2062.15 1.60726 -0.671773 0
M  V30 21318 C 2059.28 3.10023 -1.41768 0
M  V30 21319 H 2060.47 1.6533 -2.50212 0
M  V30 21320 H 2058.02 0.830115 -1.32434 0
M  V30 21321 H 2058.76 3.21086 -0.455409 0
M  V30 21322 H 2058.54 3.22527 -2.22977 0
M  V30 21323 H 2060.03 3.89657 -1.5019 0
M  V30 21324 N 2060.47 1.3227 0.85688 0
M  V30 21325 C 2061.72 1.22703 1.6109 0
M  V30 21326 C 2062.05 -0.211682 1.93345 0
M  V30 21327 O 2061.3 -1.16408 1.57314 0
M  V30 21328 C 2061.6 2.02967 2.94175 0
M  V30 21329 C 2061.27 3.52346 2.8136 0
M  V30 21330 C 2059.93 3.93074 2.77572 0
M  V30 21331 C 2062.28 4.47347 2.67452 0
M  V30 21332 C 2059.61 5.27049 2.57751 0
M  V30 21333 C 2061.96 5.81463 2.49167 0
M  V30 21334 C 2060.62 6.21396 2.4377 0
M  V30 21335 H 2059.89 0.449003 0.589472 0
M  V30 21336 H 2062.54 1.63673 0.994156 0
M  V30 21337 H 2060.85 1.54719 3.59957 0
M  V30 21338 H 2062.54 1.92936 3.51535 0
M  V30 21339 H 2059.13 3.19997 2.85132 0
M  V30 21340 H 2063.32 4.16802 2.69424 0
M  V30 21341 H 2058.57 5.57048 2.52007 0
M  V30 21342 H 2062.75 6.54692 2.37384 0
M  V30 21343 H 2060.37 7.2515 2.28171 0
M  V30 21344 N 2061.95 -1.07287 1.15444 0
M  V30 21345 C 2062.9 -2.14506 0.85181 0
M  V30 21346 C 2063.87 -1.64945 -0.195533 0
M  V30 21347 O 2065.05 -1.90696 -0.0629401 0
M  V30 21348 C 2062.19 -3.43341 0.347981 0
M  V30 21349 C 2061.3 -4.0669 1.45697 0
M  V30 21350 C 2060.44 -5.23361 0.9092 0
M  V30 21351 C 2059.48 -5.78673 1.99508 0
M  V30 21352 N 2058.62 -6.86675 1.46364 0
M  V30 21353 H 2063.46 -2.39733 1.77008 0
M  V30 21354 H 2060.99 -1.17635 0.883195 0
M  V30 21355 H 2062.95 -4.17183 0.0375747 0
M  V30 21356 H 2061.58 -3.18363 -0.53337 0
M  V30 21357 H 2060.63 -3.30495 1.88355 0
M  V30 21358 H 2061.94 -4.43806 2.2768 0
M  V30 21359 H 2061.1 -6.04189 0.551375 0
M  V30 21360 H 2059.84 -4.87665 0.0585544 0
M  V30 21361 H 2058.84 -4.9649 2.36173 0
M  V30 21362 H 2060.07 -6.16425 2.84952 0
M  V30 21363 H 2058.01 -6.52916 0.635365 0
M  V30 21364 H 2057.93 -7.22678 2.21973 0
M  V30 21365 H 2059.2 -7.71206 1.13408 0
M  V30 21366 N 2063.43 -0.951342 -1.25647 0
M  V30 21367 C 2064.66 -0.621431 -1.97347 0
M  V30 21368 C 2065.07 0.805774 -1.70742 0
M  V30 21369 O 2064.43 1.53857 -0.981537 0
M  V30 21370 C 2064.48 -0.866537 -3.50961 0
M  V30 21371 O 2064.2 -2.23762 -3.76646 0
M  V30 21372 C 2065.7 -0.548561 -4.39893 0
M  V30 21373 H 2062.92 -0.233273 -0.629146 0
M  V30 21374 H 2065.46 -1.27482 -1.59902 0
M  V30 21375 H 2063.62 -0.259607 -3.86529 0
M  V30 21376 H 2064.03 -2.30528 -4.71123 0
M  V30 21377 H 2065.51 -0.770622 -5.46594 0
M  V30 21378 H 2065.98 0.51678 -4.36149 0
M  V30 21379 H 2066.59 -1.13467 -4.09885 0
M  V30 21380 N 2064.91 1.40216 -0.719531 0
M  V30 21381 C 2065.84 2.2918 -0.0300683 0
M  V30 21382 C 2066.85 1.4603 0.719654 0
M  V30 21383 O 2068.04 1.69276 0.56638 0
M  V30 21384 C 2065.14 3.2437 0.981688 0
M  V30 21385 C 2064.31 4.36393 0.296683 0
M  V30 21386 C 2063.37 5.11996 1.21437 0
M  V30 21387 O 2062.4 5.64908 0.697679 0
M  V30 21388 N 2063.6 5.21726 2.54524 0
M  V30 21389 H 2066.36 2.88992 -0.79396 0
M  V30 21390 H 2063.93 1.51629 -0.567481 0
M  V30 21391 H 2065.92 3.7182 1.59787 0
M  V30 21392 H 2064.49 2.65699 1.64691 0
M  V30 21393 H 2063.71 3.91019 -0.499755 0
M  V30 21394 H 2065 5.08486 -0.17865 0
M  V30 21395 H 2064.39 4.80227 2.98996 0
M  V30 21396 H 2062.95 5.72669 3.11277 0
M  V30 21397 N 2066.38 0.466004 1.50553 0
M  V30 21398 C 2067.62 -0.0895486 2.04204 0
M  V30 21399 C 2067.99 -1.37441 1.34067 0
M  V30 21400 O 2069.19 -2.01202 1.78245 0
M  V30 21401 C 2067.46 -0.274301 3.56346 0
M  V30 21402 S 2069.02 -0.789141 4.31646 0
M  V30 21403 H 2065.84 -0.0183592 0.710763 0
M  V30 21404 H 2068.44 0.631979 1.85003 0
M  V30 21405 H 2067.14 0.666704 4.04948 0
M  V30 21406 H 2066.67 -1.02209 3.79891 0
M  V30 21407 H 2068.69 -2.06321 4.51272 0
M  V30 21408 N 2067.86 -1.56346 0.198413 0
M  V30 21409 C 2069.09 -2.02058 -0.444989 0
M  V30 21410 C 2069.5 -1.07852 -1.54963 0
M  V30 21411 O 2068.86 -0.0839717 -1.82307 0
M  V30 21412 C 2068.91 -3.47445 -0.99822 0
M  V30 21413 O 2068.63 -4.38056 0.0623476 0
M  V30 21414 C 2070.13 -4.08691 -1.71717 0
M  V30 21415 H 2067.35 -0.661691 -0.111383 0
M  V30 21416 H 2069.9 -2.02166 0.308092 0
M  V30 21417 H 2068.05 -3.48026 -1.70167 0
M  V30 21418 H 2068.47 -5.23331 -0.349939 0
M  V30 21419 H 2069.94 -5.1226 -2.05654 0
M  V30 21420 H 2070.42 -3.52341 -2.62207 0
M  V30 21421 H 2071.02 -4.11892 -1.05949 0
M  V30 21422 N 2069.34 0.0751653 -1.57421 0
M  V30 21423 C 2070.27 1.11632 -2.00177 0
M  V30 21424 C 2071.29 1.35179 -0.907222 0
M  V30 21425 O 2072.47 1.33479 -1.18515 0
M  V30 21426 C 2069.57 2.46792 -2.32265 0
M  V30 21427 C 2068.75 2.43248 -3.63524 0
M  V30 21428 C 2067.81 3.60488 -3.8332 0
M  V30 21429 O 2066.83 3.42071 -4.54946 0
M  V30 21430 N 2068.03 4.80713 -3.25416 0
M  V30 21431 H 2070.8 0.752243 -2.90106 0
M  V30 21432 H 2068.36 0.263867 -1.59735 0
M  V30 21433 H 2070.35 3.23861 -2.42685 0
M  V30 21434 H 2068.92 2.75214 -1.48243 0
M  V30 21435 H 2068.14 1.51587 -3.63889 0
M  V30 21436 H 2069.43 2.37977 -4.49716 0
M  V30 21437 H 2068.83 4.9858 -2.67273 0
M  V30 21438 H 2067.39 5.55306 -3.4129 0
M  V30 21439 N 2070.82 1.53744 0.346476 0
M  V30 21440 C 2072.1 1.61474 1.10388 0
M  V30 21441 C 2072.48 0.434154 2.06587 0
M  V30 21442 O 2071.82 -0.573858 2.21177 0
M  V30 21443 C 2072.03 2.97411 1.82613 0
M  V30 21444 C 2073.38 3.52662 2.36462 0
M  V30 21445 O 2074.41 2.99567 1.92713 0
M  V30 21446 O 2073.26 4.45528 3.16492 0
M  V30 21447 H 2070.36 0.652991 0.507476 0
M  V30 21448 H 2072.9 1.66089 0.348204 0
M  V30 21449 H 2071.68 3.74775 1.12514 0
M  V30 21450 H 2071.3 2.96373 2.65045 0
M  V30 21451 N 2072.3 -0.607329 1.45428 0
M  V30 21452 C 2073.54 -1.36363 1.49163 0
M  V30 21453 C 2073.87 -1.94533 0.134827 0
M  V30 21454 O 2073.14 -1.77174 -0.835838 0
M  V30 21455 H 2071.72 -0.506225 0.549314 0
M  V30 21456 H 2074.38 -0.713138 1.81385 0
M  V30 21457 H 2073.47 -2.18292 2.23058 0
M  V30 21458 N 2073.77 -1.32722 -0.849853 0
M  V30 21459 C 2075 -1.2671 -1.64193 0
M  V30 21460 C 2075.42 0.161092 -1.87409 0
M  V30 21461 O 2074.78 1.11408 -1.43031 0
M  V30 21462 C 2074.83 -2.03686 -2.97564 0
M  V30 21463 O 2073.93 -1.38794 -3.88343 0
M  V30 21464 H 2073.28 -0.436459 -0.5004 0
M  V30 21465 H 2075.81 -1.75113 -1.05813 0
M  V30 21466 H 2075.82 -2.1404 -3.47349 0
M  V30 21467 H 2074.49 -3.07537 -2.79989 0
M  V30 21468 H 2073.07 -1.37018 -3.46815 0
M  V30 21469 N 2075.25 1.06673 -1.16011 0
M  V30 21470 C 2076.5 1.79819 -0.950624 0
M  V30 21471 C 2076.85 1.85343 0.516325 0
M  V30 21472 O 2076.15 1.33119 1.37804 0
M  V30 21473 C 2076.34 3.24069 -1.50712 0
M  V30 21474 C 2076.17 3.32601 -3.02666 0
M  V30 21475 C 2074.94 3.4276 -3.71273 0
M  V30 21476 C 2077.14 3.22783 -4.00395 0
M  V30 21477 N 2075.12 3.40267 -5.10971 0
M  V30 21478 C 2076.49 3.27488 -5.26452 0
M  V30 21479 C 2078.55 3.0664 -3.9227 0
M  V30 21480 C 2077.25 3.17711 -6.45331 0
M  V30 21481 C 2079.27 2.982 -5.10716 0
M  V30 21482 C 2078.64 3.03524 -6.35651 0
M  V30 21483 H 2074.74 0.671006 -0.401591 0
M  V30 21484 H 2077.32 1.27279 -1.47337 0
M  V30 21485 H 2075.49 3.75013 -1.01092 0
M  V30 21486 H 2077.22 3.85371 -1.23577 0
M  V30 21487 H 2073.98 3.47395 -3.21891 0
M  V30 21488 H 2074.4 3.4253 -5.83954 0
M  V30 21489 H 2079.04 3.01373 -2.96537 0
M  V30 21490 H 2076.76 3.21736 -7.41291 0
M  V30 21491 H 2080.35 2.86803 -5.06197 0
M  V30 21492 H 2079.23 2.97046 -7.25764 0
M  V30 21493 N 2076.73 0.957992 1.25141 0
M  V30 21494 C 2077.66 0.438189 2.24972 0
M  V30 21495 C 2078.68 -0.447769 1.56521 0
M  V30 21496 O 2079.86 -0.255506 1.76662 0
M  V30 21497 C 2076.96 -0.387644 3.36676 0
M  V30 21498 C 2076.14 0.486109 4.3469 0
M  V30 21499 C 2075.2 -0.282086 5.25443 0
M  V30 21500 O 2074.22 0.320666 5.68296 0
M  V30 21501 N 2075.42 -1.57428 5.58746 0
M  V30 21502 H 2078.19 1.29648 2.70206 0
M  V30 21503 H 2075.75 0.828726 1.39082 0
M  V30 21504 H 2077.74 -0.909356 3.94351 0
M  V30 21505 H 2076.31 -1.14681 2.90804 0
M  V30 21506 H 2075.53 1.18889 3.75844 0
M  V30 21507 H 2076.82 1.08236 4.97154 0
M  V30 21508 H 2076.22 -2.08586 5.25841 0
M  V30 21509 H 2074.78 -2.04189 6.18991 0
M  V30 21510 N 2078.21 -1.39832 0.726957 0
M  V30 21511 C 2079.12 -2.34453 0.0830837 0
M  V30 21512 C 2080.13 -1.579 -0.731009 0
M  V30 21513 O 2081.31 -1.90232 -0.661338 0
M  V30 21514 C 2078.38 -3.3688 -0.819324 0
M  V30 21515 C 2077.44 -4.293 0.00610659 0
M  V30 21516 C 2076.67 -5.26834 -0.853324 0
M  V30 21517 O 2076.89 -5.30641 -2.09228 0
M  V30 21518 O 2075.83 -6.01219 -0.286261 0
M  V30 21519 H 2079.65 -2.91155 0.863845 0
M  V30 21520 H 2077.24 -1.41221 0.487543 0
M  V30 21521 H 2079.12 -3.99665 -1.33589 0
M  V30 21522 H 2077.79 -2.82574 -1.57904 0
M  V30 21523 H 2076.7 -3.69763 0.568007 0
M  V30 21524 H 2078.03 -4.86789 0.727856 0
M  V30 21525 N 2079.69 -0.473982 -1.50304 0
M  V30 21526 C 2080.93 0.0798516 -2.01942 0
M  V30 21527 C 2081.26 1.39955 -1.35785 0
M  V30 21528 O 2080.53 1.89302 -0.504142 0
M  V30 21529 H 2079.11 0.0325001 -0.746293 0
M  V30 21530 H 2081.77 -0.625063 -1.84605 0
M  V30 21531 H 2080.86 0.229253 -3.11257 0
M  V30 21532 N 2081.16 1.56239 -0.206702 0
M  V30 21533 C 2082.13 2.18382 0.695843 0
M  V30 21534 C 2083.13 1.14149 1.13255 0
M  V30 21535 O 2084.32 1.39468 1.04376 0
M  V30 21536 C 2081.45 2.79522 1.95141 0
M  V30 21537 H 2082.64 2.99503 0.154275 0
M  V30 21538 H 2080.2 1.56241 0.0429222 0
M  V30 21539 H 2080.93 2.02231 2.53521 0
M  V30 21540 H 2080.72 3.55837 1.64689 0
M  V30 21541 H 2082.21 3.27203 2.59476 0
M  V30 21542 N 2082.64 -0.0668159 1.57458 0
M  V30 21543 C 2083.88 -0.77031 1.89329 0
M  V30 21544 C 2084.25 -1.7449 0.801069 0
M  V30 21545 O 2085.45 -2.49386 1.00299 0
M  V30 21546 C 2083.72 -1.45541 3.26424 0
M  V30 21547 S 2085.28 -2.19328 3.80054 0
M  V30 21548 H 2082.1 -0.256053 0.663293 0
M  V30 21549 H 2084.7 -0.026213 1.95482 0
M  V30 21550 H 2083.4 -0.732349 4.03813 0
M  V30 21551 H 2082.93 -2.23883 3.23481 0
M  V30 21552 H 2084.95 -3.45924 3.5574 0
M  V30 21553 N 2084.12 -1.53926 -0.338317 0
M  V30 21554 C 2085.37 -1.71678 -1.07957 0
M  V30 21555 C 2085.7 -0.481294 -1.88141 0
M  V30 21556 O 2084.98 0.521709 -1.87372 0
M  V30 21557 C 2085.26 -2.98347 -2.01646 0
M  V30 21558 C 2085.11 -4.32114 -1.24889 0
M  V30 21559 C 2086.43 -3.20708 -3.01388 0
M  V30 21560 H 2083.55 -0.62468 -0.39108 0
M  V30 21561 H 2086.19 -1.86604 -0.357623 0
M  V30 21562 H 2084.34 -2.85752 -2.63207 0
M  V30 21563 H 2086.01 -4.56568 -0.659021 0
M  V30 21564 H 2084.26 -4.30287 -0.550962 0
M  V30 21565 H 2084.93 -5.16935 -1.93604 0
M  V30 21566 H 2087.4 -3.32667 -2.49943 0
M  V30 21567 H 2086.28 -4.10723 -3.6414 0
M  V30 21568 H 2086.54 -2.37246 -3.7305 0
M  V30 21569 N 2085.6 0.599608 -1.45748 0
M  V30 21570 C 2087.01 1.18163 -1.44549 0
M  V30 21571 C 2087.36 1.95397 -0.17732 0
M  V30 21572 O 2086.49 2.04048 0.720645 0
M  V30 21573 C 2087.08 2.14951 -2.6188 0
M  V30 21574 C 2085.64 2.68513 -2.63776 0
M  V30 21575 C 2084.79 1.44065 -2.3694 0
M  V30 21576 H 2087.74 0.388471 -1.53872 0
M  V30 21577 H 2087.76 2.98126 -2.36434 0
M  V30 21578 H 2087.27 1.58711 -3.54164 0
M  V30 21579 H 2085.37 3.28669 -1.7552 0
M  V30 21580 H 2085.49 3.12401 -3.63239 0
M  V30 21581 H 2083.85 1.73296 -1.86657 0
M  V30 21582 H 2084.63 0.896802 -3.31379 0
M  V30 21583 N 2087.08 1.33171 0.842803 0
M  V30 21584 C 2088.32 1.24589 1.60017 0
M  V30 21585 C 2088.66 -0.188935 1.93279 0
M  V30 21586 O 2087.93 -1.12923 1.58362 0
M  V30 21587 C 2088.21 2.11731 2.91277 0
M  V30 21588 C 2088.07 3.63652 2.64721 0
M  V30 21589 C 2089.39 1.98749 3.92666 0
M  V30 21590 H 2086.51 0.453935 0.580613 0
M  V30 21591 H 2089.15 1.63234 0.972356 0
M  V30 21592 H 2087.3 1.78904 3.44856 0
M  V30 21593 H 2088.97 4.06751 2.17604 0
M  V30 21594 H 2087.21 3.85728 1.98486 0
M  V30 21595 H 2087.88 4.19966 3.58236 0
M  V30 21596 H 2090.36 2.2753 3.48381 0
M  V30 21597 H 2089.24 2.61979 4.82347 0
M  V30 21598 H 2089.5 0.958565 4.31583 0
M  V30 21599 N 2088.56 -1.06056 1.16576 0
M  V30 21600 C 2089.78 -1.82592 0.973019 0
M  V30 21601 C 2090.2 -1.82629 -0.478773 0
M  V30 21602 O 2089.56 -1.2472 -1.33233 0
M  V30 21603 C 2089.61 -3.291 1.49585 0
M  V30 21604 O 2089.33 -3.29189 2.89078 0
M  V30 21605 C 2090.83 -4.22357 1.34647 0
M  V30 21606 H 2088.05 -0.575656 0.344763 0
M  V30 21607 H 2090.59 -1.33793 1.5466 0
M  V30 21608 H 2088.75 -3.75202 0.964496 0
M  V30 21609 H 2089.16 -4.2082 3.13066 0
M  V30 21610 H 2090.64 -5.23171 1.76056 0
M  V30 21611 H 2091.11 -4.38226 0.292348 0
M  V30 21612 H 2091.72 -3.82103 1.86755 0
M  V30 21613 N 2090.03 -0.964615 -1.24631 0
M  V30 21614 C 2091.27 -0.632622 -1.94364 0
M  V30 21615 C 2091.64 0.816641 -1.73767 0
M  V30 21616 O 2092.84 1.25871 -2.37508 0
M  V30 21617 C 2091.11 -0.993428 -3.43316 0
M  V30 21618 S 2092.67 -0.775518 -4.31893 0
M  V30 21619 H 2089.49 -0.232189 -0.672019 0
M  V30 21620 H 2092.09 -1.24091 -1.51068 0
M  V30 21621 H 2090.79 -2.04514 -3.55812 0
M  V30 21622 H 2090.32 -0.37579 -3.91601 0
M  V30 21623 H 2092.34 0.348693 -4.94973 0
M  V30 21624 N 2091.51 1.39445 -0.734362 0
M  V30 21625 C 2092.79 1.94487 -0.208359 0
M  V30 21626 C 2093.17 1.6712 1.28974 0
M  V30 21627 O 2092.52 0.999082 2.05501 0
M  V30 21628 C 2092.73 3.44777 -0.541289 0
M  V30 21629 C 2094.07 4.2176 -0.490275 0
M  V30 21630 O 2095.1 3.52972 -0.478443 0
M  V30 21631 O 2093.96 5.4435 -0.48425 0
M  V30 21632 H 2091.05 0.826136 -0.037802 0
M  V30 21633 H 2093.6 1.48948 -0.813177 0
M  V30 21634 H 2092.37 3.58128 -1.5767 0
M  V30 21635 H 2091.99 3.97492 0.0925302 0
M  V30 21636 N 2092.99 0.481946 1.5005 0
M  V30 21637 C 2094.4 0.0294639 1.86677 0
M  V30 21638 C 2094.75 -1.37874 1.39589 0
M  V30 21639 O 2093.88 -2.02407 0.765517 0
M  V30 21640 C 2094.47 0.0466921 3.38768 0
M  V30 21641 C 2093.03 -0.350364 3.74766 0
M  V30 21642 C 2092.18 0.427499 2.73985 0
M  V30 21643 H 2095.13 0.69569 1.42639 0
M  V30 21644 H 2095.15 -0.75302 3.72974 0
M  V30 21645 H 2094.66 1.07172 3.73009 0
M  V30 21646 H 2092.76 -1.37934 3.46128 0
M  V30 21647 H 2092.88 -0.0441626 4.7908 0
M  V30 21648 H 2091.24 -0.120219 2.54416 0
M  V30 21649 H 2092.02 1.45225 3.1107 0
M  V30 21650 N 2094.47 -1.56127 0.214985 0
M  V30 21651 C 2095.88 -1.8437 -0.294058 0
M  V30 21652 C 2096.23 -1.13621 -1.59952 0
M  V30 21653 O 2095.35 -0.403663 -2.12602 0
M  V30 21654 C 2095.95 -3.34464 -0.540311 0
M  V30 21655 C 2094.51 -3.63047 -0.993677 0
M  V30 21656 C 2093.66 -2.77249 -0.0531319 0
M  V30 21657 H 2096.61 -1.52527 0.43833 0
M  V30 21658 H 2096.63 -3.54314 -1.38716 0
M  V30 21659 H 2096.14 -3.85928 0.409992 0
M  V30 21660 H 2094.24 -3.17033 -1.95757 0
M  V30 21661 H 2094.35 -4.71086 -0.872629 0
M  V30 21662 H 2092.72 -2.48496 -0.558718 0
M  V30 21663 H 2093.5 -3.3151 0.891971 0
M  V30 21664 N 2095.95 0.0584645 -1.57492 0
M  V30 21665 C 2097.36 0.608705 -1.76498 0
M  V30 21666 C 2097.71 1.77203 -0.84224 0
M  V30 21667 O 2096.83 2.1638 -0.0296265 0
M  V30 21668 C 2097.43 1.11101 -3.20066 0
M  V30 21669 C 2095.99 1.607 -3.40371 0
M  V30 21670 C 2095.13 0.532159 -2.72146 0
M  V30 21671 H 2098.08 -0.167741 -1.57811 0
M  V30 21672 H 2098.11 1.97943 -3.2496 0
M  V30 21673 H 2097.62 0.264112 -3.872 0
M  V30 21674 H 2095.72 2.47671 -2.7837 0
M  V30 21675 H 2095.83 1.67476 -4.48875 0
M  V30 21676 H 2094.2 0.980354 -2.35077 0
M  V30 21677 H 2094.98 -0.304774 -3.41944 0
M  V30 21678 N 2097.42 1.54103 0.330149 0
M  V30 21679 C 2098.83 1.633 0.904982 0
M  V30 21680 C 2099.19 0.522849 1.89105 0
M  V30 21681 O 2098.31 -0.345304 2.13627 0
M  V30 21682 C 2098.91 2.96008 1.64817 0
M  V30 21683 C 2097.46 3.07423 2.17182 0
M  V30 21684 C 2096.61 2.58829 0.995126 0
M  V30 21685 H 2099.56 1.58333 0.10791 0
M  V30 21686 H 2099.58 2.85799 2.51196 0
M  V30 21687 H 2099.1 3.76786 0.930246 0
M  V30 21688 H 2097.2 2.31306 2.9211 0
M  V30 21689 H 2097.31 4.13117 2.42635 0
M  V30 21690 H 2095.67 2.14563 1.3724 0
M  V30 21691 H 2096.46 3.42059 0.291621 0
M  V30 21692 N 2098.9 -0.59187 1.46064 0
M  V30 21693 C 2099.85 -1.70158 1.55933 0
M  V30 21694 C 2100.82 -1.61107 0.404181 0
M  V30 21695 O 2102 -1.80455 0.619725 0
M  V30 21696 C 2099.14 -3.08488 1.5469 0
M  V30 21697 C 2098.26 -3.2823 2.80872 0
M  V30 21698 C 2097.39 -4.56757 2.71195 0
M  V30 21699 C 2096.43 -4.6981 3.92358 0
M  V30 21700 N 2095.57 -5.89653 3.81121 0
M  V30 21701 H 2100.41 -1.61059 2.50727 0
M  V30 21702 H 2097.95 -0.785101 1.24397 0
M  V30 21703 H 2099.9 -3.88542 1.51956 0
M  V30 21704 H 2098.53 -3.16506 0.634355 0
M  V30 21705 H 2097.59 -2.41843 2.93626 0
M  V30 21706 H 2098.9 -3.33745 3.70696 0
M  V30 21707 H 2098.05 -5.45027 2.66515 0
M  V30 21708 H 2096.79 -4.53665 1.78996 0
M  V30 21709 H 2095.8 -3.7996 3.9738 0
M  V30 21710 H 2097.02 -4.74688 4.85642 0
M  V30 21711 H 2094.97 -5.87576 2.91702 0
M  V30 21712 H 2094.88 -5.96397 4.64593 0
M  V30 21713 H 2096.15 -6.80379 3.80401 0
M  V30 21714 N 2100.38 -1.33616 -0.835729 0
M  V30 21715 C 2101.63 -1.25251 -1.59118 0
M  V30 21716 C 2101.96 0.180895 -1.93657 0
M  V30 21717 O 2101.21 1.1389 -1.59146 0
M  V30 21718 C 2101.51 -2.07621 -2.90909 0
M  V30 21719 C 2101.18 -3.56777 -2.75719 0
M  V30 21720 C 2099.84 -3.9744 -2.71283 0
M  V30 21721 C 2102.19 -4.51545 -2.60301 0
M  V30 21722 C 2099.52 -5.31083 -2.49334 0
M  V30 21723 C 2101.87 -5.85353 -2.39885 0
M  V30 21724 C 2100.53 -6.25195 -2.33853 0
M  V30 21725 H 2099.8 -0.458325 -0.582254 0
M  V30 21726 H 2102.45 -1.65234 -0.967991 0
M  V30 21727 H 2100.76 -1.60426 -3.5745 0
M  V30 21728 H 2102.45 -1.98504 -3.48421 0
M  V30 21729 H 2099.04 -3.24492 -2.80005 0
M  V30 21730 H 2103.23 -4.21036 -2.62759 0
M  V30 21731 H 2098.48 -5.60987 -2.43113 0
M  V30 21732 H 2102.66 -6.58386 -2.26939 0
M  V30 21733 H 2100.28 -7.28688 -2.16606 0
M  V30 21734 N 2101.86 1.05436 -1.17136 0
M  V30 21735 C 2102.81 2.11403 -0.853984 0
M  V30 21736 C 2103.79 1.59995 0.170369 0
M  V30 21737 O 2104.98 1.76972 -0.0317102 0
M  V30 21738 C 2102.11 3.4134 -0.366345 0
M  V30 21739 C 2101.2 3.9955 -1.42198 0
M  V30 21740 N 2101.59 4.31757 -2.63476 0
M  V30 21741 C 2099.89 4.2726 -1.27926 0
M  V30 21742 C 2100.59 4.78146 -3.31287 0
M  V30 21743 N 2099.57 4.78114 -2.58665 0
M  V30 21744 H 2103.37 2.34162 -1.77611 0
M  V30 21745 H 2100.88 1.23061 -1.05971 0
M  V30 21746 H 2102.88 4.16726 -0.120535 0
M  V30 21747 H 2101.54 3.20015 0.549603 0
M  V30 21748 H 2102.55 4.21833 -3.00461 0
M  V30 21749 H 2099.23 4.15334 -0.424764 0
M  V30 21750 H 2100.62 5.12198 -4.34859 0
M  V30 21751 N 2103.34 0.971211 1.24118 0
M  V30 21752 C 2104.58 0.633768 1.91906 0
M  V30 21753 C 2104.91 -0.834157 1.76258 0
M  V30 21754 O 2104.18 -1.59579 1.13628 0
M  V30 21755 H 2102.76 0.231413 0.710251 0
M  V30 21756 H 2105.42 1.23304 1.50938 0
M  V30 21757 H 2104.51 0.877411 2.99513 0
M  V30 21758 N 2104.81 -1.39054 0.741747 0
M  V30 21759 C 2105.74 -2.33184 0.121433 0
M  V30 21760 C 2106.73 -1.54261 -0.716774 0
M  V30 21761 O 2107.91 -1.82627 -0.660379 0
M  V30 21762 C 2105.04 -3.38393 -0.78152 0
M  V30 21763 C 2103.99 -4.27974 -0.046955 0
M  V30 21764 C 2103.32 -5.23938 -1.06737 0
M  V30 21765 C 2104.62 -5.10272 1.11446 0
M  V30 21766 H 2106.31 -2.85308 0.907724 0
M  V30 21767 H 2103.86 -1.37179 0.437953 0
M  V30 21768 H 2105.81 -4.032 -1.22506 0
M  V30 21769 H 2104.54 -2.84724 -1.6 0
M  V30 21770 H 2103.2 -3.64656 0.377036 0
M  V30 21771 H 2102.84 -4.66562 -1.8796 0
M  V30 21772 H 2102.54 -5.84725 -0.580605 0
M  V30 21773 H 2104.07 -5.91622 -1.51048 0
M  V30 21774 H 2105.48 -5.68386 0.749042 0
M  V30 21775 H 2103.88 -5.80234 1.53131 0
M  V30 21776 H 2104.95 -4.44706 1.93299 0
M  V30 21777 N 2106.29 -0.489897 -1.49792 0
M  V30 21778 C 2107.52 0.055599 -2.06525 0
M  V30 21779 C 2107.93 1.32375 -1.3518 0
M  V30 21780 O 2107.27 1.78826 -0.420371 0
M  V30 21781 C 2107.34 0.390775 -3.5737 0
M  V30 21782 C 2107 -0.778051 -4.50328 0
M  V30 21783 C 2108 -1.66543 -4.92503 0
M  V30 21784 C 2105.68 -0.97371 -4.92772 0
M  V30 21785 C 2107.68 -2.73272 -5.75848 0
M  V30 21786 C 2105.36 -2.04419 -5.75896 0
M  V30 21787 C 2106.36 -2.92205 -6.17337 0
M  V30 21788 O 2106.05 -3.97407 -6.98801 0
M  V30 21789 H 2105.78 -0.012225 -0.675889 0
M  V30 21790 H 2108.33 -0.683211 -1.93704 0
M  V30 21791 H 2106.56 1.18303 -3.68159 0
M  V30 21792 H 2108.25 0.873568 -3.96388 0
M  V30 21793 H 2109.02 -1.52604 -4.60366 0
M  V30 21794 H 2104.9 -0.299832 -4.60024 0
M  V30 21795 H 2108.44 -3.41821 -6.08115 0
M  V30 21796 H 2104.34 -2.18358 -6.07446 0
M  V30 21797 H 2105.11 -3.94624 -7.17087 0
M  V30 21798 N 2107.77 1.56011 -0.223262 0
M  V30 21799 C 2108.7 2.17647 0.718502 0
M  V30 21800 C 2109.72 1.14602 1.15629 0
M  V30 21801 O 2110.9 1.41574 1.08715 0
M  V30 21802 C 2108 2.74665 1.98525 0
M  V30 21803 C 2107.18 4.02896 1.70275 0
M  V30 21804 C 2106.24 4.44462 2.81673 0
M  V30 21805 O 2105.26 5.11326 2.5007 0
M  V30 21806 N 2106.46 4.10287 4.10664 0
M  V30 21807 H 2109.23 2.99089 0.191253 0
M  V30 21808 H 2106.79 1.61845 -0.0423185 0
M  V30 21809 H 2108.78 2.99442 2.72244 0
M  V30 21810 H 2107.35 1.97516 2.42293 0
M  V30 21811 H 2106.57 3.85957 0.801915 0
M  V30 21812 H 2107.86 4.86545 1.48833 0
M  V30 21813 H 2107.26 3.5656 4.39183 0
M  V30 21814 H 2105.82 4.39952 4.80921 0
M  V30 21815 N 2109.25 -0.0501116 1.5752 0
M  V30 21816 C 2110.49 -0.750186 1.90136 0
M  V30 21817 C 2110.85 -1.73631 0.819531 0
M  V30 21818 O 2112.05 -2.48308 1.02939 0
M  V30 21819 C 2110.32 -1.4207 3.27949 0
M  V30 21820 S 2111.88 -2.15284 3.82359 0
M  V30 21821 H 2108.7 -0.249004 0.665972 0
M  V30 21822 H 2111.3 -0.00547796 1.95499 0
M  V30 21823 H 2110.01 -0.689478 4.04567 0
M  V30 21824 H 2109.54 -2.2044 3.25837 0
M  V30 21825 H 2111.55 -3.42131 3.59389 0
M  V30 21826 N 2110.73 -1.54276 -0.321972 0
M  V30 21827 C 2111.95 -1.76523 -1.07923 0
M  V30 21828 C 2112.37 -0.514589 -1.81652 0
M  V30 21829 O 2111.73 0.514775 -1.75089 0
M  V30 21830 C 2111.78 -2.95941 -2.07609 0
M  V30 21831 O 2111.5 -4.1617 -1.36874 0
M  V30 21832 C 2113 -3.30411 -2.95539 0
M  V30 21833 H 2110.22 -0.589261 -0.320956 0
M  V30 21834 H 2112.76 -2.01169 -0.367616 0
M  V30 21835 H 2110.92 -2.73564 -2.74302 0
M  V30 21836 H 2111.33 -4.83352 -2.03644 0
M  V30 21837 H 2112.81 -4.17265 -3.61378 0
M  V30 21838 H 2113.28 -2.47647 -3.62723 0
M  V30 21839 H 2113.89 -3.54872 -2.34405 0
M  V30 21840 N 2112.2 0.584116 -1.46376 0
M  V30 21841 C 2113.15 1.71437 -1.57201 0
M  V30 21842 C 2114.15 1.6357 -0.440579 0
M  V30 21843 O 2115.35 1.6908 -0.617397 0
M  V30 21844 H 2111.73 0.56679 -0.49422 0
M  V30 21845 H 2113.7 1.59438 -2.52234 0
M  V30 21846 C 2112.45 3.09824 -1.57812 0
M  V30 21847 H 2111.77 3.16547 -2.44209 0
M  V30 21848 H 2113.21 3.88672 -1.69441 0
M  V30 21849 C 2111.67 3.35503 -0.306515 0
M  V30 21850 O 2112.2 3.97136 0.60384 0
M  V30 21851 N 2110.41 2.89946 -0.194866 0
M  V30 21852 H 2109.95 2.39971 -0.936579 0
M  V30 21853 H 2109.91 3.075 0.655069 0
M  V30 21854 N 2113.68 1.34058 0.828631 0
M  V30 21855 C 2114.93 1.25844 1.58138 0
M  V30 21856 C 2115.25 -0.173004 1.94231 0
M  V30 21857 O 2114.52 -1.10425 1.61812 0
M  V30 21858 H 2113.1 0.4628 0.586366 0
M  V30 21859 H 2115.76 1.67901 0.989709 0
M  V30 21860 H 2114.86 1.85925 2.50676 0
M  V30 21861 N 2115.16 -1.04814 1.17694 0
M  V30 21862 C 2116.41 -1.77883 0.967671 0
M  V30 21863 C 2116.74 -1.87874 -0.503367 0
M  V30 21864 O 2115.99 -1.37773 -1.38986 0
M  V30 21865 C 2116.29 -3.2163 1.55849 0
M  V30 21866 C 2115.96 -3.3169 3.05439 0
M  V30 21867 C 2114.62 -3.34142 3.46269 0
M  V30 21868 C 2116.97 -3.32397 4.0145 0
M  V30 21869 C 2114.3 -3.34935 4.81701 0
M  V30 21870 C 2116.65 -3.34729 5.36786 0
M  V30 21871 C 2115.31 -3.3547 5.77076 0
M  V30 21872 H 2114.58 -0.65092 0.354096 0
M  V30 21873 H 2117.23 -1.23159 1.46643 0
M  V30 21874 H 2115.54 -3.79306 0.981546 0
M  V30 21875 H 2117.23 -3.76796 1.37208 0
M  V30 21876 H 2113.82 -3.30496 2.72892 0
M  V30 21877 H 2118.01 -3.29699 3.70961 0
M  V30 21878 H 2113.26 -3.33822 5.12224 0
M  V30 21879 H 2117.44 -3.34224 6.10956 0
M  V30 21880 H 2115.06 -3.35838 6.81995 0
M  V30 21881 N 2116.64 -0.977779 -1.23601 0
M  V30 21882 C 2117.57 -0.473925 -2.24247 0
M  V30 21883 C 2118.58 0.422811 -1.57214 0
M  V30 21884 O 2119.77 0.227368 -1.77046 0
M  V30 21885 C 2116.87 0.334033 -3.3725 0
M  V30 21886 C 2116.05 -0.555203 -4.33862 0
M  V30 21887 C 2115.11 0.198457 -5.25826 0
M  V30 21888 O 2114.13 -0.411037 -5.67714 0
M  V30 21889 N 2115.33 1.48519 -5.61179 0
M  V30 21890 H 2118.1 -1.3393 -2.6811 0
M  V30 21891 H 2115.66 -0.850748 -1.37746 0
M  V30 21892 H 2117.65 0.846503 -3.95748 0
M  V30 21893 H 2116.22 1.1004 -2.92592 0
M  V30 21894 H 2115.44 -1.24853 -3.73905 0
M  V30 21895 H 2116.73 -1.16132 -4.95369 0
M  V30 21896 H 2116.13 2.00194 -5.29092 0
M  V30 21897 H 2114.68 1.94316 -6.22161 0
M  V30 21898 N 2118.12 1.38658 -0.749111 0
M  V30 21899 C 2119.36 2.00216 -0.303277 0
M  V30 21900 C 2119.69 1.59459 1.1137 0
M  V30 21901 O 2118.95 0.821377 1.77628 0
M  V30 21902 C 2119.25 3.55494 -0.368653 0
M  V30 21903 C 2118.91 4.15948 -1.74064 0
M  V30 21904 C 2117.57 4.32173 -2.11613 0
M  V30 21905 C 2119.93 4.49344 -2.64083 0
M  V30 21906 C 2117.25 4.79088 -3.38661 0
M  V30 21907 C 2119.61 4.97674 -3.90517 0
M  V30 21908 C 2118.27 5.12106 -4.2814 0
M  V30 21909 H 2117.54 0.732643 -0.110977 0
M  V30 21910 H 2120.19 1.65774 -0.958716 0
M  V30 21911 H 2118.49 3.90046 0.370354 0
M  V30 21912 H 2120.19 4.01 -0.00534235 0
M  V30 21913 H 2116.78 4.0373 -1.43875 0
M  V30 21914 H 2120.96 4.36414 -2.3634 0
M  V30 21915 H 2116.22 4.88447 -3.67735 0
M  V30 21916 H 2120.39 5.22485 -4.60415 0
M  V30 21917 H 2118.02 5.4822 -5.26649 0
M  V30 21918 N 2119.6 0.497834 1.49531 0
M  V30 21919 C 2120.54 -0.296019 2.30709 0
M  V30 21920 C 2121.54 -0.965727 1.39176 0
M  V30 21921 O 2122.74 -0.893777 1.56242 0
M  V30 21922 H 2119.12 -0.114319 0.74326 0
M  V30 21923 H 2121.09 0.408679 2.95588 0
M  V30 21924 C 2119.84 -1.34956 3.20441 0
M  V30 21925 H 2119.16 -0.843631 3.90798 0
M  V30 21926 H 2120.6 -1.87706 3.80187 0
M  V30 21927 C 2119.06 -2.36602 2.39836 0
M  V30 21928 O 2119.59 -3.4242 2.10027 0
M  V30 21929 N 2117.8 -2.08992 2.01918 0
M  V30 21930 H 2117.34 -1.2296 2.2636 0
M  V30 21931 H 2117.3 -2.7723 1.48293 0
M  V30 21932 N 2121.07 -1.5589 0.231532 0
M  V30 21933 C 2122.3 -2.03407 -0.405035 0
M  V30 21934 C 2122.72 -1.11007 -1.51852 0
M  V30 21935 O 2122.08 -0.100101 -1.81023 0
M  V30 21936 C 2122.13 -3.4907 -0.904554 0
M  V30 21937 O 2121.23 -3.59808 -2.01524 0
M  V30 21938 H 2120.57 -0.657819 -0.090391 0
M  V30 21939 H 2123.1 -2.0153 0.353092 0
M  V30 21940 H 2123.11 -3.89589 -1.21178 0
M  V30 21941 H 2121.79 -4.15803 -0.0896407 0
M  V30 21942 H 2120.37 -3.3118 -1.71388 0
M  V30 21943 N 2122.55 0.0417572 -1.57545 0
M  V30 21944 C 2123.46 1.06351 -2.09109 0
M  V30 21945 C 2124.48 1.40464 -1.02694 0
M  V30 21946 O 2125.65 1.50038 -1.34352 0
M  V30 21947 C 2122.72 2.34925 -2.54973 0
M  V30 21948 C 2121.78 2.0751 -3.75816 0
M  V30 21949 C 2121.01 3.29954 -4.19483 0
M  V30 21950 O 2121.24 4.40174 -3.62772 0
M  V30 21951 O 2120.17 3.16399 -5.12031 0
M  V30 21952 H 2124 0.655348 -2.96545 0
M  V30 21953 H 2121.58 0.257909 -1.47157 0
M  V30 21954 H 2123.46 3.10537 -2.84859 0
M  V30 21955 H 2122.14 2.75062 -1.70653 0
M  V30 21956 H 2121.04 1.29507 -3.50968 0
M  V30 21957 H 2122.38 1.72237 -4.61081 0
M  V30 21958 N 2124.03 1.54445 0.313786 0
M  V30 21959 C 2125.27 1.74847 1.05867 0
M  V30 21960 C 2125.63 0.516479 1.84923 0
M  V30 21961 O 2126.83 0.598017 2.62063 0
M  V30 21962 C 2125.11 2.99452 1.95099 0
M  V30 21963 S 2126.66 3.40801 2.76406 0
M  V30 21964 H 2123.48 0.614731 0.35725 0
M  V30 21965 H 2126.08 1.92634 0.33353 0
M  V30 21966 H 2124.79 3.87255 1.35873 0
M  V30 21967 H 2124.32 2.84216 2.72002 0
M  V30 21968 H 2126.33 2.96867 3.97598 0
M  V30 21969 N 2125.51 -0.576345 1.46683 0
M  V30 21970 C 2126.92 -0.900361 1.31779 0
M  V30 21971 C 2127.12 -1.99344 0.293964 0
M  V30 21972 O 2126.18 -2.50697 -0.301245 0
M  V30 21973 C 2127.49 -1.31169 2.70583 0
M  V30 21974 C 2129.04 -1.42419 2.78722 0
M  V30 21975 C 2129.52 -1.86916 4.18123 0
M  V30 21976 N 2131.01 -1.94099 4.20571 0
M  V30 21977 C 2131.74 -2.29817 5.2533 0
M  V30 21978 N 2131.24 -2.64282 6.40411 0
M  V30 21979 N 2133.03 -2.30426 5.12699 0
M  V30 21980 H 2125.18 0.145622 2.119 0
M  V30 21981 H 2127.44 0.00247797 0.947997 0
M  V30 21982 H 2127.15 -0.582484 3.46843 0
M  V30 21983 H 2127.02 -2.2719 3.01106 0
M  V30 21984 H 2129.41 -2.14425 2.02746 0
M  V30 21985 H 2129.49 -0.446341 2.51876 0
M  V30 21986 H 2129.14 -1.15486 4.94596 0
M  V30 21987 H 2129.07 -2.8567 4.4238 0
M  V30 21988 H 2131.56 -1.69927 3.3754 0
M  V30 21989 H 2131.87 -2.90509 7.16118 0
M  V30 21990 H 2130.22 -2.61906 6.43762 0
M  V30 21991 H 2133.41 -2.02927 4.21827 0
M  V30 21992 H 2133.58 -2.57934 5.94453 0
M  V30 21993 N 2126.99 -1.34495 -0.82151 0
M  V30 21994 C 2128.23 -1.26273 -1.57284 0
M  V30 21995 C 2128.55 0.165151 -1.94902 0
M  V30 21996 O 2129.75 0.369538 -2.68973 0
M  V30 21997 C 2128.21 -2.21361 -2.83773 0
M  V30 21998 C 2127.82 -3.69414 -2.53451 0
M  V30 21999 C 2129.56 -2.2205 -3.61793 0
M  V30 22000 C 2127.47 -4.56367 -3.76142 0
M  V30 22001 H 2126.4 -0.46909 -0.590314 0
M  V30 22002 H 2129.05 -1.59669 -0.904328 0
M  V30 22003 H 2127.43 -1.80918 -3.52256 0
M  V30 22004 H 2128.61 -4.18403 -1.93069 0
M  V30 22005 H 2126.92 -3.71187 -1.88704 0
M  V30 22006 H 2129.52 -2.84237 -4.52895 0
M  V30 22007 H 2129.86 -1.22017 -3.98017 0
M  V30 22008 H 2130.39 -2.60945 -3.00254 0
M  V30 22009 H 2127.13 -5.57341 -3.45038 0
M  V30 22010 H 2126.65 -4.12112 -4.35802 0
M  V30 22011 H 2128.33 -4.71045 -4.43537 0
M  V30 22012 N 2128.46 1.04188 -1.18248 0
M  V30 22013 C 2129.41 2.12172 -0.908383 0
M  V30 22014 C 2130.38 1.65406 0.151732 0
M  V30 22015 O 2131.57 1.90796 0.0123583 0
M  V30 22016 C 2128.71 3.42298 -0.43889 0
M  V30 22017 C 2127.82 4.02684 -1.56428 0
M  V30 22018 C 2126.95 5.20767 -1.04764 0
M  V30 22019 C 2125.99 5.7318 -2.14781 0
M  V30 22020 N 2125.13 6.82553 -1.64519 0
M  V30 22021 H 2129.97 2.34956 -1.83302 0
M  V30 22022 H 2127.51 1.15252 -0.914073 0
M  V30 22023 H 2129.47 4.16937 -0.14817 0
M  V30 22024 H 2128.1 3.19665 0.448774 0
M  V30 22025 H 2127.15 3.25384 -1.97051 0
M  V30 22026 H 2128.46 4.37613 -2.39366 0
M  V30 22027 H 2127.61 6.02515 -0.711371 0
M  V30 22028 H 2126.35 4.87338 -0.18783 0
M  V30 22029 H 2125.36 4.90054 -2.49253 0
M  V30 22030 H 2126.58 6.08653 -3.01195 0
M  V30 22031 H 2124.53 6.51002 -0.808251 0
M  V30 22032 H 2124.45 7.16539 -2.41056 0
M  V30 22033 H 2125.71 7.67928 -1.33815 0
M  V30 22034 N 2129.94 0.98432 1.23081 0
M  V30 22035 C 2131.18 0.663464 1.93333 0
M  V30 22036 C 2131.55 -0.788893 1.75044 0
M  V30 22037 O 2132.75 -1.22076 2.3948 0
M  V30 22038 C 2131.02 1.04792 3.41692 0
M  V30 22039 S 2132.58 0.84413 4.30604 0
M  V30 22040 H 2129.4 0.242851 0.66824 0
M  V30 22041 H 2132 1.26479 1.49075 0
M  V30 22042 H 2130.7 2.10149 3.52513 0
M  V30 22043 H 2130.23 0.438042 3.90954 0
M  V30 22044 H 2132.25 -0.269903 4.95465 0
M  V30 22045 N 2131.42 -1.38259 0.756453 0
M  V30 22046 C 2132.33 -2.34224 0.132796 0
M  V30 22047 C 2133.35 -1.59415 -0.697351 0
M  V30 22048 O 2134.52 -1.91592 -0.620838 0
M  V30 22049 C 2131.59 -3.38542 -0.747682 0
M  V30 22050 C 2130.65 -4.2919 0.097166 0
M  V30 22051 C 2129.88 -5.28526 -0.741383 0
M  V30 22052 O 2130.1 -5.34959 -1.97926 0
M  V30 22053 O 2129.04 -6.01691 -0.158669 0
M  V30 22054 H 2132.86 -2.89257 0.925409 0
M  V30 22055 H 2130.45 -1.40155 0.517388 0
M  V30 22056 H 2132.33 -4.02409 -1.25081 0
M  V30 22057 H 2131.01 -2.8586 -1.51874 0
M  V30 22058 H 2129.91 -3.68475 0.646311 0
M  V30 22059 H 2131.25 -4.85135 0.830947 0
M  V30 22060 N 2132.9 -0.505757 -1.49264 0
M  V30 22061 C 2134.18 0.100315 -1.95343 0
M  V30 22062 C 2134.56 1.53667 -1.44739 0
M  V30 22063 O 2133.9 2.18663 -0.663221 0
M  V30 22064 C 2134.11 0.00805543 -3.48999 0
M  V30 22065 C 2135.46 0.179587 -4.2422 0
M  V30 22066 O 2136.49 0.0830161 -3.56103 0
M  V30 22067 O 2135.34 0.378466 -5.45188 0
M  V30 22068 H 2132.44 0.0926837 -0.82179 0
M  V30 22069 H 2134.98 -0.568634 -1.59889 0
M  V30 22070 H 2133.76 -0.993441 -3.78479 0
M  V30 22071 H 2133.38 0.716938 -3.91083 0
M  V30 22072 N 2134.38 1.55765 -0.239796 0
M  V30 22073 C 2135.6 2.03618 0.394243 0
M  V30 22074 C 2136.03 1.1181 1.51261 0
M  V30 22075 O 2135.38 0.1097 1.80968 0
M  V30 22076 C 2135.43 3.49545 0.886029 0
M  V30 22077 O 2134.54 3.60872 1.99613 0
M  V30 22078 H 2133.88 0.658289 0.0869012 0
M  V30 22079 H 2136.41 2.0134 -0.363774 0
M  V30 22080 H 2136.42 3.90226 1.1911 0
M  V30 22081 H 2135.09 4.15845 0.0675883 0
M  V30 22082 H 2133.67 3.32085 1.6963 0
M  V30 22083 N 2135.85 -0.0334016 1.57565 0
M  V30 22084 C 2137.13 -0.760253 1.80221 0
M  V30 22085 C 2137.51 -1.93806 0.836817 0
M  V30 22086 O 2136.86 -2.28174 -0.121959 0
M  V30 22087 C 2137.07 -1.19735 3.27818 0
M  V30 22088 C 2138.42 -1.61505 3.92685 0
M  V30 22089 O 2139.44 -1.29204 3.31941 0
M  V30 22090 O 2138.3 -2.21441 4.99626 0
M  V30 22091 H 2135.39 -0.36729 0.740964 0
M  V30 22092 H 2137.94 -0.0105137 1.69697 0
M  V30 22093 H 2136.71 -0.356354 3.89674 0
M  V30 22094 H 2136.34 -2.00724 3.43214 0
M  V30 22095 N 2137.33 -1.54609 -0.305591 0
M  V30 22096 C 2138.3 -1.84504 -1.35982 0
M  V30 22097 C 2139.3 -0.717695 -1.43895 0
M  V30 22098 O 2140.49 -0.985988 -1.4361 0
M  V30 22099 C 2137.62 -2.0212 -2.74518 0
M  V30 22100 H 2138.81 -2.78713 -1.10721 0
M  V30 22101 H 2136.36 -1.46601 -0.542022 0
M  V30 22102 H 2137.1 -1.10183 -3.05009 0
M  V30 22103 H 2136.88 -2.84171 -2.70166 0
M  V30 22104 H 2138.37 -2.26635 -3.50751 0
M  V30 22105 N 2138.81 0.568558 -1.46987 0
M  V30 22106 C 2140.04 1.35675 -1.56867 0
M  V30 22107 C 2140.46 1.86864 -0.215303 0
M  V30 22108 O 2139.82 1.62351 0.806967 0
M  V30 22109 C 2139.87 2.51048 -2.58858 0
M  V30 22110 O 2138.97 3.52929 -2.13342 0
M  V30 22111 H 2138.31 0.403471 -0.527358 0
M  V30 22112 H 2140.84 0.688258 -1.92676 0
M  V30 22113 H 2140.85 2.97773 -2.78918 0
M  V30 22114 H 2139.53 2.13145 -3.5713 0
M  V30 22115 H 2138.1 3.12587 -2.03332 0
M  V30 22116 N 2140.29 1.34929 0.814366 0
M  V30 22117 C 2141.22 1.2306 1.93362 0
M  V30 22118 C 2142.23 0.155675 1.62054 0
M  V30 22119 O 2143.42 0.408278 1.73768 0
M  V30 22120 C 2140.52 0.870492 3.2753 0
M  V30 22121 C 2139.7 2.04217 3.868 0
M  V30 22122 C 2138.75 1.65909 4.9936 0
M  V30 22123 O 2137.78 2.37681 5.172 0
M  V30 22124 N 2138.98 0.578203 5.77613 0
M  V30 22125 H 2141.75 2.19486 2.04074 0
M  V30 22126 H 2139.31 1.27996 0.991391 0
M  V30 22127 H 2141.3 0.59585 4.0029 0
M  V30 22128 H 2139.87 -0.00384556 3.126 0
M  V30 22129 H 2139.09 2.48106 3.06328 0
M  V30 22130 H 2140.38 2.82556 4.23131 0
M  V30 22131 H 2139.78 -0.0182731 5.65697 0
M  V30 22132 H 2138.33 0.363319 6.50787 0
M  V30 22133 N 2141.77 -1.0356 1.18799 0
M  V30 22134 C 2143.01 -1.76497 0.984535 0
M  V30 22135 C 2143.34 -1.88833 -0.486544 0
M  V30 22136 O 2142.61 -1.41702 -1.35268 0
M  V30 22137 H 2141.19 -0.653818 0.36129 0
M  V30 22138 H 2143.85 -1.24956 1.49573 0
M  V30 22139 H 2142.94 -2.77573 1.42687 0
M  V30 22140 N 2143.25 -0.990834 -1.22557 0
M  V30 22141 C 2144.18 -0.559304 -2.26703 0
M  V30 22142 C 2145.16 0.412782 -1.65016 0
M  V30 22143 O 2146.34 0.303868 -1.91808 0
M  V30 22144 C 2143.47 0.12888 -3.47061 0
M  V30 22145 C 2142.43 -0.76154 -4.2117 0
M  V30 22146 C 2141.75 0.0594442 -5.34667 0
M  V30 22147 C 2143.05 -2.0574 -4.80071 0
M  V30 22148 H 2144.75 -1.42983 -2.63052 0
M  V30 22149 H 2142.29 -0.68896 -1.26449 0
M  V30 22150 H 2144.24 0.44215 -4.19074 0
M  V30 22151 H 2142.97 1.03394 -3.09802 0
M  V30 22152 H 2141.63 -1.05842 -3.50989 0
M  V30 22153 H 2141.28 0.965355 -4.9365 0
M  V30 22154 H 2140.98 -0.533291 -5.85175 0
M  V30 22155 H 2142.5 0.366857 -6.09497 0
M  V30 22156 H 2143.91 -1.80821 -5.44037 0
M  V30 22157 H 2142.31 -2.59878 -5.4091 0
M  V30 22158 H 2143.38 -2.73748 -4.00237 0
M  V30 22159 N 2144.72 1.37856 -0.763775 0
M  V30 22160 C 2145.97 1.99488 -0.323855 0
M  V30 22161 C 2146.29 1.60934 1.10115 0
M  V30 22162 O 2145.56 0.870985 1.75473 0
M  V30 22163 H 2144.14 0.73782 -0.116753 0
M  V30 22164 H 2146.8 1.68462 -0.980132 0
M  V30 22165 H 2145.9 3.09589 -0.395113 0
M  V30 22166 N 2146.2 0.513665 1.48994 0
M  V30 22167 C 2147.43 -0.0248975 2.07385 0
M  V30 22168 C 2147.85 -1.28903 1.36987 0
M  V30 22169 O 2147.21 -1.76113 0.430588 0
M  V30 22170 C 2147.26 -0.248634 3.59742 0
M  V30 22171 O 2146.36 -1.32076 3.90679 0
M  V30 22172 H 2145.7 0.0318565 0.663235 0
M  V30 22173 H 2148.23 0.716913 1.91629 0
M  V30 22174 H 2148.24 -0.476291 4.0521 0
M  V30 22175 H 2146.92 0.674899 4.10388 0
M  V30 22176 H 2145.49 -1.07705 3.57007 0
M  V30 22177 N 2147.68 -1.55636 0.248053 0
M  V30 22178 C 2148.63 -2.22824 -0.667239 0
M  V30 22179 C 2149.62 -1.2162 -1.17919 0
M  V30 22180 O 2150.83 -1.39629 -1.13595 0
M  V30 22181 H 2147.2 -0.714778 -0.23366 0
M  V30 22182 H 2149.17 -2.983 -0.0774218 0
M  V30 22183 C 2147.92 -2.9423 -1.85267 0
M  V30 22184 H 2147.25 -3.71878 -1.46789 0
M  V30 22185 H 2148.69 -3.44604 -2.47031 0
M  V30 22186 C 2147.14 -1.98169 -2.72453 0
M  V30 22187 O 2147.67 -1.5155 -3.72016 0
M  V30 22188 N 2145.88 -1.65246 -2.39044 0
M  V30 22189 H 2145.43 -2.03352 -1.58132 0
M  V30 22190 H 2145.39 -1.01239 -2.97654 0
M  V30 22191 N 2149.16 0.0250451 -1.5758 0
M  V30 22192 C 2150.4 0.716105 -1.89736 0
M  V30 22193 C 2150.74 1.7479 -0.846284 0
M  V30 22194 O 2150.01 1.94009 0.138165 0
M  V30 22195 C 2150.29 1.38201 -3.32524 0
M  V30 22196 C 2150.15 0.363457 -4.48329 0
M  V30 22197 C 2151.47 2.31493 -3.74298 0
M  V30 22198 H 2148.59 0.258862 -0.690043 0
M  V30 22199 H 2151.23 -0.0211043 -1.89988 0
M  V30 22200 H 2149.38 2.01037 -3.3244 0
M  V30 22201 H 2151.05 -0.263295 -4.60548 0
M  V30 22202 H 2149.29 -0.316859 -4.32641 0
M  V30 22203 H 2149.96 0.867948 -5.45134 0
M  V30 22204 H 2152.44 1.78697 -3.75774 0
M  V30 22205 H 2151.32 2.75065 -4.75006 0
M  V30 22206 H 2151.58 3.1834 -3.06777 0
M  V30 22207 N 2150.64 1.54769 0.297388 0
M  V30 22208 C 2151.88 1.7343 1.0298 0
M  V30 22209 C 2152.2 0.529189 1.88305 0
M  V30 22210 O 2153.4 0.597687 2.64839 0
M  V30 22211 C 2151.86 3.06854 1.88065 0
M  V30 22212 C 2151.47 4.34856 1.07724 0
M  V30 22213 C 2153.21 3.34873 2.60883 0
M  V30 22214 C 2151.12 5.59329 1.92107 0
M  V30 22215 H 2150.05 0.646388 0.388199 0
M  V30 22216 H 2152.7 1.81248 0.286615 0
M  V30 22217 H 2151.08 2.93011 2.66385 0
M  V30 22218 H 2152.26 4.59544 0.339927 0
M  V30 22219 H 2150.57 4.13799 0.464715 0
M  V30 22220 H 2153.17 4.25071 3.24374 0
M  V30 22221 H 2153.51 2.5391 3.29902 0
M  V30 22222 H 2154.04 3.49704 1.8961 0
M  V30 22223 H 2150.78 6.4297 1.27551 0
M  V30 22224 H 2150.3 5.3882 2.63501 0
M  V30 22225 H 2151.98 5.96721 2.50067 0
M  V30 22226 N 2152.11 -0.560755 1.47286 0
M  V30 22227 C 2153.06 -1.66355 1.55916 0
M  V30 22228 C 2154.05 -1.55367 0.418332 0
M  V30 22229 O 2155.24 -1.63909 0.668047 0
M  V30 22230 C 2152.37 -3.05134 1.57315 0
M  V30 22231 C 2151.45 -3.2134 2.7677 0
M  V30 22232 N 2151.85 -3.07623 4.01499 0
M  V30 22233 C 2150.14 -3.52332 2.73456 0
M  V30 22234 C 2150.84 -3.26423 4.8148 0
M  V30 22235 N 2149.82 -3.52594 4.13737 0
M  V30 22236 H 2153.62 -1.54314 2.50129 0
M  V30 22237 H 2151.14 -0.765413 1.43231 0
M  V30 22238 H 2153.13 -3.84312 1.61587 0
M  V30 22239 H 2151.79 -3.18291 0.64195 0
M  V30 22240 H 2152.8 -2.85025 4.32413 0
M  V30 22241 H 2149.48 -3.72037 1.89458 0
M  V30 22242 H 2150.87 -3.20816 5.90362 0
M  V30 22243 N 2153.59 -1.35359 -0.807199 0
M  V30 22244 C 2154.83 -1.29962 -1.57763 0
M  V30 22245 C 2155.2 0.124572 -1.91595 0
M  V30 22246 O 2156.4 0.302903 -2.67088 0
M  V30 22247 C 2154.67 -2.18018 -2.83202 0
M  V30 22248 S 2156.23 -2.3013 -3.73611 0
M  V30 22249 H 2153.04 -0.461874 -0.540549 0
M  V30 22250 H 2155.65 -1.70743 -0.952207 0
M  V30 22251 H 2154.35 -3.20473 -2.56369 0
M  V30 22252 H 2153.88 -1.78191 -3.5073 0
M  V30 22253 H 2155.9 -1.48567 -4.73437 0
M  V30 22254 N 2155.07 1.02928 -1.19346 0
M  V30 22255 C 2156.49 1.28572 -0.945592 0
M  V30 22256 C 2156.69 1.97841 0.382273 0
M  V30 22257 O 2155.74 2.26603 1.11388 0
M  V30 22258 C 2157.05 2.13321 -2.11931 0
M  V30 22259 C 2158.6 2.2663 -2.15889 0
M  V30 22260 C 2159.08 3.14751 -3.3271 0
M  V30 22261 N 2160.57 3.22339 -3.32644 0
M  V30 22262 C 2161.3 3.90712 -4.19681 0
M  V30 22263 N 2160.8 4.61319 -5.16872 0
M  V30 22264 N 2162.59 3.87107 -4.07559 0
M  V30 22265 H 2154.74 0.563808 -2.0478 0
M  V30 22266 H 2157.01 0.311375 -0.895405 0
M  V30 22267 H 2156.71 1.69745 -3.08025 0
M  V30 22268 H 2156.59 3.14032 -2.08959 0
M  V30 22269 H 2158.97 2.69437 -1.20365 0
M  V30 22270 H 2159.05 1.25471 -2.22914 0
M  V30 22271 H 2158.7 2.72652 -4.28513 0
M  V30 22272 H 2158.63 4.15968 -3.22921 0
M  V30 22273 H 2161.12 2.72052 -2.6229 0
M  V30 22274 H 2161.43 5.1112 -5.79634 0
M  V30 22275 H 2159.78 4.60185 -5.20821 0
M  V30 22276 H 2162.97 3.31086 -3.30908 0
M  V30 22277 H 2163.14 4.40119 -4.75604 0
M  V30 22278 N 2156.55 0.997319 1.2203 0
M  V30 22279 C 2157.49 0.551276 2.2412 0
M  V30 22280 C 2158.46 -0.418681 1.60737 0
M  V30 22281 O 2159.65 -0.322451 1.88056 0
M  V30 22282 C 2156.79 -0.123569 3.44879 0
M  V30 22283 C 2155.9 0.888653 4.22761 0
M  V30 22284 C 2155.04 0.186868 5.30871 0
M  V30 22285 C 2154.08 1.18716 6.00477 0
M  V30 22286 N 2153.21 0.513378 7.00221 0
M  V30 22287 H 2158.05 1.42656 2.61636 0
M  V30 22288 H 2155.59 0.714493 1.28582 0
M  V30 22289 H 2157.55 -0.53179 4.13797 0
M  V30 22290 H 2156.18 -0.962614 3.08113 0
M  V30 22291 H 2155.23 1.41517 3.53096 0
M  V30 22292 H 2156.54 1.65019 4.70712 0
M  V30 22293 H 2155.7 -0.277858 6.06063 0
M  V30 22294 H 2154.44 -0.60714 4.83906 0
M  V30 22295 H 2153.44 1.66247 5.24063 0
M  V30 22296 H 2154.67 1.98212 6.4953 0
M  V30 22297 H 2152.61 -0.261113 6.5548 0
M  V30 22298 H 2152.53 1.21329 7.462 0
M  V30 22299 H 2153.8 0.0716018 7.79467 0
M  V30 22300 N 2158.03 -1.37449 0.771075 0
M  V30 22301 C 2159.3 -1.93866 0.259851 0
M  V30 22302 C 2159.68 -1.7048 -1.24498 0
M  V30 22303 O 2159.03 -1.05322 -2.0278 0
M  V30 22304 C 2159.24 -3.4322 0.63251 0
M  V30 22305 C 2160.59 -4.20312 0.601925 0
M  V30 22306 O 2161.61 -3.5158 0.571859 0
M  V30 22307 O 2160.47 -5.42875 0.628405 0
M  V30 22308 H 2157.57 -0.824843 0.0596922 0
M  V30 22309 H 2160.11 -1.4674 0.852382 0
M  V30 22310 H 2158.88 -3.53822 1.6711 0
M  V30 22311 H 2158.51 -3.97598 0.0128904 0
M  V30 22312 N 2159.5 -0.52156 -1.4872 0
M  V30 22313 C 2160.75 0.0155648 -2.02094 0
M  V30 22314 C 2161.07 1.35564 -1.40169 0
M  V30 22315 O 2160.34 1.87602 -0.564111 0
M  V30 22316 H 2158.92 0.0087409 -0.746949 0
M  V30 22317 H 2161.59 -0.683478 -1.82523 0
M  V30 22318 H 2160.68 0.130113 -3.11829 0
M  V30 22319 N 2160.98 1.55502 -0.256304 0
M  V30 22320 C 2162.21 2.0357 0.36969 0
M  V30 22321 C 2162.63 1.13529 1.50853 0
M  V30 22322 O 2161.98 0.151576 1.81869 0
M  V30 22323 C 2162.03 3.5091 0.868581 0
M  V30 22324 O 2161.75 4.37522 -0.224886 0
M  V30 22325 C 2163.26 4.14782 1.56431 0
M  V30 22326 H 2160.48 0.665369 0.0867485 0
M  V30 22327 H 2163.02 2.00883 -0.382912 0
M  V30 22328 H 2161.17 3.54102 1.57133 0
M  V30 22329 H 2161.59 5.2427 0.155467 0
M  V30 22330 H 2163.06 5.1954 1.865 0
M  V30 22331 H 2163.54 3.6183 2.48949 0
M  V30 22332 H 2164.15 4.1554 0.905893 0
M  V30 22333 N 2162.46 -0.0166879 1.57591 0
M  V30 22334 C 2163.71 -0.700489 1.90957 0
M  V30 22335 C 2164.06 -1.72297 0.856237 0
M  V30 22336 O 2163.35 -1.91134 -0.133614 0
M  V30 22337 C 2163.55 -1.4003 3.28826 0
M  V30 22338 C 2163.38 -0.447112 4.47472 0
M  V30 22339 C 2162.15 -0.0636103 5.0526 0
M  V30 22340 C 2164.35 0.279698 5.13539 0
M  V30 22341 N 2162.33 0.889536 6.07421 0
M  V30 22342 C 2163.7 1.08808 6.10378 0
M  V30 22343 C 2165.75 0.34532 4.96701 0
M  V30 22344 C 2164.46 1.95608 6.92192 0
M  V30 22345 C 2166.48 1.20049 5.79087 0
M  V30 22346 C 2165.84 1.99677 6.75506 0
M  V30 22347 H 2161.94 -0.230042 0.747398 0
M  V30 22348 H 2164.53 0.0397375 1.94659 0
M  V30 22349 H 2162.7 -2.11091 3.26029 0
M  V30 22350 H 2164.43 -2.03747 3.4967 0
M  V30 22351 H 2161.19 -0.428443 4.71658 0
M  V30 22352 H 2161.61 1.36098 6.63179 0
M  V30 22353 H 2166.25 -0.256013 4.22024 0
M  V30 22354 H 2163.97 2.56816 7.66206 0
M  V30 22355 H 2167.56 1.25496 5.68104 0
M  V30 22356 H 2166.44 2.64779 7.38147 0
M  V30 22357 N 2163.94 -1.54924 -0.289176 0
M  V30 22358 C 2164.89 -1.87462 -1.37698 0
M  V30 22359 C 2165.88 -0.749411 -1.51922 0
M  V30 22360 O 2167.09 -0.933558 -1.53898 0
M  V30 22361 H 2163.46 -0.59475 -0.460192 0
M  V30 22362 H 2165.43 -2.78365 -1.07498 0
M  V30 22363 C 2164.18 -2.14897 -2.7334 0
M  V30 22364 H 2163.5 -3.00958 -2.63181 0
M  V30 22365 H 2164.94 -2.41596 -3.48436 0
M  V30 22366 C 2163.4 -0.951304 -3.2319 0
M  V30 22367 O 2163.93 -0.177749 -4.01307 0
M  V30 22368 N 2162.14 -0.753431 -2.80663 0
M  V30 22369 H 2161.69 -1.38415 -2.17253 0
M  V30 22370 H 2161.64 0.0463293 -3.14366 0
M  V30 22371 N 2165.42 0.552936 -1.47582 0
M  V30 22372 C 2166.66 1.30733 -1.54121 0
M  V30 22373 C 2166.99 1.93899 -0.206934 0
M  V30 22374 O 2166.26 1.80154 0.769505 0
M  V30 22375 H 2164.84 0.485489 -0.567723 0
M  V30 22376 H 2167.5 0.645327 -1.83906 0
M  V30 22377 H 2166.59 2.09863 -2.31006 0
M  V30 22378 N 2166.89 1.35785 0.800009 0
M  V30 22379 C 2168.12 1.32717 1.59377 0
M  V30 22380 C 2168.54 -0.0914251 1.87878 0
M  V30 22381 O 2167.9 -1.06023 1.47068 0
M  V30 22382 C 2167.95 2.14589 2.898 0
M  V30 22383 O 2167.05 1.53112 3.82924 0
M  V30 22384 H 2166.4 0.45473 0.483856 0
M  V30 22385 H 2168.93 1.7892 0.992412 0
M  V30 22386 H 2168.94 2.26784 3.39165 0
M  V30 22387 H 2167.61 3.17717 2.68382 0
M  V30 22388 H 2166.19 1.49795 3.41491 0
M  V30 22389 N 2168.37 -1.02294 1.19891 0
M  V30 22390 C 2169.62 -1.7579 1.00519 0
M  V30 22391 C 2169.95 -1.88899 -0.463403 0
M  V30 22392 O 2169.2 -1.4069 -1.36032 0
M  V30 22393 C 2169.5 -3.18252 1.62636 0
M  V30 22394 C 2169.17 -3.25136 3.12406 0
M  V30 22395 C 2167.83 -3.26722 3.53279 0
M  V30 22396 C 2170.18 -3.23806 4.0841 0
M  V30 22397 C 2167.51 -3.24642 4.88697 0
M  V30 22398 C 2169.86 -3.23267 5.43766 0
M  V30 22399 C 2168.53 -3.23154 5.84061 0
M  V30 22400 H 2167.8 -0.643263 0.367823 0
M  V30 22401 H 2170.44 -1.20021 1.49222 0
M  V30 22402 H 2168.75 -3.77138 1.06178 0
M  V30 22403 H 2170.44 -3.738 1.4517 0
M  V30 22404 H 2167.03 -3.24633 2.79841 0
M  V30 22405 H 2171.22 -3.21757 3.77871 0
M  V30 22406 H 2166.47 -3.22881 5.19189 0
M  V30 22407 H 2170.65 -3.2119 6.17908 0
M  V30 22408 H 2168.28 -3.21296 6.88965 0
M  V30 22409 N 2169.85 -1.00378 -1.21499 0
M  V30 22410 C 2170.8 -0.534183 -2.21654 0
M  V30 22411 C 2171.78 0.403544 -1.55757 0
M  V30 22412 O 2172.98 0.228594 -1.75518 0
M  V30 22413 C 2170.11 0.139036 -3.43018 0
M  V30 22414 C 2169.19 -0.819638 -4.16104 0
M  V30 22415 N 2169.58 -1.97196 -4.65776 0
M  V30 22416 C 2167.88 -0.637767 -4.41417 0
M  V30 22417 C 2168.58 -2.57457 -5.21623 0
M  V30 22418 N 2167.56 -1.85627 -5.10924 0
M  V30 22419 H 2171.36 -1.41287 -2.57711 0
M  V30 22420 H 2168.87 -0.867442 -1.37292 0
M  V30 22421 H 2170.87 0.492917 -4.13976 0
M  V30 22422 H 2169.53 1.01372 -3.0847 0
M  V30 22423 H 2170.54 -2.35237 -4.61393 0
M  V30 22424 H 2167.22 0.189943 -4.17068 0
M  V30 22425 H 2168.61 -3.54903 -5.7052 0
M  V30 22426 N 2171.33 1.37038 -0.778354 0
M  V30 22427 C 2172.57 1.99823 -0.34619 0
M  V30 22428 C 2172.91 1.61643 1.07634 0
M  V30 22429 O 2172.18 0.865817 1.74166 0
M  V30 22430 C 2172.47 3.56649 -0.497307 0
M  V30 22431 C 2172.32 4.04718 -1.96273 0
M  V30 22432 C 2173.64 4.39999 0.0944148 0
M  V30 22433 H 2170.76 0.725929 -0.127262 0
M  V30 22434 H 2173.4 1.62617 -0.98263 0
M  V30 22435 H 2171.55 3.88475 0.0445004 0
M  V30 22436 H 2173.22 3.8343 -2.56475 0
M  V30 22437 H 2171.46 3.56667 -2.46924 0
M  V30 22438 H 2172.13 5.13732 -2.01949 0
M  V30 22439 H 2174.61 4.1447 -0.367956 0
M  V30 22440 H 2173.49 5.48884 -0.0414159 0
M  V30 22441 H 2173.75 4.25911 1.18542 0
M  V30 22442 N 2172.81 0.529439 1.48441 0
M  V30 22443 C 2174.05 -0.00285821 2.044 0
M  V30 22444 C 2174.41 -1.31631 1.39776 0
M  V30 22445 O 2175.61 -1.93461 1.86618 0
M  V30 22446 C 2173.88 -0.122915 3.57189 0
M  V30 22447 S 2175.44 -0.605355 4.34604 0
M  V30 22448 H 2172.26 0.0118032 0.710902 0
M  V30 22449 H 2174.86 0.709877 1.82157 0
M  V30 22450 H 2173.57 0.837857 4.01756 0
M  V30 22451 H 2173.1 -0.860045 3.83884 0
M  V30 22452 H 2175.11 -1.86995 4.59616 0
M  V30 22453 N 2174.29 -1.55364 0.264547 0
M  V30 22454 C 2175.22 -2.19475 -0.660544 0
M  V30 22455 C 2176.23 -1.17628 -1.1255 0
M  V30 22456 O 2177.42 -1.44407 -1.04923 0
M  V30 22457 C 2174.52 -2.79832 -1.91173 0
M  V30 22458 C 2173.69 -4.07269 -1.59533 0
M  V30 22459 C 2172.75 -4.51774 -2.6979 0
M  V30 22460 O 2171.78 -5.17776 -2.36425 0
M  V30 22461 N 2172.98 -4.2103 -3.99642 0
M  V30 22462 H 2175.74 -2.99491 -0.111888 0
M  V30 22463 H 2173.31 -1.61676 0.0852139 0
M  V30 22464 H 2175.3 -3.06555 -2.64209 0
M  V30 22465 H 2173.87 -2.03871 -2.36971 0
M  V30 22466 H 2173.09 -3.87948 -0.699303 0
M  V30 22467 H 2174.38 -4.9032 -1.35881 0
M  V30 22468 H 2173.77 -3.68079 -4.29575 0
M  V30 22469 H 2172.33 -4.52548 -4.69088 0
M  V30 22470 N 2175.76 0.00833021 -1.57598 0
M  V30 22471 C 2176.67 1.01892 -2.11318 0
M  V30 22472 C 2177.69 1.38254 -1.0565 0
M  V30 22473 O 2178.87 1.47155 -1.37505 0
M  V30 22474 C 2175.93 2.29464 -2.59899 0
M  V30 22475 C 2174.99 1.99492 -3.80134 0
M  V30 22476 C 2174.22 3.20981 -4.26388 0
M  V30 22477 O 2174.45 4.3238 -3.72027 0
M  V30 22478 O 2173.38 3.05467 -5.18627 0
M  V30 22479 H 2177.21 0.592299 -2.97868 0
M  V30 22480 H 2174.79 0.226636 -1.47671 0
M  V30 22481 H 2176.67 3.04425 -2.91382 0
M  V30 22482 H 2175.35 2.7138 -1.76449 0
M  V30 22483 H 2174.26 1.22033 -3.53636 0
M  V30 22484 H 2175.59 1.62418 -4.6463 0
M  V30 22485 N 2177.24 1.55075 0.280956 0
M  V30 22486 C 2178.17 1.82323 1.37235 0
M  V30 22487 C 2179.15 0.675713 1.47895 0
M  V30 22488 O 2180.34 0.917856 1.64644 0
M  V30 22489 C 2177.46 1.97779 2.74957 0
M  V30 22490 C 2176.51 3.20299 2.81622 0
M  V30 22491 S 2177.34 4.77863 2.41675 0
M  V30 22492 C 2178.5 4.96281 3.81387 0
M  V30 22493 H 2178.73 2.74609 1.13917 0
M  V30 22494 H 2176.26 1.46744 0.480161 0
M  V30 22495 H 2178.22 2.07368 3.54272 0
M  V30 22496 H 2176.88 1.06395 2.95532 0
M  V30 22497 H 2176.08 3.27976 3.82685 0
M  V30 22498 H 2175.68 3.09259 2.1032 0
M  V30 22499 H 2177.97 4.81535 4.76582 0
M  V30 22500 H 2178.91 5.98345 3.78667 0
M  V30 22501 H 2179.32 4.24309 3.7232 0
M  V30 22502 N 2178.72 -0.545102 1.47873 0
M  V30 22503 C 2179.65 -1.66665 1.57339 0
M  V30 22504 C 2180.66 -1.56204 0.458698 0
M  V30 22505 O 2181.85 -1.62941 0.728868 0
M  V30 22506 C 2178.95 -3.05217 1.47295 0
M  V30 22507 C 2178.13 -3.41311 2.73543 0
M  V30 22508 C 2177.19 -4.59078 2.57165 0
M  V30 22509 O 2176.21 -4.63053 3.31014 0
M  V30 22510 N 2177.41 -5.56323 1.65786 0
M  V30 22511 H 2180.18 -1.58986 2.54054 0
M  V30 22512 H 2177.74 -0.732029 1.44405 0
M  V30 22513 H 2179.73 -3.81853 1.34055 0
M  V30 22514 H 2178.3 -3.07056 0.586146 0
M  V30 22515 H 2177.52 -2.54003 3.01457 0
M  V30 22516 H 2178.81 -3.62205 3.5733 0
M  V30 22517 H 2178.21 -5.55877 1.04961 0
M  V30 22518 H 2176.76 -6.32237 1.58492 0
M  V30 22519 N 2180.2 -1.36208 -0.792797 0
M  V30 22520 C 2181.45 -1.29992 -1.54746 0
M  V30 22521 C 2181.77 0.121446 -1.94621 0
M  V30 22522 O 2181.04 1.06096 -1.64683 0
M  V30 22523 H 2179.62 -0.478184 -0.573889 0
M  V30 22524 H 2182.28 -1.70466 -0.944845 0
M  V30 22525 H 2181.37 -1.92505 -2.45658 0
M  V30 22526 N 2181.68 1.01656 -1.20431 0
M  V30 22527 C 2182.61 2.10319 -0.910955 0
M  V30 22528 C 2183.62 1.62485 0.1013 0
M  V30 22529 O 2184.81 1.78028 -0.129719 0
M  V30 22530 C 2181.91 3.37148 -0.344189 0
M  V30 22531 C 2181.08 4.14119 -1.40799 0
M  V30 22532 C 2180.14 5.19248 -0.852542 0
M  V30 22533 O 2179.17 5.48161 -1.53324 0
M  V30 22534 N 2180.37 5.79515 0.338032 0
M  V30 22535 H 2183.13 2.36073 -1.84634 0
M  V30 22536 H 2180.7 1.18047 -1.10799 0
M  V30 22537 H 2182.69 4.04679 0.0415379 0
M  V30 22538 H 2181.26 3.08644 0.495757 0
M  V30 22539 H 2180.48 3.41557 -1.96805 0
M  V30 22540 H 2181.77 4.62326 -2.12444 0
M  V30 22541 H 2181.16 5.5836 0.908322 0
M  V30 22542 H 2179.72 6.48395 0.665396 0
M  V30 22543 N 2183.15 1.01021 1.20965 0
M  V30 22544 C 2184.39 0.704323 1.91882 0
M  V30 22545 C 2184.76 -0.751586 1.76678 0
M  V30 22546 O 2185.96 -1.16969 2.42016 0
M  V30 22547 C 2184.23 1.12016 3.39392 0
M  V30 22548 S 2185.79 0.935278 4.28717 0
M  V30 22549 H 2182.61 0.256971 0.662938 0
M  V30 22550 H 2185.21 1.29613 1.46359 0
M  V30 22551 H 2183.91 2.17579 3.47977 0
M  V30 22552 H 2183.44 0.520871 3.89937 0
M  V30 22553 H 2185.46 -0.164746 4.95926 0
M  V30 22554 N 2184.63 -1.36623 0.78561 0
M  V30 22555 C 2185.86 -2.04129 0.366917 0
M  V30 22556 C 2186.28 -1.58852 -1.00736 0
M  V30 22557 O 2185.64 -0.755202 -1.64822 0
M  V30 22558 C 2185.69 -3.5797 0.43472 0
M  V30 22559 O 2184.79 -4.08584 -0.559755 0
M  V30 22560 H 2184.13 -0.645306 0.156447 0
M  V30 22561 H 2186.66 -1.74656 1.06566 0
M  V30 22562 H 2186.67 -4.06918 0.296959 0
M  V30 22563 H 2185.35 -3.90277 1.43724 0
M  V30 22564 H 2183.92 -3.70918 -0.38397 0
M  V30 22565 N 2186.11 -0.537304 -1.48158 0
M  V30 22566 C 2187.36 -0.00589118 -2.02799 0
M  V30 22567 C 2187.69 1.33238 -1.41285 0
M  V30 22568 O 2186.96 1.86228 -0.56121 0
M  V30 22569 C 2187.25 0.108356 -3.59937 0
M  V30 22570 C 2187.1 -1.2556 -4.3192 0
M  V30 22571 C 2188.42 0.831579 -4.32172 0
M  V30 22572 H 2185.54 -0.00361491 -0.736991 0
M  V30 22573 H 2188.18 -0.69575 -1.76803 0
M  V30 22574 H 2186.33 0.695893 -3.82217 0
M  V30 22575 H 2188 -1.88481 -4.21038 0
M  V30 22576 H 2186.24 -1.83557 -3.93051 0
M  V30 22577 H 2186.92 -1.12858 -5.4034 0
M  V30 22578 H 2189.39 0.332919 -4.14766 0
M  V30 22579 H 2188.27 0.880431 -5.41793 0
M  V30 22580 H 2188.53 1.88346 -3.99973 0
M  V30 22581 N 2187.59 1.55221 -0.272782 0
M  V30 22582 C 2189 1.85334 0.225428 0
M  V30 22583 C 2189.35 1.19479 1.55625 0
M  V30 22584 O 2188.48 0.482291 2.10957 0
M  V30 22585 C 2189.07 3.36239 0.415804 0
M  V30 22586 C 2187.63 3.66485 0.858249 0
M  V30 22587 C 2186.78 2.77255 -0.0498039 0
M  V30 22588 H 2189.73 1.50795 -0.494637 0
M  V30 22589 H 2189.75 3.59218 1.2547 0
M  V30 22590 H 2189.26 3.84141 -0.552945 0
M  V30 22591 H 2187.36 3.2408 1.83855 0
M  V30 22592 H 2187.47 4.74 0.697187 0
M  V30 22593 H 2185.84 2.50399 0.466105 0
M  V30 22594 H 2186.62 3.27971 -1.01439 0
M  V30 22595 N 2189.07 2.77022e-05 1.576 0
M  V30 22596 C 2190.01 -1.0096 2.09547 0
M  V30 22597 C 2191.01 -1.3559 1.01547 0
M  V30 22598 O 2192.21 -1.34154 1.20012 0
M  V30 22599 H 2188.59 -0.343238 0.669098 0
M  V30 22600 H 2190.56 -0.545912 2.93364 0
M  V30 22601 C 2189.31 -2.29263 2.61407 0
M  V30 22602 H 2188.63 -2.03484 3.44143 0
M  V30 22603 H 2190.07 -2.98185 3.01433 0
M  V30 22604 C 2188.53 -3.00245 1.52822 0
M  V30 22605 O 2189.06 -3.9123 0.911146 0
M  V30 22606 N 2187.27 -2.62071 1.25567 0
M  V30 22607 H 2186.81 -1.88164 1.75932 0
M  V30 22608 H 2186.77 -3.09878 0.531333 0
M  V30 22609 N 2190.54 -1.55222 -0.272728 0
M  V30 22610 C 2191.45 -1.91218 -1.35915 0
M  V30 22611 C 2192.47 -0.809463 -1.54025 0
M  V30 22612 O 2193.65 -1.10855 -1.68146 0
M  V30 22613 C 2190.71 -2.17698 -2.69831 0
M  V30 22614 C 2189.77 -3.41258 -2.60464 0
M  V30 22615 C 2189.01 -3.66465 -3.87994 0
M  V30 22616 O 2189.23 -2.94178 -4.88688 0
M  V30 22617 O 2188.16 -4.59999 -3.88181 0
M  V30 22618 H 2191.99 -2.83701 -1.08385 0
M  V30 22619 H 2189.57 -1.41772 -0.471276 0
M  V30 22620 H 2191.46 -2.36153 -3.49012 0
M  V30 22621 H 2190.13 -1.28397 -2.97146 0
M  V30 22622 H 2189.04 -3.28137 -1.79657 0
M  V30 22623 H 2190.37 -4.30778 -2.38098 0
M  V30 22624 N 2192.02 0.537252 -1.4816 0
M  V30 22625 C 2192.95 1.65187 -1.65032 0
M  V30 22626 C 2193.93 1.62607 -0.499309 0
M  V30 22627 O 2195.12 1.79917 -0.731003 0
M  V30 22628 C 2192.25 3.03792 -1.68308 0
M  V30 22629 C 2191.2 3.21229 -2.82836 0
M  V30 22630 C 2190.53 4.60821 -2.71197 0
M  V30 22631 C 2191.83 3.04693 -4.24216 0
M  V30 22632 H 2193.52 1.51323 -2.58344 0
M  V30 22633 H 2191.07 0.726563 -1.24326 0
M  V30 22634 H 2193.02 3.81634 -1.787 0
M  V30 22635 H 2191.75 3.18662 -0.715691 0
M  V30 22636 H 2190.4 2.45802 -2.71987 0
M  V30 22637 H 2190.05 4.72517 -1.72443 0
M  V30 22638 H 2189.75 4.73434 -3.48043 0
M  V30 22639 H 2191.28 5.40772 -2.83546 0
M  V30 22640 H 2192.69 3.72334 -4.35936 0
M  V30 22641 H 2191.09 3.28804 -5.02004 0
M  V30 22642 H 2192.16 2.01201 -4.41187 0
M  V30 22643 N 2193.5 1.36626 0.785562 0
M  V30 22644 C 2194.45 1.31333 1.91975 0
M  V30 22645 C 2195.44 0.204445 1.68162 0
M  V30 22646 O 2196.65 0.371676 1.76121 0
M  V30 22647 H 2193.02 0.408953 0.63108 0
M  V30 22648 H 2194.99 2.27108 1.93558 0
M  V30 22649 C 2193.74 1.12335 3.29053 0
M  V30 22650 H 2193.07 1.96909 3.47946 0
M  V30 22651 H 2194.51 1.12678 4.08754 0
M  V30 22652 C 2192.97 -0.171802 3.36462 0
M  V30 22653 O 2193.5 -1.16028 3.84578 0
M  V30 22654 N 2191.7 -0.217795 2.89783 0
M  V30 22655 H 2191.25 0.587227 2.50817 0
M  V30 22656 H 2191.21 -1.08403 2.95121 0
M  V30 22657 N 2194.98 -1.01016 1.20969 0
M  V30 22658 C 2196.2 -1.78837 1.05034 0
M  V30 22659 C 2196.63 -1.8389 -0.39572 0
M  V30 22660 O 2195.99 -1.2787 -1.28527 0
M  V30 22661 C 2196.03 -3.20837 1.64608 0
M  V30 22662 O 2195.14 -4.02725 0.888059 0
M  V30 22663 H 2194.48 -0.55136 0.369997 0
M  V30 22664 H 2197.01 -1.27015 1.60401 0
M  V30 22665 H 2197.02 -3.71529 1.68613 0
M  V30 22666 H 2195.69 -3.16474 2.69846 0
M  V30 22667 H 2194.27 -3.61304 0.922711 0
M  V30 22668 N 2196.46 -1.01661 -1.20428 0
M  V30 22669 C 2197.4 -0.580183 -2.25248 0
M  V30 22670 C 2198.4 0.381086 -1.65058 0
M  V30 22671 O 2199.6 0.251007 -1.78241 0
M  V30 22672 H 2195.98 -0.169312 -0.732692 0
M  V30 22673 H 2197.95 -1.47516 -2.59387 0
M  V30 22674 C 2196.7 0.0657269 -3.47638 0
M  V30 22675 H 2196.02 -0.664944 -3.94232 0
M  V30 22676 H 2197.46 0.334208 -4.22681 0
M  V30 22677 C 2195.92 1.30855 -3.10449 0
M  V30 22678 O 2196.45 2.40185 -3.21985 0
M  V30 22679 N 2194.66 1.19265 -2.64998 0
M  V30 22680 H 2194.2 0.303019 -2.55812 0
M  V30 22681 H 2194.16 2.02519 -2.40486 0
M  V30 22682 N 2197.93 1.36205 -0.792844 0
M  V30 22683 C 2198.86 2.32573 -0.207894 0
M  V30 22684 C 2199.85 1.56815 0.659028 0
M  V30 22685 O 2201.03 1.84952 0.592143 0
M  V30 22686 C 2198.16 3.4106 0.655389 0
M  V30 22687 C 2197.11 4.27854 -0.111917 0
M  V30 22688 C 2196.44 5.27539 0.872181 0
M  V30 22689 C 2197.74 5.05784 -1.30308 0
M  V30 22690 H 2199.43 2.81743 -1.01299 0
M  V30 22691 H 2196.98 1.35459 -0.488564 0
M  V30 22692 H 2198.93 4.07469 1.07457 0
M  V30 22693 H 2197.66 2.90466 1.49323 0
M  V30 22694 H 2196.32 3.63005 -0.512116 0
M  V30 22695 H 2195.96 4.73217 1.70514 0
M  V30 22696 H 2195.66 5.86477 0.363188 0
M  V30 22697 H 2197.19 5.96821 1.28986 0
M  V30 22698 H 2198.6 5.65214 -0.959478 0
M  V30 22699 H 2197 5.7415 -1.7456 0
M  V30 22700 H 2198.07 4.37226 -2.0967 0
M  V30 22701 N 2199.41 0.545154 1.47871 0
M  V30 22702 C 2200.36 -0.20926 2.29849 0
M  V30 22703 C 2201.33 -0.919683 1.38315 0
M  V30 22704 O 2202.51 -0.917743 1.67279 0
M  V30 22705 C 2199.65 -1.24083 3.22021 0
M  V30 22706 C 2198.77 -0.537702 4.28641 0
M  V30 22707 C 2197.9 -1.55351 5.07976 0
M  V30 22708 C 2196.94 -0.834694 6.06382 0
M  V30 22709 N 2196.08 -1.79676 6.7872 0
M  V30 22710 H 2200.92 0.495962 2.93844 0
M  V30 22711 H 2198.46 0.256415 1.44848 0
M  V30 22712 H 2200.41 -1.85137 3.73872 0
M  V30 22713 H 2199.04 -1.91424 2.59917 0
M  V30 22714 H 2198.1 0.187112 3.7994 0
M  V30 22715 H 2199.41 0.0259783 4.98793 0
M  V30 22716 H 2198.56 -2.23793 5.63916 0
M  V30 22717 H 2197.3 -2.1511 4.37697 0
M  V30 22718 H 2196.31 -0.136291 5.49631 0
M  V30 22719 H 2197.53 -0.24301 6.78665 0
M  V30 22720 H 2195.48 -2.38315 6.11181 0
M  V30 22721 H 2195.39 -1.28492 7.45001 0
M  V30 22722 H 2196.66 -2.47269 7.39242 0
M  V30 22723 N 2200.89 -1.55074 0.28101 0
M  V30 22724 C 2201.82 -2.25728 -0.597429 0
M  V30 22725 C 2202.8 -1.24954 -1.15415 0
M  V30 22726 O 2203.99 -1.53686 -1.1872 0
M  V30 22727 C 2201.12 -2.98286 -1.77884 0
M  V30 22728 C 2200.07 -4.06038 -1.35339 0
M  V30 22729 C 2199.4 -4.66203 -2.61838 0
M  V30 22730 C 2200.7 -5.19908 -0.499263 0
M  V30 22731 H 2202.39 -2.99399 -0.00819002 0
M  V30 22732 H 2199.94 -1.44 -0.00249909 0
M  V30 22733 H 2201.89 -3.46426 -2.39931 0
M  V30 22734 H 2200.61 -2.22159 -2.39401 0
M  V30 22735 H 2199.27 -3.58718 -0.756093 0
M  V30 22736 H 2198.92 -3.86738 -3.21625 0
M  V30 22737 H 2198.62 -5.38962 -2.3408 0
M  V30 22738 H 2200.14 -5.17095 -3.24723 0
M  V30 22739 H 2201.56 -5.64065 -1.02488 0
M  V30 22740 H 2199.96 -5.99266 -0.316319 0
M  V30 22741 H 2201.03 -4.82513 0.480544 0
M  V30 22742 N 2202.37 -0.00838561 -1.57598 0
M  V30 22743 C 2203.3 1.00865 -2.05813 0
M  V30 22744 C 2204.31 1.3018 -0.977602 0
M  V30 22745 O 2205.5 1.27009 -1.25423 0
M  V30 22746 C 2202.6 2.34133 -2.45021 0
M  V30 22747 C 2201.78 2.23636 -3.75907 0
M  V30 22748 C 2200.84 3.39663 -4.0189 0
M  V30 22749 O 2199.86 3.17474 -4.72439 0
M  V30 22750 N 2201.06 4.62787 -3.5044 0
M  V30 22751 H 2203.83 0.597407 -2.93685 0
M  V30 22752 H 2201.39 0.178824 -1.60909 0
M  V30 22753 H 2203.38 3.10542 -2.59511 0
M  V30 22754 H 2201.95 2.66969 -1.62623 0
M  V30 22755 H 2201.17 1.32084 -3.71413 0
M  V30 22756 H 2202.46 2.13804 -4.61698 0
M  V30 22757 H 2201.86 4.83711 -2.93326 0
M  V30 22758 H 2200.41 5.36434 -3.70246 0
M  V30 22759 N 2203.85 1.55365 0.264492 0
M  V30 22760 C 2205.09 1.78127 1.00251 0
M  V30 22761 C 2205.45 0.575049 1.83186 0
M  V30 22762 O 2206.65 0.681088 2.60028 0
M  V30 22763 C 2204.92 3.05507 1.85473 0
M  V30 22764 S 2206.48 3.49422 2.65424 0
M  V30 22765 H 2203.3 0.625785 0.337511 0
M  V30 22766 H 2205.9 1.93598 0.272077 0
M  V30 22767 H 2204.61 3.91382 1.23484 0
M  V30 22768 H 2204.14 2.92725 2.62822 0
M  V30 22769 H 2206.15 3.09366 3.87952 0
M  V30 22770 N 2205.33 -0.529387 1.48443 0
M  V30 22771 C 2206.74 -1.11132 1.50022 0
M  V30 22772 C 2207.09 -1.94329 0.270344 0
M  V30 22773 O 2206.21 -2.07254 -0.62247 0
M  V30 22774 C 2206.81 -2.02212 2.71838 0
M  V30 22775 C 2205.37 -2.55622 2.76287 0
M  V30 22776 C 2204.51 -1.32596 2.43544 0
M  V30 22777 H 2207.46 -0.314614 1.5555 0
M  V30 22778 H 2207.49 -2.86506 2.50389 0
M  V30 22779 H 2207 -1.41633 3.61333 0
M  V30 22780 H 2205.1 -3.19921 1.91001 0
M  V30 22781 H 2205.21 -2.94715 3.7773 0
M  V30 22782 H 2203.58 -1.64193 1.94712 0
M  V30 22783 H 2204.36 -0.737675 3.35281 0
M  V30 22784 N 2206.8 -1.37041 -0.778305 0
M  V30 22785 C 2208.08 -1.22426 -1.52549 0
M  V30 22786 C 2208.46 0.184927 -2.10288 0
M  V30 22787 O 2207.81 1.19183 -1.94955 0
M  V30 22788 C 2208.02 -2.31509 -2.6116 0
M  V30 22789 C 2209.37 -2.68727 -3.28741 0
M  V30 22790 O 2210.39 -2.30636 -2.71451 0
M  V30 22791 O 2209.25 -3.34328 -4.32304 0
M  V30 22792 H 2206.34 -0.477338 -0.675335 0
M  V30 22793 H 2208.89 -1.48803 -0.815833 0
M  V30 22794 H 2207.66 -3.25905 -2.16568 0
M  V30 22795 H 2207.28 -2.0656 -3.39733 0
M  V30 22796 N 2208.28 1.00373 -1.21503 0
M  V30 22797 C 2209.53 1.73825 -1.03098 0
M  V30 22798 C 2209.85 1.90056 0.436307 0
M  V30 22799 O 2209.12 1.45238 1.31464 0
M  V30 22800 H 2207.7 0.644009 -0.378498 0
M  V30 22801 H 2210.36 1.20947 -1.52833 0
M  V30 22802 H 2209.46 2.73692 -1.49996 0
M  V30 22803 N 2209.76 1.02298 1.19887 0
M  V30 22804 C 2210.99 0.734366 1.93108 0
M  V30 22805 C 2211.4 -0.709859 1.75379 0
M  V30 22806 O 2210.74 -1.49382 1.06915 0
M  V30 22807 C 2210.8 0.99833 3.4536 0
M  V30 22808 C 2210.47 2.43293 3.86856 0
M  V30 22809 C 2211.46 3.41404 3.92096 0
M  V30 22810 C 2209.15 2.77537 4.18663 0
M  V30 22811 C 2211.14 4.71817 4.28565 0
M  V30 22812 C 2208.83 4.08161 4.54806 0
M  V30 22813 C 2209.83 5.05111 4.5973 0
M  V30 22814 O 2209.52 6.33397 4.95039 0
M  V30 22815 H 2209.25 0.268467 0.620404 0
M  V30 22816 H 2211.8 1.36883 1.53141 0
M  V30 22817 H 2210.03 0.306713 3.85482 0
M  V30 22818 H 2211.72 0.700304 3.99813 0
M  V30 22819 H 2212.49 3.16286 3.67679 0
M  V30 22820 H 2208.37 2.02757 4.14018 0
M  V30 22821 H 2211.91 5.47487 4.32323 0
M  V30 22822 H 2207.81 4.33055 4.78679 0
M  V30 22823 H 2208.57 6.37781 5.13009 0
M  V30 22824 N 2211.24 -1.35782 0.800057 0
M  V30 22825 C 2212.2 -2.28221 0.211605 0
M  V30 22826 C 2213.2 -1.49297 -0.597254 0
M  V30 22827 O 2214.39 -1.69143 -0.416692 0
M  V30 22828 C 2211.52 -3.33514 -0.705787 0
M  V30 22829 H 2212.72 -2.81774 1.02682 0
M  V30 22830 H 2210.27 -1.45527 0.570236 0
M  V30 22831 H 2211 -2.85136 -1.54493 0
M  V30 22832 H 2210.79 -3.91892 -0.127586 0
M  V30 22833 H 2212.28 -4.02521 -1.11204 0
M  V30 22834 N 2212.72 -0.552988 -1.4758 0
M  V30 22835 C 2213.96 -0.025235 -2.01684 0
M  V30 22836 C 2214.28 1.33112 -1.4332 0
M  V30 22837 O 2215.48 1.94855 -1.89061 0
M  V30 22838 C 2213.94 0.00535725 -3.599 0
M  V30 22839 C 2213.55 -1.3475 -4.27255 0
M  V30 22840 C 2215.29 0.480725 -4.21769 0
M  V30 22841 C 2213.2 -1.27624 -5.77465 0
M  V30 22842 H 2212.13 -0.00566359 -0.753979 0
M  V30 22843 H 2214.78 -0.70021 -1.69615 0
M  V30 22844 H 2213.16 0.745892 -3.88912 0
M  V30 22845 H 2214.34 -2.10541 -4.09889 0
M  V30 22846 H 2212.65 -1.76046 -3.77355 0
M  V30 22847 H 2215.25 0.552366 -5.31839 0
M  V30 22848 H 2215.59 1.49177 -3.88654 0
M  V30 22849 H 2216.12 -0.204822 -3.97272 0
M  V30 22850 H 2212.86 -2.26315 -6.15192 0
M  V30 22851 H 2212.38 -0.560065 -5.97179 0
M  V30 22852 H 2214.06 -0.976533 -6.39588 0
M  V30 22853 N 2214.19 1.54923 -0.28923 0
M  V30 22854 C 2215.44 1.99505 0.322844 0
M  V30 22855 C 2215.76 1.17913 1.55311 0
M  V30 22856 O 2215.03 0.272131 1.94001 0
M  V30 22857 H 2213.61 0.736924 0.122278 0
M  V30 22858 H 2216.27 1.90796 -0.397836 0
M  V30 22859 H 2215.37 3.06219 0.603007 0
M  V30 22860 N 2215.67 0.0167433 1.57591 0
M  V30 22861 C 2216.9 -0.678685 1.95981 0
M  V30 22862 C 2217.32 -1.65574 0.892575 0
M  V30 22863 O 2216.68 -1.80697 -0.14774 0
M  V30 22864 C 2216.73 -1.37221 3.33471 0
M  V30 22865 O 2215.83 -2.48717 3.28959 0
M  V30 22866 H 2215.17 -0.179269 0.639342 0
M  V30 22867 H 2217.7 0.0749162 2.04463 0
M  V30 22868 H 2217.71 -1.73184 3.6942 0
M  V30 22869 H 2216.39 -0.655935 4.10695 0
M  V30 22870 H 2214.96 -2.14958 3.04709 0
M  V30 22871 N 2217.15 -1.55503 -0.256249 0
M  V30 22872 C 2218.06 -1.92649 -1.33879 0
M  V30 22873 C 2219.08 -0.825754 -1.53158 0
M  V30 22874 O 2220.25 -1.12632 -1.66961 0
M  V30 22875 C 2217.32 -2.20548 -2.67506 0
M  V30 22876 C 2216.38 -3.44001 -2.5683 0
M  V30 22877 C 2215.61 -3.70559 -3.84085 0
M  V30 22878 O 2215.83 -2.99344 -4.8554 0
M  V30 22879 O 2214.77 -4.64091 -3.8328 0
M  V30 22880 H 2218.59 -2.84835 -1.05369 0
M  V30 22881 H 2216.18 -1.42264 -0.456212 0
M  V30 22882 H 2218.06 -2.39842 -3.46488 0
M  V30 22883 H 2216.74 -1.31542 -2.95768 0
M  V30 22884 H 2215.64 -3.30024 -1.76167 0
M  V30 22885 H 2216.98 -4.3328 -2.33516 0
M  V30 22886 N 2218.63 0.521507 -1.48721 0
M  V30 22887 C 2219.87 1.28726 -1.58773 0
M  V30 22888 C 2220.23 1.90239 -0.259428 0
M  V30 22889 O 2221.43 2.67771 -0.234989 0
M  V30 22890 C 2219.7 2.34119 -2.70043 0
M  V30 22891 S 2221.26 3.20306 -2.99915 0
M  V30 22892 H 2218.08 0.437757 -0.560259 0
M  V30 22893 H 2220.68 0.593155 -1.86285 0
M  V30 22894 H 2219.39 1.87423 -3.65104 0
M  V30 22895 H 2218.92 3.08225 -2.4446 0
M  V30 22896 H 2220.93 4.34374 -2.39862 0
M  V30 22897 N 2220.11 1.37452 0.771027 0
M  V30 22898 C 2221.07 1.33097 1.86596 0
M  V30 22899 C 2222.07 0.234873 1.59075 0
M  V30 22900 O 2223.26 0.490762 1.67144 0
M  V30 22901 C 2220.39 1.06779 3.23745 0
M  V30 22902 H 2221.58 2.30492 1.91869 0
M  V30 22903 H 2219.14 1.22491 0.970855 0
M  V30 22904 H 2219.87 0.099186 3.24148 0
M  V30 22905 H 2219.66 1.86118 3.45112 0
M  V30 22906 H 2221.15 1.06384 4.03822 0
M  V30 22907 N 2221.58 -0.997276 1.22033 0
M  V30 22908 C 2222.81 -1.77178 1.06844 0
M  V30 22909 C 2223.23 -1.8491 -0.381292 0
M  V30 22910 O 2222.58 -1.31607 -1.26435 0
M  V30 22911 C 2222.64 -3.20708 1.6682 0
M  V30 22912 O 2222.36 -3.13403 3.06121 0
M  V30 22913 C 2223.86 -4.14625 1.56846 0
M  V30 22914 H 2221.08 -0.556572 0.374792 0
M  V30 22915 H 2223.62 -1.25407 1.61535 0
M  V30 22916 H 2221.78 -3.69561 1.16203 0
M  V30 22917 H 2222.19 -4.03634 3.34933 0
M  V30 22918 H 2223.66 -5.13103 2.03541 0
M  V30 22919 H 2224.14 -4.3606 0.524231 0
M  V30 22920 H 2224.75 -3.71666 2.06747 0
M  V30 22921 N 2223.06 -1.02932 -1.19343 0
M  V30 22922 C 2224.29 -0.745545 -1.93537 0
M  V30 22923 C 2224.71 0.68948 -1.75008 0
M  V30 22924 O 2224.07 1.47609 -1.05268 0
M  V30 22925 C 2224.12 -1.10245 -3.43334 0
M  V30 22926 O 2223.22 -0.221361 -4.11805 0
M  V30 22927 H 2222.56 -0.275415 -0.604188 0
M  V30 22928 H 2225.09 -1.37612 -1.51407 0
M  V30 22929 H 2225.1 -1.05954 -3.94002 0
M  V30 22930 H 2223.78 -2.14792 -3.56142 0
M  V30 22931 H 2222.36 -0.322907 -3.71499 0
M  V30 22932 N 2224.54 1.35356 -0.807246 0
M  V30 22933 C 2225.78 2.00575 -0.393569 0
M  V30 22934 C 2226.14 1.62648 1.02027 0
M  V30 22935 O 2227.35 2.20592 1.53599 0
M  V30 22936 C 2225.62 3.52792 -0.572079 0
M  V30 22937 S 2227.18 4.38093 -0.248922 0
M  V30 22938 H 2223.99 0.695118 -0.149438 0
M  V30 22939 H 2226.6 1.64933 -1.04964 0
M  V30 22940 H 2225.3 3.77882 -1.60104 0
M  V30 22941 H 2224.83 3.93275 0.0992899 0
M  V30 22942 H 2226.85 4.87154 0.943167 0
M  V30 22943 N 2226.02 0.560807 1.47284 0
M  V30 22944 C 2226.95 -0.173064 2.32858 0
M  V30 22945 C 2227.93 -0.905255 1.44011 0
M  V30 22946 O 2229.11 -0.885016 1.72862 0
M  V30 22947 C 2226.24 -1.20127 3.25863 0
M  V30 22948 C 2225.2 -0.585313 4.23979 0
M  V30 22949 C 2224.52 -1.71841 5.06335 0
M  V30 22950 C 2225.82 0.46327 5.20241 0
M  V30 22951 H 2227.52 0.541359 2.94465 0
M  V30 22952 H 2225.06 0.261789 1.416 0
M  V30 22953 H 2227.02 -1.72286 3.84572 0
M  V30 22954 H 2225.74 -1.94568 2.62318 0
M  V30 22955 H 2224.4 -0.0849896 3.66501 0
M  V30 22956 H 2224.05 -2.45195 4.3919 0
M  V30 22957 H 2223.75 -1.31203 5.72765 0
M  V30 22958 H 2225.27 -2.24319 5.67902 0
M  V30 22959 H 2226.69 0.0276027 5.73293 0
M  V30 22960 H 2225.08 0.788731 5.94894 0
M  V30 22961 H 2226.15 1.35782 4.65501 0
M  V30 22962 N 2227.5 -1.54768 0.297442 0
M  V30 22963 C 2228.77 -1.92149 -0.365813 0
M  V30 22964 C 2229.15 -1.22427 -1.71973 0
M  V30 22965 O 2228.5 -0.358779 -2.25666 0
M  V30 22966 C 2228.71 -3.45628 -0.483995 0
M  V30 22967 C 2230.06 -4.17806 -0.756521 0
M  V30 22968 O 2231.08 -3.51643 -0.567945 0
M  V30 22969 O 2229.94 -5.34931 -1.11853 0
M  V30 22970 H 2227.04 -0.801468 -0.203905 0
M  V30 22971 H 2229.58 -1.66151 0.345239 0
M  V30 22972 H 2228.35 -3.88492 0.467933 0
M  V30 22973 H 2227.98 -3.77649 -1.24365 0
M  V30 22974 N 2228.97 -0.0251005 -1.5758 0
M  V30 22975 C 2229.92 0.967164 -2.0647 0
M  V30 22976 C 2230.91 1.28795 -0.964399 0
M  V30 22977 O 2232.1 1.27473 -1.22799 0
M  V30 22978 C 2229.23 2.25092 -2.59207 0
M  V30 22979 C 2228.32 1.95868 -3.7616 0
M  V30 22980 N 2228.71 1.36897 -4.86922 0
M  V30 22981 C 2227 2.2588 -3.8457 0
M  V30 22982 C 2227.71 1.24714 -5.68174 0
M  V30 22983 N 2226.68 1.74129 -5.14956 0
M  V30 22984 H 2230.48 0.506125 -2.89509 0
M  V30 22985 H 2228 0.180011 -1.61399 0
M  V30 22986 H 2229.99 2.97046 -2.92522 0
M  V30 22987 H 2228.65 2.71826 -1.77597 0
M  V30 22988 H 2229.67 1.0445 -5.07258 0
M  V30 22989 H 2226.34 2.75316 -3.13859 0
M  V30 22990 H 2227.73 0.791488 -6.67222 0
M  V30 22991 N 2230.45 1.55637 0.247999 0
M  V30 22992 C 2231.4 1.91047 1.3268 0
M  V30 22993 C 2232.39 0.789427 1.49881 0
M  V30 22994 O 2233.6 0.974034 1.51369 0
M  V30 22995 H 2229.98 0.606742 0.444261 0
M  V30 22996 H 2231.95 2.81117 1.0008 0
M  V30 22997 C 2230.7 2.22069 2.67546 0
M  V30 22998 H 2230.02 3.0783 2.55109 0
M  V30 22999 H 2231.46 2.50749 3.41908 0
M  V30 23000 C 2229.92 1.03666 3.20554 0
M  V30 23001 O 2230.45 0.284086 4.00694 0
M  V30 23002 N 2228.65 0.827579 2.78567 0
M  V30 23003 H 2228.2 1.44127 2.13507 0
M  V30 23004 H 2228.16 0.0370356 3.14378 0
M  V30 23005 N 2231.93 -0.513613 1.48996 0
M  V30 23006 C 2233.16 -1.29759 1.61794 0
M  V30 23007 C 2233.58 -1.85936 0.284508 0
M  V30 23008 O 2232.94 -1.65234 -0.746156 0
M  V30 23009 C 2232.99 -2.41268 2.67997 0
M  V30 23010 O 2232.09 -3.44768 2.26294 0
M  V30 23011 H 2231.43 -0.383621 0.54197 0
M  V30 23012 H 2233.96 -0.616273 1.95098 0
M  V30 23013 H 2233.97 -2.87216 2.89777 0
M  V30 23014 H 2232.65 -1.99743 3.64795 0
M  V30 23015 H 2231.22 -3.04825 2.14793 0
M  V30 23016 N 2233.41 -1.37859 -0.763727 0
M  V30 23017 C 2234.32 -1.36481 -1.90814 0
M  V30 23018 C 2235.34 -0.263278 -1.71997 0
M  V30 23019 O 2236.51 -0.500013 -1.95094 0
M  V30 23020 C 2233.58 -1.1787 -3.26048 0
M  V30 23021 C 2232.64 -2.37736 -3.57463 0
M  V30 23022 C 2231.87 -2.20003 -4.86245 0
M  V30 23023 O 2232.09 -1.18846 -5.57882 0
M  V30 23024 O 2231.03 -3.0837 -5.16906 0
M  V30 23025 H 2234.85 -2.32887 -1.94929 0
M  V30 23026 H 2232.44 -1.18672 -0.907598 0
M  V30 23027 H 2234.32 -1.09511 -4.06922 0
M  V30 23028 H 2233 -0.245429 -3.22768 0
M  V30 23029 H 2231.9 -2.51668 -2.76792 0
M  V30 23030 H 2233.24 -3.29658 -3.65494 0
M  V30 23031 N 2234.89 0.990791 -1.22561 0
M  V30 23032 C 2236.11 1.77144 -1.07865 0
M  V30 23033 C 2236.54 1.84497 0.366414 0
M  V30 23034 O 2235.9 1.29898 1.26476 0
M  V30 23035 C 2235.94 3.18178 -1.69691 0
M  V30 23036 O 2235.05 4.01261 -0.952017 0
M  V30 23037 H 2234.39 0.545404 -0.378722 0
M  V30 23038 H 2236.92 1.24447 -1.62401 0
M  V30 23039 H 2236.93 3.68799 -1.74502 0
M  V30 23040 H 2235.6 3.12141 -2.74847 0
M  V30 23041 H 2234.18 3.5979 -0.980075 0
M  V30 23042 N 2236.37 1.03564 1.18795 0
M  V30 23043 C 2237.61 0.731269 1.87977 0
M  V30 23044 C 2237.93 -0.743639 1.80913 0
M  V30 23045 O 2239.13 -1.16132 2.45409 0
M  V30 23046 C 2237.59 1.25774 3.37207 0
M  V30 23047 C 2237.2 2.76092 3.52814 0
M  V30 23048 C 2238.94 1.02967 4.11823 0
M  V30 23049 C 2236.85 3.22123 4.95975 0
M  V30 23050 H 2235.78 0.269848 0.704058 0
M  V30 23051 H 2238.43 1.25081 1.34264 0
M  V30 23052 H 2236.81 0.66608 3.90358 0
M  V30 23053 H 2237.99 3.40972 3.09959 0
M  V30 23054 H 2236.3 2.97254 2.91597 0
M  V30 23055 H 2238.9 1.34878 5.17409 0
M  V30 23056 H 2239.24 -0.0332814 4.16287 0
M  V30 23057 H 2239.77 1.58569 3.6483 0
M  V30 23058 H 2236.51 4.27777 4.96676 0
M  V30 23059 H 2236.03 2.61975 5.39564 0
M  V30 23060 H 2237.71 3.15854 5.64664 0
M  V30 23061 N 2237.84 -1.34926 0.814413 0
M  V30 23062 C 2239.09 -1.97796 0.394906 0
M  V30 23063 C 2239.41 -1.65313 -1.04552 0
M  V30 23064 O 2240.61 -2.21607 -1.56852 0
M  V30 23065 C 2239.07 -3.53886 0.655165 0
M  V30 23066 C 2238.68 -3.95272 2.10865 0
M  V30 23067 C 2240.42 -4.23429 0.301403 0
M  V30 23068 C 2238.33 -5.4424 2.31425 0
M  V30 23069 H 2237.26 -0.740136 0.143926 0
M  V30 23070 H 2239.91 -1.53886 0.999571 0
M  V30 23071 H 2238.29 -3.95995 -0.0195557 0
M  V30 23072 H 2239.46 -3.64293 2.82183 0
M  V30 23073 H 2237.78 -3.38642 2.42303 0
M  V30 23074 H 2240.38 -5.32944 0.432962 0
M  V30 23075 H 2240.72 -4.09429 -0.753238 0
M  V30 23076 H 2241.25 -3.86768 0.930356 0
M  V30 23077 H 2237.99 -5.63216 3.35363 0
M  V30 23078 H 2237.51 -5.76761 1.6464 0
M  V30 23079 H 2239.19 -6.10807 2.13362 0
M  V30 23080 N 2239.32 -0.56861 -1.46985 0
M  V30 23081 C 2240.25 0.160712 -2.32946 0
M  V30 23082 C 2241.23 0.897605 -1.44489 0
M  V30 23083 O 2242.42 0.875836 -1.73328 0
M  V30 23084 C 2239.55 1.18397 -3.26496 0
M  V30 23085 C 2238.5 0.56282 -4.24283 0
M  V30 23086 C 2237.83 1.69154 -5.07239 0
M  V30 23087 C 2239.13 -0.490853 -5.19988 0
M  V30 23088 H 2240.82 -0.556968 -2.94174 0
M  V30 23089 H 2238.37 -0.269295 -1.4146 0
M  V30 23090 H 2240.32 1.70244 -3.8548 0
M  V30 23091 H 2239.04 1.93174 -2.63346 0
M  V30 23092 H 2237.7 0.0655519 -3.66541 0
M  V30 23093 H 2237.35 2.42863 -4.40485 0
M  V30 23094 H 2237.05 1.28164 -5.73452 0
M  V30 23095 H 2238.58 2.21304 -5.69084 0
M  V30 23096 H 2239.99 -0.0580055 -5.73271 0
M  V30 23097 H 2238.39 -0.820269 -5.94467 0
M  V30 23098 H 2239.46 -1.38248 -4.64775 0
M  V30 23099 N 2240.8 1.54608 -0.305646 0
M  V30 23100 C 2242.21 1.85771 0.186065 0
M  V30 23101 C 2242.56 1.22753 1.53056 0
M  V30 23102 O 2241.69 0.526929 2.09887 0
M  V30 23103 C 2242.28 3.37045 0.34439 0
M  V30 23104 C 2240.84 3.68223 0.780319 0
M  V30 23105 C 2239.99 2.77087 -0.108603 0
M  V30 23106 H 2242.94 1.49712 -0.526512 0
M  V30 23107 H 2242.96 3.61799 1.17822 0
M  V30 23108 H 2242.47 3.82881 -0.634302 0
M  V30 23109 H 2240.57 3.27907 1.7694 0
M  V30 23110 H 2240.69 4.75372 0.596488 0
M  V30 23111 H 2239.05 2.51331 0.412887 0
M  V30 23112 H 2239.83 3.25745 -1.08373 0
M  V30 23113 N 2242.28 0.033457 1.57564 0
M  V30 23114 C 2243.21 -0.98183 2.05998 0
M  V30 23115 C 2244.19 -1.31478 0.956671 0
M  V30 23116 O 2245.37 -1.43071 1.22732 0
M  V30 23117 C 2242.5 -2.30069 2.48568 0
M  V30 23118 C 2241.55 -2.12204 3.69962 0
M  V30 23119 S 2242.38 -1.41683 5.16417 0
M  V30 23120 C 2243.53 -2.7493 5.62285 0
M  V30 23121 H 2243.77 -0.56956 2.91793 0
M  V30 23122 H 2241.3 -0.178349 1.53366 0
M  V30 23123 H 2243.26 -3.05887 2.73758 0
M  V30 23124 H 2241.92 -2.68428 1.63111 0
M  V30 23125 H 2241.11 -3.09715 3.97609 0
M  V30 23126 H 2240.71 -1.44529 3.44946 0
M  V30 23127 H 2243.01 -3.71155 5.66789 0
M  V30 23128 H 2243.95 -2.51942 6.61764 0
M  V30 23129 H 2244.36 -2.80376 4.89949 0
M  V30 23130 N 2243.76 -1.55766 -0.239741 0
M  V30 23131 C 2244.7 -1.91748 -1.31665 0
M  V30 23132 C 2245.7 -0.797365 -1.49461 0
M  V30 23133 O 2246.9 -0.982047 -1.5085 0
M  V30 23134 H 2243.28 -0.60909 -0.441037 0
M  V30 23135 H 2245.25 -2.81644 -0.985873 0
M  V30 23136 C 2244 -2.23484 -2.66364 0
M  V30 23137 H 2243.32 -3.09179 -2.53473 0
M  V30 23138 H 2244.76 -2.52559 -3.40573 0
M  V30 23139 C 2243.22 -1.05364 -3.2 0
M  V30 23140 O 2243.75 -0.305332 -4.00538 0
M  V30 23141 N 2241.96 -0.842341 -2.78124 0
M  V30 23142 H 2241.5 -1.45257 -2.1274 0
M  V30 23143 H 2241.46 -0.0537073 -3.14354 0
M  V30 23144 N 2245.23 0.505704 -1.49266 0
M  V30 23145 C 2246.48 1.26199 -1.5875 0
M  V30 23146 C 2246.81 1.92296 -0.271261 0
M  V30 23147 O 2246.09 1.80491 0.724799 0
M  V30 23148 C 2246.37 2.33263 -2.74336 0
M  V30 23149 C 2246.22 1.71698 -4.1574 0
M  V30 23150 C 2247.54 3.3486 -2.85581 0
M  V30 23151 H 2244.66 0.457468 -0.577834 0
M  V30 23152 H 2247.3 0.560865 -1.81533 0
M  V30 23153 H 2245.45 2.93063 -2.55042 0
M  V30 23154 H 2247.13 1.15761 -4.46539 0
M  V30 23155 H 2245.37 1.02128 -4.21607 0
M  V30 23156 H 2246.04 2.49332 -4.92481 0
M  V30 23157 H 2248.52 2.85045 -3.03132 0
M  V30 23158 H 2247.39 4.0714 -3.68142 0
M  V30 23159 H 2247.65 3.969 -1.94739 0
M  V30 23160 N 2246.71 1.38262 0.756405 0
M  V30 23161 C 2247.94 1.37542 1.54563 0
M  V30 23162 C 2248.36 -0.0354999 1.88767 0
M  V30 23163 O 2247.71 -1.00137 1.52574 0
M  V30 23164 C 2247.76 2.22838 2.8465 0
M  V30 23165 O 2247.48 3.58434 2.51906 0
M  V30 23166 C 2248.99 2.30268 3.78803 0
M  V30 23167 H 2246.21 0.470561 0.478344 0
M  V30 23168 H 2248.75 1.81804 0.936349 0
M  V30 23169 H 2246.9 1.82046 3.41962 0
M  V30 23170 H 2247.32 4.03314 3.35318 0
M  V30 23171 H 2248.79 2.94241 4.6704 0
M  V30 23172 H 2249.27 1.31552 4.19035 0
M  V30 23173 H 2249.88 2.71439 3.27416 0
M  V30 23174 N 2248.19 -0.984277 1.23084 0
M  V30 23175 C 2249.44 -1.72759 1.06217 0
M  V30 23176 C 2249.77 -1.90024 -0.40055 0
M  V30 23177 O 2249.04 -1.44969 -1.2967 0
M  V30 23178 C 2249.33 -3.12814 1.7838 0
M  V30 23179 C 2249.18 -3.03143 3.32301 0
M  V30 23180 C 2250.5 -4.12159 1.54316 0
M  V30 23181 H 2247.62 -0.627054 0.387262 0
M  V30 23182 H 2250.26 -1.14614 1.51538 0
M  V30 23183 H 2248.41 -3.62454 1.39854 0
M  V30 23184 H 2250.08 -2.61057 3.80325 0
M  V30 23185 H 2248.33 -2.39741 3.61534 0
M  V30 23186 H 2249 -4.02289 3.77979 0
M  V30 23187 H 2251.47 -3.7131 1.87797 0
M  V30 23188 H 2250.35 -5.08254 2.0729 0
M  V30 23189 H 2250.61 -4.39512 0.477649 0
M  V30 23190 N 2249.67 -1.04192 -1.18244 0
M  V30 23191 C 2251.08 -0.761391 -1.40268 0
M  V30 23192 C 2251.28 0.648544 -1.90778 0
M  V30 23193 O 2250.34 1.41255 -2.09293 0
M  V30 23194 C 2251.65 -1.80855 -2.40233 0
M  V30 23195 C 2253.2 -1.8296 -2.53958 0
M  V30 23196 C 2253.68 -2.86671 -3.57189 0
M  V30 23197 N 2255.17 -2.8557 -3.64697 0
M  V30 23198 C 2255.9 -3.62468 -4.44303 0
M  V30 23199 N 2255.4 -4.49121 -5.27506 0
M  V30 23200 N 2257.19 -3.50951 -4.39078 0
M  V30 23201 H 2249.34 -1.95177 -0.837848 0
M  V30 23202 H 2251.61 -0.844567 -0.430593 0
M  V30 23203 H 2251.31 -2.81995 -2.10171 0
M  V30 23204 H 2251.19 -1.64174 -3.39598 0
M  V30 23205 H 2253.57 -0.824905 -2.83336 0
M  V30 23206 H 2253.65 -2.03718 -1.54702 0
M  V30 23207 H 2253.3 -3.8732 -3.28551 0
M  V30 23208 H 2253.23 -2.63168 -4.56125 0
M  V30 23209 H 2255.72 -2.22732 -3.05285 0
M  V30 23210 H 2256.03 -5.04504 -5.85402 0
M  V30 23211 H 2254.38 -4.53187 -5.26922 0
M  V30 23212 H 2257.57 -2.82657 -3.73125 0
M  V30 23213 H 2257.74 -4.1113 -5.00876 0
M  V30 23214 N 2251.15 1.34492 -0.821557 0
M  V30 23215 C 2252.42 1.92768 -0.331624 0
M  V30 23216 C 2252.8 1.74983 1.18085 0
M  V30 23217 O 2252.15 1.12775 1.98731 0
M  V30 23218 C 2252.36 3.40637 -0.759458 0
M  V30 23219 C 2253.71 4.17788 -0.757507 0
M  V30 23220 O 2254.73 3.49215 -0.701951 0
M  V30 23221 O 2253.59 5.40169 -0.829456 0
M  V30 23222 H 2250.69 0.822059 -0.0902646 0
M  V30 23223 H 2253.23 1.43475 -0.906256 0
M  V30 23224 H 2252 3.47376 -1.80126 0
M  V30 23225 H 2251.63 3.97276 -0.160447 0
M  V30 23226 N 2252.62 0.576397 1.46681 0
M  V30 23227 C 2253.87 0.057318 2.01619 0
M  V30 23228 C 2254.19 -1.30815 1.45419 0
M  V30 23229 O 2255.39 -1.91822 1.92137 0
M  V30 23230 C 2253.85 0.0519003 3.59863 0
M  V30 23231 C 2253.46 1.4153 4.25057 0
M  V30 23232 C 2255.2 -0.413565 4.22481 0
M  V30 23233 C 2253.11 1.36795 5.75362 0
M  V30 23234 H 2252.04 0.017658 0.753793 0
M  V30 23235 H 2254.69 0.727106 1.6848 0
M  V30 23236 H 2253.07 -0.683925 3.90049 0
M  V30 23237 H 2254.24 2.17036 4.06488 0
M  V30 23238 H 2252.56 1.82027 3.74507 0
M  V30 23239 H 2255.16 -0.467685 5.32651 0
M  V30 23240 H 2255.5 -1.42975 3.90978 0
M  V30 23241 H 2256.03 0.267999 3.96896 0
M  V30 23242 H 2252.77 2.36074 6.11514 0
M  V30 23243 H 2252.29 0.655 5.96213 0
M  V30 23244 H 2253.97 1.07816 6.37953 0
M  V30 23245 N 2254.1 -1.54444 0.313841 0
M  V30 23246 C 2255.51 -1.85867 -0.176211 0
M  V30 23247 C 2255.86 -1.23563 -1.52402 0
M  V30 23248 O 2254.99 -0.538053 -2.09604 0
M  V30 23249 C 2255.58 -3.37223 -0.32651 0
M  V30 23250 C 2254.14 -3.68631 -0.760781 0
M  V30 23251 C 2253.29 -2.77026 0.123296 0
M  V30 23252 H 2256.24 -1.4943 0.534444 0
M  V30 23253 H 2256.26 -3.62418 -1.15902 0
M  V30 23254 H 2255.77 -3.8254 0.654598 0
M  V30 23255 H 2253.88 -3.28841 -1.75198 0
M  V30 23256 H 2253.99 -4.75682 -0.571269 0
M  V30 23257 H 2252.35 -2.51547 -0.399552 0
M  V30 23258 H 2253.14 -3.25166 1.10099 0
M  V30 23259 N 2255.58 -0.0418125 -1.57545 0
M  V30 23260 C 2256.53 0.945211 -2.07484 0
M  V30 23261 C 2257.51 1.27765 -0.978005 0
M  V30 23262 O 2258.71 1.26164 -1.24144 0
M  V30 23263 C 2255.84 2.2233 -2.6158 0
M  V30 23264 C 2254.92 1.91867 -3.78217 0
M  V30 23265 N 2255.31 1.31725 -4.88346 0
M  V30 23266 C 2253.61 2.21789 -3.86944 0
M  V30 23267 C 2254.31 1.1868 -5.69465 0
M  V30 23268 N 2253.29 1.68657 -5.16774 0
M  V30 23269 H 2257.09 0.47539 -2.9003 0
M  V30 23270 H 2254.6 0.162883 -1.61581 0
M  V30 23271 H 2256.6 2.93927 -2.95656 0
M  V30 23272 H 2255.26 2.69927 -1.8047 0
M  V30 23273 H 2256.27 0.990639 -5.08337 0
M  V30 23274 H 2252.95 2.71972 -3.16761 0
M  V30 23275 H 2254.34 0.720676 -6.68024 0
M  V30 23276 N 2257.06 1.55891 0.231477 0
M  V30 23277 C 2258.3 1.79619 0.954398 0
M  V30 23278 C 2258.66 0.613232 1.82366 0
M  V30 23279 O 2257.95 -0.393061 1.87525 0
M  V30 23280 C 2258.15 3.06653 1.83571 0
M  V30 23281 C 2257.98 4.37192 1.05326 0
M  V30 23282 C 2256.75 4.99671 0.752162 0
M  V30 23283 C 2258.94 5.12555 0.423354 0
M  V30 23284 N 2256.93 6.13877 -0.0527349 0
M  V30 23285 C 2258.3 6.19514 -0.245395 0
M  V30 23286 C 2260.35 4.96769 0.335379 0
M  V30 23287 C 2259.05 7.12403 -0.993691 0
M  V30 23288 C 2261.08 5.9005 -0.399424 0
M  V30 23289 C 2260.44 6.96428 -1.05675 0
M  V30 23290 H 2256.54 0.709037 0.329833 0
M  V30 23291 H 2259.13 1.93382 0.226138 0
M  V30 23292 H 2257.3 2.94191 2.53587 0
M  V30 23293 H 2259.03 3.18613 2.49536 0
M  V30 23294 H 2255.78 4.61407 1.06775 0
M  V30 23295 H 2256.21 6.75544 -0.443728 0
M  V30 23296 H 2260.85 4.14588 0.829238 0
M  V30 23297 H 2258.57 7.94073 -1.4991 0
M  V30 23298 H 2262.15 5.79912 -0.468367 0
M  V30 23299 H 2261.03 7.67364 -1.61626 0
M  V30 23300 N 2258.54 -0.497781 1.49532 0
M  V30 23301 C 2259.47 -1.60754 1.69353 0
M  V30 23302 C 2260.45 -1.61226 0.542246 0
M  V30 23303 O 2261.63 -1.77915 0.778448 0
M  V30 23304 C 2258.76 -2.99223 1.76303 0
M  V30 23305 C 2257.72 -3.13617 2.91253 0
M  V30 23306 C 2257.04 -4.53469 2.8332 0
M  V30 23307 C 2258.34 -2.93339 4.32145 0
M  V30 23308 H 2260.04 -1.4442 2.62265 0
M  V30 23309 H 2257.58 -0.693345 1.26209 0
M  V30 23310 H 2259.54 -3.76762 1.88756 0
M  V30 23311 H 2258.26 -3.16652 0.799927 0
M  V30 23312 H 2256.92 -2.38504 2.78409 0
M  V30 23313 H 2256.57 -4.67779 1.8491 0
M  V30 23314 H 2256.27 -4.6404 3.60473 0
M  V30 23315 H 2257.79 -5.33064 2.97784 0
M  V30 23316 H 2259.2 -3.60645 4.45655 0
M  V30 23317 H 2257.6 -3.15378 5.10545 0
M  V30 23318 H 2258.67 -1.89433 4.46367 0
M  V30 23319 N 2260.01 -1.38661 -0.749062 0
M  V30 23320 C 2260.96 -1.36376 -1.88426 0
M  V30 23321 C 2261.96 -0.248959 -1.67561 0
M  V30 23322 O 2263.16 -0.418241 -1.75074 0
M  V30 23323 H 2259.54 -0.425541 -0.620015 0
M  V30 23324 H 2261.51 -2.3216 -1.87469 0
M  V30 23325 C 2260.26 -1.2102 -3.25959 0
M  V30 23326 H 2259.58 -2.06065 -3.42603 0
M  V30 23327 H 2261.02 -1.23476 -4.05623 0
M  V30 23328 C 2259.48 0.0825349 -3.36799 0
M  V30 23329 O 2260.01 1.05791 -3.87519 0
M  V30 23330 N 2258.22 0.140888 -2.90258 0
M  V30 23331 H 2257.76 -0.653521 -2.49172 0
M  V30 23332 H 2257.72 1.0054 -2.97891 0
M  V30 23333 N 2261.49 0.977736 -1.23605 0
M  V30 23334 C 2262.9 1.53396 -1.06427 0
M  V30 23335 C 2263.26 1.92727 0.367544 0
M  V30 23336 O 2262.38 1.76319 1.25462 0
M  V30 23337 C 2262.98 2.78749 -1.92573 0
M  V30 23338 C 2261.53 3.30762 -1.79648 0
M  V30 23339 C 2260.68 2.03735 -1.88115 0
M  V30 23340 H 2263.63 0.797128 -1.37228 0
M  V30 23341 H 2263.65 3.51702 -1.45209 0
M  V30 23342 H 2263.17 2.50092 -2.96775 0
M  V30 23343 H 2261.27 3.64293 -0.782389 0
M  V30 23344 H 2261.38 4.0034 -2.63181 0
M  V30 23345 H 2259.74 2.17991 -1.31726 0
M  V30 23346 H 2260.53 1.77456 -2.93878 0
M  V30 23347 N 2262.97 1.04818 1.1769 0
M  V30 23348 C 2264.2 0.776288 1.91785 0
M  V30 23349 C 2264.61 -0.667546 1.76605 0
M  V30 23350 O 2263.97 -1.45571 1.1007 0
M  V30 23351 C 2264.02 1.14269 3.42965 0
M  V30 23352 O 2263.74 2.52984 3.57674 0
M  V30 23353 C 2265.24 0.896388 4.34143 0
M  V30 23354 H 2262.46 0.28253 0.60862 0
M  V30 23355 H 2265.01 1.39785 1.49266 0
M  V30 23356 H 2263.16 0.565942 3.83244 0
M  V30 23357 H 2263.58 2.67236 4.51315 0
M  V30 23358 H 2265.05 1.20254 5.38742 0
M  V30 23359 H 2265.53 -0.168559 4.38876 0
M  V30 23360 H 2266.13 1.45679 3.99572 0
M  V30 23361 N 2264.45 -1.34055 0.828678 0
M  V30 23362 C 2265.87 -1.51057 0.515161 0
M  V30 23363 C 2266.07 -1.77186 -0.959549 0
M  V30 23364 O 2265.12 -1.82615 -1.74379 0
M  V30 23365 C 2266.43 -2.67181 1.37968 0
M  V30 23366 C 2267.98 -2.81064 1.3774 0
M  V30 23367 C 2268.46 -4.00237 2.22653 0
M  V30 23368 N 2269.95 -4.07454 2.20307 0
M  V30 23369 C 2270.68 -4.98837 2.82753 0
M  V30 23370 N 2270.18 -5.95404 3.54212 0
M  V30 23371 N 2271.97 -4.91754 2.72277 0
M  V30 23372 H 2264.12 -1.15355 1.78345 0
M  V30 23373 H 2266.39 -0.566239 0.760314 0
M  V30 23374 H 2266.09 -2.5452 2.42719 0
M  V30 23375 H 2265.97 -3.62336 1.04846 0
M  V30 23376 H 2268.35 -2.93162 0.337645 0
M  V30 23377 H 2268.43 -1.867 1.74862 0
M  V30 23378 H 2268.08 -3.88899 3.26681 0
M  V30 23379 H 2268.01 -4.93825 1.82877 0
M  V30 23380 H 2270.5 -3.38338 1.68333 0
M  V30 23381 H 2270.81 -6.61775 3.99091 0
M  V30 23382 H 2269.16 -5.95511 3.58318 0
M  V30 23383 H 2272.35 -4.15274 2.16021 0
M  V30 23384 H 2272.52 -5.62775 3.21229 0
M  V30 23385 N 2265.93 -0.584167 -1.46374 0
M  V30 23386 C 2267.17 -0.0704072 -2.02678 0
M  V30 23387 C 2267.51 1.28676 -1.45452 0
M  V30 23388 O 2266.78 1.84348 -0.620172 0
M  V30 23389 C 2267.06 -0.00621004 -3.60099 0
M  V30 23390 C 2266.92 -1.39238 -4.27707 0
M  V30 23391 C 2268.24 0.693666 -4.34599 0
M  V30 23392 H 2265.36 -0.0270599 -0.736503 0
M  V30 23393 H 2268 -0.751646 -1.745 0
M  V30 23394 H 2266.15 0.573942 -3.84237 0
M  V30 23395 H 2267.82 -2.01781 -4.14828 0
M  V30 23396 H 2266.06 -1.95969 -3.87013 0
M  V30 23397 H 2266.73 -1.29991 -5.36476 0
M  V30 23398 H 2269.21 0.200796 -4.15615 0
M  V30 23399 H 2268.09 0.707618 -5.4432 0
M  V30 23400 H 2268.35 1.75526 -4.05762 0
M  V30 23401 N 2267.41 1.54275 -0.322027 0
M  V30 23402 C 2268.32 2.27975 0.553591 0
M  V30 23403 C 2269.33 1.3227 1.13052 0
M  V30 23404 O 2270.51 1.65282 1.15081 0
M  V30 23405 C 2267.57 3.02204 1.69922 0
M  V30 23406 C 2266.63 4.13492 1.15426 0
M  V30 23407 C 2265.87 4.84172 2.24529 0
M  V30 23408 O 2266.09 4.54356 3.44844 0
M  V30 23409 O 2265.02 5.71114 1.90034 0
M  V30 23410 H 2268.85 3.03667 -0.0448878 0
M  V30 23411 H 2266.43 1.49142 -0.087768 0
M  V30 23412 H 2268.32 3.48694 2.36624 0
M  V30 23413 H 2266.99 2.29389 2.28391 0
M  V30 23414 H 2265.9 3.71355 0.452371 0
M  V30 23415 H 2267.23 4.88346 0.614719 0
M  V30 23416 N 2268.88 0.0501669 1.5752 0
M  V30 23417 C 2270.3 -0.306374 1.56632 0
M  V30 23418 C 2270.5 -1.71506 1.05774 0
M  V30 23419 O 2269.56 -2.42198 0.71388 0
M  V30 23420 C 2270.87 -0.135758 3.00393 0
M  V30 23421 C 2272.42 -0.206939 3.12315 0
M  V30 23422 C 2272.89 -0.0648635 4.57954 0
M  V30 23423 N 2274.38 -0.121172 4.63041 0
M  V30 23424 C 2275.12 -0.0353374 5.73389 0
M  V30 23425 N 2274.61 0.102788 6.92724 0
M  V30 23426 N 2276.41 -0.0908472 5.62027 0
M  V30 23427 H 2268.56 0.971079 1.88902 0
M  V30 23428 H 2270.82 0.37687 0.869869 0
M  V30 23429 H 2270.53 0.835444 3.41633 0
M  V30 23430 H 2270.4 -0.897211 3.66374 0
M  V30 23431 H 2272.79 -1.16861 2.70975 0
M  V30 23432 H 2272.87 0.585251 2.49015 0
M  V30 23433 H 2272.51 0.893482 4.99979 0
M  V30 23434 H 2272.44 -0.876185 5.1926 0
M  V30 23435 H 2274.93 -0.227218 3.77216 0
M  V30 23436 H 2275.25 0.161018 7.72632 0
M  V30 23437 H 2273.59 0.137859 6.94863 0
M  V30 23438 H 2276.78 -0.197306 4.67684 0
M  V30 23439 H 2276.96 -0.020495 6.47997 0
M  V30 23440 N 2270.36 -1.56011 -0.223207 0
M  V30 23441 C 2271.61 -1.79213 -0.949248 0
M  V30 23442 C 2271.94 -0.619527 -1.84053 0
M  V30 23443 O 2271.22 0.381283 -1.90726 0
M  V30 23444 C 2271.5 -3.12483 -1.7896 0
M  V30 23445 C 2271.35 -4.40188 -0.92492 0
M  V30 23446 C 2272.67 -3.4218 -2.76768 0
M  V30 23447 H 2269.79 -0.651969 -0.343665 0
M  V30 23448 H 2272.43 -1.88743 -0.21822 0
M  V30 23449 H 2270.58 -3.04489 -2.41285 0
M  V30 23450 H 2272.25 -4.60199 -0.318535 0
M  V30 23451 H 2270.5 -4.33188 -0.230268 0
M  V30 23452 H 2271.17 -5.29872 -1.54726 0
M  V30 23453 H 2273.64 -3.50291 -2.24578 0
M  V30 23454 H 2272.52 -4.36603 -3.3267 0
M  V30 23455 H 2272.78 -2.64265 -3.54424 0
M  V30 23456 N 2271.84 0.489844 -1.49794 0
M  V30 23457 C 2273.09 1.24508 -1.6008 0
M  V30 23458 C 2273.42 1.91998 -0.291642 0
M  V30 23459 O 2272.69 1.81249 0.705615 0
M  V30 23460 C 2272.98 2.3034 -2.76795 0
M  V30 23461 C 2272.83 1.67279 -4.17538 0
M  V30 23462 C 2274.15 3.31812 -2.89117 0
M  V30 23463 H 2271.27 0.451314 -0.582653 0
M  V30 23464 H 2273.91 0.54158 -1.82118 0
M  V30 23465 H 2272.06 2.90342 -2.58135 0
M  V30 23466 H 2273.73 1.11018 -4.47742 0
M  V30 23467 H 2271.97 0.976503 -4.22666 0
M  V30 23468 H 2272.65 2.44094 -4.95098 0
M  V30 23469 H 2275.12 2.81813 -3.06138 0
M  V30 23470 H 2274 4.03212 -3.7244 0
M  V30 23471 H 2274.26 3.94812 -1.98937 0
M  V30 23472 N 2273.32 1.39056 0.741698 0
M  V30 23473 C 2274.56 1.37341 1.51383 0
M  V30 23474 C 2274.92 -0.0330176 1.91972 0
M  V30 23475 O 2276.12 -0.175127 2.68229 0
M  V30 23476 C 2274.39 2.31281 2.72477 0
M  V30 23477 S 2275.95 2.47694 3.62206 0
M  V30 23478 H 2272.77 0.487138 0.517897 0
M  V30 23479 H 2275.37 1.75092 0.869659 0
M  V30 23480 H 2274.08 3.3234 2.40787 0
M  V30 23481 H 2273.61 1.94722 3.41829 0
M  V30 23482 H 2275.62 1.70986 4.65809 0
M  V30 23483 N 2274.8 -0.971167 1.24121 0
M  V30 23484 C 2276.02 -1.74872 1.10578 0
M  V30 23485 C 2276.44 -1.85677 -0.341984 0
M  V30 23486 O 2275.8 -1.3426 -1.23615 0
M  V30 23487 C 2275.85 -3.17097 1.73585 0
M  V30 23488 O 2275.57 -3.06839 3.127 0
M  V30 23489 C 2277.07 -4.11205 1.65605 0
M  V30 23490 H 2274.29 -0.548496 0.386513 0
M  V30 23491 H 2276.83 -1.21952 1.64158 0
M  V30 23492 H 2274.99 -3.67014 1.24015 0
M  V30 23493 H 2275.4 -3.96439 3.43419 0
M  V30 23494 H 2276.88 -5.08671 2.14379 0
M  V30 23495 H 2277.35 -4.3485 0.616608 0
M  V30 23496 H 2277.96 -3.67197 2.14584 0
M  V30 23497 N 2276.27 -1.05441 -1.17133 0
M  V30 23498 C 2277.24 -0.661802 -2.19438 0
M  V30 23499 C 2278.24 0.288014 -1.582 0
M  V30 23500 O 2279.43 0.0715497 -1.74053 0
M  V30 23501 C 2276.56 0.027561 -3.40889 0
M  V30 23502 H 2277.75 -1.56732 -2.55685 0
M  V30 23503 H 2275.31 -0.84859 -1.31258 0
M  V30 23504 H 2276.04 0.946235 -3.10188 0
M  V30 23505 H 2275.83 -0.655306 -3.86585 0
M  V30 23506 H 2277.32 0.288269 -4.16604 0
M  V30 23507 N 2277.75 1.33613 -0.835776 0
M  V30 23508 C 2279 1.97491 -0.429144 0
M  V30 23509 C 2279.32 1.66544 1.0143 0
M  V30 23510 O 2278.59 0.962774 1.70609 0
M  V30 23511 H 2277.17 0.730594 -0.155699 0
M  V30 23512 H 2279.83 1.6303 -1.06805 0
M  V30 23513 H 2278.93 3.07059 -0.558664 0
M  V30 23514 N 2279.23 0.591922 1.46062 0
M  V30 23515 C 2280.16 -0.123632 2.33172 0
M  V30 23516 C 2281.14 -0.874505 1.45899 0
M  V30 23517 O 2282.33 -0.84815 1.747 0
M  V30 23518 C 2279.46 -1.13188 3.28338 0
M  V30 23519 C 2278.41 -0.495249 4.25125 0
M  V30 23520 C 2277.74 -1.61063 5.09866 0
M  V30 23521 C 2279.04 0.573516 5.19142 0
M  V30 23522 H 2280.73 0.603698 2.9325 0
M  V30 23523 H 2278.28 0.291766 1.41013 0
M  V30 23524 H 2280.23 -1.6409 3.8814 0
M  V30 23525 H 2278.95 -1.8896 2.66386 0
M  V30 23526 H 2277.61 -0.00723008 3.66599 0
M  V30 23527 H 2277.26 -2.35824 4.44293 0
M  V30 23528 H 2276.96 -1.19025 5.75419 0
M  V30 23529 H 2278.48 -2.12223 5.72533 0
M  V30 23530 H 2279.9 0.149201 5.73106 0
M  V30 23531 H 2278.3 0.91474 5.93087 0
M  V30 23532 H 2279.37 1.45625 4.62516 0
M  V30 23533 N 2280.71 -1.54102 0.330204 0
M  V30 23534 C 2281.66 -2.24568 -0.532722 0
M  V30 23535 C 2282.63 -1.23893 -1.10633 0
M  V30 23536 O 2283.81 -1.52593 -1.14543 0
M  V30 23537 C 2280.95 -3.01198 -1.68445 0
M  V30 23538 C 2280.06 -4.16702 -1.13943 0
M  V30 23539 C 2279.2 -4.80849 -2.25738 0
M  V30 23540 C 2278.24 -5.88445 -1.68519 0
M  V30 23541 N 2277.37 -6.46426 -2.74003 0
M  V30 23542 H 2282.21 -2.97906 0.0747429 0
M  V30 23543 H 2279.75 -1.4702 0.0486579 0
M  V30 23544 H 2281.71 -3.43878 -2.36228 0
M  V30 23545 H 2280.34 -2.30182 -2.2631 0
M  V30 23546 H 2279.39 -3.78759 -0.352944 0
M  V30 23547 H 2280.7 -4.94132 -0.680805 0
M  V30 23548 H 2279.86 -5.26531 -3.01413 0
M  V30 23549 H 2278.6 -4.02814 -2.7494 0
M  V30 23550 H 2277.6 -5.42159 -0.913448 0
M  V30 23551 H 2278.83 -6.6838 -1.20186 0
M  V30 23552 H 2276.77 -5.71262 -3.22484 0
M  V30 23553 H 2276.69 -7.19289 -2.32723 0
M  V30 23554 H 2277.96 -6.96763 -3.49487 0
M  V30 23555 N 2282.19 -0.0585199 -1.57491 0
M  V30 23556 C 2283.43 0.608583 -1.94082 0
M  V30 23557 C 2283.79 1.68016 -0.937467 0
M  V30 23558 O 2283.08 1.91553 0.0422697 0
M  V30 23559 C 2283.27 1.24182 -3.35132 0
M  V30 23560 C 2283.1 0.233108 -4.49095 0
M  V30 23561 C 2281.87 -0.177528 -5.04988 0
M  V30 23562 C 2284.07 -0.524395 -5.1162 0
M  V30 23563 N 2282.05 -1.17833 -6.02485 0
M  V30 23564 C 2283.42 -1.37806 -6.04491 0
M  V30 23565 C 2285.48 -0.581909 -4.94488 0
M  V30 23566 C 2284.18 -2.28411 -6.82071 0
M  V30 23567 C 2286.21 -1.47541 -5.727 0
M  V30 23568 C 2285.57 -2.31678 -6.6521 0
M  V30 23569 H 2281.67 0.194121 -0.757523 0
M  V30 23570 H 2284.25 -0.132567 -1.94248 0
M  V30 23571 H 2282.42 1.95296 -3.35729 0
M  V30 23572 H 2284.16 1.86832 -3.58993 0
M  V30 23573 H 2280.91 0.202921 -4.73165 0
M  V30 23574 H 2281.34 -1.67585 -6.5593 0
M  V30 23575 H 2285.98 0.0543687 -4.22765 0
M  V30 23576 H 2283.7 -2.9308 -7.5308 0
M  V30 23577 H 2287.28 -1.52458 -5.61469 0
M  V30 23578 H 2286.16 -2.99696 -7.24674 0
M  V30 23579 N 2283.66 1.56128 0.21493 0
M  V30 23580 C 2284.89 1.83272 0.953675 0
M  V30 23581 C 2285.3 0.636294 1.7818 0
M  V30 23582 O 2284.65 -0.404485 1.79192 0
M  V30 23583 C 2284.71 3.04243 1.9151 0
M  V30 23584 C 2284.37 4.38974 1.27086 0
M  V30 23585 C 2285.37 5.15726 0.657485 0
M  V30 23586 C 2283.05 4.857 1.28065 0
M  V30 23587 C 2285.05 6.37369 0.0624847 0
M  V30 23588 C 2282.73 6.07285 0.681807 0
M  V30 23589 C 2283.73 6.8296 0.0737846 0
M  V30 23590 O 2283.42 8.02244 -0.515724 0
M  V30 23591 H 2283.15 0.6131 0.284753 0
M  V30 23592 H 2285.71 2.04071 0.233248 0
M  V30 23593 H 2283.94 2.79279 2.6747 0
M  V30 23594 H 2285.63 3.18203 2.51996 0
M  V30 23595 H 2286.39 4.80729 0.642204 0
M  V30 23596 H 2282.27 4.26767 1.7433 0
M  V30 23597 H 2285.81 6.96378 -0.412716 0
M  V30 23598 H 2281.71 6.41753 0.694523 0
M  V30 23599 H 2282.48 8.17469 -0.410688 0
M  V30 23600 N 2285.14 -0.481893 1.50052 0
M  V30 23601 C 2286.55 -1.06303 1.53482 0
M  V30 23602 C 2286.9 -1.9337 0.332031 0
M  V30 23603 O 2286.03 -2.0913 -0.556219 0
M  V30 23604 C 2286.62 -1.93461 2.78133 0
M  V30 23605 C 2285.18 -2.46702 2.8428 0
M  V30 23606 C 2284.33 -1.2478 2.47639 0
M  V30 23607 H 2287.28 -0.264968 1.56472 0
M  V30 23608 H 2287.3 -2.78395 2.59377 0
M  V30 23609 H 2286.81 -1.30065 3.65656 0
M  V30 23610 H 2284.92 -3.13682 2.01082 0
M  V30 23611 H 2285.03 -2.82548 3.86915 0
M  V30 23612 H 2283.39 -1.57915 1.99837 0
M  V30 23613 H 2284.18 -0.630634 3.37458 0
M  V30 23614 N 2286.62 -1.39448 -0.734313 0
M  V30 23615 C 2287.57 -1.34713 -1.83947 0
M  V30 23616 C 2288.55 -0.227879 -1.59278 0
M  V30 23617 O 2289.75 -0.465468 -1.7077 0
M  V30 23618 C 2286.88 -1.19362 -3.21881 0
M  V30 23619 C 2285.96 -2.3599 -3.52377 0
M  V30 23620 N 2286.35 -3.61464 -3.53805 0
M  V30 23621 C 2284.65 -2.28962 -3.82743 0
M  V30 23622 C 2285.35 -4.38592 -3.82115 0
M  V30 23623 N 2284.33 -3.68188 -3.99923 0
M  V30 23624 H 2288.13 -2.2969 -1.83357 0
M  V30 23625 H 2285.64 -1.32953 -0.932586 0
M  V30 23626 H 2287.64 -1.14053 -4.00996 0
M  V30 23627 H 2286.3 -0.253352 -3.2371 0
M  V30 23628 H 2287.31 -3.94878 -3.351 0
M  V30 23629 H 2283.99 -1.43201 -3.92173 0
M  V30 23630 H 2285.38 -5.47356 -3.89681 0
M  V30 23631 N 2288.1 0.964571 -1.24635 0
M  V30 23632 C 2289.51 1.52258 -1.08048 0
M  V30 23633 C 2289.86 1.93106 0.347082 0
M  V30 23634 O 2288.99 1.77639 1.23585 0
M  V30 23635 C 2289.58 2.76691 -1.95518 0
M  V30 23636 C 2288.14 3.28838 -1.83146 0
M  V30 23637 C 2287.29 2.01729 -1.90265 0
M  V30 23638 H 2290.24 0.782529 -1.38066 0
M  V30 23639 H 2290.26 3.50143 -1.48931 0
M  V30 23640 H 2289.77 2.46931 -2.99411 0
M  V30 23641 H 2287.87 3.63443 -0.820983 0
M  V30 23642 H 2287.98 3.97526 -2.67413 0
M  V30 23643 H 2286.35 2.16582 -1.34031 0
M  V30 23644 H 2287.13 1.74329 -2.95743 0
M  V30 23645 N 2289.58 1.0606 1.16572 0
M  V30 23646 C 2290.54 0.67343 2.19083 0
M  V30 23647 C 2291.54 -0.27962 1.5835 0
M  V30 23648 O 2292.73 -0.0623182 1.74088 0
M  V30 23649 C 2289.86 -0.00948241 3.40899 0
M  V30 23650 H 2291.05 1.58086 2.54851 0
M  V30 23651 H 2288.61 0.855539 1.30806 0
M  V30 23652 H 2289.34 -0.929772 3.10686 0
M  V30 23653 H 2289.13 0.675798 3.86232 0
M  V30 23654 H 2290.62 -0.266171 4.16751 0
M  V30 23655 N 2291.06 -1.33168 0.84285 0
M  V30 23656 C 2291.99 -2.31641 0.294069 0
M  V30 23657 C 2292.97 -1.59153 -0.600373 0
M  V30 23658 O 2294.15 -1.87022 -0.523091 0
M  V30 23659 C 2291.28 -3.43257 -0.528355 0
M  V30 23660 C 2290.24 -4.27143 0.270635 0
M  V30 23661 C 2289.56 -5.30412 -0.675788 0
M  V30 23662 C 2290.86 -5.00599 1.4899 0
M  V30 23663 H 2292.56 -2.77789 1.11686 0
M  V30 23664 H 2290.1 -1.33552 0.538502 0
M  V30 23665 H 2292.05 -4.11176 -0.922602 0
M  V30 23666 H 2290.78 -2.95808 -1.38439 0
M  V30 23667 H 2289.44 -3.60855 0.646491 0
M  V30 23668 H 2289.09 -4.79219 -1.52834 0
M  V30 23669 H 2288.79 -5.8742 -0.145271 0
M  V30 23670 H 2290.31 -6.01197 -1.06746 0
M  V30 23671 H 2291.72 -5.61264 1.16859 0
M  V30 23672 H 2290.12 -5.67276 1.95749 0
M  V30 23673 H 2291.19 -4.29143 2.25753 0
M  V30 23674 N 2292.53 -0.599659 -1.45746 0
M  V30 23675 C 2293.78 -0.0893865 -2.01502 0
M  V30 23676 C 2294.1 1.28485 -1.47482 0
M  V30 23677 O 2295.3 1.88741 -1.95164 0
M  V30 23678 C 2293.76 -0.109145 -3.59734 0
M  V30 23679 C 2293.37 -1.48274 -4.22751 0
M  V30 23680 C 2295.11 0.346299 -4.23085 0
M  V30 23681 C 2293.02 -1.45931 -5.73113 0
M  V30 23682 H 2291.95 -0.029648 -0.753417 0
M  V30 23683 H 2294.6 -0.753818 -1.67302 0
M  V30 23684 H 2292.98 0.621785 -3.91088 0
M  V30 23685 H 2294.15 -2.23475 -4.02983 0
M  V30 23686 H 2292.47 -1.87962 -3.71563 0
M  V30 23687 H 2295.07 0.382886 -5.33327 0
M  V30 23688 H 2295.41 1.36736 -3.93203 0
M  V30 23689 H 2295.94 -0.331107 -3.9642 0
M  V30 23690 H 2292.68 -2.45773 -6.07681 0
M  V30 23691 H 2292.2 -0.749769 -5.95095 0
M  V30 23692 H 2293.88 -1.17952 -6.36157 0
M  V30 23693 N 2294.01 1.53925 -0.338371 0
M  V30 23694 C 2294.96 2.21594 0.536673 0
M  V30 23695 C 2295.95 1.20154 1.07013 0
M  V30 23696 O 2297.14 1.45722 1.00469 0
M  V30 23697 C 2294.27 2.98837 1.68971 0
M  V30 23698 C 2293.35 4.07629 1.17045 0
M  V30 23699 N 2293.74 5.0443 0.371996 0
M  V30 23700 C 2292.04 4.21846 1.44782 0
M  V30 23701 C 2292.74 5.81629 0.0908148 0
M  V30 23702 N 2291.72 5.39317 0.681036 0
M  V30 23703 H 2295.52 2.9379 -0.0804815 0
M  V30 23704 H 2293.03 1.61752 -0.144972 0
M  V30 23705 H 2295.03 3.45812 2.32851 0
M  V30 23706 H 2293.69 2.28166 2.3102 0
M  V30 23707 H 2294.7 5.17898 0.0135307 0
M  V30 23708 H 2291.38 3.62395 2.07307 0
M  V30 23709 H 2292.77 6.69621 -0.552935 0
M  V30 23710 N 2295.49 0.0668712 1.57458 0
M  V30 23711 C 2296.73 -0.607082 1.95177 0
M  V30 23712 C 2297.09 -1.67073 0.946068 0
M  V30 23713 O 2298.29 -2.39989 1.21074 0
M  V30 23714 C 2296.57 -1.17352 3.37584 0
M  V30 23715 S 2298.12 -1.86329 3.97274 0
M  V30 23716 H 2294.94 -0.198918 0.682607 0
M  V30 23717 H 2297.54 0.139554 1.95001 0
M  V30 23718 H 2296.25 -0.387481 4.08567 0
M  V30 23719 H 2295.78 -1.95663 3.41291 0
M  V30 23720 H 2297.79 -3.1453 3.83778 0
M  V30 23721 N 2296.97 -1.56239 -0.206647 0
M  V30 23722 C 2298.21 -1.80209 -0.930186 0
M  V30 23723 C 2298.55 -0.639013 -1.83386 0
M  V30 23724 O 2297.82 0.361032 -1.9112 0
M  V30 23725 C 2298.1 -3.14363 -1.75635 0
M  V30 23726 C 2297.96 -4.41144 -0.87818 0
M  V30 23727 C 2299.28 -3.45097 -2.73123 0
M  V30 23728 H 2296.4 -0.655577 -0.336731 0
M  V30 23729 H 2299.04 -1.88964 -0.198189 0
M  V30 23730 H 2297.19 -3.07031 -2.38042 0
M  V30 23731 H 2298.86 -4.60511 -0.269706 0
M  V30 23732 H 2297.1 -4.33408 -0.184309 0
M  V30 23733 H 2297.77 -5.31483 -1.49097 0
M  V30 23734 H 2300.25 -3.52653 -2.2085 0
M  V30 23735 H 2299.13 -4.40106 -3.28021 0
M  V30 23736 H 2299.39 -2.68009 -3.51602 0
M  V30 23737 N 2298.45 0.473929 -1.50305 0
M  V30 23738 C 2299.39 1.57228 -1.68961 0
M  V30 23739 C 2300.36 1.57386 -0.530927 0
M  V30 23740 O 2301.55 1.7496 -0.761164 0
M  V30 23741 C 2298.69 2.9522 -1.78715 0
M  V30 23742 C 2297.8 3.04872 -3.06067 0
M  V30 23743 C 2296.94 4.33762 -3.06633 0
M  V30 23744 C 2295.97 4.37146 -4.2845 0
M  V30 23745 N 2295.11 5.57503 -4.26773 0
M  V30 23746 H 2299.95 1.40626 -2.62732 0
M  V30 23747 H 2297.49 0.683766 -1.30242 0
M  V30 23748 H 2299.45 3.75239 -1.82351 0
M  V30 23749 H 2298.08 3.10464 -0.88386 0
M  V30 23750 H 2297.13 2.17745 -3.11915 0
M  V30 23751 H 2298.44 3.03233 -3.96045 0
M  V30 23752 H 2297.59 5.22125 -3.08983 0
M  V30 23753 H 2296.33 4.38006 -2.1448 0
M  V30 23754 H 2295.34 3.47181 -4.26316 0
M  V30 23755 H 2296.56 4.34595 -5.21827 0
M  V30 23756 H 2294.51 5.62538 -3.37472 0
M  V30 23757 H 2294.43 5.57592 -5.10516 0
M  V30 23758 H 2295.69 6.47999 -4.33264 0
M  V30 23759 N 2299.92 1.39835 0.726907 0
M  V30 23760 C 2301.17 1.37227 1.48368 0
M  V30 23761 C 2301.49 -0.0284514 1.94979 0
M  V30 23762 O 2300.76 -0.981183 1.69557 0
M  V30 23763 H 2299.34 0.505021 0.550421 0
M  V30 23764 H 2302 1.7478 0.862437 0
M  V30 23765 H 2301.1 2.04007 2.36194 0
M  V30 23766 N 2301.4 -0.957948 1.25144 0
M  V30 23767 C 2302.64 -1.71701 1.10896 0
M  V30 23768 C 2303.01 -1.8888 -0.344747 0
M  V30 23769 O 2304.21 -2.61811 -0.608968 0
M  V30 23770 C 2302.48 -3.0646 1.83895 0
M  V30 23771 S 2304.04 -3.97663 1.85498 0
M  V30 23772 H 2300.85 -0.590219 0.396438 0
M  V30 23773 H 2303.46 -1.1428 1.5862 0
M  V30 23774 H 2302.16 -2.91625 2.88762 0
M  V30 23775 H 2301.69 -3.68943 1.36545 0
M  V30 23776 H 2303.71 -4.87414 0.929639 0
M  V30 23777 N 2302.88 -1.06677 -1.16008 0
M  V30 23778 C 2303.79 -0.692218 -2.24155 0
M  V30 23779 C 2304.81 0.293483 -1.71507 0
M  V30 23780 O 2305.98 0.141826 -2.009 0
M  V30 23781 C 2303.05 -0.0884741 -3.46587 0
M  V30 23782 C 2302.11 -1.12654 -4.14255 0
M  V30 23783 C 2301.34 -0.551509 -5.30843 0
M  V30 23784 O 2301.56 0.634556 -5.66859 0
M  V30 23785 O 2300.5 -1.29308 -5.87846 0
M  V30 23786 H 2304.32 -1.59392 -2.58511 0
M  V30 23787 H 2301.91 -0.839282 -1.23598 0
M  V30 23788 H 2303.79 0.246287 -4.2068 0
M  V30 23789 H 2302.47 0.786657 -3.13996 0
M  V30 23790 H 2301.37 -1.51354 -3.42115 0
M  V30 23791 H 2302.71 -1.97333 -4.50911 0
M  V30 23792 N 2304.36 1.32719 -0.8499 0
M  V30 23793 C 2305.77 1.79706 -0.50622 0
M  V30 23794 C 2306.12 1.70225 0.975597 0
M  V30 23795 O 2305.24 1.25802 1.76076 0
M  V30 23796 C 2305.84 3.26292 -0.912101 0
M  V30 23797 C 2304.4 3.71252 -0.620392 0
M  V30 23798 C 2303.55 2.5392 -1.11444 0
M  V30 23799 H 2306.5 1.20085 -1.03756 0
M  V30 23800 H 2306.52 3.79825 -0.22656 0
M  V30 23801 H 2306.03 3.3316 -1.99063 0
M  V30 23802 H 2304.13 3.69902 0.447609 0
M  V30 23803 H 2304.24 4.64256 -1.18335 0
M  V30 23804 H 2302.61 2.4902 -0.534878 0
M  V30 23805 H 2303.39 2.63546 -2.19997 0
M  V30 23806 N 2305.84 0.60738 1.45426 0
M  V30 23807 C 2307.08 0.102491 2.0224 0
M  V30 23808 C 2307.41 -1.26688 1.47582 0
M  V30 23809 O 2306.67 -1.84922 0.6405 0
M  V30 23810 C 2306.97 0.0129891 3.57398 0
M  V30 23811 C 2306.63 1.318 4.31207 0
M  V30 23812 C 2305.29 1.67547 4.51089 0
M  V30 23813 C 2307.65 2.18047 4.73397 0
M  V30 23814 C 2304.97 2.89294 5.10417 0
M  V30 23815 C 2307.33 3.39043 5.34072 0
M  V30 23816 C 2305.99 3.75043 5.52177 0
M  V30 23817 H 2305.26 0.037504 0.74005 0
M  V30 23818 H 2307.91 0.788956 1.74493 0
M  V30 23819 H 2306.21 -0.756739 3.84423 0
M  V30 23820 H 2307.91 -0.393811 3.99062 0
M  V30 23821 H 2304.5 1.02976 4.16046 0
M  V30 23822 H 2308.68 1.91729 4.5777 0
M  V30 23823 H 2303.94 3.17292 5.22624 0
M  V30 23824 H 2308.11 4.06125 5.65717 0
M  V30 23825 H 2305.74 4.69468 5.97916 0
M  V30 23826 N 2307.31 -1.53743 0.34653 0
M  V30 23827 C 2308.25 -2.21424 -0.551984 0
M  V30 23828 C 2309.23 -1.19931 -1.09796 0
M  V30 23829 O 2310.41 -1.48762 -1.15767 0
M  V30 23830 C 2307.54 -2.89401 -1.75967 0
M  V30 23831 C 2306.58 -4.04807 -1.34288 0
M  V30 23832 S 2307.42 -5.34287 -0.360169 0
M  V30 23833 C 2308.57 -6.05769 -1.57462 0
M  V30 23834 H 2308.8 -2.97291 0.0228641 0
M  V30 23835 H 2306.34 -1.53847 0.130606 0
M  V30 23836 H 2308.3 -3.29184 -2.45251 0
M  V30 23837 H 2306.96 -2.13294 -2.30574 0
M  V30 23838 H 2306.15 -4.51317 -2.24341 0
M  V30 23839 H 2305.75 -3.66817 -0.72949 0
M  V30 23840 H 2308.04 -6.29344 -2.50864 0
M  V30 23841 H 2308.99 -6.98678 -1.15126 0
M  V30 23842 H 2309.39 -5.35966 -1.77203 0
M  V30 23843 N 2308.79 -0.0752207 -1.5742 0
M  V30 23844 C 2310.04 0.59194 -1.93237 0
M  V30 23845 C 2310.36 1.69943 -0.956271 0
M  V30 23846 O 2309.63 1.95899 -0.00498235 0
M  V30 23847 H 2308.21 0.221648 -0.713359 0
M  V30 23848 H 2310.87 -0.133882 -1.9444 0
M  V30 23849 H 2309.97 1.01504 -2.95133 0
M  V30 23850 N 2310.27 1.56347 0.198358 0
M  V30 23851 C 2311.55 1.7126 0.944952 0
M  V30 23852 C 2311.93 0.629084 2.01509 0
M  V30 23853 O 2311.28 -0.360433 2.25639 0
M  V30 23854 C 2311.49 3.13463 1.53434 0
M  V30 23855 C 2312.83 3.73595 2.01772 0
M  V30 23856 O 2313.86 3.16571 1.63283 0
M  V30 23857 O 2312.72 4.73666 2.72586 0
M  V30 23858 H 2309.81 0.698388 0.442926 0
M  V30 23859 H 2312.36 1.68652 0.188312 0
M  V30 23860 H 2311.13 3.83793 0.762802 0
M  V30 23861 H 2310.75 3.20286 2.3559 0
M  V30 23862 N 2311.75 -0.465951 1.50554 0
M  V30 23863 C 2312.7 -1.58403 1.70327 0
M  V30 23864 C 2313.69 -1.59552 0.569167 0
M  V30 23865 O 2314.9 -1.6364 0.749805 0
M  V30 23866 H 2311.27 -0.525724 0.537697 0
M  V30 23867 H 2313.24 -1.3889 2.64106 0
M  V30 23868 C 2311.99 -2.96303 1.81933 0
M  V30 23869 H 2311.31 -2.9614 2.68592 0
M  V30 23870 H 2312.75 -3.73978 1.99791 0
M  V30 23871 C 2311.21 -3.32006 0.572153 0
M  V30 23872 O 2311.74 -4.00678 -0.286346 0
M  V30 23873 N 2309.95 -2.8748 0.424656 0
M  V30 23874 H 2309.5 -2.31769 1.12431 0
M  V30 23875 H 2309.45 -3.11733 -0.408642 0
M  V30 23876 N 2313.23 -1.40218 -0.719481 0
M  V30 23877 C 2314.46 -1.41387 -1.50643 0
M  V30 23878 C 2314.86 -0.0108076 -1.89197 0
M  V30 23879 O 2314.21 0.97468 -1.5571 0
M  V30 23880 C 2314.27 -2.23727 -2.81401 0
M  V30 23881 C 2313.93 -3.72186 -2.65192 0
M  V30 23882 C 2314.93 -4.64911 -2.32709 0
M  V30 23883 C 2312.62 -4.15955 -2.81579 0
M  V30 23884 C 2314.61 -5.99391 -2.16816 0
M  V30 23885 C 2312.3 -5.50506 -2.65303 0
M  V30 23886 C 2313.29 -6.42039 -2.3297 0
M  V30 23887 O 2312.98 -7.7411 -2.16814 0
M  V30 23888 H 2312.71 -0.484326 -0.471598 0
M  V30 23889 H 2315.27 -1.84855 -0.895424 0
M  V30 23890 H 2313.5 -1.75032 -3.4482 0
M  V30 23891 H 2315.19 -2.16884 -3.43098 0
M  V30 23892 H 2315.95 -4.32392 -2.19686 0
M  V30 23893 H 2311.83 -3.45033 -3.05734 0
M  V30 23894 H 2315.38 -6.708 -1.91501 0
M  V30 23895 H 2311.27 -5.82612 -2.7791 0
M  V30 23896 H 2312.04 -7.85002 -2.31764 0
M  V30 23897 N 2314.7 0.951297 -1.25651 0
M  V30 23898 C 2315.94 1.71111 -1.11805 0
M  V30 23899 C 2316.31 1.8906 0.334725 0
M  V30 23900 O 2317.51 2.6213 0.595075 0
M  V30 23901 C 2315.78 3.0548 -1.85517 0
M  V30 23902 S 2317.34 3.96674 -1.87604 0
M  V30 23903 H 2314.16 0.588108 -0.399562 0
M  V30 23904 H 2316.76 1.13438 -1.59224 0
M  V30 23905 H 2315.46 2.90089 -2.90304 0
M  V30 23906 H 2314.99 3.68214 -1.38499 0
M  V30 23907 H 2317.01 4.86914 -0.955475 0
M  V30 23908 N 2316.18 1.07291 1.1544 0
M  V30 23909 C 2317.46 0.708824 1.82305 0
M  V30 23910 C 2317.84 -0.808773 1.94992 0
M  V30 23911 O 2317.19 -1.72296 1.50088 0
M  V30 23912 C 2317.4 1.42253 3.18693 0
M  V30 23913 C 2318.75 1.57424 3.94339 0
M  V30 23914 O 2319.77 1.38325 3.28245 0
M  V30 23915 O 2318.63 1.88843 5.12836 0
M  V30 23916 H 2315.72 0.252146 0.787624 0
M  V30 23917 H 2318.27 1.1738 1.22557 0
M  V30 23918 H 2317.04 2.45689 3.04553 0
M  V30 23919 H 2316.66 0.948291 3.86126 0
M  V30 23920 N 2317.66 -1.32267 0.856927 0
M  V30 23921 C 2318.62 -2.27118 0.308211 0
M  V30 23922 C 2319.62 -1.51696 -0.533394 0
M  V30 23923 O 2320.81 -1.70758 -0.344577 0
M  V30 23924 C 2317.95 -3.36207 -0.563698 0
M  V30 23925 H 2319.14 -2.77165 1.1454 0
M  V30 23926 H 2316.69 -1.42977 0.631446 0
M  V30 23927 H 2317.43 -2.91432 -1.42261 0
M  V30 23928 H 2317.21 -3.92081 0.0387439 0
M  V30 23929 H 2318.7 -4.06876 -0.940315 0
M  V30 23930 N 2319.14 -0.615084 -1.45102 0
M  V30 23931 C 2320.39 -0.110753 -2.01396 0
M  V30 23932 C 2320.7 1.26914 -1.48836 0
M  V30 23933 O 2321.91 1.86661 -1.97155 0
M  V30 23934 C 2320.36 -0.147293 -3.59598 0
M  V30 23935 C 2319.97 -1.5275 -4.21155 0
M  V30 23936 C 2321.71 0.301406 -4.23429 0
M  V30 23937 C 2319.62 -1.52002 -5.71533 0
M  V30 23938 H 2318.55 -0.0376373 -0.75306 0
M  V30 23939 H 2321.2 -0.77152 -1.66493 0
M  V30 23940 H 2319.58 0.58027 -3.91725 0
M  V30 23941 H 2320.76 -2.27737 -4.0059 0
M  V30 23942 H 2319.07 -1.91892 -3.69549 0
M  V30 23943 H 2321.67 0.326298 -5.33703 0
M  V30 23944 H 2322.01 1.32558 -3.94631 0
M  V30 23945 H 2322.55 -0.373134 -3.96046 0
M  V30 23946 H 2319.29 -2.52204 -6.0504 0
M  V30 23947 H 2318.81 -0.812845 -5.94267 0
M  V30 23948 H 2320.48 -1.24693 -6.34871 0
M  V30 23949 N 2320.62 1.53557 -0.354678 0
M  V30 23950 C 2321.57 2.26891 0.512155 0
M  V30 23951 C 2322.56 1.29454 1.09261 0
M  V30 23952 O 2323.77 1.47122 1.03706 0
M  V30 23953 H 2320.14 0.729176 0.183866 0
M  V30 23954 H 2322.11 2.98124 -0.128254 0
M  V30 23955 C 2320.86 3.06294 1.64558 0
M  V30 23956 H 2320.18 3.81106 1.20822 0
M  V30 23957 H 2321.62 3.60803 2.22705 0
M  V30 23958 C 2320.08 2.16467 2.58154 0
M  V30 23959 O 2320.61 1.76817 3.60692 0
M  V30 23960 N 2318.82 1.81321 2.27093 0
M  V30 23961 H 2318.37 2.13762 1.43748 0
M  V30 23962 H 2318.32 1.21503 2.89973 0
M  V30 23963 N 2322.1 0.083568 1.57378 0
M  V30 23964 C 2323.04 -0.897102 2.14604 0
M  V30 23965 C 2324.04 -1.30016 1.08591 0
M  V30 23966 O 2325.24 -1.27604 1.26954 0
M  V30 23967 H 2321.62 -0.307288 0.686351 0
M  V30 23968 H 2323.59 -0.389638 2.95845 0
M  V30 23969 C 2322.34 -2.15085 2.73192 0
M  V30 23970 H 2321.66 -1.84956 3.54445 0
M  V30 23971 H 2323.1 -2.81788 3.16815 0
M  V30 23972 C 2321.56 -2.91722 1.68522 0
M  V30 23973 O 2322.09 -3.8585 1.11725 0
M  V30 23974 N 2320.3 -2.55047 1.39282 0
M  V30 23975 H 2319.84 -1.78574 1.85659 0
M  V30 23976 H 2319.8 -3.06626 0.694845 0
M  V30 23977 N 2323.57 -1.5645 -0.190064 0
M  V30 23978 C 2324.99 -1.50147 -0.541104 0
M  V30 23979 C 2325.19 -0.784498 -1.85601 0
M  V30 23980 O 2324.25 -0.337095 -2.5024 0
M  V30 23981 C 2325.56 -2.94831 -0.591189 0
M  V30 23982 C 2327.11 -3.05531 -0.679678 0
M  V30 23983 C 2327.58 -4.51636 -0.760828 0
M  V30 23984 N 2329.07 -4.55808 -0.824222 0
M  V30 23985 C 2329.81 -5.66177 -0.907266 0
M  V30 23986 N 2329.3 -6.86224 -0.952301 0
M  V30 23987 N 2331.1 -5.54102 -0.944843 0
M  V30 23988 H 2323.25 -2.01476 0.672385 0
M  V30 23989 H 2325.51 -0.91708 0.240144 0
M  V30 23990 H 2325.22 -3.50367 0.305967 0
M  V30 23991 H 2325.09 -3.48459 -1.44416 0
M  V30 23992 H 2327.48 -2.50042 -1.56726 0
M  V30 23993 H 2327.56 -2.5502 0.199594 0
M  V30 23994 H 2327.2 -5.07752 0.122425 0
M  V30 23995 H 2327.13 -4.99885 -1.65597 0
M  V30 23996 H 2329.62 -3.69368 -0.798461 0
M  V30 23997 H 2329.94 -7.66088 -1.01632 0
M  V30 23998 H 2328.28 -6.88872 -0.920893 0
M  V30 23999 H 2331.47 -4.59238 -0.906532 0
M  V30 24000 H 2331.65 -6.40142 -1.0061 0
M  V30 24001 N 2325.05 0.45796 -1.50799 0
M  V30 24002 C 2326.01 1.53671 -1.70053 0
M  V30 24003 C 2327.01 1.50324 -0.570908 0
M  V30 24004 O 2328.2 1.52711 -0.838153 0
M  V30 24005 C 2325.34 2.93273 -1.73793 0
M  V30 24006 H 2326.53 1.37912 -2.66309 0
M  V30 24007 H 2324.08 0.685246 -1.40478 0
M  V30 24008 H 2324.82 3.14461 -0.792773 0
M  V30 24009 H 2324.6 2.97108 -2.55869 0
M  V30 24010 H 2326.09 3.71567 -1.90598 0
M  V30 24011 N 2326.53 1.40598 0.712035 0
M  V30 24012 C 2327.78 1.39068 1.47195 0
M  V30 24013 C 2328.1 -0.00580472 1.94499 0
M  V30 24014 O 2327.36 -0.990991 1.68754 0
M  V30 24015 C 2327.66 2.3297 2.71035 0
M  V30 24016 C 2327.32 3.80152 2.42477 0
M  V30 24017 C 2325.99 4.20251 2.34399 0
M  V30 24018 C 2328.34 4.73147 2.1859 0
M  V30 24019 C 2325.67 5.51375 2.00506 0
M  V30 24020 C 2328.02 6.04573 1.86209 0
M  V30 24021 C 2326.68 6.43711 1.76615 0
M  V30 24022 H 2325.95 0.508886 0.538625 0
M  V30 24023 H 2328.6 1.73278 0.815294 0
M  V30 24024 H 2326.9 1.91957 3.41555 0
M  V30 24025 H 2328.6 2.29067 3.29134 0
M  V30 24026 H 2325.19 3.48384 2.49652 0
M  V30 24027 H 2329.38 4.42983 2.23785 0
M  V30 24028 H 2324.63 5.80597 1.91618 0
M  V30 24029 H 2328.81 6.76144 1.6674 0
M  V30 24030 H 2326.43 7.4523 1.5012 0
M  V30 24031 N 2328.01 -0.94462 1.26153 0
M  V30 24032 C 2329.25 -1.70515 1.12711 0
M  V30 24033 C 2329.61 -1.89235 -0.324694 0
M  V30 24034 O 2330.81 -2.62442 -0.581165 0
M  V30 24035 C 2329.08 -3.04492 1.87135 0
M  V30 24036 S 2330.64 -3.95673 1.89705 0
M  V30 24037 H 2327.46 -0.585981 0.402676 0
M  V30 24038 H 2330.06 -1.12592 1.59823 0
M  V30 24039 H 2328.77 -2.88545 2.91838 0
M  V30 24040 H 2328.3 -3.67474 1.4045 0
M  V30 24041 H 2330.31 -4.864 0.981283 0
M  V30 24042 N 2329.49 -1.07901 -1.1487 0
M  V30 24043 C 2330.43 -0.698766 -2.21856 0
M  V30 24044 C 2331.43 0.293057 -1.66846 0
M  V30 24045 O 2332.63 0.156173 -1.79321 0
M  V30 24046 H 2329.01 -0.207912 -0.722687 0
M  V30 24047 H 2330.98 -1.61058 -2.51203 0
M  V30 24048 C 2329.73 -0.118641 -3.47498 0
M  V30 24049 H 2329.05 -0.872982 -3.90153 0
M  V30 24050 H 2330.49 0.109684 -4.23858 0
M  V30 24051 C 2328.95 1.14215 -3.16949 0
M  V30 24052 O 2329.48 2.22779 -3.34264 0
M  V30 24053 N 2327.69 1.05051 -2.70948 0
M  V30 24054 H 2327.23 0.166993 -2.57058 0
M  V30 24055 H 2327.19 1.89487 -2.50883 0
M  V30 24056 N 2330.96 1.31811 -0.863929 0
M  V30 24057 C 2332.19 2.00816 -0.485442 0
M  V30 24058 C 2332.6 1.65048 0.924978 0
M  V30 24059 O 2331.94 0.872602 1.61652 0
M  V30 24060 C 2332.01 3.5518 -0.555652 0
M  V30 24061 C 2331.67 4.14404 -1.92661 0
M  V30 24062 C 2332.67 4.31953 -2.89332 0
M  V30 24063 C 2330.35 4.50269 -2.22628 0
M  V30 24064 C 2332.35 4.84548 -4.14116 0
M  V30 24065 C 2330.03 5.02567 -3.47663 0
M  V30 24066 C 2331.03 5.19656 -4.43223 0
M  V30 24067 O 2330.72 5.70833 -5.66043 0
M  V30 24068 H 2330.45 0.649264 -0.188235 0
M  V30 24069 H 2333.01 1.69154 -1.16517 0
M  V30 24070 H 2331.24 3.86276 0.180969 0
M  V30 24071 H 2332.92 4.05448 -0.191451 0
M  V30 24072 H 2333.69 4.04569 -2.67487 0
M  V30 24073 H 2329.57 4.36247 -1.49028 0
M  V30 24074 H 2333.11 4.97802 -4.88712 0
M  V30 24075 H 2329.01 5.29384 -3.69354 0
M  V30 24076 H 2329.78 5.89212 -5.6813 0
M  V30 24077 N 2332.44 0.62277 1.44773 0
M  V30 24078 C 2333.72 0.0552318 1.95522 0
M  V30 24079 C 2334.1 -1.4168 1.56493 0
M  V30 24080 O 2333.45 -2.12701 0.834885 0
M  V30 24081 C 2333.66 0.269303 3.47959 0
M  V30 24082 C 2335 0.158088 4.24306 0
M  V30 24083 O 2336.03 0.200224 3.55637 0
M  V30 24084 O 2334.89 0.0559654 5.46471 0
M  V30 24085 H 2331.98 -0.027087 0.826556 0
M  V30 24086 H 2334.53 0.693892 1.54865 0
M  V30 24087 H 2333.3 1.29106 3.69388 0
M  V30 24088 H 2332.92 -0.403896 3.95543 0
M  V30 24089 N 2333.92 -1.53367 0.362817 0
M  V30 24090 C 2335.17 -2.00818 -0.22729 0
M  V30 24091 C 2335.49 -1.25188 -1.49509 0
M  V30 24092 O 2334.76 -0.364382 -1.92481 0
M  V30 24093 H 2333.34 -0.741919 -0.0869792 0
M  V30 24094 H 2336 -1.88681 0.488414 0
M  V30 24095 H 2335.1 -3.08748 -0.456219 0
M  V30 24096 N 2335.4 -0.091913 -1.57332 0
M  V30 24097 C 2336.65 0.571412 -1.93854 0
M  V30 24098 C 2336.97 1.68919 -0.974242 0
M  V30 24099 O 2336.24 1.95883 -0.0257598 0
M  V30 24100 H 2334.82 0.214069 -0.71567 0
M  V30 24101 H 2337.48 -0.154498 -1.94287 0
M  V30 24102 H 2336.58 0.983677 -2.96193 0
M  V30 24103 N 2336.88 1.56548 0.181765 0
M  V30 24104 C 2338.15 1.72253 0.926734 0
M  V30 24105 C 2338.53 0.650421 2.0083 0
M  V30 24106 O 2337.88 -0.336481 2.26009 0
M  V30 24107 C 2338.09 3.15073 1.50101 0
M  V30 24108 C 2339.44 3.75714 1.97798 0
M  V30 24109 O 2340.46 3.18285 1.59916 0
M  V30 24110 O 2339.32 4.7653 2.67547 0
M  V30 24111 H 2336.42 0.703046 0.435494 0
M  V30 24112 H 2338.96 1.68842 0.170414 0
M  V30 24113 H 2337.73 3.8458 0.722053 0
M  V30 24114 H 2337.36 3.22767 2.3218 0
M  V30 24115 N 2338.35 -0.449957 1.5104 0
M  V30 24116 C 2339.59 -1.21004 1.64734 0
M  V30 24117 C 2339.96 -1.88785 0.349898 0
M  V30 24118 O 2341.16 -2.66345 0.362478 0
M  V30 24119 C 2339.43 -2.20968 2.80905 0
M  V30 24120 S 2340.99 -3.05632 3.14856 0
M  V30 24121 H 2337.81 -0.410527 0.580507 0
M  V30 24122 H 2340.41 -0.503601 1.88902 0
M  V30 24123 H 2339.11 -1.6979 3.7363 0
M  V30 24124 H 2338.64 -2.96211 2.58888 0
M  V30 24125 H 2340.66 -4.22435 2.60314 0
M  V30 24126 N 2339.83 -1.40974 -0.704569 0
M  V30 24127 C 2341.07 -1.41306 -1.47688 0
M  V30 24128 C 2341.44 -0.0178919 -1.91992 0
M  V30 24129 O 2342.64 0.103949 -2.68599 0
M  V30 24130 C 2340.91 -2.38424 -2.66249 0
M  V30 24131 S 2342.47 -2.5721 -3.55512 0
M  V30 24132 H 2339.29 -0.500698 -0.5048 0
M  V30 24133 H 2341.89 -1.77336 -0.822931 0
M  V30 24134 H 2340.59 -3.38607 -2.31891 0
M  V30 24135 H 2340.12 -2.03716 -3.36546 0
M  V30 24136 H 2342.14 -1.83276 -4.61112 0
M  V30 24137 N 2341.31 0.937917 -1.26653 0
M  V30 24138 C 2342.54 1.71878 -1.15176 0
M  V30 24139 C 2342.95 1.86518 0.292635 0
M  V30 24140 O 2342.31 1.3749 1.20011 0
M  V30 24141 C 2342.36 3.12383 -1.81931 0
M  V30 24142 O 2342.08 2.9844 -3.20726 0
M  V30 24143 C 2343.58 4.0667 -1.76449 0
M  V30 24144 H 2340.8 0.538056 -0.40092 0
M  V30 24145 H 2343.35 1.17557 -1.67334 0
M  V30 24146 H 2341.5 3.63596 -1.33703 0
M  V30 24147 H 2341.92 3.87194 -3.53809 0
M  V30 24148 H 2343.39 5.02808 -2.2779 0
M  V30 24149 H 2343.87 4.33062 -0.731684 0
M  V30 24150 H 2344.47 3.61379 -2.24245 0
M  V30 24151 N 2342.79 1.08509 1.14296 0
M  V30 24152 C 2344.01 0.837035 1.89759 0
M  V30 24153 C 2344.44 -0.605196 1.78098 0
M  V30 24154 O 2343.8 -1.42418 1.1219 0
M  V30 24155 C 2343.84 1.26501 3.37683 0
M  V30 24156 O 2342.95 0.417587 4.1028 0
M  V30 24157 H 2342.29 0.303927 0.590359 0
M  V30 24158 H 2344.82 1.44679 1.44669 0
M  V30 24159 H 2344.83 1.24632 3.88498 0
M  V30 24160 H 2343.5 2.3154 3.45488 0
M  V30 24161 H 2342.08 0.499786 3.69536 0
M  V30 24162 N 2344.27 -1.31351 0.870907 0
M  V30 24163 C 2345.49 -2.00847 0.496805 0
M  V30 24164 C 2345.91 -1.65369 -0.910969 0
M  V30 24165 O 2345.27 -0.883402 -1.59694 0
M  V30 24166 C 2345.32 -3.55693 0.64537 0
M  V30 24167 O 2345.04 -3.89902 1.99771 0
M  V30 24168 C 2346.54 -4.42462 0.272404 0
M  V30 24169 H 2343.76 -0.642502 0.193473 0
M  V30 24170 H 2346.3 -1.67561 1.17233 0
M  V30 24171 H 2344.46 -3.87396 0.0173857 0
M  V30 24172 H 2344.87 -4.84617 2.00615 0
M  V30 24173 H 2346.35 -5.50344 0.427305 0
M  V30 24174 H 2346.82 -4.32064 -0.788511 0
M  V30 24175 H 2347.43 -4.16178 0.876128 0
M  V30 24176 N 2345.74 -0.630439 -1.44441 0
M  V30 24177 C 2346.99 -0.134852 -2.02351 0
M  V30 24178 C 2347.32 1.23983 -1.49472 0
M  V30 24179 O 2346.6 1.82281 -0.678507 0
M  V30 24180 C 2346.88 -0.12077 -3.59897 0
M  V30 24181 C 2346.73 -1.52774 -4.2306 0
M  V30 24182 C 2348.05 0.55505 -4.36586 0
M  V30 24183 H 2345.17 -0.0504775 -0.735269 0
M  V30 24184 H 2347.81 -0.806781 -1.7202 0
M  V30 24185 H 2345.96 0.451409 -3.85869 0
M  V30 24186 H 2347.64 -2.14876 -4.08199 0
M  V30 24187 H 2345.88 -2.08182 -3.80582 0
M  V30 24188 H 2346.55 -1.46993 -5.32069 0
M  V30 24189 H 2349.03 0.0684697 -4.16044 0
M  V30 24190 H 2347.9 0.534089 -5.46295 0
M  V30 24191 H 2348.16 1.62528 -4.11141 0
M  V30 24192 N 2347.22 1.53172 -0.370945 0
M  V30 24193 C 2348.17 2.25901 0.472995 0
M  V30 24194 C 2349.14 1.26783 1.07309 0
M  V30 24195 O 2350.32 1.55576 1.10457 0
M  V30 24196 C 2347.46 3.05558 1.604 0
M  V30 24197 C 2346.58 4.19577 1.02855 0
M  V30 24198 C 2345.71 4.86665 2.1291 0
M  V30 24199 C 2344.75 5.92706 1.52859 0
M  V30 24200 N 2343.89 6.53464 2.56768 0
M  V30 24201 H 2348.73 2.97603 -0.153701 0
M  V30 24202 H 2346.27 1.46839 -0.0876204 0
M  V30 24203 H 2348.22 3.5002 2.27028 0
M  V30 24204 H 2346.85 2.36101 2.20127 0
M  V30 24205 H 2345.91 3.79562 0.252398 0
M  V30 24206 H 2347.22 4.95763 0.549555 0
M  V30 24207 H 2346.37 5.34338 2.87347 0
M  V30 24208 H 2345.11 4.09962 2.64163 0
M  V30 24209 H 2344.12 5.4439 0.769383 0
M  V30 24210 H 2345.34 6.71332 1.02423 0
M  V30 24211 H 2343.29 5.79611 3.07224 0
M  V30 24212 H 2343.2 7.25206 2.1357 0
M  V30 24213 H 2344.47 7.05784 3.30891 0
M  V30 24214 N 2348.7 0.100255 1.57281 0
M  V30 24215 C 2349.93 -0.570474 1.9888 0
M  V30 24216 C 2350.34 -1.61404 0.979505 0
M  V30 24217 O 2349.7 -1.82475 -0.0301967 0
M  V30 24218 C 2349.75 -1.21354 3.40522 0
M  V30 24219 O 2349.47 -0.211709 4.37588 0
M  V30 24220 C 2350.97 -1.96939 3.97153 0
M  V30 24221 H 2348.19 -0.152544 0.65343 0
M  V30 24222 H 2350.74 0.181066 2.03697 0
M  V30 24223 H 2348.89 -1.91597 3.36703 0
M  V30 24224 H 2349.31 -0.676515 5.20119 0
M  V30 24225 H 2350.78 -2.37285 4.98397 0
M  V30 24226 H 2351.26 -2.83727 3.35255 0
M  V30 24227 H 2351.86 -1.31499 4.0446 0
M  V30 24228 N 2350.18 -1.56643 -0.17346 0
M  V30 24229 C 2351.13 -1.96244 -1.21479 0
M  V30 24230 C 2352.1 -0.826052 -1.44103 0
M  V30 24231 O 2353.28 -1.086 -1.56878 0
M  V30 24232 C 2350.42 -2.32572 -2.5496 0
M  V30 24233 C 2349.53 -3.59378 -2.39733 0
M  V30 24234 C 2348.67 -3.84928 -3.66066 0
M  V30 24235 C 2347.71 -5.05089 -3.45763 0
M  V30 24236 N 2346.85 -5.26783 -4.6416 0
M  V30 24237 H 2351.69 -2.85015 -0.870073 0
M  V30 24238 H 2349.22 -1.4103 -0.41822 0
M  V30 24239 H 2351.18 -2.51656 -3.32754 0
M  V30 24240 H 2349.81 -1.46913 -2.8743 0
M  V30 24241 H 2348.86 -3.4822 -1.53125 0
M  V30 24242 H 2350.17 -4.4733 -2.20675 0
M  V30 24243 H 2349.33 -4.04368 -4.52296 0
M  V30 24244 H 2348.07 -2.95347 -3.881 0
M  V30 24245 H 2347.07 -4.85549 -2.57919 0
M  V30 24246 H 2348.3 -5.96198 -3.25153 0
M  V30 24247 H 2346.24 -4.40153 -4.86417 0
M  V30 24248 H 2346.16 -6.08954 -4.48008 0
M  V30 24249 H 2347.43 -5.507 -5.51679 0
M  V30 24250 N 2351.66 0.44194 -1.51277 0
M  V30 24251 C 2352.6 1.53609 -1.72258 0
M  V30 24252 C 2353.57 1.56224 -0.564191 0
M  V30 24253 O 2354.76 1.73306 -0.798104 0
M  V30 24254 C 2351.9 2.91363 -1.84937 0
M  V30 24255 C 2351.01 2.98312 -3.12465 0
M  V30 24256 C 2350.15 4.2716 -3.15765 0
M  V30 24257 C 2349.19 4.2796 -4.37627 0
M  V30 24258 N 2348.32 5.48325 -4.38502 0
M  V30 24259 H 2353.16 1.35021 -2.65656 0
M  V30 24260 H 2350.7 0.655986 -1.31663 0
M  V30 24261 H 2352.66 3.71286 -1.90269 0
M  V30 24262 H 2351.29 3.08519 -0.949515 0
M  V30 24263 H 2350.34 2.1108 -3.16464 0
M  V30 24264 H 2351.65 2.94764 -4.02388 0
M  V30 24265 H 2350.81 5.15454 -3.19988 0
M  V30 24266 H 2349.55 4.33358 -2.23723 0
M  V30 24267 H 2348.55 3.3806 -4.33585 0
M  V30 24268 H 2349.78 4.23429 -5.30928 0
M  V30 24269 H 2347.72 5.55253 -3.49328 0
M  V30 24270 H 2347.64 5.46638 -5.22229 0
M  V30 24271 H 2348.91 6.38663 -4.46912 0
M  V30 24272 N 2353.14 1.41345 0.697083 0
M  V30 24273 C 2354.38 1.4083 1.45928 0
M  V30 24274 C 2354.71 0.0167439 1.94193 0
M  V30 24275 O 2353.99 -0.955233 1.69427 0
M  V30 24276 C 2354.27 2.41377 2.67224 0
M  V30 24277 C 2354.13 3.89634 2.24735 0
M  V30 24278 C 2355.44 2.39202 3.69419 0
M  V30 24279 H 2352.56 0.512852 0.529294 0
M  V30 24280 H 2355.21 1.7261 0.794082 0
M  V30 24281 H 2353.36 2.14407 3.23978 0
M  V30 24282 H 2355.03 4.27502 1.7332 0
M  V30 24283 H 2353.27 4.04573 1.56535 0
M  V30 24284 H 2353.94 4.55531 3.11762 0
M  V30 24285 H 2356.42 2.63133 3.22335 0
M  V30 24286 H 2355.29 3.11571 4.51901 0
M  V30 24287 H 2355.55 1.41008 4.1901 0
M  V30 24288 N 2354.61 -0.931187 1.27148 0
M  V30 24289 C 2355.84 -1.71265 1.16085 0
M  V30 24290 C 2356.26 -1.86671 -0.282739 0
M  V30 24291 O 2355.61 -1.38124 -1.19281 0
M  V30 24292 C 2355.66 -3.11414 1.83585 0
M  V30 24293 O 2355.39 -2.96735 3.22304 0
M  V30 24294 C 2356.89 -4.05729 1.78604 0
M  V30 24295 H 2354.11 -0.535922 0.403768 0
M  V30 24296 H 2356.65 -1.16668 1.67955 0
M  V30 24297 H 2354.81 -3.62882 1.35629 0
M  V30 24298 H 2355.22 -3.85312 3.55858 0
M  V30 24299 H 2356.69 -5.01593 2.30453 0
M  V30 24300 H 2357.17 -4.32668 0.75464 0
M  V30 24301 H 2357.78 -3.60184 2.26158 0
M  V30 24302 N 2356.09 -1.09114 -1.13719 0
M  V30 24303 C 2357.5 -0.845097 -1.66478 0
M  V30 24304 C 2357.85 0.626977 -1.85912 0
M  V30 24305 O 2356.98 1.48338 -1.57559 0
M  V30 24306 C 2357.57 -1.52753 -3.0241 0
M  V30 24307 C 2356.13 -1.32855 -3.52174 0
M  V30 24308 C 2355.28 -1.58568 -2.27489 0
M  V30 24309 H 2358.23 -1.25073 -0.97685 0
M  V30 24310 H 2358.25 -0.958817 -3.68221 0
M  V30 24311 H 2357.76 -2.5989 -2.88234 0
M  V30 24312 H 2355.86 -0.278203 -3.7156 0
M  V30 24313 H 2355.98 -2.06118 -4.32495 0
M  V30 24314 H 2354.34 -1.00763 -2.33921 0
M  V30 24315 H 2355.12 -2.66927 -2.15881 0
M  V30 24316 N 2357.57 1.30887 -0.877861 0
M  V30 24317 C 2358.82 1.96414 -0.492731 0
M  V30 24318 C 2359.14 1.69348 0.956641 0
M  V30 24319 O 2358.4 0.986943 1.68991 0
M  V30 24320 C 2358.7 3.50361 -0.705809 0
M  V30 24321 C 2358.36 3.97463 -2.12917 0
M  V30 24322 C 2357.03 4.10036 -2.51842 0
M  V30 24323 C 2359.38 4.22127 -3.05709 0
M  V30 24324 C 2356.71 4.44628 -3.82783 0
M  V30 24325 C 2359.06 4.58186 -4.36174 0
M  V30 24326 C 2357.72 4.68967 -4.75002 0
M  V30 24327 H 2356.99 0.718729 -0.180303 0
M  V30 24328 H 2359.64 1.55881 -1.11236 0
M  V30 24329 H 2357.94 3.918 -0.00309945 0
M  V30 24330 H 2359.64 3.99123 -0.387526 0
M  V30 24331 H 2356.23 3.88179 -1.81701 0
M  V30 24332 H 2360.42 4.11901 -2.7686 0
M  V30 24333 H 2355.67 4.51173 -4.12617 0
M  V30 24334 H 2359.85 4.76222 -5.08119 0
M  V30 24335 H 2357.47 4.95527 -5.76504 0
M  V30 24336 N 2359.05 0.638091 1.44105 0
M  V30 24337 C 2360.46 0.226927 1.85316 0
M  V30 24338 C 2360.81 -1.22322 1.53401 0
M  V30 24339 O 2359.93 -1.93166 0.975497 0
M  V30 24340 C 2360.53 0.405072 3.3637 0
M  V30 24341 C 2359.09 0.0483563 3.76369 0
M  V30 24342 C 2358.24 0.715155 2.67919 0
M  V30 24343 H 2361.19 0.842787 1.34472 0
M  V30 24344 H 2361.21 -0.353933 3.7885 0
M  V30 24345 H 2360.72 1.46059 3.59567 0
M  V30 24346 H 2358.82 -1.00516 3.58786 0
M  V30 24347 H 2358.93 0.463271 4.76855 0
M  V30 24348 H 2357.3 0.149798 2.54259 0
M  V30 24349 H 2358.08 1.77341 2.93948 0
M  V30 24350 N 2360.53 -1.52973 0.379063 0
M  V30 24351 C 2361.46 -2.22545 -0.504893 0
M  V30 24352 C 2362.44 -1.22233 -1.07228 0
M  V30 24353 O 2363.62 -1.51184 -1.12586 0
M  V30 24354 C 2360.75 -2.93069 -1.69789 0
M  V30 24355 C 2359.79 -4.07565 -1.25671 0
M  V30 24356 S 2360.63 -5.34931 -0.246758 0
M  V30 24357 C 2361.78 -6.08973 -1.44577 0
M  V30 24358 H 2362.02 -2.97176 0.0859188 0
M  V30 24359 H 2359.55 -1.53535 0.16321 0
M  V30 24360 H 2361.51 -3.34313 -2.38213 0
M  V30 24361 H 2360.17 -2.18137 -2.25998 0
M  V30 24362 H 2359.36 -4.55974 -2.14717 0
M  V30 24363 H 2358.96 -3.68281 -0.651519 0
M  V30 24364 H 2361.25 -6.34523 -2.37458 0
M  V30 24365 H 2362.2 -7.00963 -1.0028 0
M  V30 24366 H 2362.61 -5.39604 -1.65794 0
M  V30 24367 N 2362 -0.108595 -1.57225 0
M  V30 24368 C 2363.23 0.563268 -1.99605 0
M  V30 24369 C 2363.65 1.60088 -0.987591 0
M  V30 24370 O 2363.01 1.81251 0.0421369 0
M  V30 24371 C 2363.06 1.17546 -3.40904 0
M  V30 24372 O 2362.16 2.29114 -3.429 0
M  V30 24373 H 2361.5 0.141689 -0.648707 0
M  V30 24374 H 2364.03 -0.193996 -2.03678 0
M  V30 24375 H 2364.04 1.51351 -3.78889 0
M  V30 24376 H 2362.72 0.415372 -4.13821 0
M  V30 24377 H 2361.3 1.96827 -3.16723 0
M  V30 24378 N 2363.48 1.56732 0.16515 0
M  V30 24379 C 2364.72 1.84142 0.887198 0
M  V30 24380 C 2365.09 0.690385 1.79158 0
M  V30 24381 O 2366.29 0.845077 2.5517 0
M  V30 24382 C 2364.56 3.16684 1.65668 0
M  V30 24383 S 2366.12 3.65594 2.42665 0
M  V30 24384 H 2362.93 0.645983 0.297031 0
M  V30 24385 H 2365.54 1.94936 0.148405 0
M  V30 24386 H 2364.24 3.98443 0.983437 0
M  V30 24387 H 2363.77 3.08847 2.43674 0
M  V30 24388 H 2365.79 3.33412 3.67493 0
M  V30 24389 N 2364.96 -0.433911 1.51509 0
M  V30 24390 C 2366.24 -1.1945 1.5489 0
M  V30 24391 C 2366.62 -2.08734 0.315191 0
M  V30 24392 O 2365.97 -2.17529 -0.69952 0
M  V30 24393 C 2366.18 -1.99337 2.86471 0
M  V30 24394 C 2367.52 -2.56261 3.38549 0
M  V30 24395 O 2368.55 -2.09544 2.88044 0
M  V30 24396 O 2367.41 -3.41475 4.26681 0
M  V30 24397 H 2364.5 -0.544021 0.622872 0
M  V30 24398 H 2367.05 -0.442703 1.63824 0
M  V30 24399 H 2365.82 -1.33782 3.6772 0
M  V30 24400 H 2365.44 -2.81575 2.80715 0
M  V30 24401 N 2366.44 -1.41713 -0.689577 0
M  V30 24402 C 2367.37 -1.4681 -1.81574 0
M  V30 24403 C 2368.35 -0.326134 -1.66944 0
M  V30 24404 O 2369.53 -0.53841 -1.86587 0
M  V30 24405 C 2366.66 -1.35541 -3.19759 0
M  V30 24406 C 2365.62 -2.47611 -3.49103 0
M  V30 24407 C 2364.94 -2.21405 -4.86707 0
M  V30 24408 C 2366.24 -3.89945 -3.47477 0
M  V30 24409 H 2367.94 -2.41061 -1.77566 0
M  V30 24410 H 2365.48 -1.16027 -0.852866 0
M  V30 24411 H 2367.44 -1.37717 -3.98261 0
M  V30 24412 H 2366.16 -0.377765 -3.24408 0
M  V30 24413 H 2364.82 -2.44727 -2.72955 0
M  V30 24414 H 2364.47 -1.21969 -4.87988 0
M  V30 24415 H 2364.17 -2.96506 -5.07304 0
M  V30 24416 H 2365.69 -2.25307 -5.67511 0
M  V30 24417 H 2367.11 -3.94512 -4.15973 0
M  V30 24418 H 2365.5 -4.64778 -3.79607 0
M  V30 24419 H 2366.57 -4.1767 -2.46333 0
M  V30 24420 N 2367.92 0.924431 -1.2764 0
M  V30 24421 C 2368.85 2.02983 -1.06445 0
M  V30 24422 C 2369.86 1.62788 -0.0195057 0
M  V30 24423 O 2371.05 1.76575 -0.261419 0
M  V30 24424 C 2368.15 3.33666 -0.593328 0
M  V30 24425 C 2367.32 4.02534 -1.7113 0
M  V30 24426 C 2366.38 5.11493 -1.23536 0
M  V30 24427 O 2365.41 5.35278 -1.93563 0
M  V30 24428 N 2366.61 5.80426 -0.0927698 0
M  V30 24429 H 2369.38 2.21726 -2.01637 0
M  V30 24430 H 2366.94 1.09503 -1.1925 0
M  V30 24431 H 2368.93 4.03872 -0.258757 0
M  V30 24432 H 2367.5 3.11471 0.265447 0
M  V30 24433 H 2366.72 3.26018 -2.21599 0
M  V30 24434 H 2368.01 4.45293 -2.46153 0
M  V30 24435 H 2367.4 5.6356 0.491642 0
M  V30 24436 H 2365.96 6.51544 0.182599 0
M  V30 24437 N 2369.39 1.09715 1.13139 0
M  V30 24438 C 2370.64 0.83337 1.84118 0
M  V30 24439 C 2370.96 -0.642871 1.84098 0
M  V30 24440 O 2370.23 -1.46653 1.29884 0
M  V30 24441 H 2368.81 0.305305 0.681761 0
M  V30 24442 H 2371.48 1.3859 1.37036 0
M  V30 24443 H 2370.57 1.18956 2.88541 0
M  V30 24444 N 2370.87 -1.30419 0.88479 0
M  V30 24445 C 2372.15 -1.90967 0.423219 0
M  V30 24446 C 2372.53 -1.80418 -1.09601 0
M  V30 24447 O 2371.88 -1.22128 -1.93124 0
M  V30 24448 C 2372.09 -3.36625 0.921115 0
M  V30 24449 C 2373.44 -4.13698 0.955976 0
M  V30 24450 O 2374.46 -3.45468 0.867767 0
M  V30 24451 O 2373.32 -5.35596 1.08623 0
M  V30 24452 H 2370.41 -0.816816 0.129383 0
M  V30 24453 H 2372.96 -1.38988 0.973678 0
M  V30 24454 H 2371.73 -3.38386 1.96495 0
M  V30 24455 H 2371.35 -3.96058 0.34981 0
M  V30 24456 N 2372.35 -0.645724 -1.43764 0
M  V30 24457 C 2373.59 -0.159577 -2.03776 0
M  V30 24458 C 2373.95 1.20108 -1.49794 0
M  V30 24459 O 2375.16 1.78019 -2.01402 0
M  V30 24460 C 2373.43 -0.161314 -3.57036 0
M  V30 24461 S 2374.99 0.258082 -4.3804 0
M  V30 24462 H 2371.8 -0.0682578 -0.707716 0
M  V30 24463 H 2374.41 -0.852383 -1.75939 0
M  V30 24464 H 2373.11 -1.15446 -3.93828 0
M  V30 24465 H 2372.64 0.552271 -3.89504 0
M  V30 24466 H 2374.66 1.49881 -4.73022 0
M  V30 24467 N 2373.83 1.5277 -0.38717 0
M  V30 24468 C 2374.79 2.24997 0.436899 0
M  V30 24469 C 2375.79 1.26557 0.991969 0
M  V30 24470 O 2376.98 1.5067 0.874308 0
M  V30 24471 C 2374.11 3.00338 1.61276 0
M  V30 24472 H 2375.31 2.99263 -0.195417 0
M  V30 24473 H 2372.86 1.55679 -0.139246 0
M  V30 24474 H 2373.59 2.30368 2.28256 0
M  V30 24475 H 2373.38 3.72589 1.22147 0
M  V30 24476 H 2374.87 3.55184 2.19623 0
M  V30 24477 N 2375.31 0.116931 1.57166 0
M  V30 24478 C 2376.55 -0.54468 1.97009 0
M  V30 24479 C 2376.91 -1.63979 0.998742 0
M  V30 24480 O 2378.11 -2.36015 1.28648 0
M  V30 24481 C 2376.38 -1.06553 3.41147 0
M  V30 24482 S 2377.94 -1.73596 4.03001 0
M  V30 24483 H 2374.76 -0.1771 0.68859 0
M  V30 24484 H 2377.36 0.201521 1.94459 0
M  V30 24485 H 2376.07 -0.257302 4.09593 0
M  V30 24486 H 2375.6 -1.84706 3.47343 0
M  V30 24487 H 2377.61 -3.02161 3.9359 0
M  V30 24488 N 2376.78 -1.56818 -0.156836 0
M  V30 24489 C 2378.2 -1.51261 -0.509133 0
M  V30 24490 C 2378.4 -0.82369 -1.83896 0
M  V30 24491 O 2377.46 -0.390099 -2.49468 0
M  V30 24492 C 2378.77 -2.96019 -0.528518 0
M  V30 24493 C 2380.32 -3.06904 -0.614718 0
M  V30 24494 C 2380.79 -4.53149 -0.664858 0
M  V30 24495 N 2382.28 -4.57454 -0.727353 0
M  V30 24496 C 2383.02 -5.67974 -0.786967 0
M  V30 24497 N 2382.51 -6.88089 -0.806528 0
M  V30 24498 N 2384.31 -5.55982 -0.827097 0
M  V30 24499 H 2376.46 -2.00005 0.71497 0
M  V30 24500 H 2378.72 -0.911779 0.259542 0
M  V30 24501 H 2378.43 -3.49639 0.380216 0
M  V30 24502 H 2378.3 -3.51444 -1.36992 0
M  V30 24503 H 2380.69 -2.5331 -1.51387 0
M  V30 24504 H 2380.77 -2.54539 0.253642 0
M  V30 24505 H 2380.41 -5.07379 0.2301 0
M  V30 24506 H 2380.34 -5.03285 -1.54957 0
M  V30 24507 H 2382.83 -3.70979 -0.719933 0
M  V30 24508 H 2383.15 -7.68071 -0.853592 0
M  V30 24509 H 2381.49 -6.9067 -0.774566 0
M  V30 24510 H 2384.68 -4.61058 -0.808917 0
M  V30 24511 H 2384.86 -6.42132 -0.870093 0
M  V30 24512 N 2378.26 0.425871 -1.51737 0
M  V30 24513 C 2379.54 1.18627 -1.55522 0
M  V30 24514 C 2379.92 2.08564 -0.326256 0
M  V30 24515 O 2379.27 2.17897 0.687974 0
M  V30 24516 C 2379.48 1.97815 -2.87524 0
M  V30 24517 C 2380.83 2.54462 -3.39903 0
M  V30 24518 O 2381.85 2.08014 -2.89152 0
M  V30 24519 O 2380.71 3.39208 -4.28486 0
M  V30 24520 H 2377.8 0.54071 -0.625749 0
M  V30 24521 H 2380.35 0.434009 -1.64056 0
M  V30 24522 H 2379.12 1.3183 -3.68425 0
M  V30 24523 H 2378.74 2.80083 -2.82205 0
M  V30 24524 N 2379.74 1.42077 0.682052 0
M  V30 24525 C 2381.15 1.37548 1.26243 0
M  V30 24526 C 2381.5 0.0651826 1.96092 0
M  V30 24527 O 2380.63 -0.836262 1.99589 0
M  V30 24528 C 2381.22 2.49147 2.29589 0
M  V30 24529 C 2379.78 2.47974 2.83171 0
M  V30 24530 C 2378.93 2.28305 1.57391 0
M  V30 24531 H 2381.88 1.51396 0.475911 0
M  V30 24532 H 2381.9 2.18982 3.11171 0
M  V30 24533 H 2381.41 3.44499 1.78723 0
M  V30 24534 H 2379.51 1.56419 3.38177 0
M  V30 24535 H 2379.63 3.44761 3.32681 0
M  V30 24536 H 2377.99 1.76431 1.83696 0
M  V30 24537 H 2378.77 3.25703 1.08501 0
M  V30 24538 N 2381.22 -0.917649 1.28129 0
M  V30 24539 C 2382.15 -2.02415 1.0752 0
M  V30 24540 C 2383.16 -1.62776 0.0281385 0
M  V30 24541 O 2384.35 -1.76434 0.270779 0
M  V30 24542 C 2381.45 -3.33346 0.611015 0
M  V30 24543 C 2380.63 -4.01621 1.73262 0
M  V30 24544 C 2379.69 -5.10831 1.26247 0
M  V30 24545 O 2378.71 -5.34244 1.96399 0
M  V30 24546 N 2379.91 -5.80369 0.12355 0
M  V30 24547 H 2382.68 -2.20654 2.0281 0
M  V30 24548 H 2380.24 -1.08869 1.19829 0
M  V30 24549 H 2382.23 -4.03729 0.280172 0
M  V30 24550 H 2380.8 -3.11607 -0.248925 0
M  V30 24551 H 2380.02 -3.24838 2.23325 0
M  V30 24552 H 2381.31 -4.43982 2.48511 0
M  V30 24553 H 2380.71 -5.63812 -0.461748 0
M  V30 24554 H 2379.26 -6.51632 -0.148044 0
M  V30 24555 N 2382.7 -1.10314 -1.12555 0
M  V30 24556 C 2383.66 -0.754278 -2.16433 0
M  V30 24557 C 2384.66 0.220657 -1.59279 0
M  V30 24558 O 2385.85 -0.00233653 -1.742 0
M  V30 24559 C 2382.98 -0.117046 -3.40699 0
M  V30 24560 H 2384.18 -1.67436 -2.48808 0
M  V30 24561 H 2381.73 -0.903498 -1.27541 0
M  V30 24562 H 2382.46 0.813822 -3.13923 0
M  V30 24563 H 2382.25 -0.81868 -3.83458 0
M  V30 24564 H 2383.74 0.111314 -4.17452 0
M  V30 24565 N 2384.18 1.29948 -0.891694 0
M  V30 24566 C 2385.11 2.26945 -0.320735 0
M  V30 24567 C 2386.12 1.53984 0.52847 0
M  V30 24568 O 2387.31 1.75096 0.346928 0
M  V30 24569 C 2384.41 3.34208 0.562007 0
M  V30 24570 C 2383.58 4.36629 -0.259652 0
M  V30 24571 C 2382.64 5.23269 0.554648 0
M  V30 24572 O 2381.67 5.69194 -0.0250312 0
M  V30 24573 N 2382.87 5.49814 1.8624 0
M  V30 24574 H 2385.63 2.76576 -1.15437 0
M  V30 24575 H 2383.2 1.43199 -0.755361 0
M  V30 24576 H 2385.19 3.89095 1.11297 0
M  V30 24577 H 2383.76 2.84454 1.29632 0
M  V30 24578 H 2382.98 3.81513 -0.992053 0
M  V30 24579 H 2384.27 5.02105 -0.822652 0
M  V30 24580 H 2383.66 5.14296 2.35619 0
M  V30 24581 H 2382.22 6.07549 2.36067 0
M  V30 24582 N 2385.65 0.653339 1.4342 0
M  V30 24583 C 2386.56 -0.0388153 2.34568 0
M  V30 24584 C 2387.58 -0.812043 1.53889 0
M  V30 24585 O 2388.76 -0.759261 1.8654 0
M  V30 24586 C 2385.82 -0.99321 3.32169 0
M  V30 24587 C 2384.88 -0.216902 4.28752 0
M  V30 24588 C 2384.11 -1.12584 5.2169 0
M  V30 24589 O 2384.34 -2.3651 5.19056 0
M  V30 24590 O 2383.27 -0.598179 5.9892 0
M  V30 24591 H 2387.1 0.711438 2.95249 0
M  V30 24592 H 2384.68 0.413527 1.43563 0
M  V30 24593 H 2386.56 -1.54169 3.92186 0
M  V30 24594 H 2385.24 -1.72369 2.7399 0
M  V30 24595 H 2384.15 0.375166 3.72214 0
M  V30 24596 H 2385.48 0.474011 4.89912 0
M  V30 24597 N 2387.13 -1.52563 0.395266 0
M  V30 24598 C 2388.08 -2.23433 -0.45406 0
M  V30 24599 C 2389.07 -1.24043 -1.0248 0
M  V30 24600 O 2390.26 -1.49351 -0.949912 0
M  V30 24601 C 2387.39 -3.04902 -1.57764 0
M  V30 24602 C 2386.47 -4.11692 -1.01835 0
M  V30 24603 N 2386.86 -5.05463 -0.184524 0
M  V30 24604 C 2385.16 -4.26929 -1.29025 0
M  V30 24605 C 2385.86 -5.81565 0.125116 0
M  V30 24606 N 2384.84 -5.41473 -0.480403 0
M  V30 24607 H 2388.64 -2.93289 0.189464 0
M  V30 24608 H 2386.15 -1.61102 0.204905 0
M  V30 24609 H 2388.15 -3.54216 -2.19856 0
M  V30 24610 H 2386.81 -2.36583 -2.22393 0
M  V30 24611 H 2387.82 -5.17592 0.178693 0
M  V30 24612 H 2384.5 -3.69839 -1.93714 0
M  V30 24613 H 2385.89 -6.67107 0.801079 0
M  V30 24614 N 2388.61 -0.125265 -1.57101 0
M  V30 24615 C 2389.83 0.542066 -2.00191 0
M  V30 24616 C 2390.26 1.59032 -1.00452 0
M  V30 24617 O 2389.62 1.81286 0.0229104 0
M  V30 24618 C 2389.67 1.13923 -3.42131 0
M  V30 24619 O 2388.77 2.25464 -3.45311 0
M  V30 24620 H 2388.11 0.1348 -0.650173 0
M  V30 24621 H 2390.64 -0.215588 -2.03461 0
M  V30 24622 H 2390.65 1.47324 -3.80473 0
M  V30 24623 H 2389.33 0.371458 -4.14238 0
M  V30 24624 H 2387.9 1.93456 -3.18793 0
M  V30 24625 N 2390.09 1.56899 0.148518 0
M  V30 24626 C 2391.5 1.51529 0.501104 0
M  V30 24627 C 2391.7 0.833431 1.83456 0
M  V30 24628 O 2390.76 0.403324 2.49258 0
M  V30 24629 C 2392.07 2.96295 0.512812 0
M  V30 24630 C 2393.62 3.07226 0.598433 0
M  V30 24631 C 2394.1 4.53495 0.640818 0
M  V30 24632 N 2395.59 4.57833 0.703082 0
M  V30 24633 C 2396.32 5.68383 0.756835 0
M  V30 24634 N 2395.82 6.88507 0.770026 0
M  V30 24635 N 2397.61 5.56412 0.7976 0
M  V30 24636 H 2389.76 1.99623 -0.725567 0
M  V30 24637 H 2392.02 0.91039 -0.264374 0
M  V30 24638 H 2391.73 3.49432 -0.398753 0
M  V30 24639 H 2391.6 3.52166 1.35126 0
M  V30 24640 H 2393.99 2.54109 1.50042 0
M  V30 24641 H 2394.07 2.54401 -0.267137 0
M  V30 24642 H 2393.72 5.07249 -0.257004 0
M  V30 24643 H 2393.65 5.041 1.52286 0
M  V30 24644 H 2396.14 3.71356 0.700248 0
M  V30 24645 H 2396.45 7.68513 0.812848 0
M  V30 24646 H 2394.8 6.91071 0.737927 0
M  V30 24647 H 2397.99 4.6148 0.784454 0
M  V30 24648 H 2398.16 6.42584 0.836027 0
M  V30 24649 N 2391.57 -0.417818 1.51961 0
M  V30 24650 C 2392.51 -1.50849 1.7468 0
M  V30 24651 C 2393.48 -1.55307 0.588974 0
M  V30 24652 O 2394.67 -1.72014 0.825575 0
M  V30 24653 C 2391.81 -2.88384 1.89549 0
M  V30 24654 C 2390.92 -2.93303 3.17171 0
M  V30 24655 C 2390.06 -4.22083 3.22521 0
M  V30 24656 C 2389.09 -4.20943 4.4438 0
M  V30 24657 N 2388.23 -5.41279 4.4717 0
M  V30 24658 H 2393.07 -1.30778 2.67771 0
M  V30 24659 H 2390.61 -0.634957 1.3269 0
M  V30 24660 H 2392.57 -3.68212 1.96152 0
M  V30 24661 H 2391.2 -3.06969 0.998478 0
M  V30 24662 H 2390.25 -2.06019 3.19782 0
M  V30 24663 H 2391.56 -2.88325 4.07026 0
M  V30 24664 H 2390.71 -5.10298 3.28148 0
M  V30 24665 H 2389.45 -4.29744 2.30589 0
M  V30 24666 H 2388.46 -3.31119 4.38908 0
M  V30 24667 H 2389.68 -4.14929 5.37597 0
M  V30 24668 H 2387.63 -5.49625 3.58117 0
M  V30 24669 H 2387.55 -5.38261 5.30859 0
M  V30 24670 H 2388.81 -6.31472 4.57016 0
M  V30 24671 N 2393.04 -1.42436 -0.674508 0
M  V30 24672 C 2394.32 -1.33405 -1.43047 0
M  V30 24673 C 2394.7 0.0284303 -2.11081 0
M  V30 24674 O 2394.05 1.04394 -2.03259 0
M  V30 24675 C 2394.26 -2.50243 -2.43268 0
M  V30 24676 C 2395.61 -2.92372 -3.07902 0
M  V30 24677 O 2396.63 -2.50136 -2.53595 0
M  V30 24678 O 2395.49 -3.65474 -4.06314 0
M  V30 24679 H 2392.58 -0.526118 -0.638067 0
M  V30 24680 H 2395.13 -1.54444 -0.703207 0
M  V30 24681 H 2393.9 -3.41071 -1.91797 0
M  V30 24682 H 2393.52 -2.31192 -3.23475 0
M  V30 24683 N 2394.52 0.910841 -1.28614 0
M  V30 24684 C 2395.45 2.0303 -1.15329 0
M  V30 24685 C 2396.43 1.70026 -0.0503222 0
M  V30 24686 O 2397.62 1.92859 -0.22783 0
M  V30 24687 C 2394.75 3.37544 -0.817403 0
M  V30 24688 C 2393.7 3.84721 -1.87547 0
M  V30 24689 C 2393.03 5.16232 -1.39314 0
M  V30 24690 C 2394.33 4.06261 -3.28251 0
M  V30 24691 H 2396.02 2.14402 -2.08979 0
M  V30 24692 H 2393.57 1.03019 -1.00614 0
M  V30 24693 H 2395.52 4.15355 -0.711224 0
M  V30 24694 H 2394.24 3.26233 0.154789 0
M  V30 24695 H 2392.9 3.09117 -1.97084 0
M  V30 24696 H 2392.55 5.01327 -0.409934 0
M  V30 24697 H 2392.25 5.48768 -2.10066 0
M  V30 24698 H 2393.78 5.96595 -1.30024 0
M  V30 24699 H 2395.19 4.74588 -3.21619 0
M  V30 24700 H 2393.59 4.50133 -3.96863 0
M  V30 24701 H 2394.66 3.10973 -3.72054 0
M  V30 24702 N 2396 1.10909 1.11969 0
M  V30 24703 C 2397.42 0.841876 1.3559 0
M  V30 24704 C 2397.62 -0.536212 1.94234 0
M  V30 24705 O 2396.67 -1.28812 2.17172 0
M  V30 24706 C 2397.99 1.94553 2.29281 0
M  V30 24707 C 2399.53 1.97455 2.42859 0
M  V30 24708 C 2400.01 3.07008 3.39868 0
M  V30 24709 N 2401.5 3.06347 3.47427 0
M  V30 24710 C 2402.23 3.87755 4.22414 0
M  V30 24711 N 2401.73 4.79112 5.00424 0
M  V30 24712 N 2403.52 3.75954 4.1787 0
M  V30 24713 H 2395.67 1.99729 0.722629 0
M  V30 24714 H 2397.94 0.868235 0.38062 0
M  V30 24715 H 2397.64 2.93769 1.93373 0
M  V30 24716 H 2397.52 1.83694 3.29449 0
M  V30 24717 H 2399.9 0.988694 2.78045 0
M  V30 24718 H 2399.99 2.12391 1.42562 0
M  V30 24719 H 2399.63 4.05816 3.0541 0
M  V30 24720 H 2399.56 2.89313 4.40006 0
M  V30 24721 H 2402.05 2.40152 2.9178 0
M  V30 24722 H 2402.36 5.37776 5.54993 0
M  V30 24723 H 2400.71 4.83137 4.99603 0
M  V30 24724 H 2403.9 3.03931 3.56011 0
M  V30 24725 H 2404.07 4.39633 4.76054 0
M  V30 24726 N 2397.48 -1.29474 0.898573 0
M  V30 24727 C 2398.73 -1.95219 0.522881 0
M  V30 24728 C 2399.05 -1.71194 -0.93368 0
M  V30 24729 O 2398.32 -1.04308 -1.65821 0
M  V30 24730 H 2396.9 -0.722333 0.190379 0
M  V30 24731 H 2399.56 -1.57748 1.14462 0
M  V30 24732 H 2398.66 -3.04044 0.704529 0
M  V30 24733 N 2398.96 -0.660936 -1.43071 0
M  V30 24734 C 2400.19 -0.18519 -2.05768 0
M  V30 24735 C 2400.59 1.15739 -1.4967 0
M  V30 24736 O 2399.94 1.72716 -0.62568 0
M  V30 24737 C 2400 -0.0278869 -3.59489 0
M  V30 24738 C 2399.66 -1.29698 -4.38209 0
M  V30 24739 C 2400.66 -2.22742 -4.69768 0
M  V30 24740 C 2398.35 -1.54071 -4.78087 0
M  V30 24741 C 2400.34 -3.38447 -5.40123 0
M  V30 24742 C 2398.03 -2.70068 -5.48185 0
M  V30 24743 C 2399.02 -3.62081 -5.79126 0
M  V30 24744 O 2398.71 -4.76051 -6.47789 0
M  V30 24745 H 2398.44 -0.0908204 -0.669871 0
M  V30 24746 H 2401 -0.904052 -1.84434 0
M  V30 24747 H 2399.23 0.746422 -3.79428 0
M  V30 24748 H 2400.92 0.406204 -4.03862 0
M  V30 24749 H 2401.68 -2.05157 -4.39472 0
M  V30 24750 H 2397.56 -0.833295 -4.53406 0
M  V30 24751 H 2401.11 -4.10287 -5.6419 0
M  V30 24752 H 2397 -2.87584 -5.77897 0
M  V30 24753 H 2397.77 -4.75416 -6.66275 0
M  V30 24754 N 2400.43 1.52351 -0.403352 0
M  V30 24755 C 2401.66 2.06648 0.176463 0
M  V30 24756 C 2402.08 1.27196 1.38574 0
M  V30 24757 O 2401.44 0.300668 1.78789 0
M  V30 24758 C 2401.49 3.56961 0.510999 0
M  V30 24759 O 2400.59 3.79976 1.60287 0
M  V30 24760 H 2399.94 0.663789 0.016722 0
M  V30 24761 H 2402.47 1.96357 -0.574882 0
M  V30 24762 H 2402.48 4.00643 0.771291 0
M  V30 24763 H 2401.15 4.14224 -0.373033 0
M  V30 24764 H 2399.73 3.48177 1.3352 0
M  V30 24765 N 2401.91 0.133594 1.57033 0
M  V30 24766 C 2402.86 -0.822634 2.12642 0
M  V30 24767 C 2403.85 -1.21846 1.05083 0
M  V30 24768 O 2405.04 -1.18711 1.31289 0
M  V30 24769 C 2402.17 -2.06701 2.74098 0
M  V30 24770 C 2401.25 -1.6949 3.8876 0
M  V30 24771 N 2401.64 -1.03029 4.95196 0
M  V30 24772 C 2399.94 -1.98852 3.99217 0
M  V30 24773 C 2400.64 -0.852772 5.75415 0
M  V30 24774 N 2399.62 -1.38241 5.25728 0
M  V30 24775 H 2403.42 -0.305486 2.92308 0
M  V30 24776 H 2400.94 -0.0683991 1.62256 0
M  V30 24777 H 2402.93 -2.7619 3.1229 0
M  V30 24778 H 2401.59 -2.58946 1.959 0
M  V30 24779 H 2402.6 -0.692579 5.13248 0
M  V30 24780 H 2399.28 -2.53041 3.32079 0
M  V30 24781 H 2400.67 -0.329973 6.71089 0
M  V30 24782 N 2403.39 -1.56975 -0.140195 0
M  V30 24783 C 2404.64 -1.83357 -0.849973 0
M  V30 24784 C 2404.96 -0.715542 -1.81397 0
M  V30 24785 O 2404.23 0.26226 -1.94137 0
M  V30 24786 H 2402.81 -0.676461 -0.316874 0
M  V30 24787 H 2405.47 -1.94449 -0.132573 0
M  V30 24788 H 2404.57 -2.7853 -1.4081 0
M  V30 24789 O 2404.91 0.284806 -1.58969 0
M  V30 24790 H 2405.6 0.930818 -1.69869 0
M  V30 END ATOM
M  V30 BEGIN BOND
M  V30 END BOND
M  V30 END CTAB
M  END
$$$$
