drugbank_target|P24557 Thromboxane-A synthase (DB00795; DB01207; DB03052; DB05505)
 OpenBabel12092120013D

  0  0  0     0  0            999 V3000
M  V30 BEGIN CTAB
M  V30 COUNTS 8541 8650 0 0 0
M  V30 BEGIN ATOM
M  V30 1 H -0.908 1.98254 -0.117106 0
M  V30 2 N 0 1.576 0 0
M  V30 3 C 0.933 2.03868 1.02534 0
M  V30 4 C 1.911 0.928543 1.3348 0
M  V30 5 O 3.095 1.19667 1.45644 0
M  V30 6 C 0.222 2.43627 2.35294 0
M  V30 7 C -0.732 3.65373 2.2001 0
M  V30 8 S 0.101 5.13292 1.52614 0
M  V30 9 C 1.257 5.56322 2.86805 0
M  V30 10 H 1.49 2.90518 0.631377 0
M  V30 11 H -0.977 1.52953 0.210867 0
M  V30 12 H 0.981 2.67203 3.11629 0
M  V30 13 H -0.358 1.57376 2.7183 0
M  V30 14 H -1.165 3.90944 3.18086 0
M  V30 15 H -1.563 3.418 1.51819 0
M  V30 16 H 0.729 5.58782 3.83104 0
M  V30 17 H 1.672 6.56266 2.65933 0
M  V30 18 H 2.08 4.83886 2.90714 0
M  V30 19 N 1.4781 -0.272755 1.55222 0
M  V30 20 C 2.3881 -1.35918 1.91216 0
M  V30 21 C 3.4041 -1.54026 0.809436 0
M  V30 22 O 4.5801 -1.68148 1.10852 0
M  V30 23 C 1.6451 -2.69834 2.17693 0
M  V30 24 C 0.7061 -2.6047 3.41253 0
M  V30 25 C -0.0609 -3.88 3.66458 0
M  V30 26 O 0.1621 -4.88693 2.94169 0
M  V30 27 O -0.9039 -3.88189 4.59992 0
M  V30 28 H 2.9221 -1.0839 2.83699 0
M  V30 29 H 0.5071 -0.471301 1.41771 0
M  V30 30 H 2.3891 -3.49017 2.36147 0
M  V30 31 H 1.0641 -2.97148 1.28392 0
M  V30 32 H -0.0289 -1.79663 3.28134 0
M  V30 33 H 1.3041 -2.38106 4.30774 0
M  V30 34 N 2.9562 -1.48159 -0.537278 0
M  V30 35 C 3.9192 -1.61665 -1.62472 0
M  V30 36 C 4.9192 -0.490395 -1.5314 0
M  V30 37 O 6.1092 -0.755998 -1.5694 0
M  V30 38 C 3.2412 -1.57997 -3.02076 0
M  V30 39 H 4.4342 -2.58621 -1.51839 0
M  V30 40 H 1.9872 -1.36647 -0.758771 0
M  V30 41 H 2.7222 -0.624913 -3.18222 0
M  V30 42 H 2.5072 -2.39755 -3.10258 0
M  V30 43 H 3.9972 -1.70627 -3.81151 0
M  V30 44 N 4.4343 0.785586 -1.36625 0
M  V30 45 C 5.3643 1.91259 -1.33949 0
M  V30 46 C 6.3453 1.68795 -0.210325 0
M  V30 47 O 7.5303 1.89854 -0.408561 0
M  V30 48 C 4.6603 3.28339 -1.13186 0
M  V30 49 C 3.6143 3.65335 -2.22967 0
M  V30 50 C 2.9403 5.00806 -1.87342 0
M  V30 51 C 4.2403 3.7352 -3.65075 0
M  V30 52 H 5.9343 1.93755 -2.28253 0
M  V30 53 H 3.4803 0.930788 -1.09874 0
M  V30 54 H 5.4333 4.06804 -1.09948 0
M  V30 55 H 4.1573 3.2624 -0.153332 0
M  V30 56 H 2.8163 2.89169 -2.25337 0
M  V30 57 H 2.4643 4.95233 -0.880545 0
M  V30 58 H 2.1643 5.26529 -2.60846 0
M  V30 59 H 3.6883 5.81687 -1.85667 0
M  V30 60 H 5.1023 4.42168 -3.64911 0
M  V30 61 H 3.4993 4.10731 -4.37516 0
M  V30 62 H 4.5693 2.74527 -3.99703 0
M  V30 63 N 5.9124 1.20967 1.01018 0
M  V30 64 C 7.1604 1.02172 1.74371 0
M  V30 65 C 7.4814 -0.446414 1.89821 0
M  V30 66 O 6.7514 -1.32234 1.44537 0
M  V30 67 H 5.3314 0.375066 0.646014 0
M  V30 68 H 7.9934 1.52187 1.21758 0
M  V30 69 H 7.0894 1.48538 2.74487 0
M  V30 70 N 7.3905 -1.2043 1.01659 0
M  V30 71 C 8.6375 -1.89797 0.705917 0
M  V30 72 C 8.9655 -1.78848 -0.764439 0
M  V30 73 O 8.2205 -1.16694 -1.57102 0
M  V30 74 C 8.5195 -3.40464 1.08714 0
M  V30 75 C 8.1855 -3.71614 2.5537 0
M  V30 76 C 6.8475 -3.79826 2.95441 0
M  V30 77 C 9.1995 -3.85915 3.50313 0
M  V30 78 C 6.5275 -3.99797 4.29394 0
M  V30 79 C 8.8795 -4.07396 4.83954 0
M  V30 80 C 7.5435 -4.13837 5.23732 0
M  V30 81 H 6.8135 -0.694518 0.258313 0
M  V30 82 H 9.4605 -1.42691 1.27717 0
M  V30 83 H 7.7655 -3.89385 0.434309 0
M  V30 84 H 9.4625 -3.92433 0.824461 0
M  V30 85 H 6.0525 -3.65822 2.23321 0
M  V30 86 H 10.2365 -3.78926 3.20513 0
M  V30 87 H 5.4925 -4.03018 4.59768 0
M  V30 88 H 9.6665 -4.17404 5.57447 0
M  V30 89 H 7.2935 -4.29064 6.27541 0
M  V30 90 N 8.8686 -0.792821 -1.36206 0
M  V30 91 C 9.7986 -0.207853 -2.32573 0
M  V30 92 C 10.7796 0.659055 -1.56813 0
M  V30 93 O 11.9646 0.592176 -1.84951 0
M  V30 94 C 9.0946 0.655449 -3.41059 0
M  V30 95 C 8.0486 -0.111842 -4.27854 0
M  V30 96 C 7.3746 0.872274 -5.27537 0
M  V30 97 C 8.6746 -1.30299 -5.05786 0
M  V30 98 H 10.3686 -1.01294 -2.81744 0
M  V30 99 H 7.9146 -0.48854 -1.3546 0
M  V30 100 H 9.8676 1.07464 -4.07467 0
M  V30 101 H 8.5916 1.49328 -2.90463 0
M  V30 102 H 7.2506 -0.512053 -3.63006 0
M  V30 103 H 6.8986 1.70523 -4.73214 0
M  V30 104 H 6.5986 0.363291 -5.86476 0
M  V30 105 H 8.1226 1.28996 -5.96818 0
M  V30 106 H 9.5366 -0.959379 -5.65216 0
M  V30 107 H 7.9336 -1.7455 -5.74154 0
M  V30 108 H 9.0036 -2.09663 -4.37229 0
M  V30 109 N 10.3467 1.47872 -0.545128 0
M  V30 110 C 11.2937 2.29849 0.2093 0
M  V30 111 C 12.2637 1.38313 0.919707 0
M  V30 112 O 13.4487 1.67277 0.917772 0
M  V30 113 C 10.5887 3.22019 1.24088 0
M  V30 114 C 9.7017 4.2864 0.537778 0
M  V30 115 C 8.8367 5.07973 1.5536 0
M  V30 116 C 7.8757 6.06381 0.8348 0
M  V30 117 N 7.0127 6.78717 1.79688 0
M  V30 118 H 11.8527 2.93845 -0.49591 0
M  V30 119 H 9.3897 1.44848 -0.256389 0
M  V30 120 H 11.3477 3.73868 1.85144 0
M  V30 121 H 9.9777 2.59914 1.91428 0
M  V30 122 H 9.0297 3.7994 -0.187046 0
M  V30 123 H 10.3417 4.98793 -0.0258907 0
M  V30 124 H 9.4957 5.63912 2.23803 0
M  V30 125 H 8.2347 4.37693 2.15118 0
M  V30 126 H 7.2397 5.49631 0.136388 0
M  V30 127 H 8.4647 6.78665 0.24313 0
M  V30 128 H 6.4107 6.11177 2.38326 0
M  V30 129 H 6.3277 7.44998 1.28505 0
M  V30 130 H 7.5957 7.39237 2.47282 0
M  V30 131 N 11.8248 0.280983 1.55075 0
M  V30 132 C 12.7548 -0.597469 2.25727 0
M  V30 133 C 13.7358 -1.15417 1.24952 0
M  V30 134 O 14.9208 -1.18722 1.53684 0
M  V30 135 C 12.0508 -1.7789 2.98283 0
M  V30 136 C 11.0048 -1.35347 4.06036 0
M  V30 137 C 10.3308 -2.61846 4.66198 0
M  V30 138 C 11.6308 -0.499354 5.19907 0
M  V30 139 H 13.3248 -0.00824265 2.99399 0
M  V30 140 H 10.8708 -0.0025244 1.44 0
M  V30 141 H 12.8238 -2.39937 3.46422 0
M  V30 142 H 11.5478 -2.39405 2.22155 0
M  V30 143 H 10.2068 -0.756156 3.58717 0
M  V30 144 H 9.8548 -3.21632 3.86732 0
M  V30 145 H 9.5548 -2.3409 5.38958 0
M  V30 146 H 11.0788 -3.24732 5.1709 0
M  V30 147 H 12.4928 -1.02498 5.64063 0
M  V30 148 H 10.8898 -0.316424 5.99265 0
M  V30 149 H 11.9598 0.480459 4.82514 0
M  V30 150 N 13.3029 -1.57598 0.00835791 0
M  V30 151 C 14.2129 -2.12385 -0.996487 0
M  V30 152 C 15.2289 -1.07108 -1.37127 0
M  V30 153 O 16.4049 -1.39055 -1.4569 0
M  V30 154 C 13.4699 -2.62314 -2.26699 0
M  V30 155 C 12.5309 -3.82225 -1.95456 0
M  V30 156 C 11.7639 -4.29763 -3.16449 0
M  V30 157 O 11.9869 -3.76584 -4.28416 0
M  V30 158 O 10.9209 -5.21832 -2.99958 0
M  V30 159 H 14.7469 -2.98479 -0.560725 0
M  V30 160 H 12.3319 -1.47903 -0.210987 0
M  V30 161 H 14.2139 -2.94589 -3.01322 0
M  V30 162 H 12.8889 -1.79313 -2.69497 0
M  V30 163 H 11.7959 -3.54909 -1.18282 0
M  V30 164 H 13.1289 -4.66324 -1.57489 0
M  V30 165 N 14.781 0.264519 -1.55364 0
M  V30 166 C 16.027 0.99646 -1.76631 0
M  V30 167 C 16.36 1.85632 -0.570478 0
M  V30 168 O 15.635 1.89647 0.43175 0
M  V30 169 C 15.918 1.87187 -3.07625 0
M  V30 170 C 15.771 1.04138 -4.37579 0
M  V30 171 C 17.09 2.85749 -3.34717 0
M  V30 172 H 14.209 0.360841 -0.642622 0
M  V30 173 H 16.851 0.268218 -1.88097 0
M  V30 174 H 15.001 2.49279 -2.9798 0
M  V30 175 H 16.673 0.440517 -4.59192 0
M  V30 176 H 14.916 0.345115 -4.32425 0
M  V30 177 H 15.587 1.68729 -5.2558 0
M  V30 178 H 18.063 2.33793 -3.4421 0
M  V30 179 H 16.939 3.44136 -4.27623 0
M  V30 180 H 17.2 3.61311 -2.54768 0
M  V30 181 N 16.2591 1.48442 0.529413 0
M  V30 182 C 17.2071 1.63452 1.65487 0
M  V30 183 C 18.2011 0.500955 1.61823 0
M  V30 184 O 19.4071 0.679695 1.66674 0
M  V30 185 H 15.7821 0.514905 0.548066 0
M  V30 186 H 17.7531 2.57975 1.49971 0
M  V30 187 C 16.5021 1.69196 3.03756 0
M  V30 188 H 15.8251 2.55784 3.07269 0
M  V30 189 H 17.2651 1.83743 3.82119 0
M  V30 190 C 15.7241 0.430765 3.34135 0
M  V30 191 O 16.2541 -0.4561 3.99102 0
M  V30 192 N 14.4601 0.302293 2.89023 0
M  V30 193 H 14.0071 1.02496 2.36331 0
M  V30 194 H 13.9651 -0.540546 3.09718 0
M  V30 195 N 17.7372 -0.778329 1.37039 0
M  V30 196 C 18.9852 -1.53361 1.31623 0
M  V30 197 C 19.3062 -1.94739 -0.100831 0
M  V30 198 O 18.5762 -1.65797 -1.04347 0
M  V30 199 H 17.1562 -0.568794 0.484234 0
M  V30 200 H 19.8182 -0.926742 1.71457 0
M  V30 201 H 18.9142 -2.43606 1.95096 0
M  V30 202 N 19.2153 -1.21501 -1.00376 0
M  V30 203 C 20.6263 -1.03146 -1.55621 0
M  V30 204 C 20.9773 0.408375 -1.91903 0
M  V30 205 O 20.1023 1.29177 -1.73616 0
M  V30 206 C 20.6973 -1.86612 -2.82775 0
M  V30 207 C 19.2563 -1.72586 -3.34501 0
M  V30 208 C 18.4033 -1.83747 -2.07683 0
M  V30 209 H 21.3543 -1.35505 -0.826081 0
M  V30 210 H 21.3753 -1.3771 -3.54706 0
M  V30 211 H 20.8873 -2.91399 -2.56336 0
M  V30 212 H 18.9883 -0.704877 -3.65872 0
M  V30 213 H 19.1013 -2.54623 -4.05837 0
M  V30 214 H 17.4653 -1.27069 -2.20739 0
M  V30 215 H 18.2483 -2.90044 -1.83655 0
M  V30 216 N 20.6934 1.19889 -1.02296 0
M  V30 217 C 21.6264 2.21639 -0.543282 0
M  V30 218 C 22.6044 1.57275 0.412698 0
M  V30 219 O 23.7884 1.85568 0.331198 0
M  V30 220 C 20.9154 3.38057 0.208571 0
M  V30 221 C 19.9614 4.20751 -0.697933 0
M  V30 222 S 20.7944 4.89529 -2.17075 0
M  V30 223 C 21.9504 6.09363 -1.42923 0
M  V30 224 H 22.1834 2.61984 -1.40541 0
M  V30 225 H 19.7164 1.30041 -0.832387 0
M  V30 226 H 21.6744 4.05539 0.63624 0
M  V30 227 H 20.3354 2.96159 1.04635 0
M  V30 228 H 19.5284 5.03862 -0.117831 0
M  V30 229 H 19.1304 3.58556 -1.06366 0
M  V30 230 H 21.4224 6.73742 -0.712637 0
M  V30 231 H 22.3654 6.71845 -2.23673 0
M  V30 232 H 22.7734 5.56798 -0.929327 0
M  V30 233 N 22.1715 0.800033 1.35784 0
M  V30 234 C 23.4175 0.377901 1.99248 0
M  V30 235 C 23.7505 -1.05052 1.63333 0
M  V30 236 O 23.0255 -1.72768 0.893385 0
M  V30 237 C 23.3085 0.553922 3.55814 0
M  V30 238 C 23.1615 2.0268 4.01548 0
M  V30 239 C 24.4805 -0.0244802 4.40093 0
M  V30 240 H 21.5995 0.138782 0.723815 0
M  V30 241 H 24.2415 1.00835 1.61035 0
M  V30 242 H 22.3915 0.0172398 3.88496 0
M  V30 243 H 24.0635 2.62536 3.79305 0
M  V30 244 H 22.3065 2.5256 3.52698 0
M  V30 245 H 22.9775 2.10087 5.10458 0
M  V30 246 H 25.4535 0.433775 4.13833 0
M  V30 247 H 24.3295 0.128637 5.48749 0
M  V30 248 H 24.5905 -1.11758 4.27741 0
M  V30 249 N 23.6496 -1.47581 0.552962 0
M  V30 250 C 24.8776 -2.06875 0.0320556 0
M  V30 251 C 25.2926 -1.40625 -1.25976 0
M  V30 252 O 24.6496 -0.501349 -1.75479 0
M  V30 253 C 24.7006 -3.61092 -0.17167 0
M  V30 254 O 24.4216 -4.24858 1.06899 0
M  V30 255 C 25.9226 -4.37242 -0.730344 0
M  V30 256 H 23.1426 -0.669561 0.043915 0
M  V30 257 H 25.6866 -1.89646 0.765163 0
M  V30 258 H 23.8416 -3.7785 -0.854894 0
M  V30 259 H 24.2556 -5.17334 0.864059 0
M  V30 260 H 25.7296 -5.45842 -0.822203 0
M  V30 261 H 26.2066 -4.03235 -1.74064 0
M  V30 262 H 26.8126 -4.25219 -0.0829543 0
M  V30 263 N 25.1277 -0.289203 -1.54924 0
M  V30 264 C 26.3737 0.323998 -2.00195 0
M  V30 265 C 26.7067 1.54441 -1.17735 0
M  V30 266 O 25.9817 1.92875 -0.250878 0
M  V30 267 C 26.2647 0.692276 -3.53383 0
M  V30 268 C 26.1177 -0.536457 -4.46589 0
M  V30 269 C 27.4367 1.52335 -4.12895 0
M  V30 270 H 24.5557 0.116289 -0.727768 0
M  V30 271 H 27.1977 -0.398954 -1.85764 0
M  V30 272 H 25.3477 1.30822 -3.65811 0
M  V30 273 H 27.0197 -1.17499 -4.46085 0
M  V30 274 H 25.2627 -1.17192 -4.1767 0
M  V30 275 H 25.9337 -0.234806 -5.515 0
M  V30 276 H 28.4097 1.00302 -4.0383 0
M  V30 277 H 27.2857 1.74982 -5.20262 0
M  V30 278 H 27.5467 2.50886 -3.64018 0
M  V30 279 N 26.6058 1.57591 -0.0167156 0
M  V30 280 C 27.5688 2.08393 0.954204 0
M  V30 281 C 28.5688 0.996531 1.26198 0
M  V30 282 O 29.7588 1.25858 1.20438 0
M  V30 283 C 26.8908 2.5394 2.27436 0
M  V30 284 H 28.0838 2.95455 0.514451 0
M  V30 285 H 25.6368 1.54582 0.231089 0
M  V30 286 H 26.3718 1.70171 2.76066 0
M  V30 287 H 26.1568 3.33371 2.06412 0
M  V30 288 H 27.6468 2.93512 2.97053 0
M  V30 289 N 28.0839 -0.256276 1.55502 0
M  V30 290 C 29.0139 -1.32102 1.92539 0
M  V30 291 C 29.9949 -1.50684 0.789194 0
M  V30 292 O 31.1799 -1.63449 1.04872 0
M  V30 293 C 28.3099 -2.67752 2.21192 0
M  V30 294 C 27.2639 -2.63878 3.36975 0
M  V30 295 C 26.5899 -4.03236 3.51147 0
M  V30 296 C 27.8899 -2.21682 4.72921 0
M  V30 297 H 29.5839 -1.01351 2.81724 0
M  V30 298 H 27.1299 -0.486105 1.35547 0
M  V30 299 H 29.0829 -3.42365 2.45691 0
M  V30 300 H 27.8069 -3.0012 1.28824 0
M  V30 301 H 26.4659 -1.91722 3.12471 0
M  V30 302 H 26.1139 -4.32854 2.56216 0
M  V30 303 H 25.8139 -4.01535 4.29003 0
M  V30 304 H 27.3379 -4.79563 3.77957 0
M  V30 305 H 28.7519 -2.86023 4.96854 0
M  V30 306 H 27.1489 -2.3111 5.53812 0
M  V30 307 H 28.2189 -1.16833 4.70615 0
M  V30 308 N 29.562 -1.4872 -0.521534 0
M  V30 309 C 30.787 -1.61101 -1.30618 0
M  V30 310 C 31.212 -0.274611 -1.86085 0
M  V30 311 O 30.57 0.754937 -1.64834 0
M  V30 312 C 30.618 -2.66709 -2.4269 0
M  V30 313 O 29.722 -2.24456 -3.45967 0
M  V30 314 H 29.063 -0.539921 -0.386499 0
M  V30 315 H 31.593 -1.94767 -0.626645 0
M  V30 316 H 31.603 -2.88245 -2.88754 0
M  V30 317 H 30.278 -3.63727 -2.01682 0
M  V30 318 H 28.855 -2.13168 -3.05964 0
M  V30 319 N 31.0401 0.771051 -1.3745 0
M  V30 320 C 32.2861 1.5319 -1.32894 0
M  V30 321 C 32.6191 1.94008 0.0862511 0
M  V30 322 O 31.8941 1.64124 1.04373 0
M  V30 323 C 32.1771 2.79648 -2.26868 0
M  V30 324 C 32.0301 2.45079 -3.77169 0
M  V30 325 C 33.3491 3.81583 -2.19277 0
M  V30 326 H 30.4681 0.555744 -0.484064 0
M  V30 327 H 33.1101 0.884492 -1.68157 0
M  V30 328 H 31.2601 3.34891 -1.96926 0
M  V30 329 H 32.9321 1.95745 -4.1771 0
M  V30 330 H 31.1751 1.77767 -3.95704 0
M  V30 331 H 31.8461 3.35478 -4.38359 0
M  V30 332 H 34.3221 3.35835 -2.45671 0
M  V30 333 H 33.1981 4.67787 -2.87171 0
M  V30 334 H 33.4591 4.25897 -1.18592 0
M  V30 335 N 32.5182 1.22032 0.997298 0
M  V30 336 C 33.4812 0.987909 2.06816 0
M  V30 337 C 34.4812 -0.0440084 1.6074 0
M  V30 338 O 35.6712 0.194053 1.73116 0
M  V30 339 C 32.8032 0.49132 3.37341 0
M  V30 340 H 33.9962 1.93803 2.28868 0
M  V30 341 H 31.5492 1.03838 1.16822 0
M  V30 342 H 32.2842 -0.463364 3.20973 0
M  V30 343 H 32.0692 1.23575 3.72118 0
M  V30 344 H 33.5592 0.348824 4.16141 0
M  V30 345 N 33.9963 -1.19345 1.0293 0
M  V30 346 C 34.9263 -2.2481 0.631105 0
M  V30 347 C 35.9073 -1.66245 -0.360104 0
M  V30 348 O 37.0923 -1.92677 -0.242726 0
M  V30 349 C 34.2223 -3.47295 -0.0184607 0
M  V30 350 C 33.1763 -4.18536 0.895073 0
M  V30 351 C 32.5023 -5.34586 0.110592 0
M  V30 352 C 33.8023 -4.73287 2.209 0
M  V30 353 H 35.4963 -2.58372 1.51275 0
M  V30 354 H 33.0423 -1.24194 0.728818 0
M  V30 355 H 34.9953 -4.20268 -0.308675 0
M  V30 356 H 33.7193 -3.12933 -0.934907 0
M  V30 357 H 32.3783 -3.47446 1.16949 0
M  V30 358 H 32.0263 -4.96469 -0.807902 0
M  V30 359 H 31.7263 -5.83183 0.719087 0
M  V30 360 H 33.2503 -6.10355 -0.172871 0
M  V30 361 H 34.6643 -5.38013 1.98028 0
M  V30 362 H 33.0613 -5.32373 2.76946 0
M  V30 363 H 34.1313 -3.91331 2.86336 0
M  V30 364 N 35.4744 -0.807222 -1.35358 0
M  V30 365 C 36.4044 -0.232509 -2.3234 0
M  V30 366 C 37.3854 0.642386 -1.57504 0
M  V30 367 O 38.5704 0.572526 -1.85569 0
M  V30 368 C 35.7004 0.619238 -3.41735 0
M  V30 369 C 34.6544 -0.157215 -4.27711 0
M  V30 370 C 33.9804 0.816273 -5.28433 0
M  V30 371 C 35.2804 -1.35656 -5.04376 0
M  V30 372 H 36.9744 -1.04276 -2.80654 0
M  V30 373 H 34.5204 -0.50288 -1.34934 0
M  V30 374 H 36.4734 1.03137 -4.08584 0
M  V30 375 H 35.1974 1.46239 -2.92031 0
M  V30 376 H 33.8564 -0.550525 -3.62443 0
M  V30 377 H 33.5044 1.65494 -4.74996 0
M  V30 378 H 33.2044 0.301067 -5.86828 0
M  V30 379 H 34.7284 1.22659 -5.98153 0
M  V30 380 H 36.1424 -1.01927 -5.64166 0
M  V30 381 H 34.5394 -1.8063 -5.7227 0
M  V30 382 H 35.6094 -2.14288 -4.34981 0
M  V30 383 N 36.9525 1.47285 -0.560781 0
M  V30 384 C 37.9155 2.28535 0.174488 0
M  V30 385 C 38.9155 1.37153 0.839388 0
M  V30 386 O 40.1055 1.59748 0.694702 0
M  V30 387 C 37.2375 3.16934 1.25561 0
M  V30 388 H 38.4305 2.95012 -0.539262 0
M  V30 389 H 35.9835 1.53034 -0.317865 0
M  V30 390 H 36.7185 2.55157 2.00164 0
M  V30 391 H 36.5035 3.8419 0.783604 0
M  V30 392 H 37.9935 3.78143 1.77193 0
M  V30 393 N 38.4306 0.297415 1.54768 0
M  V30 394 C 39.3606 -0.573494 2.26348 0
M  V30 395 C 40.3416 -1.14085 1.26169 0
M  V30 396 O 41.5266 -1.17086 1.54934 0
M  V30 397 C 38.6566 -1.74716 3.00153 0
M  V30 398 C 37.6106 -1.31032 4.07449 0
M  V30 399 C 36.9366 -2.56887 4.68949 0
M  V30 400 C 38.2366 -0.444183 5.20408 0
M  V30 401 H 39.9306 0.0235131 2.99391 0
M  V30 402 H 37.4766 0.0127488 1.43994 0
M  V30 403 H 39.4296 -2.3625 3.48947 0
M  V30 404 H 38.1536 -2.37035 2.24682 0
M  V30 405 H 36.8126 -0.718066 3.59499 0
M  V30 406 H 36.4606 -3.17512 3.90122 0
M  V30 407 H 36.1606 -2.2836 5.41411 0
M  V30 408 H 37.6846 -3.19229 5.20505 0
M  V30 409 H 39.0986 -0.9651 5.65118 0
M  V30 410 H 37.4956 -0.252846 5.99567 0
M  V30 411 H 38.5656 0.531609 4.81977 0
M  V30 412 N 39.9087 -1.5758 0.0250728 0
M  V30 413 C 40.8387 -2.13007 -0.956575 0
M  V30 414 C 41.8197 -1.0452 -1.342 0
M  V30 415 O 43.0047 -1.32332 -1.42133 0
M  V30 416 C 40.1347 -2.65386 -2.24026 0
M  V30 417 C 39.0887 -3.78623 -1.99571 0
M  V30 418 C 38.4147 -4.17414 -3.3417 0
M  V30 419 C 39.7147 -5.04867 -1.33814 0
M  V30 420 H 41.4087 -2.9528 -0.494991 0
M  V30 421 H 38.9547 -1.42042 -0.236651 0
M  V30 422 H 40.9077 -3.02794 -2.93076 0
M  V30 423 H 39.6317 -1.80268 -2.72343 0
M  V30 424 H 38.2907 -3.41646 -1.32941 0
M  V30 425 H 37.9387 -3.29284 -3.80238 0
M  V30 426 H 37.6387 -4.93719 -3.18615 0
M  V30 427 H 39.1627 -4.57402 -4.04495 0
M  V30 428 H 40.5767 -5.39888 -1.92857 0
M  V30 429 H 38.9737 -5.86144 -1.28669 0
M  V30 430 H 40.0437 -4.83904 -0.310561 0
M  V30 431 N 41.3868 0.248026 -1.55636 0
M  V30 432 C 42.3338 1.30707 -1.90222 0
M  V30 433 C 43.3038 1.47881 -0.756332 0
M  V30 434 O 44.4888 1.61883 -1.00988 0
M  V30 435 C 41.6288 2.65769 -2.20138 0
M  V30 436 C 40.7418 2.56612 -3.47526 0
M  V30 437 C 39.8768 3.8402 -3.67017 0
M  V30 438 C 38.9158 3.69476 -4.8801 0
M  V30 439 N 38.0528 4.88774 -5.04029 0
M  V30 440 H 42.8928 1.00512 -2.80538 0
M  V30 441 H 40.4298 0.485055 -1.38873 0
M  V30 442 H 42.3878 3.44386 -2.35487 0
M  V30 443 H 41.0178 2.94115 -1.33027 0
M  V30 444 H 40.0698 1.69571 -3.40514 0
M  V30 445 H 41.3818 2.41774 -4.36287 0
M  V30 446 H 40.5358 4.7108 -3.8232 0
M  V30 447 H 39.2748 4.01754 -2.76487 0
M  V30 448 H 38.2798 2.80799 -4.72686 0
M  V30 449 H 39.5048 3.53238 -5.8 0
M  V30 450 H 37.4508 5.0687 -4.16435 0
M  V30 451 H 37.3678 4.76562 -5.86877 0
M  V30 452 H 38.6358 5.77335 -5.23741 0
M  V30 453 N 42.8649 1.48995 0.513639 0
M  V30 454 C 44.1109 1.59053 1.26783 0
M  V30 455 C 44.4659 0.268136 1.90522 0
M  V30 456 O 43.7589 -0.730534 1.77126 0
M  V30 457 C 43.9529 2.67756 2.36731 0
M  V30 458 C 43.7819 4.10437 1.83771 0
M  V30 459 C 42.5519 4.7738 1.65639 0
M  V30 460 C 44.7499 4.9608 1.35681 0
M  V30 461 N 42.7319 6.04419 1.07476 0
M  V30 462 C 44.1029 6.13496 0.895715 0
M  V30 463 C 46.1579 4.82177 1.24136 0
M  V30 464 C 44.8609 7.1854 0.3306 0
M  V30 465 C 46.8869 5.87358 0.690229 0
M  V30 466 C 46.2489 7.03993 0.239292 0
M  V30 467 H 42.3479 0.636463 0.454355 0
M  V30 468 H 44.9319 1.85948 0.577196 0
M  V30 469 H 43.1029 2.42655 3.03271 0
M  V30 470 H 44.8349 2.67406 3.0377 0
M  V30 471 H 41.5899 4.33974 1.8964 0
M  V30 472 H 42.0139 6.72214 0.803579 0
M  V30 473 H 46.6559 3.92329 1.57601 0
M  V30 474 H 44.3739 8.08098 -0.0163435 0
M  V30 475 H 47.9599 5.78658 0.603852 0
M  V30 476 H 46.8399 7.83992 -0.180526 0
M  V30 477 N 44.343 -0.763751 1.37857 0
M  V30 478 C 45.573 -1.55067 1.3652 0
M  V30 479 C 45.981 -1.89135 -0.0494227 0
M  V30 480 O 45.324 -1.52529 -1.02375 0
M  V30 481 C 45.386 -2.8838 2.14656 0
M  V30 482 C 45.05 -2.76905 3.63555 0
M  V30 483 C 46.047 -2.4739 4.57268 0
M  V30 484 C 43.732 -2.94676 4.06781 0
M  V30 485 C 45.726 -2.35786 5.92186 0
M  V30 486 C 43.413 -2.82692 5.41782 0
M  V30 487 C 44.411 -2.53289 6.34298 0
M  V30 488 O 44.099 -2.41345 7.66817 0
M  V30 489 H 43.831 -0.486776 0.469069 0
M  V30 490 H 46.385 -0.953812 1.81911 0
M  V30 491 H 44.615 -3.50217 1.63967 0
M  V30 492 H 46.304 -3.49828 2.05852 0
M  V30 493 H 47.07 -2.33339 4.2518 0
M  V30 494 H 42.949 -3.16563 3.35126 0
M  V30 495 H 46.493 -2.12757 6.64365 0
M  V30 496 H 42.39 -2.96314 5.7347 0
M  V30 497 H 43.158 -2.56634 7.77226 0
M  V30 498 N 45.8211 -1.22559 -0.990812 0
M  V30 499 C 47.0461 -1.07862 -1.77145 0
M  V30 500 C 47.4711 0.366447 -1.84496 0
M  V30 501 O 46.8291 1.26478 -1.29896 0
M  V30 502 C 46.8771 -1.69686 -3.18181 0
M  V30 503 O 45.9811 -0.951946 -4.01263 0
M  V30 504 H 45.3221 -0.378712 -0.545411 0
M  V30 505 H 47.8521 -1.62399 -1.2445 0
M  V30 506 H 47.8621 -1.74496 -3.68802 0
M  V30 507 H 46.5371 -2.74841 -3.12146 0
M  V30 508 H 45.1141 -0.980011 -3.59792 0
M  V30 509 N 47.2992 1.18797 -1.03562 0
M  V30 510 C 48.5272 1.92599 -0.755869 0
M  V30 511 C 48.9422 1.75886 0.686271 0
M  V30 512 O 48.2992 1.08517 1.46732 0
M  V30 513 C 48.3502 3.44159 -1.10619 0
M  V30 514 O 48.0712 3.60341 -2.4917 0
M  V30 515 C 49.5722 4.3507 -0.850214 0
M  V30 516 H 46.7922 0.611587 -0.276048 0
M  V30 517 H 49.3362 1.50742 -1.38192 0
M  V30 518 H 47.4912 3.83823 -0.525194 0
M  V30 519 H 47.9052 4.54128 -2.62427 0
M  V30 520 H 49.3792 5.39989 -1.14523 0
M  V30 521 H 49.8562 4.38673 0.215176 0
M  V30 522 H 50.4622 4.01097 -1.41426 0
M  V30 523 N 48.7773 0.814389 1.34928 0
M  V30 524 C 50.0023 0.410097 2.03305 0
M  V30 525 C 50.4273 -0.973464 1.60951 0
M  V30 526 O 49.7853 -1.63185 0.789964 0
M  V30 527 C 49.8333 0.51049 3.56968 0
M  V30 528 O 48.9373 -0.473035 4.09678 0
M  V30 529 H 48.2783 0.170088 0.641846 0
M  V30 530 H 50.8083 1.10244 1.72358 0
M  V30 531 H 50.8183 0.383135 4.06197 0
M  V30 532 H 49.4933 1.51963 3.87144 0
M  V30 533 H 48.0703 -0.305272 3.71648 0
M  V30 534 N 50.2554 -1.46986 0.568584 0
M  V30 535 C 51.2184 -2.28624 -0.162366 0
M  V30 536 C 52.2184 -1.37596 -0.832103 0
M  V30 537 O 53.4084 -1.60115 -0.68622 0
M  V30 538 C 50.5404 -3.17596 -1.23878 0
M  V30 539 H 51.7334 -2.94722 0.554899 0
M  V30 540 H 49.2864 -1.52863 0.325976 0
M  V30 541 H 50.0214 -2.56214 -1.98808 0
M  V30 542 H 49.8064 -3.846 -0.763219 0
M  V30 543 H 51.2964 -3.79078 -1.75185 0
M  V30 544 N 51.7335 -0.305618 -1.54608 0
M  V30 545 C 52.9805 0.302298 -2.00231 0
M  V30 546 C 53.3085 1.5354 -1.19398 0
M  V30 547 O 52.5635 1.93973 -0.259423 0
M  V30 548 C 52.8625 0.698983 -3.50498 0
M  V30 549 C 52.5285 -0.432903 -4.48817 0
M  V30 550 C 51.1905 -0.743622 -4.75419 0
M  V30 551 C 53.5425 -1.19409 -5.07337 0
M  V30 552 C 50.8705 -1.81857 -5.57804 0
M  V30 553 C 53.2225 -2.25899 -5.90891 0
M  V30 554 C 51.8865 -2.57572 -6.15803 0
M  V30 555 H 51.1565 0.110619 -0.732697 0
M  V30 556 H 53.8035 -0.425674 -1.86709 0
M  V30 557 H 52.1085 1.50711 -3.61654 0
M  V30 558 H 53.8055 1.1806 -3.83227 0
M  V30 559 H 50.3955 -0.18063 -4.28219 0
M  V30 560 H 54.5795 -0.967295 -4.86782 0
M  V30 561 H 49.8355 -2.06864 -5.75341 0
M  V30 562 H 54.0095 -2.85335 -6.35261 0
M  V30 563 H 51.6365 -3.40998 -6.7943 0
M  V30 564 N 53.2116 1.57565 -0.0334293 0
M  V30 565 C 54.4366 1.96689 0.657895 0
M  V30 566 C 54.8616 0.910057 1.64619 0
M  V30 567 O 54.2196 -0.128598 1.80843 0
M  V30 568 C 54.2676 3.34905 1.33683 0
M  V30 569 O 53.3716 3.31574 2.45219 0
M  V30 570 H 52.7126 0.641205 0.172489 0
M  V30 571 H 55.2426 2.04372 -0.0965621 0
M  V30 572 H 55.2526 3.71234 1.69262 0
M  V30 573 H 53.9276 4.11366 0.612411 0
M  V30 574 H 52.5046 3.06968 2.11719 0
M  V30 575 N 54.6897 -0.239769 1.55765 0
M  V30 576 C 56.1057 -0.588624 1.48349 0
M  V30 577 C 56.3057 -1.88005 0.72502 0
M  V30 578 O 55.3617 -2.51186 0.257269 0
M  V30 579 C 56.6747 -0.68474 2.928 0
M  V30 580 C 58.2227 -0.77659 3.03213 0
M  V30 581 C 58.6977 -0.904207 4.48986 0
M  V30 582 N 60.1887 -0.968896 4.52953 0
M  V30 583 C 60.9237 -1.08703 5.63002 0
M  V30 584 N 60.4197 -1.17026 6.82845 0
M  V30 585 N 62.2127 -1.12074 5.50814 0
M  V30 586 H 54.3637 0.607911 2.03515 0
M  V30 587 H 56.6267 0.21083 0.924259 0
M  V30 588 H 56.3327 0.194284 3.51163 0
M  V30 589 H 56.2067 -1.55435 3.43686 0
M  V30 590 H 58.5937 -1.64606 2.44926 0
M  V30 591 H 58.6747 0.118315 2.55526 0
M  V30 592 H 58.3187 -0.0392633 5.07885 0
M  V30 593 H 58.2487 -1.81426 4.9436 0
M  V30 594 H 60.7397 -0.915633 3.6664 0
M  V30 595 H 61.0527 -1.25966 7.62465 0
M  V30 596 H 59.3977 -1.13971 6.85591 0
M  V30 597 H 62.5887 -1.05226 4.5612 0
M  V30 598 H 62.7617 -1.20936 6.36615 0
M  V30 599 N 56.1678 -1.49265 -0.50573 0
M  V30 600 C 57.0978 -1.68495 -1.61653 0
M  V30 601 C 58.0788 -0.53366 -1.61512 0
M  V30 602 O 59.2638 -0.76897 -1.78327 0
M  V30 603 C 56.3938 -1.74709 -3.00157 0
M  V30 604 C 55.3478 -2.89581 -3.15162 0
M  V30 605 C 54.6738 -2.80903 -4.5497 0
M  V30 606 C 55.9738 -4.30578 -2.95634 0
M  V30 607 H 57.6678 -2.61493 -1.45814 0
M  V30 608 H 55.2138 -1.25838 -0.70005 0
M  V30 609 H 57.1668 -1.86748 -3.77761 0
M  V30 610 H 55.8908 -0.783067 -3.17074 0
M  V30 611 H 54.5498 -2.77136 -2.39982 0
M  V30 612 H 54.1978 -1.82419 -4.68756 0
M  V30 613 H 53.8978 -3.57999 -4.65951 0
M  V30 614 H 55.4218 -2.94944 -5.34641 0
M  V30 615 H 56.8358 -4.4373 -3.63011 0
M  V30 616 H 55.2328 -5.0886 -3.18091 0
M  V30 617 H 56.3028 -4.45352 -1.91806 0
M  V30 618 N 57.6459 0.756429 -1.3826 0
M  V30 619 C 58.5559 1.9009 -1.37488 0
M  V30 620 C 59.5719 1.71855 -0.272366 0
M  V30 621 O 60.7479 1.94827 -0.510318 0
M  V30 622 C 57.8129 3.25421 -1.19592 0
M  V30 623 C 56.8739 3.56202 -2.39622 0
M  V30 624 C 56.1069 4.85075 -2.2257 0
M  V30 625 O 56.3299 5.57246 -1.21793 0
M  V30 626 O 55.2639 5.15269 -3.11098 0
M  V30 627 H 59.0899 1.93695 -2.33914 0
M  V30 628 H 56.6749 0.901313 -1.1915 0
M  V30 629 H 58.5569 4.06337 -1.11661 0
M  V30 630 H 57.2319 3.22634 -0.262486 0
M  V30 631 H 56.1389 2.75458 -2.53128 0
M  V30 632 H 57.4719 3.63747 -3.31586 0
M  V30 633 N 59.124 1.23083 0.984299 0
M  V30 634 C 60.071 1.00854 2.07598 0
M  V30 635 C 61.041 -0.0726709 1.65941 0
M  V30 636 O 62.226 0.0786535 1.90638 0
M  V30 637 C 59.366 0.601645 3.39815 0
M  V30 638 C 58.479 1.75456 3.94765 0
M  V30 639 C 57.614 1.29482 5.15177 0
M  V30 640 C 56.653 2.41873 5.62284 0
M  V30 641 N 55.79 1.96885 6.73929 0
M  V30 642 H 60.63 1.943 2.25946 0
M  V30 643 H 58.167 0.968001 1.10762 0
M  V30 644 H 60.125 0.346854 4.15756 0
M  V30 645 H 58.755 -0.295803 3.21442 0
M  V30 646 H 57.807 2.12346 3.15616 0
M  V30 647 H 59.119 2.59965 4.25699 0
M  V30 648 H 58.273 0.997923 5.98437 0
M  V30 649 H 57.012 0.420046 4.85888 0
M  V30 650 H 56.017 2.72342 4.77608 0
M  V30 651 H 57.242 3.29881 5.93595 0
M  V30 652 H 55.188 1.11782 6.46406 0
M  V30 653 H 55.105 2.74956 7.04227 0
M  V30 654 H 56.373 1.70289 7.60672 0
M  V30 655 N 60.6021 -1.18246 1.0419 0
M  V30 656 C 61.5321 -2.24127 0.654914 0
M  V30 657 C 62.5131 -1.66617 -0.342451 0
M  V30 658 O 63.6981 -1.92924 -0.222277 0
M  V30 659 C 60.8281 -3.47295 0.0183757 0
M  V30 660 C 59.7821 -4.17563 0.939414 0
M  V30 661 C 59.1081 -5.34438 0.167286 0
M  V30 662 C 60.4081 -4.70917 2.25908 0
M  V30 663 H 62.1021 -2.56753 1.54007 0
M  V30 664 H 59.6481 -1.23414 0.74195 0
M  V30 665 H 61.6011 -4.20572 -0.264082 0
M  V30 666 H 60.3251 -3.13907 -0.901664 0
M  V30 667 H 58.9841 -3.46186 1.20628 0
M  V30 668 H 58.6321 -4.97298 -0.7552 0
M  V30 669 H 58.3321 -5.82388 0.780901 0
M  V30 670 H 59.8561 -6.10504 -0.108125 0
M  V30 671 H 61.2701 -5.35882 2.03724 0
M  V30 672 H 59.6671 -5.29406 2.82577 0
M  V30 673 H 60.7371 -3.88272 2.9047 0
M  V30 674 N 62.0802 -0.821533 -1.34494 0
M  V30 675 C 63.3282 -0.408139 -1.97936 0
M  V30 676 C 63.6492 1.03193 -1.65457 0
M  V30 677 O 62.9192 1.71622 -0.944595 0
M  V30 678 H 61.4992 -0.147928 -0.732206 0
M  V30 679 H 64.1612 -1.05067 -1.64155 0
M  V30 680 H 63.2572 -0.52601 -3.07635 0
M  V30 681 N 63.5583 1.46682 -0.576371 0
M  V30 682 C 64.4883 2.33028 0.148397 0
M  V30 683 C 65.4693 1.44961 0.889956 0
M  V30 684 O 66.6543 1.73789 0.866662 0
M  V30 685 C 63.7843 3.27117 1.1667 0
M  V30 686 C 62.7383 4.24575 0.540386 0
M  V30 687 C 62.0643 5.08126 1.6647 0
M  V30 688 C 63.3643 5.19722 -0.518331 0
M  V30 689 H 65.0583 2.93875 -0.572509 0
M  V30 690 H 62.6043 1.41315 -0.276768 0
M  V30 691 H 64.5573 3.86374 1.68204 0
M  V30 692 H 63.2813 2.64364 1.9178 0
M  V30 693 H 61.9403 3.66571 0.0461769 0
M  V30 694 H 61.5883 4.41762 2.40531 0
M  V30 695 H 61.2883 5.74122 1.25131 0
M  V30 696 H 62.8123 5.70246 2.18293 0
M  V30 697 H 64.2263 5.73232 -0.0883058 0
M  V30 698 H 62.6233 5.94026 -0.851679 0
M  V30 699 H 63.6933 4.64037 -1.40703 0
M  V30 700 N 65.0364 0.313813 1.54444 0
M  V30 701 C 66.4524 -0.0391619 1.59552 0
M  V30 702 C 66.6524 -1.51322 1.33056 0
M  V30 703 O 65.7084 -2.26782 1.11022 0
M  V30 704 C 67.0214 0.370302 2.98411 0
M  V30 705 C 68.5694 0.320139 3.11358 0
M  V30 706 C 69.0444 0.704617 4.52547 0
M  V30 707 N 70.5354 0.657645 4.58508 0
M  V30 708 C 71.2704 0.927453 5.6585 0
M  V30 709 N 70.7664 1.26389 6.81174 0
M  V30 710 N 72.5594 0.853662 5.5558 0
M  V30 711 H 64.7104 1.27433 1.69925 0
M  V30 712 H 66.9734 0.517511 0.794284 0
M  V30 713 H 66.6794 1.39694 3.22767 0
M  V30 714 H 66.5534 -0.269619 3.76235 0
M  V30 715 H 68.9404 -0.697275 2.86744 0
M  V30 716 H 69.0214 0.99486 2.35661 0
M  V30 717 H 68.6654 1.7199 4.77893 0
M  V30 718 H 68.5954 0.00768843 5.26599 0
M  V30 719 H 71.0864 0.409067 3.75679 0
M  V30 720 H 71.3994 1.4554 7.58972 0
M  V30 721 H 69.7444 1.30206 6.82694 0
M  V30 722 H 72.9354 0.590383 4.64362 0
M  V30 723 H 73.1084 1.0673 6.3915 0
M  V30 724 N 66.5145 -1.57545 0.0417849 0
M  V30 725 C 67.4645 -2.07483 -0.945247 0
M  V30 726 C 68.4485 -0.977983 -1.27767 0
M  V30 727 O 69.6405 -1.24142 -1.26166 0
M  V30 728 C 66.7695 -2.61576 -2.22335 0
M  V30 729 C 65.8555 -3.78213 -1.91874 0
M  V30 730 N 66.2465 -4.88344 -1.31733 0
M  V30 731 C 64.5445 -3.8694 -2.21796 0
M  V30 732 C 65.2455 -5.69462 -1.1869 0
M  V30 733 N 64.2215 -5.16771 -1.68666 0
M  V30 734 H 68.0235 -2.90029 -0.475441 0
M  V30 735 H 65.5375 -1.61581 -0.162911 0
M  V30 736 H 67.5345 -2.95651 -2.93932 0
M  V30 737 H 66.1945 -1.80465 -2.69931 0
M  V30 738 H 67.2055 -5.08335 -0.990729 0
M  V30 739 H 63.8825 -3.16757 -2.71977 0
M  V30 740 H 65.2725 -6.68023 -0.720793 0
M  V30 741 N 67.9926 0.231505 -1.5589 0
M  V30 742 C 69.4036 0.799327 -1.68724 0
M  V30 743 C 69.7546 1.85398 -0.642022 0
M  V30 744 O 68.8796 2.1539 0.208784 0
M  V30 745 C 69.4746 1.45664 -3.05888 0
M  V30 746 C 68.0336 1.97197 -3.20609 0
M  V30 747 C 67.1806 0.828552 -2.64632 0
M  V30 748 H 70.1316 0.00702616 -1.58698 0
M  V30 749 H 70.1526 2.32517 -3.01191 0
M  V30 750 H 69.6646 0.688808 -3.81939 0
M  V30 751 H 67.7656 2.76813 -2.4941 0
M  V30 752 H 67.8786 2.15878 -4.27707 0
M  V30 753 H 66.2426 1.23321 -2.22854 0
M  V30 754 H 67.0256 0.0735544 -3.43221 0
M  V30 755 N 69.4707 1.49531 0.497807 0
M  V30 756 C 70.4177 1.66436 1.59899 0
M  V30 757 C 71.3877 0.505793 1.58212 0
M  V30 758 O 72.5727 0.733202 1.7615 0
M  V30 759 C 69.7127 1.7399 2.98029 0
M  V30 760 C 68.8257 3.01172 3.09708 0
M  V30 761 C 67.9607 2.99686 4.38591 0
M  V30 762 C 66.9997 4.21434 4.43914 0
M  V30 763 N 66.1367 4.1784 5.64229 0
M  V30 764 H 70.9767 2.60459 1.44793 0
M  V30 765 H 68.5137 1.29137 0.704423 0
M  V30 766 H 70.4717 1.76352 3.78095 0
M  V30 767 H 69.1017 0.834301 3.11832 0
M  V30 768 H 68.1537 3.08408 2.22685 0
M  V30 769 H 69.4657 3.91165 3.09502 0
M  V30 770 H 68.6197 3.00628 5.2698 0
M  V30 771 H 67.3587 2.07477 4.41367 0
M  V30 772 H 66.3637 4.20733 3.53926 0
M  V30 773 H 67.5887 5.14839 4.42851 0
M  V30 774 H 65.5347 3.28469 5.67841 0
M  V30 775 H 65.4517 5.01571 5.65652 0
M  V30 776 H 66.7197 4.22889 6.54817 0
M  V30 777 N 70.9488 -0.749086 1.3866 0
M  V30 778 C 72.3598 -1.32664 1.31366 0
M  V30 779 C 72.7108 -1.96179 -0.028484 0
M  V30 780 O 71.8358 -1.9537 -0.93057 0
M  V30 781 C 72.4308 -2.41219 2.37905 0
M  V30 782 C 70.9898 -2.94684 2.34176 0
M  V30 783 C 70.1368 -1.68108 2.20533 0
M  V30 784 H 73.0878 -0.547628 1.48952 0
M  V30 785 H 73.1088 -3.21268 2.0388 0
M  V30 786 H 72.6208 -1.94962 3.35576 0
M  V30 787 H 70.7218 -3.45258 1.401 0
M  V30 788 H 70.8348 -3.48757 3.2849 0
M  V30 789 H 69.1988 -1.91907 1.67463 0
M  V30 790 H 69.9818 -1.23923 3.20153 0
M  V30 791 N 72.4269 -1.23603 -0.977757 0
M  V30 792 C 73.6519 -1.09735 -1.75991 0
M  V30 793 C 74.0769 0.346858 -1.84874 0
M  V30 794 O 73.4349 1.25093 -1.3123 0
M  V30 795 C 73.4829 -1.73051 -3.16363 0
M  V30 796 O 72.5869 -0.994452 -4.0023 0
M  V30 797 H 71.9279 -0.384476 -0.541364 0
M  V30 798 H 74.4579 -1.6371 -1.2272 0
M  V30 799 H 74.4679 -1.78398 -3.66931 0
M  V30 800 H 73.1429 -2.78137 -3.09213 0
M  V30 801 H 71.7199 -1.01812 -3.58732 0
M  V30 802 N 73.905 1.17692 -1.04816 0
M  V30 803 C 75.316 1.69501 -0.782698 0
M  V30 804 C 75.667 1.83456 0.695577 0
M  V30 805 O 74.792 1.51942 1.54086 0
M  V30 806 C 75.387 3.07874 -1.41419 0
M  V30 807 C 73.946 3.56864 -1.19686 0
M  V30 808 C 73.093 2.3322 -1.50012 0
M  V30 809 H 76.044 1.02262 -1.2136 0
M  V30 810 H 76.065 3.71528 -0.821428 0
M  V30 811 H 75.577 2.97685 -2.49009 0
M  V30 812 H 73.678 3.72337 -0.140043 0
M  V30 813 H 73.791 4.39851 -1.89916 0
M  V30 814 H 72.155 2.37501 -0.920071 0
M  V30 815 H 72.938 2.25644 -2.58727 0
M  V30 816 N 75.3831 0.828654 1.34056 0
M  V30 817 C 76.6301 0.419458 1.98108 0
M  V30 818 C 76.9581 -1.01886 1.65679 0
M  V30 819 O 76.2131 -1.72539 0.923512 0
M  V30 820 C 76.5121 0.575226 3.52741 0
M  V30 821 C 76.1781 1.98012 4.05095 0
M  V30 822 C 74.8401 2.36442 4.19104 0
M  V30 823 C 77.1921 2.89824 4.33188 0
M  V30 824 C 74.5201 3.66009 4.58535 0
M  V30 825 C 76.8721 4.1886 4.74066 0
M  V30 826 C 75.5361 4.5726 4.86281 0
M  V30 827 H 74.8061 0.153491 0.724929 0
M  V30 828 H 77.4531 1.05371 1.59904 0
M  V30 829 H 75.7581 -0.142385 3.91541 0
M  V30 830 H 77.4551 0.239057 4.00287 0
M  V30 831 H 74.0451 1.67162 3.94658 0
M  V30 832 H 78.2291 2.61375 4.21897 0
M  V30 833 H 73.4851 3.95579 4.66184 0
M  V30 834 H 77.6591 4.90086 4.94761 0
M  V30 835 H 75.2861 5.57707 5.16592 0
M  V30 836 N 76.8612 -1.46375 0.584142 0
M  V30 837 C 78.1102 -2.01585 0.0679741 0
M  V30 838 C 78.4232 -1.46109 -1.30045 0
M  V30 839 O 79.6292 -1.93148 -1.90804 0
M  V30 840 C 78.0852 -3.5983 0.0709207 0
M  V30 841 C 77.6932 -4.24303 1.43775 0
M  V30 842 C 79.4372 -4.22693 -0.391228 0
M  V30 843 C 77.3442 -5.74631 1.39834 0
M  V30 844 H 76.2742 -0.753689 0.0216421 0
M  V30 845 H 78.9252 -1.68093 0.736001 0
M  V30 846 H 77.3072 -3.90405 -0.663299 0
M  V30 847 H 78.4812 -4.05335 2.19181 0
M  V30 848 H 76.7962 -3.73539 1.84004 0
M  V30 849 H 79.3932 -5.3289 -0.439524 0
M  V30 850 H 79.7362 -3.91728 -1.40906 0
M  V30 851 H 80.2692 -3.96749 0.288974 0
M  V30 852 H 77.0082 -6.10258 2.39303 0
M  V30 853 H 76.5282 -5.95858 0.686505 0
M  V30 854 H 78.2072 -6.37375 1.11187 0
M  V30 855 N 78.3393 -0.321999 -1.54275 0
M  V30 856 C 79.5873 0.280489 -2.00144 0
M  V30 857 C 79.9083 1.52777 -1.21178 0
M  V30 858 O 79.1783 1.9338 -0.313187 0
M  V30 859 H 77.7583 0.106632 -0.73935 0
M  V30 860 H 80.4203 -0.438184 -1.8991 0
M  V30 861 H 79.5163 0.537972 -3.07428 0
M  V30 862 N 79.8174 1.5752 -0.0501392 0
M  V30 863 C 80.7654 2.12651 0.942459 0
M  V30 864 C 81.7594 1.05807 1.32292 0
M  V30 865 O 82.9654 1.24217 1.3027 0
M  V30 866 H 79.3404 0.679673 0.321789 0
M  V30 867 H 81.3114 2.94951 0.452356 0
M  V30 868 C 80.0604 2.68565 2.20836 0
M  V30 869 H 79.3834 3.50439 1.92439 0
M  V30 870 H 80.8234 3.10761 2.8845 0
M  V30 871 C 79.2824 1.62291 2.95234 0
M  V30 872 O 79.8124 1.03508 3.88135 0
M  V30 873 N 78.0184 1.33836 2.57946 0
M  V30 874 H 77.5654 1.81826 1.82475 0
M  V30 875 H 77.5234 0.629595 3.08032 0
M  V30 876 N 81.2955 -0.223234 1.56011 0
M  V30 877 C 82.2255 -1.27988 1.95298 0
M  V30 878 C 83.2065 -1.48976 0.820979 0
M  V30 879 O 84.3915 -1.61188 1.08315 0
M  V30 880 C 81.5215 -2.63 2.26822 0
M  V30 881 C 80.4755 -2.56671 3.42497 0
M  V30 882 C 79.8015 -3.95697 3.59622 0
M  V30 883 C 81.1015 -2.11601 4.77517 0
M  V30 884 H 82.7955 -0.953525 2.8381 0
M  V30 885 H 80.3415 -0.457244 1.36548 0
M  V30 886 H 82.2945 -3.37077 2.52898 0
M  V30 887 H 81.0185 -2.9732 1.35161 0
M  V30 888 H 79.6775 -1.85051 3.16467 0
M  V30 889 H 79.3255 -4.27322 2.6534 0
M  V30 890 H 79.0255 -3.92345 4.37424 0
M  V30 891 H 80.5495 -4.71438 3.88044 0
M  V30 892 H 81.9635 -2.7542 5.02809 0
M  V30 893 H 80.3605 -2.19311 5.5859 0
M  V30 894 H 81.4305 -1.06824 4.72987 0
M  V30 895 N 82.7736 -1.49793 -0.48987 0
M  V30 896 C 84.0016 -1.63568 -1.26701 0
M  V30 897 C 84.4166 -0.311465 -1.86213 0
M  V30 898 O 83.7736 0.704416 -1.68357 0
M  V30 899 C 83.8246 -2.71284 -2.38929 0
M  V30 900 O 83.5456 -3.9857 -1.81861 0
M  V30 901 C 85.0466 -2.95864 -3.3012 0
M  V30 902 H 82.2666 -0.550342 -0.383881 0
M  V30 903 H 84.8106 -1.95898 -0.586864 0
M  V30 904 H 82.9656 -2.417 -3.02753 0
M  V30 905 H 83.3796 -4.57993 -2.55622 0
M  V30 906 H 84.8536 -3.74941 -4.05121 0
M  V30 907 H 85.3306 -2.06206 -3.87783 0
M  V30 908 H 85.9366 -3.26907 -2.72051 0
M  V30 909 N 84.2517 0.741722 -1.39055 0
M  V30 910 C 85.4987 1.50114 -1.35912 0
M  V30 911 C 85.8267 1.94443 0.0470937 0
M  V30 912 O 85.0817 1.66612 1.02659 0
M  V30 913 C 85.3807 2.7592 -2.27163 0
M  V30 914 C 85.0467 2.50493 -3.74919 0
M  V30 915 C 83.7087 2.43267 -4.1518 0
M  V30 916 C 86.0607 2.28585 -4.684 0
M  V30 917 C 83.3887 2.12166 -5.46994 0
M  V30 918 C 85.7407 1.99002 -6.00484 0
M  V30 919 C 84.4047 1.90241 -6.39816 0
M  V30 920 H 83.6747 0.549306 -0.497336 0
M  V30 921 H 86.3217 0.851896 -1.71508 0
M  V30 922 H 84.6267 3.45553 -1.84663 0
M  V30 923 H 86.3237 3.33923 -2.22028 0
M  V30 924 H 82.9137 2.56992 -3.43006 0
M  V30 925 H 87.0977 2.33139 -4.38132 0
M  V30 926 H 82.3537 2.03901 -5.76398 0
M  V30 927 H 86.5277 1.81057 -6.72452 0
M  V30 928 H 84.1547 1.65907 -7.41875 0
M  V30 929 N 85.7298 1.2412 0.971189 0
M  V30 930 C 86.9768 1.07881 1.71371 0
M  V30 931 C 87.3048 -0.382901 1.90694 0
M  V30 932 O 86.5598 -1.29945 1.46331 0
M  V30 933 C 86.8588 1.75983 3.11071 0
M  V30 934 C 86.5248 3.25909 3.11599 0
M  V30 935 C 85.1868 3.66813 3.11451 0
M  V30 936 C 87.5388 4.21771 3.062 0
M  V30 937 C 84.8668 5.02021 3.03631 0
M  V30 938 C 87.2188 5.56982 2.99923 0
M  V30 939 C 85.8828 5.97237 2.98102 0
M  V30 940 H 85.1528 0.394764 0.62709 0
M  V30 941 H 87.7998 1.54176 1.13587 0
M  V30 942 H 86.1048 1.22072 3.72298 0
M  V30 943 H 87.8018 1.60887 3.6731 0
M  V30 944 H 84.3918 2.93353 3.12477 0
M  V30 945 H 88.5758 3.91172 3.05447 0
M  V30 946 H 83.8318 5.32411 3.0058 0
M  V30 947 H 88.0058 6.30969 2.94704 0
M  V30 948 H 85.6328 7.01967 2.91798 0
M  V30 949 N 87.2079 -1.17134 1.05439 0
M  V30 950 C 88.6239 -1.39454 0.776201 0
M  V30 951 C 88.8239 -1.91454 -0.628307 0
M  V30 952 O 87.8799 -2.10777 -1.39031 0
M  V30 953 C 89.1929 -2.38305 1.83388 0
M  V30 954 C 90.7409 -2.52006 1.85639 0
M  V30 955 C 91.2159 -3.54133 2.90437 0
M  V30 956 N 92.7069 -3.61653 2.89415 0
M  V30 957 C 93.4419 -4.4044 3.67152 0
M  V30 958 N 92.9379 -5.22721 4.54681 0
M  V30 959 N 94.7309 -4.35337 3.55581 0
M  V30 960 H 86.8819 -0.817134 1.96053 0
M  V30 961 H 89.1449 -0.421626 0.849079 0
M  V30 962 H 88.8509 -2.07173 2.84204 0
M  V30 963 H 88.7249 -3.37841 1.67761 0
M  V30 964 H 91.1119 -2.82447 0.85486 0
M  V30 965 H 91.1929 -1.52537 2.05344 0
M  V30 966 H 90.8369 -3.24431 3.90777 0
M  V30 967 H 90.7669 -4.53313 2.67983 0
M  V30 968 H 93.2579 -3.02909 2.25952 0
M  V30 969 H 93.5709 -5.80027 5.10674 0
M  V30 970 H 91.9159 -5.22093 4.58741 0
M  V30 971 H 95.1069 -3.70112 2.86592 0
M  V30 972 H 95.2799 -4.96494 4.1641 0
M  V30 973 N 88.686 -0.835752 -1.33615 0
M  V30 974 C 89.618 -0.224151 -2.28101 0
M  V30 975 C 90.631 0.593331 -1.51603 0
M  V30 976 O 91.82 0.420911 -1.73466 0
M  V30 977 C 88.92 0.703309 -3.31522 0
M  V30 978 C 88.093 -0.0741528 -4.37337 0
M  V30 979 C 87.152 0.776176 -5.20444 0
M  V30 980 O 86.178 0.216506 -5.68788 0
M  V30 981 N 87.38 2.09401 -5.41416 0
M  V30 982 H 90.145 -1.03598 -2.81225 0
M  V30 983 H 87.706 -0.69392 -1.46275 0
M  V30 984 H 89.698 1.27707 -3.84022 0
M  V30 985 H 88.268 1.41585 -2.78698 0
M  V30 986 H 87.488 -0.82928 -3.85378 0
M  V30 987 H 88.776 -0.608863 -5.05144 0
M  V30 988 H 88.174 2.57229 -5.03835 0
M  V30 989 H 86.731 2.61633 -5.96985 0
M  V30 990 N 90.1641 1.46063 -0.591896 0
M  V30 991 C 91.4121 2.01938 -0.0808391 0
M  V30 992 C 91.7331 1.46475 1.28725 0
M  V30 993 O 91.0031 0.652944 1.84698 0
M  V30 994 H 89.5831 0.746516 -0.0268938 0
M  V30 995 H 92.2451 1.79055 -0.769752 0
M  V30 996 H 91.3411 3.12094 -0.0187578 0
M  V30 997 N 91.6422 0.330177 1.54103 0
M  V30 998 C 92.8892 -0.270405 2.00686 0
M  V30 999 C 93.2172 -1.51621 1.21825 0
M  V30 1000 O 92.4722 -1.93536 0.29025 0
M  V30 1001 C 92.7712 -0.643134 3.51566 0
M  V30 1002 C 92.4372 0.504251 4.48072 0
M  V30 1003 C 91.0992 0.819163 4.74176 0
M  V30 1004 C 93.4512 1.27465 5.05373 0
M  V30 1005 C 90.7792 1.90708 5.5484 0
M  V30 1006 C 93.1312 2.35271 5.87223 0
M  V30 1007 C 91.7952 2.67336 6.11627 0
M  V30 1008 H 91.0652 -0.0989482 0.734364 0
M  V30 1009 H 93.7122 0.455324 1.86008 0
M  V30 1010 H 92.0172 -1.44938 3.64006 0
M  V30 1011 H 93.7142 -1.11949 3.85056 0
M  V30 1012 H 90.3042 0.248733 4.27878 0
M  V30 1013 H 94.4882 1.04462 4.85182 0
M  V30 1014 H 89.7442 2.15991 5.71977 0
M  V30 1015 H 93.9182 2.95405 6.30641 0
M  V30 1016 H 91.5452 3.51763 6.73919 0
M  V30 1017 N 93.1203 -1.57491 0.0584922 0
M  V30 1018 C 94.3663 -1.94081 -0.608617 0
M  V30 1019 C 94.7213 -0.937438 -1.68017 0
M  V30 1020 O 94.0143 0.0423034 -1.91553 0
M  V30 1021 C 94.2083 -3.3513 -1.24188 0
M  V30 1022 C 94.0373 -4.49095 -0.233187 0
M  V30 1023 C 92.8073 -5.04988 0.177439 0
M  V30 1024 C 95.0053 -5.1162 0.524306 0
M  V30 1025 N 92.9873 -6.02487 1.17823 0
M  V30 1026 C 94.3583 -6.04493 1.37796 0
M  V30 1027 C 96.4133 -4.94489 0.581822 0
M  V30 1028 C 95.1163 -6.82075 2.28399 0
M  V30 1029 C 97.1423 -5.72703 1.47531 0
M  V30 1030 C 96.5043 -6.65214 2.31667 0
M  V30 1031 H 92.6033 -0.75752 -0.194134 0
M  V30 1032 H 95.1873 -1.94248 0.132533 0
M  V30 1033 H 93.3583 -3.35726 -1.95302 0
M  V30 1034 H 95.0903 -3.5899 -1.86838 0
M  V30 1035 H 91.8453 -4.73165 -0.203004 0
M  V30 1036 H 92.2693 -6.55933 1.67573 0
M  V30 1037 H 96.9113 -4.22765 -0.054443 0
M  V30 1038 H 94.6293 -7.53085 2.93067 0
M  V30 1039 H 98.2153 -5.61472 1.52448 0
M  V30 1040 H 97.0953 -7.24679 2.99683 0
M  V30 1041 N 94.5984 0.214957 -1.56127 0
M  V30 1042 C 95.5084 1.28727 -1.96129 0
M  V30 1043 C 96.5244 1.50916 -0.866044 0
M  V30 1044 O 97.7004 1.63918 -1.17016 0
M  V30 1045 C 94.7654 2.61569 -2.27558 0
M  V30 1046 C 93.8264 2.47625 -3.50685 0
M  V30 1047 C 93.0594 3.74132 -3.80606 0
M  V30 1048 O 93.2824 4.77438 -3.12104 0
M  V30 1049 O 92.2164 3.70849 -4.74083 0
M  V30 1050 H 96.0424 0.977855 -2.87527 0
M  V30 1051 H 93.6274 0.418358 -1.43423 0
M  V30 1052 H 95.5094 3.40012 -2.48938 0
M  V30 1053 H 94.1844 2.92178 -1.39332 0
M  V30 1054 H 93.0914 1.67361 -3.34576 0
M  V30 1055 H 94.4244 2.21954 -4.39315 0
M  V30 1056 N 96.0765 1.50051 0.48192 0
M  V30 1057 C 97.3015 1.64508 1.26301 0
M  V30 1058 C 97.7265 0.323851 1.85291 0
M  V30 1059 O 97.0845 -0.710969 1.66778 0
M  V30 1060 C 97.1325 2.7305 2.35533 0
M  V30 1061 O 96.2365 2.3355 3.39895 0
M  V30 1062 H 95.5775 0.549978 0.372048 0
M  V30 1063 H 98.1075 1.9636 0.574786 0
M  V30 1064 H 98.1175 2.95799 2.8101 0
M  V30 1065 H 96.7925 3.68946 1.91967 0
M  V30 1066 H 95.3695 2.21205 3.00204 0
M  V30 1067 N 97.5546 -0.734337 1.39446 0
M  V30 1068 C 98.4866 -1.85861 1.34121 0
M  V30 1069 C 99.4996 -1.60871 0.249864 0
M  V30 1070 O 100.689 -1.71093 0.508865 0
M  V30 1071 C 97.7886 -3.21899 1.05991 0
M  V30 1072 C 96.9616 -3.74239 2.26415 0
M  V30 1073 C 96.0206 -4.88841 1.94733 0
M  V30 1074 O 95.0466 -5.02468 2.67422 0
M  V30 1075 N 96.2486 -5.73261 0.913884 0
M  V30 1076 H 99.0136 -1.90934 2.31007 0
M  V30 1077 H 96.5746 -0.915102 1.33557 0
M  V30 1078 H 98.5666 -3.96136 0.828147 0
M  V30 1079 H 97.1366 -3.12091 0.178361 0
M  V30 1080 H 96.3566 -2.91347 2.65539 0
M  V30 1081 H 97.6446 -4.05942 3.06738 0
M  V30 1082 H 97.0426 -5.64842 0.311476 0
M  V30 1083 H 95.5996 -6.47563 0.742015 0
M  V30 1084 N 99.0327 -1.24633 -0.964593 0
M  V30 1085 C 99.9657 -0.984662 -2.05863 0
M  V30 1086 C 100.944 0.0826554 -1.6239 0
M  V30 1087 O 102.128 -0.0549296 -1.8842 0
M  V30 1088 C 99.2547 -0.486529 -3.35187 0
M  V30 1089 C 98.3007 -1.54286 -3.97615 0
M  V30 1090 S 99.1337 -3.12513 -4.34851 0
M  V30 1091 C 100.29 -2.6441 -5.67308 0
M  V30 1092 H 100.523 -1.91104 -2.27743 0
M  V30 1093 H 98.0557 -1.08052 -1.10291 0
M  V30 1094 H 100.014 -0.205757 -4.09984 0
M  V30 1095 H 98.6747 0.419186 -3.1129 0
M  V30 1096 H 97.8677 -1.14481 -4.90826 0
M  V30 1097 H 97.4697 -1.7738 -3.2926 0
M  V30 1098 H 99.7617 -2.07416 -6.44969 0
M  V30 1099 H 100.705 -3.56222 -6.11973 0
M  V30 1100 H 101.113 -2.04734 -5.26065 0
M  V30 1101 N 100.511 1.16574 -1.06058 0
M  V30 1102 C 101.421 2.2452 -0.680282 0
M  V30 1103 C 102.437 1.71348 0.302604 0
M  V30 1104 O 103.613 2.00822 0.152513 0
M  V30 1105 C 100.678 3.46629 -0.0700315 0
M  V30 1106 C 99.7388 4.14849 -1.10448 0
M  V30 1107 C 98.9718 5.31129 -0.523256 0
M  V30 1108 O 99.1948 5.66514 0.664709 0
M  V30 1109 O 98.1288 5.88526 -1.26179 0
M  V30 1110 H 101.955 2.59355 -1.58015 0
M  V30 1111 H 99.5398 1.24043 -0.832694 0
M  V30 1112 H 101.422 4.20543 0.268667 0
M  V30 1113 H 100.097 3.13573 0.803353 0
M  V30 1114 H 99.0038 3.42916 -1.49532 0
M  V30 1115 H 100.337 4.51954 -1.94931 0
M  V30 1116 N 101.989 0.842826 1.3317 0
M  V30 1117 C 102.919 0.294028 2.31641 0
M  V30 1118 C 103.9 -0.600401 1.59151 0
M  V30 1119 O 105.085 -0.523124 1.87022 0
M  V30 1120 C 102.215 -0.528416 3.43257 0
M  V30 1121 C 101.169 0.27056 4.27144 0
M  V30 1122 C 100.495 -0.675881 5.30411 0
M  V30 1123 C 101.795 1.48981 5.00602 0
M  V30 1124 H 103.489 1.11681 2.77791 0
M  V30 1125 H 101.035 0.538478 1.33553 0
M  V30 1126 H 102.988 -0.922674 4.11175 0
M  V30 1127 H 101.712 -1.38445 2.95805 0
M  V30 1128 H 100.371 0.646427 3.60856 0
M  V30 1129 H 100.019 -1.52842 4.79216 0
M  V30 1130 H 99.7189 -0.145374 5.8742 0
M  V30 1131 H 101.243 -1.06757 6.01195 0
M  V30 1132 H 102.657 1.16849 5.61266 0
M  V30 1133 H 101.054 1.95739 5.6728 0
M  V30 1134 H 102.124 2.25746 4.29147 0
M  V30 1135 N 103.467 -1.45747 0.599634 0
M  V30 1136 C 104.883 -1.57424 0.26264 0
M  V30 1137 C 105.083 -1.59222 -1.23493 0
M  V30 1138 O 104.139 -1.51825 -2.01756 0
M  V30 1139 C 105.452 -2.86061 0.926795 0
M  V30 1140 C 107 -2.99722 0.901967 0
M  V30 1141 C 107.475 -4.31119 1.54598 0
M  V30 1142 N 108.966 -4.37858 1.5111 0
M  V30 1143 C 109.701 -5.3818 1.97863 0
M  V30 1144 N 109.197 -6.45083 2.52666 0
M  V30 1145 N 110.99 -5.29487 1.88679 0
M  V30 1146 H 103.141 -1.42823 1.57211 0
M  V30 1147 H 105.404 -0.68235 0.658105 0
M  V30 1148 H 105.11 -2.90605 1.98095 0
M  V30 1149 H 104.984 -3.74563 0.445238 0
M  V30 1150 H 107.371 -2.9475 -0.143617 0
M  V30 1151 H 107.452 -2.12652 1.42171 0
M  V30 1152 H 107.096 -4.36849 2.59085 0
M  V30 1153 H 107.026 -5.16992 1.00132 0
M  V30 1154 H 109.517 -3.61209 1.11068 0
M  V30 1155 H 109.83 -7.17869 2.86155 0
M  V30 1156 H 108.175 -6.45856 2.56701 0
M  V30 1157 H 111.366 -4.44877 1.4561 0
M  V30 1158 H 111.539 -6.07524 2.25429 0
M  V30 1159 N 104.945 -0.338344 -1.53925 0
M  V30 1160 C 105.892 0.520845 -2.24846 0
M  V30 1161 C 106.862 1.09976 -1.24477 0
M  V30 1162 O 108.047 1.13735 -1.53196 0
M  V30 1163 C 105.187 1.6685 -3.02084 0
M  V30 1164 C 104.3 1.11739 -4.17299 0
M  V30 1165 C 103.435 2.23193 -4.82036 0
M  V30 1166 C 102.474 1.65407 -5.89328 0
M  V30 1167 N 101.611 2.70582 -6.47866 0
M  V30 1168 H 106.451 -0.0904881 -2.97863 0
M  V30 1169 H 103.988 -0.0564282 -1.46992 0
M  V30 1170 H 105.946 2.34407 -3.45122 0
M  V30 1171 H 104.576 2.2509 -2.31375 0
M  V30 1172 H 103.628 0.332919 -3.7894 0
M  V30 1173 H 104.94 0.654677 -4.94485 0
M  V30 1174 H 104.094 2.98626 -5.28117 0
M  V30 1175 H 102.833 2.72807 -4.04262 0
M  V30 1176 H 101.838 0.884779 -5.42634 0
M  V30 1177 H 103.063 1.16652 -6.69006 0
M  V30 1178 H 101.009 3.1946 -5.72959 0
M  V30 1179 H 100.926 2.28917 -7.20509 0
M  V30 1180 H 102.194 3.45799 -6.98601 0
M  V30 1181 N 106.423 1.57458 -0.0668435 0
M  V30 1182 C 107.353 2.15468 0.899764 0
M  V30 1183 C 108.334 1.08042 1.31381 0
M  V30 1184 O 109.519 1.36054 1.38574 0
M  V30 1185 C 106.649 2.71232 2.16911 0
M  V30 1186 C 105.603 3.83781 1.89463 0
M  V30 1187 C 104.929 4.26127 3.22986 0
M  V30 1188 C 106.229 5.08238 1.20381 0
M  V30 1189 H 107.923 2.96488 0.416529 0
M  V30 1190 H 105.469 1.4262 0.198908 0
M  V30 1191 H 107.422 3.10458 2.84945 0
M  V30 1192 H 106.146 1.87426 2.67468 0
M  V30 1193 H 104.805 3.45051 1.23836 0
M  V30 1194 H 104.453 3.39249 3.71374 0
M  V30 1195 H 104.153 5.01993 3.05413 0
M  V30 1196 H 105.677 4.67966 3.92225 0
M  V30 1197 H 107.091 5.44811 1.78475 0
M  V30 1198 H 105.488 5.89349 1.13083 0
M  V30 1199 H 106.558 4.84558 0.182153 0
M  V30 1200 N 107.901 -0.206675 1.56239 0
M  V30 1201 C 109.131 -0.943975 1.83773 0
M  V30 1202 C 109.539 -1.77841 0.645703 0
M  V30 1203 O 108.882 -1.79403 -0.395008 0
M  V30 1204 C 108.944 -1.899 3.05251 0
M  V30 1205 C 108.608 -1.24764 4.39639 0
M  V30 1206 C 109.605 -0.630216 5.16066 0
M  V30 1207 C 107.29 -1.25496 4.8637 0
M  V30 1208 C 109.284 -0.0287946 6.37393 0
M  V30 1209 C 106.971 -0.649698 6.07637 0
M  V30 1210 C 107.969 -0.0376845 6.8299 0
M  V30 1211 O 107.657 0.55812 8.0196 0
M  V30 1212 H 107.389 -0.281508 0.614597 0
M  V30 1213 H 109.943 -0.222458 2.04192 0
M  V30 1214 H 108.173 -2.6599 2.80689 0
M  V30 1215 H 109.862 -2.5031 3.1953 0
M  V30 1216 H 110.628 -0.616785 4.81062 0
M  V30 1217 H 106.507 -1.72072 4.27683 0
M  V30 1218 H 110.051 0.449518 6.9615 0
M  V30 1219 H 105.948 -0.660592 6.42111 0
M  V30 1220 H 106.716 0.453891 8.17241 0
M  V30 1221 N 109.379 -1.50304 -0.473955 0
M  V30 1222 C 110.627 -1.60832 -1.22382 0
M  V30 1223 C 110.948 -0.30939 -1.9253 0
M  V30 1224 O 110.218 0.67296 -1.83978 0
M  V30 1225 H 108.798 -0.592652 -0.454723 0
M  V30 1226 H 111.46 -1.87068 -0.546968 0
M  V30 1227 H 110.556 -2.41803 -1.97327 0
M  V30 1228 N 110.857 0.726932 -1.39834 0
M  V30 1229 C 112.268 1.30558 -1.3346 0
M  V30 1230 C 112.619 1.962 -0.00273003 0
M  V30 1231 O 111.744 1.96826 0.899371 0
M  V30 1232 C 112.339 2.37404 -2.41713 0
M  V30 1233 C 110.898 2.90921 -2.38835 0
M  V30 1234 C 110.045 1.64578 -2.2318 0
M  V30 1235 H 112.996 0.523862 -1.49804 0
M  V30 1236 H 113.017 3.17984 -2.08966 0
M  V30 1237 H 112.529 1.89599 -3.38635 0
M  V30 1238 H 110.63 3.42985 -1.45575 0
M  V30 1239 H 110.743 3.43487 -3.33997 0
M  V30 1240 H 109.107 1.89219 -1.70494 0
M  V30 1241 H 109.89 1.18814 -3.22084 0
M  V30 1242 N 112.336 1.25143 0.95797 0
M  V30 1243 C 113.266 1.07711 2.07173 0
M  V30 1244 C 114.247 -0.0128462 1.70095 0
M  V30 1245 O 115.432 0.156061 1.93572 0
M  V30 1246 C 112.562 0.691503 3.40346 0
M  V30 1247 C 111.516 1.73132 3.9142 0
M  V30 1248 C 110.842 1.20049 5.21049 0
M  V30 1249 C 112.142 3.1294 4.1817 0
M  V30 1250 H 113.836 2.00873 2.22014 0
M  V30 1251 H 111.382 0.967191 1.06684 0
M  V30 1252 H 113.335 0.556505 4.17709 0
M  V30 1253 H 112.059 -0.275819 3.25433 0
M  V30 1254 H 110.718 1.8547 3.16222 0
M  V30 1255 H 110.366 0.223499 5.02503 0
M  V30 1256 H 110.066 1.89545 5.56189 0
M  V30 1257 H 111.59 1.07782 6.01012 0
M  V30 1258 H 113.004 3.03775 4.86203 0
M  V30 1259 H 111.401 3.79875 4.64559 0
M  V30 1260 H 112.471 3.6025 3.24573 0
M  V30 1261 N 113.814 -1.1601 1.06675 0
M  V30 1262 C 115.054 -1.88304 0.795037 0
M  V30 1263 C 115.418 -1.80062 -0.666466 0
M  V30 1264 O 116.619 -2.47319 -1.05293 0
M  V30 1265 C 114.89 -3.33664 1.28076 0
M  V30 1266 S 116.449 -4.23768 1.13868 0
M  V30 1267 H 113.267 -0.649928 0.288296 0
M  V30 1268 H 115.869 -1.4001 1.36445 0
M  V30 1269 H 114.573 -3.37203 2.33927 0
M  V30 1270 H 114.104 -3.87009 0.706253 0
M  V30 1271 H 116.119 -4.96148 0.0719668 0
M  V30 1272 N 115.292 -0.849877 -1.32721 0
M  V30 1273 C 116.54 -0.450032 -1.97026 0
M  V30 1274 C 116.861 0.996604 -1.67609 0
M  V30 1275 O 116.131 1.6958 -0.980786 0
M  V30 1276 H 114.711 -0.163426 -0.728904 0
M  V30 1277 H 117.373 -1.08526 -1.6189 0
M  V30 1278 H 116.469 -0.591146 -3.0645 0
M  V30 1279 N 116.77 1.45427 -0.607355 0
M  V30 1280 C 118 2.06314 -0.108656 0
M  V30 1281 C 118.408 1.45269 1.21217 0
M  V30 1282 O 117.751 0.561115 1.74921 0
M  V30 1283 C 117.813 3.59345 0.105618 0
M  V30 1284 C 117.477 4.42723 -1.13337 0
M  V30 1285 C 118.474 4.77715 -2.05145 0
M  V30 1286 C 116.159 4.83478 -1.36213 0
M  V30 1287 C 118.153 5.52317 -3.18158 0
M  V30 1288 C 115.84 5.57835 -2.49527 0
M  V30 1289 C 116.838 5.92171 -3.40327 0
M  V30 1290 O 116.526 6.65019 -4.51669 0
M  V30 1291 H 116.258 0.672782 -0.0658842 0
M  V30 1292 H 118.812 1.87664 -0.834945 0
M  V30 1293 H 117.042 3.76394 0.886796 0
M  V30 1294 H 118.731 4.02076 0.555886 0
M  V30 1295 H 119.497 4.46787 -1.88697 0
M  V30 1296 H 115.376 4.56188 -0.664362 0
M  V30 1297 H 118.92 5.79036 -3.89054 0
M  V30 1298 H 114.817 5.88177 -2.65928 0
M  V30 1299 H 115.585 6.83469 -4.50348 0
M  V30 1300 N 118.248 0.346503 1.53744 0
M  V30 1301 C 119.478 -0.250047 2.05081 0
M  V30 1302 C 119.886 -1.44529 1.22098 0
M  V30 1303 O 119.229 -1.81992 0.249917 0
M  V30 1304 C 119.291 -0.725934 3.52094 0
M  V30 1305 C 118.955 0.350053 4.55657 0
M  V30 1306 C 119.952 1.19372 5.0601 0
M  V30 1307 C 117.637 0.504827 4.99757 0
M  V30 1308 C 119.631 2.17768 5.99046 0
M  V30 1309 C 117.318 1.49218 5.92602 0
M  V30 1310 C 118.316 2.32706 6.42135 0
M  V30 1311 O 118.004 3.2976 7.33153 0
M  V30 1312 H 117.736 -0.0515469 0.674032 0
M  V30 1313 H 120.29 0.497559 1.99282 0
M  V30 1314 H 118.52 -1.52483 3.55367 0
M  V30 1315 H 120.209 -1.24336 3.86388 0
M  V30 1316 H 120.975 1.08525 4.72702 0
M  V30 1317 H 116.854 -0.135178 4.60802 0
M  V30 1318 H 120.398 2.82971 6.37631 0
M  V30 1319 H 116.295 1.6012 6.25325 0
M  V30 1320 H 117.063 3.25265 7.51096 0
M  V30 1321 N 119.726 -1.57421 0.075193 0
M  V30 1322 C 120.656 -2.15942 -0.888324 0
M  V30 1323 C 121.637 -1.08737 -1.30806 0
M  V30 1324 O 122.822 -1.36787 -1.37851 0
M  V30 1325 C 119.952 -2.72379 -2.1547 0
M  V30 1326 C 118.906 -3.8478 -1.87425 0
M  V30 1327 C 118.232 -4.27834 -3.20721 0
M  V30 1328 C 119.532 -5.08869 -1.17684 0
M  V30 1329 H 121.226 -2.96705 -0.400799 0
M  V30 1330 H 118.772 -1.42723 -0.191342 0
M  V30 1331 H 120.725 -3.11965 -2.83295 0
M  V30 1332 H 119.449 -1.88841 -2.6647 0
M  V30 1333 H 118.108 -3.45703 -1.22004 0
M  V30 1334 H 117.756 -3.41214 -3.6957 0
M  V30 1335 H 117.456 -5.03605 -3.02746 0
M  V30 1336 H 118.98 -4.70039 -3.89738 0
M  V30 1337 H 120.394 -5.4575 -1.75584 0
M  V30 1338 H 118.791 -5.8994 -1.09956 0
M  V30 1339 H 119.861 -4.84648 -0.156453 0
M  V30 1340 N 121.204 0.198386 -1.56346 0
M  V30 1341 C 122.452 0.91747 -1.80075 0
M  V30 1342 C 122.773 1.83929 -0.647692 0
M  V30 1343 O 122.043 1.93029 0.334166 0
M  V30 1344 H 120.623 0.341774 -0.664228 0
M  V30 1345 H 123.285 0.204684 -1.93822 0
M  V30 1346 H 122.381 1.51055 -2.7311 0
M  V30 1347 N 122.682 1.50554 0.465978 0
M  V30 1348 C 124.098 1.38093 0.800154 0
M  V30 1349 C 124.298 0.440988 1.96615 0
M  V30 1350 O 123.354 -0.114499 2.5224 0
M  V30 1351 C 124.667 2.79565 1.10742 0
M  V30 1352 C 126.215 2.88516 1.21357 0
M  V30 1353 C 126.69 4.30833 1.55393 0
M  V30 1354 N 128.181 4.33807 1.62375 0
M  V30 1355 C 128.916 5.40927 1.90225 0
M  V30 1356 N 128.412 6.58247 2.16062 0
M  V30 1357 N 130.205 5.28376 1.9177 0
M  V30 1358 H 122.356 2.10237 -0.302366 0
M  V30 1359 H 124.619 0.945203 -0.0727746 0
M  V30 1360 H 124.325 3.50208 0.323661 0
M  V30 1361 H 124.199 3.17125 2.04234 0
M  V30 1362 H 126.586 2.1809 1.98799 0
M  V30 1363 H 126.667 2.54492 0.258321 0
M  V30 1364 H 126.311 5.01799 0.784889 0
M  V30 1365 H 126.241 4.62347 2.52076 0
M  V30 1366 H 128.732 3.49212 1.44427 0
M  V30 1367 H 129.045 7.3569 2.36601 0
M  V30 1368 H 127.39 6.61413 2.13444 0
M  V30 1369 H 130.581 4.35715 1.71085 0
M  V30 1370 H 130.754 6.11944 2.13139 0
M  V30 1371 N 124.16 -0.719506 1.40217 0
M  V30 1372 C 125.576 -1.02707 1.22161 0
M  V30 1373 C 125.776 -2.0128 0.0940557 0
M  V30 1374 O 124.832 -2.46452 -0.549318 0
M  V30 1375 C 126.145 -1.57454 2.56181 0
M  V30 1376 C 127.693 -1.69458 2.63159 0
M  V30 1377 C 128.168 -2.27611 3.97438 0
M  V30 1378 N 129.659 -2.35002 3.99159 0
M  V30 1379 C 130.394 -2.80972 4.99842 0
M  V30 1380 N 129.89 -3.26723 6.10921 0
M  V30 1381 N 131.683 -2.80321 4.87213 0
M  V30 1382 H 123.834 -0.0660492 2.12297 0
M  V30 1383 H 126.097 -0.0919077 0.943534 0
M  V30 1384 H 125.803 -0.924873 3.39321 0
M  V30 1385 H 125.677 -2.56036 2.76993 0
M  V30 1386 H 128.064 -2.33543 1.80393 0
M  V30 1387 H 128.145 -0.694867 2.46181 0
M  V30 1388 H 127.789 -1.6415 4.80643 0
M  V30 1389 H 127.719 -3.2829 4.11744 0
M  V30 1390 H 130.21 -2.02685 3.18947 0
M  V30 1391 H 130.523 -3.60355 6.8364 0
M  V30 1392 H 128.868 -3.24692 6.14492 0
M  V30 1393 H 132.059 -2.43912 3.9953 0
M  V30 1394 H 132.232 -3.15831 5.65822 0
M  V30 1395 N 125.638 -1.25649 -0.95132 0
M  V30 1396 C 126.571 -1.00644 -2.04807 0
M  V30 1397 C 127.549 0.0654271 -1.62468 0
M  V30 1398 O 128.733 -0.074911 -1.88351 0
M  V30 1399 C 125.86 -0.522052 -3.34653 0
M  V30 1400 C 124.906 -1.58495 -3.95957 0
M  V30 1401 S 125.739 -3.17108 -4.31512 0
M  V30 1402 C 126.895 -2.70412 -5.64471 0
M  V30 1403 H 127.128 -1.93508 -2.25703 0
M  V30 1404 H 124.661 -1.09216 -1.09139 0
M  V30 1405 H 126.619 -0.24923 -4.09743 0
M  V30 1406 H 125.28 0.386146 -3.11717 0
M  V30 1407 H 124.473 -1.1968 -4.89584 0
M  V30 1408 H 124.075 -1.80862 -3.2736 0
M  V30 1409 H 126.367 -2.14245 -6.42733 0
M  V30 1410 H 127.31 -3.62693 -6.08161 0
M  V30 1411 H 127.718 -2.10302 -5.23864 0
M  V30 1412 N 127.117 1.15442 -1.07289 0
M  V30 1413 C 128.364 1.86213 -0.795668 0
M  V30 1414 C 128.692 1.82291 0.678238 0
M  V30 1415 O 127.947 1.24057 1.51355 0
M  V30 1416 C 128.246 3.3489 -1.24834 0
M  V30 1417 C 127.912 3.59007 -2.72809 0
M  V30 1418 C 126.574 3.65298 -3.13227 0
M  V30 1419 C 128.926 3.68762 -3.68326 0
M  V30 1420 C 126.254 3.78854 -4.4798 0
M  V30 1421 C 128.606 3.83842 -5.0284 0
M  V30 1422 C 127.27 3.88378 -5.4288 0
M  V30 1423 H 126.54 0.681403 -0.291155 0
M  V30 1424 H 129.187 1.36435 -1.34379 0
M  V30 1425 H 127.492 3.8687 -0.619595 0
M  V30 1426 H 129.189 3.88052 -1.01076 0
M  V30 1427 H 125.779 3.5475 -2.40521 0
M  V30 1428 H 129.963 3.63202 -3.38227 0
M  V30 1429 H 125.219 3.80623 -4.78472 0
M  V30 1430 H 129.393 3.90332 -5.76727 0
M  V30 1431 H 127.02 3.98635 -6.47298 0
M  V30 1432 N 128.595 0.856903 1.32268 0
M  V30 1433 C 129.844 0.457599 1.96441 0
M  V30 1434 C 130.157 -0.992426 1.68553 0
M  V30 1435 O 131.363 -1.49727 2.26482 0
M  V30 1436 C 129.819 0.767358 3.51624 0
M  V30 1437 C 129.427 2.23326 3.88367 0
M  V30 1438 C 131.171 0.435887 4.22256 0
M  V30 1439 C 129.078 2.48613 5.36606 0
M  V30 1440 H 128.008 0.167387 0.735185 0
M  V30 1441 H 130.659 1.048 1.5063 0
M  V30 1442 H 129.041 0.106367 3.95857 0
M  V30 1443 H 130.215 2.93623 3.55137 0
M  V30 1444 H 128.53 2.52948 3.30766 0
M  V30 1445 H 131.127 0.602202 5.31298 0
M  V30 1446 H 131.47 -0.622672 4.11617 0
M  V30 1447 H 132.003 1.05286 3.83614 0
M  V30 1448 H 128.742 3.53101 5.52268 0
M  V30 1449 H 128.262 1.82896 5.71235 0
M  V30 1450 H 129.941 2.32676 6.03714 0
M  V30 1451 N 130.073 -1.45103 0.615059 0
M  V30 1452 C 131.319 -2.02483 0.113347 0
M  V30 1453 C 131.652 -1.48146 -1.25564 0
M  V30 1454 O 130.927 -0.659104 -1.82992 0
M  V30 1455 C 131.21 -3.60005 0.0825278 0
M  V30 1456 C 131.063 -4.2466 1.48271 0
M  V30 1457 C 132.382 -4.35972 -0.601401 0
M  V30 1458 H 129.501 -0.735764 0.0426632 0
M  V30 1459 H 132.143 -1.72868 0.788461 0
M  V30 1460 H 130.293 -3.85367 -0.492378 0
M  V30 1461 H 131.965 -4.10458 2.10527 0
M  V30 1462 H 130.208 -3.82772 2.04127 0
M  V30 1463 H 130.879 -5.336 1.41332 0
M  V30 1464 H 133.355 -4.15947 -0.112666 0
M  V30 1465 H 132.231 -5.45697 -0.592097 0
M  V30 1466 H 132.492 -4.09391 -1.66887 0
M  V30 1467 N 131.551 -0.354651 -1.53558 0
M  V30 1468 C 132.8 0.239504 -2.00273 0
M  V30 1469 C 133.113 1.50759 -1.24623 0
M  V30 1470 O 134.319 2.17968 -1.61871 0
M  V30 1471 C 132.775 0.477341 -3.5672 0
M  V30 1472 C 132.383 -0.775488 -4.41237 0
M  V30 1473 C 134.127 1.02975 -4.11821 0
M  V30 1474 C 132.034 -0.507838 -5.89216 0
M  V30 1475 H 130.964 0.0932743 -0.748208 0
M  V30 1476 H 133.615 -0.471701 -1.77334 0
M  V30 1477 H 131.997 1.24953 -3.7577 0
M  V30 1478 H 133.171 -1.54963 -4.33962 0
M  V30 1479 H 131.486 -1.25033 -3.97185 0
M  V30 1480 H 134.083 1.24513 -5.2 0
M  V30 1481 H 134.426 1.98862 -3.65731 0
M  V30 1482 H 134.959 0.317994 -3.96527 0
M  V30 1483 H 131.698 -1.43674 -6.39561 0
M  V30 1484 H 131.218 0.228011 -5.99366 0
M  V30 1485 H 132.897 -0.129238 -6.46871 0
M  V30 1486 N 133.029 1.57378 -0.0835403 0
M  V30 1487 C 134.254 1.98682 0.594987 0
M  V30 1488 C 134.679 0.961969 1.61641 0
M  V30 1489 O 134.037 -0.0709989 1.81161 0
M  V30 1490 C 134.085 3.38988 1.2296 0
M  V30 1491 O 133.189 3.39208 2.34546 0
M  V30 1492 H 132.53 0.646368 0.152002 0
M  V30 1493 H 135.06 2.03961 -0.161533 0
M  V30 1494 H 135.07 3.76431 1.57366 0
M  V30 1495 H 133.745 4.13107 0.481228 0
M  V30 1496 H 132.322 3.13548 2.01846 0
M  V30 1497 N 134.507 -0.190092 1.56449 0
M  V30 1498 C 135.417 -1.25591 1.98152 0
M  V30 1499 C 136.433 -1.49519 0.889944 0
M  V30 1500 O 137.609 -1.62036 1.19609 0
M  V30 1501 C 134.674 -2.57916 2.3169 0
M  V30 1502 C 133.735 -2.42015 3.5458 0
M  V30 1503 C 132.968 -3.6803 3.8651 0
M  V30 1504 O 133.191 -4.72413 3.1966 0
M  V30 1505 O 132.125 -3.6326 4.79923 0
M  V30 1506 H 135.951 -0.931988 2.89046 0
M  V30 1507 H 133.536 -0.395488 1.4407 0
M  V30 1508 H 135.418 -3.36008 2.54316 0
M  V30 1509 H 134.093 -2.89925 1.43963 0
M  V30 1510 H 133 -1.62017 3.37196 0
M  V30 1511 H 134.333 -2.14937 4.4279 0
M  V30 1512 N 135.985 -1.50799 -0.457987 0
M  V30 1513 C 137.396 -1.55152 -1.0385 0
M  V30 1514 C 137.747 -0.362719 -1.92818 0
M  V30 1515 O 136.872 0.522915 -2.09987 0
M  V30 1516 C 137.467 -2.81173 -1.89017 0
M  V30 1517 C 136.026 -2.88164 -2.42154 0
M  V30 1518 C 135.173 -2.49591 -1.20829 0
M  V30 1519 H 138.124 -1.56874 -0.240068 0
M  V30 1520 H 138.145 -2.63769 -2.74238 0
M  V30 1521 H 137.657 -3.67677 -1.24238 0
M  V30 1522 H 135.758 -2.06042 -3.10447 0
M  V30 1523 H 135.871 -3.91356 -2.76364 0
M  V30 1524 H 134.235 -2.02322 -1.54719 0
M  V30 1525 H 135.018 -3.38418 -0.576927 0
M  V30 1526 N 137.463 0.71206 -1.40597 0
M  V30 1527 C 138.74 1.46536 -1.29563 0
M  V30 1528 C 139.12 2.10931 0.0844217 0
M  V30 1529 O 138.468 2.00418 1.0975 0
M  V30 1530 C 138.678 2.49821 -2.43701 0
M  V30 1531 C 140.026 3.15551 -2.841 0
M  V30 1532 O 141.05 2.60142 -2.4332 0
M  V30 1533 O 139.909 4.15867 -3.54566 0
M  V30 1534 H 137.003 0.651801 -0.509004 0
M  V30 1535 H 139.549 0.743935 -1.52524 0
M  V30 1536 H 138.321 2.00778 -3.35863 0
M  V30 1537 H 137.944 3.29495 -2.22528 0
M  V30 1538 N 138.941 1.26152 0.944643 0
M  V30 1539 C 139.874 1.01729 2.04271 0
M  V30 1540 C 140.852 -0.0568101 1.62501 0
M  V30 1541 O 142.036 0.0848987 1.88309 0
M  V30 1542 C 139.163 0.539792 3.34371 0
M  V30 1543 C 138.209 1.60593 3.9511 0
M  V30 1544 S 139.042 3.19392 4.29825 0
M  V30 1545 C 140.198 2.73402 5.63029 0
M  V30 1546 H 140.431 1.94703 2.24673 0
M  V30 1547 H 137.964 1.09793 1.08558 0
M  V30 1548 H 139.922 0.270956 4.09605 0
M  V30 1549 H 138.583 -0.369609 3.11918 0
M  V30 1550 H 137.776 1.22275 4.88943 0
M  V30 1551 H 137.378 1.82596 3.26397 0
M  V30 1552 H 139.67 2.1765 6.41588 0
M  V30 1553 H 140.613 3.65913 6.06229 0
M  V30 1554 H 141.021 2.13077 5.22741 0
M  V30 1555 N 140.419 -1.14872 1.07899 0
M  V30 1556 C 141.668 -1.85135 0.800499 0
M  V30 1557 C 141.981 -1.83547 -0.676014 0
M  V30 1558 O 143.187 -2.49548 -1.06948 0
M  V30 1559 C 141.643 -3.3231 1.38197 0
M  V30 1560 C 141.251 -3.42329 2.8899 0
M  V30 1561 C 142.995 -4.0772 1.18174 0
M  V30 1562 C 140.902 -4.83684 3.403 0
M  V30 1563 H 139.832 -0.693563 0.29578 0
M  V30 1564 H 142.483 -1.29532 1.29976 0
M  V30 1565 H 140.865 -3.87618 0.810431 0
M  V30 1566 H 142.039 -2.97097 3.52236 0
M  V30 1567 H 140.354 -2.80369 3.07867 0
M  V30 1568 H 142.951 -5.12049 1.5398 0
M  V30 1569 H 143.294 -4.16124 0.12117 0
M  V30 1570 H 143.827 -3.58696 1.71994 0
M  V30 1571 H 140.566 -4.80465 4.45907 0
M  V30 1572 H 140.086 -5.29474 2.81811 0
M  V30 1573 H 141.765 -5.52558 3.36584 0
M  V30 1574 N 141.898 -0.863906 -1.31812 0
M  V30 1575 C 142.845 -0.313303 -2.28664 0
M  V30 1576 C 143.815 0.584868 -1.55462 0
M  V30 1577 O 145 0.517805 -1.83639 0
M  V30 1578 C 142.14 0.48441 -3.41683 0
M  V30 1579 C 141.253 -0.440594 -4.29747 0
M  V30 1580 C 140.388 0.370652 -5.29905 0
M  V30 1581 C 139.427 -0.551164 -6.09613 0
M  V30 1582 N 138.564 0.223462 -7.01744 0
M  V30 1583 H 143.404 -1.14444 -2.75148 0
M  V30 1584 H 140.941 -0.575769 -1.35364 0
M  V30 1585 H 142.899 0.962627 -4.05943 0
M  V30 1586 H 141.529 1.28029 -2.96325 0
M  V30 1587 H 140.581 -1.03724 -3.65986 0
M  V30 1588 H 141.893 -1.14767 -4.85417 0
M  V30 1589 H 141.047 0.911638 -5.99812 0
M  V30 1590 H 139.786 1.11105 -4.74876 0
M  V30 1591 H 138.791 -1.10396 -5.38603 0
M  V30 1592 H 140.016 -1.29032 -6.66729 0
M  V30 1593 H 137.962 0.946787 -6.49132 0
M  V30 1594 H 137.879 -0.424399 -7.54808 0
M  V30 1595 H 139.147 0.745876 -7.75923 0
M  V30 1596 N 143.376 1.44774 -0.622745 0
M  V30 1597 C 144.308 2.28856 0.125485 0
M  V30 1598 C 145.321 1.40811 0.817069 0
M  V30 1599 O 146.51 1.65044 0.679918 0
M  V30 1600 C 143.61 3.16963 1.19949 0
M  V30 1601 C 142.783 4.33374 0.592064 0
M  V30 1602 C 141.842 5.02577 1.55893 0
M  V30 1603 O 140.868 5.58873 1.07933 0
M  V30 1604 N 142.07 5.03256 2.89334 0
M  V30 1605 H 144.835 2.93713 -0.596068 0
M  V30 1606 H 142.396 1.55129 -0.463303 0
M  V30 1607 H 144.388 3.60123 1.84644 0
M  V30 1608 H 142.958 2.53913 1.82337 0
M  V30 1609 H 142.178 3.93509 -0.233322 0
M  V30 1610 H 143.466 5.08527 0.166738 0
M  V30 1611 H 142.864 4.58836 3.30887 0
M  V30 1612 H 141.421 5.50232 3.49412 0
M  V30 1613 N 144.854 0.36279 1.53368 0
M  V30 1614 C 146.1 -0.228113 2.01513 0
M  V30 1615 C 146.433 -1.48648 1.2497 0
M  V30 1616 O 145.708 -1.91459 0.342616 0
M  V30 1617 C 145.991 -0.522884 3.56284 0
M  V30 1618 C 145.844 0.74892 4.43521 0
M  V30 1619 C 147.163 -1.32461 4.19693 0
M  V30 1620 H 144.282 -0.0814343 0.732487 0
M  V30 1621 H 146.924 0.48713 1.83649 0
M  V30 1622 H 145.074 -1.1322 3.71636 0
M  V30 1623 H 146.746 1.38648 4.39971 0
M  V30 1624 H 144.989 1.36986 4.11603 0
M  V30 1625 H 145.66 0.497667 5.49752 0
M  V30 1626 H 148.136 -0.809203 4.08156 0
M  V30 1627 H 147.012 -1.49961 5.28018 0
M  V30 1628 H 147.273 -2.33232 3.75573 0
M  V30 1629 N 146.332 -1.57332 0.0918853 0
M  V30 1630 C 147.262 -2.16872 -0.865371 0
M  V30 1631 C 148.243 -1.10118 -1.29646 0
M  V30 1632 O 149.428 -1.38242 -1.36392 0
M  V30 1633 C 146.558 -2.74649 -2.12569 0
M  V30 1634 C 145.512 -3.86747 -1.83333 0
M  V30 1635 C 144.838 -4.31212 -3.16166 0
M  V30 1636 C 146.138 -5.10089 -1.1228 0
M  V30 1637 H 147.832 -2.97114 -0.369307 0
M  V30 1638 H 145.378 -1.42918 -0.176194 0
M  V30 1639 H 147.331 -3.14952 -2.7997 0
M  V30 1640 H 146.055 -1.91657 -2.64452 0
M  V30 1641 H 144.714 -3.46978 -1.18331 0
M  V30 1642 H 144.362 -3.45115 -3.6593 0
M  V30 1643 H 144.062 -5.06788 -2.97388 0
M  V30 1644 H 145.586 -4.74146 -3.84731 0
M  V30 1645 H 147 -5.47582 -1.69785 0
M  V30 1646 H 145.397 -5.91073 -1.03693 0
M  V30 1647 H 146.467 -4.84786 -0.105041 0
M  V30 1648 N 147.81 0.181792 -1.56548 0
M  V30 1649 C 149.056 0.901431 -1.81665 0
M  V30 1650 C 149.389 1.82347 -0.668075 0
M  V30 1651 O 148.664 1.91669 0.330615 0
M  V30 1652 C 148.947 1.70618 -3.17115 0
M  V30 1653 C 148.8 0.807964 -4.42484 0
M  V30 1654 C 150.119 2.67605 -3.49393 0
M  V30 1655 H 147.238 0.32627 -0.660846 0
M  V30 1656 H 149.88 0.168134 -1.89255 0
M  V30 1657 H 148.03 2.33133 -3.10775 0
M  V30 1658 H 149.702 0.19649 -4.60881 0
M  V30 1659 H 147.945 0.115411 -4.33646 0
M  V30 1660 H 148.616 1.40632 -5.33785 0
M  V30 1661 H 151.092 2.15218 -3.56118 0
M  V30 1662 H 149.968 3.20985 -4.45264 0
M  V30 1663 H 150.229 3.47298 -2.73563 0
M  V30 1664 N 149.288 1.51039 0.449983 0
M  V30 1665 C 150.198 1.74261 1.57067 0
M  V30 1666 C 151.214 0.626363 1.62335 0
M  V30 1667 O 152.39 0.907162 1.79812 0
M  V30 1668 C 149.455 1.85114 2.93144 0
M  V30 1669 C 148.516 3.0893 2.98095 0
M  V30 1670 C 147.749 3.19256 4.27681 0
M  V30 1671 O 147.972 2.35835 5.19363 0
M  V30 1672 O 146.906 4.12144 4.38658 0
M  V30 1673 H 150.732 2.69303 1.40391 0
M  V30 1674 H 148.317 1.35389 0.631688 0
M  V30 1675 H 150.199 1.94311 3.73926 0
M  V30 1676 H 148.874 0.932588 3.09975 0
M  V30 1677 H 147.781 3.0522 2.16314 0
M  V30 1678 H 149.114 4.00433 2.86206 0
M  V30 1679 N 150.766 -0.704594 1.40972 0
M  V30 1680 C 151.714 -1.83994 1.42299 0
M  V30 1681 C 152.708 -1.66684 0.302111 0
M  V30 1682 O 153.914 -1.73655 0.473697 0
M  V30 1683 H 150.289 -0.606171 0.44504 0
M  V30 1684 H 152.26 -1.79992 2.38003 0
M  V30 1685 C 151.009 -3.21946 1.31323 0
M  V30 1686 H 150.332 -3.35878 2.16855 0
M  V30 1687 H 151.772 -4.01491 1.36311 0
M  V30 1688 C 150.231 -3.36891 0.0245977 0
M  V30 1689 O 150.761 -3.90687 -0.934153 0
M  V30 1690 N 148.967 -2.90559 -0.0485243 0
M  V30 1691 H 148.514 -2.46968 0.732419 0
M  V30 1692 H 148.472 -3.00937 -0.910171 0
M  V30 1693 N 152.244 -1.26651 -0.937939 0
M  V30 1694 C 153.491 -1.12387 -1.6845 0
M  V30 1695 C 153.819 0.332208 -1.91642 0
M  V30 1696 O 153.074 1.2602 -1.49725 0
M  V30 1697 C 153.373 -1.84168 -3.06295 0
M  V30 1698 C 153.039 -3.34056 -3.02849 0
M  V30 1699 C 151.701 -3.74942 -3.01616 0
M  V30 1700 C 154.053 -4.29741 -2.9491 0
M  V30 1701 C 151.381 -5.09894 -2.90215 0
M  V30 1702 C 153.733 -5.64738 -2.8505 0
M  V30 1703 C 152.397 -6.0493 -2.82162 0
M  V30 1704 H 151.667 -0.411252 -0.616403 0
M  V30 1705 H 154.314 -1.57134 -1.09459 0
M  V30 1706 H 152.619 -1.319 -3.6893 0
M  V30 1707 H 154.316 -1.70569 -3.62915 0
M  V30 1708 H 150.906 -3.01534 -3.0459 0
M  V30 1709 H 155.09 -3.99133 -2.94969 0
M  V30 1710 H 150.346 -5.40194 -2.86358 0
M  V30 1711 H 154.52 -6.38561 -2.77872 0
M  V30 1712 H 152.147 -7.09457 -2.73084 0
M  V30 1713 N 153.722 1.14298 -1.08507 0
M  V30 1714 C 154.947 1.8976 -0.837001 0
M  V30 1715 C 155.372 1.78097 0.605228 0
M  V30 1716 O 154.73 1.12188 1.4242 0
M  V30 1717 C 154.778 3.37685 -1.26495 0
M  V30 1718 O 153.882 4.10281 -0.417514 0
M  V30 1719 H 153.223 0.590365 -0.303917 0
M  V30 1720 H 155.753 1.44672 -1.44676 0
M  V30 1721 H 155.763 3.88501 -1.24625 0
M  V30 1722 H 154.438 3.45492 -2.31534 0
M  V30 1723 H 153.015 3.69536 -0.499722 0
M  V30 1724 N 155.201 0.870884 1.31352 0
M  V30 1725 C 156.149 0.316445 2.30437 0
M  V30 1726 C 157.143 -0.568965 1.59559 0
M  V30 1727 O 158.349 -0.454964 1.74155 0
M  V30 1728 H 154.724 0.0836521 0.747333 0
M  V30 1729 H 156.695 1.16606 2.74673 0
M  V30 1730 C 155.444 -0.46635 3.44558 0
M  V30 1731 H 154.767 0.205687 3.99271 0
M  V30 1732 H 156.207 -0.819614 4.16003 0
M  V30 1733 C 154.666 -1.65797 2.9328 0
M  V30 1734 O 155.196 -2.75728 2.92125 0
M  V30 1735 N 153.402 -1.49041 2.4947 0
M  V30 1736 H 152.949 -0.59612 2.50608 0
M  V30 1737 H 152.907 -2.28911 2.15516 0
M  V30 1738 N 156.679 -1.44442 0.630414 0
M  V30 1739 C 157.926 -2.02052 0.134617 0
M  V30 1740 C 158.254 -1.49576 -1.24327 0
M  V30 1741 O 157.509 -0.669806 -1.83881 0
M  V30 1742 C 157.808 -3.57332 0.0697835 0
M  V30 1743 C 157.474 -4.29058 1.38635 0
M  V30 1744 C 156.136 -4.4837 1.74694 0
M  V30 1745 C 158.488 -4.69872 2.25543 0
M  V30 1746 C 155.816 -5.05756 2.97369 0
M  V30 1747 C 158.168 -5.28616 3.47487 0
M  V30 1748 C 156.832 -5.46147 3.8377 0
M  V30 1749 H 156.102 -0.739361 0.0492598 0
M  V30 1750 H 158.749 -1.73217 0.816586 0
M  V30 1751 H 157.054 -3.85577 -0.695553 0
M  V30 1752 H 158.751 -3.99637 -0.330344 0
M  V30 1753 H 155.341 -4.14357 1.09574 0
M  V30 1754 H 159.525 -4.54666 1.98979 0
M  V30 1755 H 154.781 -5.17515 3.25558 0
M  V30 1756 H 158.955 -5.59192 4.15063 0
M  V30 1757 H 156.582 -5.9038 4.7891 0
M  V30 1758 N 158.157 -0.370918 -1.53173 0
M  V30 1759 C 159.385 0.217704 -2.05751 0
M  V30 1760 C 159.8 1.42018 -1.24404 0
M  V30 1761 O 159.157 1.80245 -0.286033 0
M  V30 1762 C 159.208 0.605954 -3.56385 0
M  V30 1763 O 158.929 -0.548734 -4.3465 0
M  V30 1764 C 160.43 1.2524 -4.25241 0
M  V30 1765 H 157.65 0.0371659 -0.66997 0
M  V30 1766 H 160.194 -0.530832 -1.9749 0
M  V30 1767 H 158.349 1.3044 -3.6478 0
M  V30 1768 H 158.763 -0.23376 -5.23979 0
M  V30 1769 H 160.237 1.47458 -5.3194 0
M  V30 1770 H 160.714 2.2143 -3.79296 0
M  V30 1771 H 161.32 0.595233 -4.21114 0
M  V30 1772 N 159.635 1.57281 -0.100228 0
M  V30 1773 C 160.583 2.15542 0.874328 0
M  V30 1774 C 161.577 1.09962 1.28859 0
M  V30 1775 O 162.783 1.28298 1.26252 0
M  V30 1776 H 159.158 0.689567 0.300003 0
M  V30 1777 H 161.129 2.96241 0.35829 0
M  V30 1778 C 159.878 2.75454 2.1218 0
M  V30 1779 H 159.201 3.56384 1.81193 0
M  V30 1780 H 160.641 3.19781 2.78417 0
M  V30 1781 C 159.1 1.71602 2.89921 0
M  V30 1782 O 159.63 1.15804 3.84646 0
M  V30 1783 N 157.836 1.41975 2.53558 0
M  V30 1784 H 157.383 1.87539 1.76598 0
M  V30 1785 H 157.341 0.727274 3.05873 0
M  V30 1786 N 161.113 -0.173488 1.56642 0
M  V30 1787 C 162.529 -0.525174 1.50712 0
M  V30 1788 C 162.729 -1.8476 0.804107 0
M  V30 1789 O 161.785 -2.49869 0.363574 0
M  V30 1790 C 163.098 -0.559937 2.95441 0
M  V30 1791 C 164.646 -0.647288 3.06234 0
M  V30 1792 C 165.121 -0.712963 4.52417 0
M  V30 1793 N 166.612 -0.775911 4.56655 0
M  V30 1794 C 167.347 -0.847264 5.67106 0
M  V30 1795 N 166.843 -0.879585 6.87194 0
M  V30 1796 N 168.636 -0.886117 5.55071 0
M  V30 1797 H 160.787 0.693681 2.00753 0
M  V30 1798 H 163.05 0.249841 0.914485 0
M  V30 1799 H 162.756 0.343049 3.50023 0
M  V30 1800 H 162.63 -1.40718 3.49969 0
M  V30 1801 H 165.017 -1.5407 2.51687 0
M  V30 1802 H 165.098 0.226586 2.54794 0
M  V30 1803 H 164.742 0.176183 5.07594 0
M  V30 1804 H 164.672 -1.60295 5.0161 0
M  V30 1805 H 167.163 -0.759304 3.70193 0
M  V30 1806 H 167.476 -0.935144 7.67121 0
M  V30 1807 H 165.821 -0.847898 6.89808 0
M  V30 1808 H 169.012 -0.857853 4.60172 0
M  V30 1809 H 169.185 -0.938263 6.41171 0
M  V30 1810 N 162.591 -1.51276 -0.441967 0
M  V30 1811 C 163.524 -1.66933 -1.55591 0
M  V30 1812 C 164.502 -0.516958 -1.54163 0
M  V30 1813 O 165.686 -0.740209 -1.73358 0
M  V30 1814 C 162.813 -1.67866 -2.94174 0
M  V30 1815 C 161.859 -2.89013 -3.13646 0
M  V30 1816 S 162.692 -4.49897 -2.90436 0
M  V30 1817 C 163.848 -4.53568 -4.31308 0
M  V30 1818 H 164.081 -2.61155 -1.42076 0
M  V30 1819 H 161.614 -1.40902 -0.631341 0
M  V30 1820 H 163.572 -1.69089 -3.74058 0
M  V30 1821 H 162.233 -0.748296 -3.05056 0
M  V30 1822 H 161.426 -2.86054 -4.14957 0
M  V30 1823 H 161.028 -2.85509 -2.4158 0
M  V30 1824 H 163.32 -4.28924 -5.24434 0
M  V30 1825 H 164.263 -5.55355 -4.39303 0
M  V30 1826 H 164.671 -3.82943 -4.14747 0
M  V30 1827 N 164.069 0.697108 -1.41344 0
M  V30 1828 C 165.032 1.79281 -1.42797 0
M  V30 1829 C 166.032 1.57607 -0.318837 0
M  V30 1830 O 167.222 1.64309 -0.578642 0
M  V30 1831 C 164.354 3.17632 -1.23785 0
M  V30 1832 H 165.547 1.79385 -2.40335 0
M  V30 1833 H 163.1 0.904582 -1.27464 0
M  V30 1834 H 163.835 3.23167 -0.270814 0
M  V30 1835 H 163.62 3.34765 -2.04144 0
M  V30 1836 H 165.11 3.97617 -1.27633 0
M  V30 1837 N 165.547 1.27147 0.931209 0
M  V30 1838 C 166.772 1.16191 1.71797 0
M  V30 1839 C 167.197 -0.278004 1.86034 0
M  V30 1840 O 166.555 -1.20137 1.35782 0
M  V30 1841 C 166.603 1.84673 3.09723 0
M  V30 1842 O 165.707 1.14231 3.96264 0
M  V30 1843 H 165.048 0.404303 0.526721 0
M  V30 1844 H 167.578 1.68152 1.1656 0
M  V30 1845 H 167.588 1.91893 3.60057 0
M  V30 1846 H 166.263 2.89421 2.98677 0
M  V30 1847 H 164.84 1.15056 3.54706 0
M  V30 1848 N 167.025 -1.13721 1.09112 0
M  V30 1849 C 168.273 -1.84559 0.823562 0
M  V30 1850 C 168.594 -1.83754 -0.652658 0
M  V30 1851 O 167.864 -1.29102 -1.47342 0
M  V30 1852 H 166.444 -0.683376 0.301673 0
M  V30 1853 H 169.106 -1.37771 1.37859 0
M  V30 1854 H 168.202 -2.8917 1.17419 0
M  V30 1855 N 168.503 -0.877838 -1.30888 0
M  V30 1856 C 169.433 -0.35534 -2.3078 0
M  V30 1857 C 170.414 0.557994 -1.60687 0
M  V30 1858 O 171.599 0.473355 -1.88343 0
M  V30 1859 C 168.729 0.437221 -3.44537 0
M  V30 1860 C 167.683 -0.383715 -4.26276 0
M  V30 1861 C 167.009 0.535014 -5.32017 0
M  V30 1862 C 168.309 -1.62201 -4.96476 0
M  V30 1863 H 170.003 -1.19007 -2.74732 0
M  V30 1864 H 167.549 -0.573698 -1.32078 0
M  V30 1865 H 169.502 0.813334 -4.13477 0
M  V30 1866 H 168.226 1.30553 -2.99372 0
M  V30 1867 H 166.885 -0.741874 -3.59015 0
M  V30 1868 H 166.533 1.40083 -4.831 0
M  V30 1869 H 166.233 -0.0104211 -5.87599 0
M  V30 1870 H 167.757 0.907799 -6.03814 0
M  V30 1871 H 169.171 -1.31689 -5.5797 0
M  V30 1872 H 167.568 -2.10711 -5.61891 0
M  V30 1873 H 168.638 -2.37044 -4.23011 0
M  V30 1874 N 169.982 1.44106 -0.638065 0
M  V30 1875 C 170.892 2.34513 0.0637334 0
M  V30 1876 C 171.908 1.53018 0.828346 0
M  V30 1877 O 173.084 1.85723 0.779036 0
M  V30 1878 C 170.149 3.31095 1.02844 0
M  V30 1879 C 169.21 4.28497 0.26244 0
M  V30 1880 C 168.443 5.20465 1.1812 0
M  V30 1881 O 168.666 5.16514 2.42011 0
M  V30 1882 O 167.6 5.98251 0.661774 0
M  V30 1883 H 171.426 2.95989 -0.68003 0
M  V30 1884 H 169.011 1.43994 -0.398252 0
M  V30 1885 H 170.893 3.90526 1.58327 0
M  V30 1886 H 169.568 2.72144 1.7527 0
M  V30 1887 H 168.475 3.72592 -0.335602 0
M  V30 1888 H 169.808 4.90388 -0.421936 0
M  V30 1889 N 171.46 0.379036 1.52974 0
M  V30 1890 C 172.707 -0.206421 2.01445 0
M  V30 1891 C 173.035 -1.47668 1.26587 0
M  V30 1892 O 172.29 -1.92514 0.351675 0
M  V30 1893 C 172.589 -0.53096 3.53434 0
M  V30 1894 C 172.255 0.646546 4.46241 0
M  V30 1895 C 170.917 0.969604 4.7133 0
M  V30 1896 C 173.269 1.43479 5.01062 0
M  V30 1897 C 170.597 2.08263 5.48492 0
M  V30 1898 C 172.949 2.53834 5.7944 0
M  V30 1899 C 171.613 2.86659 6.02812 0
M  V30 1900 H 170.883 -0.0755349 0.73714 0
M  V30 1901 H 173.53 0.514271 1.84465 0
M  V30 1902 H 171.835 -1.33285 3.68432 0
M  V30 1903 H 173.532 -0.996417 3.88423 0
M  V30 1904 H 170.122 0.384734 4.2687 0
M  V30 1905 H 174.306 1.19844 4.81613 0
M  V30 1906 H 169.562 2.34078 5.64816 0
M  V30 1907 H 173.736 3.15319 6.20924 0
M  V30 1908 H 171.363 3.73026 6.62387 0
M  V30 1909 N 172.938 -1.57226 0.108567 0
M  V30 1910 C 173.885 -2.14756 -0.845481 0
M  V30 1911 C 174.855 -1.06971 -1.27068 0
M  V30 1912 O 176.04 -1.34827 -1.35005 0
M  V30 1913 C 173.18 -2.74298 -2.09415 0
M  V30 1914 C 172.293 -3.96358 -1.71826 0
M  V30 1915 C 171.428 -4.44021 -2.9158 0
M  V30 1916 C 170.467 -5.58637 -2.50181 0
M  V30 1917 N 169.604 -6.01091 -3.62814 0
M  V30 1918 H 174.444 -2.95961 -0.348035 0
M  V30 1919 H 171.981 -1.46226 -0.160106 0
M  V30 1920 H 173.939 -3.06945 -2.82561 0
M  V30 1921 H 172.569 -1.95801 -2.56636 0
M  V30 1922 H 171.621 -3.69939 -0.885947 0
M  V30 1923 H 172.933 -4.79504 -1.37394 0
M  V30 1924 H 172.087 -4.78522 -3.72963 0
M  V30 1925 H 170.826 -3.59803 -3.29231 0
M  V30 1926 H 169.831 -5.23751 -1.67228 0
M  V30 1927 H 171.056 -6.44613 -2.13659 0
M  V30 1928 H 169.002 -5.19817 -4.00158 0
M  V30 1929 H 168.919 -6.79066 -3.32273 0
M  V30 1930 H 170.187 -6.40227 -4.44668 0
M  V30 1931 N 174.416 0.165178 -1.56732 0
M  V30 1932 C 175.641 0.900253 -1.86843 0
M  V30 1933 C 176.066 1.74766 -0.695596 0
M  V30 1934 O 175.424 1.77786 0.35522 0
M  V30 1935 C 175.472 1.74777 -3.15413 0
M  V30 1936 O 174.576 2.85007 -2.98068 0
M  V30 1937 H 173.917 0.251832 -0.614391 0
M  V30 1938 H 176.447 0.161468 -2.03962 0
M  V30 1939 H 176.457 2.14646 -3.46974 0
M  V30 1940 H 175.132 1.12537 -4.00385 0
M  V30 1941 H 173.709 2.48676 -2.77875 0
M  V30 1942 N 175.894 1.51508 0.433938 0
M  V30 1943 C 177.14 1.64588 1.18484 0
M  V30 1944 C 177.473 0.362666 1.90784 0
M  V30 1945 O 176.748 -0.637892 1.83742 0
M  V30 1946 C 177.031 2.85149 2.19913 0
M  V30 1947 C 176.884 4.23456 1.51674 0
M  V30 1948 C 178.203 3.01227 3.20858 0
M  V30 1949 H 175.322 0.598994 0.429389 0
M  V30 1950 H 177.964 1.84002 0.473647 0
M  V30 1951 H 176.114 2.68729 2.80566 0
M  V30 1952 H 177.786 4.51552 0.943322 0
M  V30 1953 H 176.029 4.25998 0.819035 0
M  V30 1954 H 176.7 5.03812 2.2556 0
M  V30 1955 H 179.176 3.16382 2.70263 0
M  V30 1956 H 178.052 3.87141 3.89118 0
M  V30 1957 H 178.313 2.13447 3.8716 0
M  V30 1958 N 177.372 -0.689602 1.41712 0
M  V30 1959 C 178.335 -1.78521 1.43746 0
M  V30 1960 C 179.335 -1.57436 0.327191 0
M  V30 1961 O 180.525 -1.64 0.587348 0
M  V30 1962 C 177.657 -3.16971 1.25467 0
M  V30 1963 H 178.85 -1.78108 2.41283 0
M  V30 1964 H 176.403 -0.89781 1.27942 0
M  V30 1965 H 177.138 -3.23019 0.287948 0
M  V30 1966 H 176.923 -3.33678 2.05917 0
M  V30 1967 H 178.413 -3.96935 1.2974 0
M  V30 1968 N 178.85 -1.27639 -0.924453 0
M  V30 1969 C 180.127 -1.04887 -1.651 0
M  V30 1970 C 180.507 0.415327 -2.06974 0
M  V30 1971 O 179.855 1.39923 -1.80648 0
M  V30 1972 C 180.065 -2.01348 -2.85061 0
M  V30 1973 C 181.413 -2.30899 -3.56329 0
M  V30 1974 O 182.437 -1.99348 -2.95193 0
M  V30 1975 O 181.296 -2.84699 -4.66485 0
M  V30 1976 H 178.39 -0.400083 -0.723784 0
M  V30 1977 H 180.936 -1.38916 -0.974703 0
M  V30 1978 H 179.708 -3.0008 -2.51133 0
M  V30 1979 H 179.331 -1.679 -3.6041 0
M  V30 1980 N 180.328 1.1314 -1.09713 0
M  V30 1981 C 181.553 1.88862 -0.857081 0
M  V30 1982 C 181.978 1.78729 0.586304 0
M  V30 1983 O 181.336 1.13692 1.41222 0
M  V30 1984 C 181.384 3.36325 -1.30069 0
M  V30 1985 O 180.488 4.09815 -0.461007 0
M  V30 1986 H 179.829 0.587108 -0.310162 0
M  V30 1987 H 182.359 1.43129 -1.46203 0
M  V30 1988 H 182.369 3.87157 -1.28738 0
M  V30 1989 H 181.044 3.43017 -2.35185 0
M  V30 1990 H 179.621 3.68986 -0.538888 0
M  V30 1991 N 181.806 0.884767 1.30421 0
M  V30 1992 C 183.052 0.503851 1.96441 0
M  V30 1993 C 183.385 -0.944518 1.69684 0
M  V30 1994 O 182.66 -1.66737 1.00145 0
M  V30 1995 C 182.943 0.779085 3.51571 0
M  V30 1996 C 182.796 2.27807 3.87846 0
M  V30 1997 C 184.115 0.255452 4.39358 0
M  V30 1998 H 181.234 0.184533 0.713524 0
M  V30 1999 H 183.876 1.10872 1.54297 0
M  V30 2000 H 182.026 0.264274 3.876 0
M  V30 2001 H 183.698 2.86127 3.61841 0
M  V30 2002 H 181.941 2.74479 3.35922 0
M  V30 2003 H 182.612 2.42125 4.96064 0
M  V30 2004 H 185.088 0.696079 4.10236 0
M  V30 2005 H 183.964 0.477361 5.4682 0
M  V30 2006 H 184.225 -0.843293 4.33983 0
M  V30 2007 N 183.284 -1.43765 0.645699 0
M  V30 2008 C 184.214 -2.33471 -0.0370477 0
M  V30 2009 C 185.195 -1.49042 -0.819779 0
M  V30 2010 O 186.38 -1.77726 -0.782758 0
M  V30 2011 C 183.51 -3.32311 -1.0093 0
M  V30 2012 C 182.464 -4.2667 -0.337201 0
M  V30 2013 C 181.79 -5.1549 -1.42037 0
M  V30 2014 C 183.09 -5.16657 0.765706 0
M  V30 2015 H 184.784 -2.90809 0.712069 0
M  V30 2016 H 182.33 -1.39834 0.343876 0
M  V30 2017 H 184.283 -3.9396 -1.49578 0
M  V30 2018 H 183.007 -2.73213 -1.78948 0
M  V30 2019 H 181.666 -3.66374 0.128771 0
M  V30 2020 H 181.314 -4.52735 -2.1918 0
M  V30 2021 H 181.014 -5.79438 -0.975966 0
M  V30 2022 H 182.538 -5.80012 -1.90838 0
M  V30 2023 H 183.952 -5.72158 0.361702 0
M  V30 2024 H 182.349 -5.89286 1.13413 0
M  V30 2025 H 183.419 -4.56796 1.62683 0
M  V30 2026 N 184.763 -0.387143 -1.52771 0
M  V30 2027 C 186.01 0.195735 -2.01552 0
M  V30 2028 C 186.338 1.46995 -1.27369 0
M  V30 2029 O 185.593 1.92325 -0.361879 0
M  V30 2030 C 185.892 0.512209 -3.53711 0
M  V30 2031 C 185.558 -0.670202 -4.45891 0
M  V30 2032 C 184.22 -0.994586 -4.70809 0
M  V30 2033 C 186.572 -1.46134 -5.00294 0
M  V30 2034 C 183.9 -2.11169 -5.4738 0
M  V30 2035 C 186.252 -2.56903 -5.78086 0
M  V30 2036 C 184.916 -2.89852 -6.01284 0
M  V30 2037 H 184.186 0.0716246 -0.73753 0
M  V30 2038 H 186.833 -0.524046 -1.8419 0
M  V30 2039 H 185.138 1.31329 -3.69134 0
M  V30 2040 H 186.835 0.975804 -3.88946 0
M  V30 2041 H 183.425 -0.407366 -4.2666 0
M  V30 2042 H 187.609 -1.22397 -4.80971 0
M  V30 2043 H 182.865 -2.3707 -5.63567 0
M  V30 2044 H 187.039 -3.18608 -6.19243 0
M  V30 2045 H 184.666 -3.76533 -6.60399 0
M  V30 2046 N 186.241 1.57166 -0.116904 0
M  V30 2047 C 187.171 2.18222 0.830759 0
M  V30 2048 C 188.152 1.12167 1.27877 0
M  V30 2049 O 189.337 1.40394 1.34176 0
M  V30 2050 C 186.467 2.77996 2.08172 0
M  V30 2051 C 185.421 3.89614 1.77157 0
M  V30 2052 C 184.747 4.36187 3.09265 0
M  V30 2053 C 186.047 5.1181 1.04151 0
M  V30 2054 H 187.741 2.97664 0.321992 0
M  V30 2055 H 185.287 1.4318 0.153434 0
M  V30 2056 H 187.24 3.19366 2.74924 0
M  V30 2057 H 185.964 1.9584 2.6137 0
M  V30 2058 H 184.623 3.48816 1.12796 0
M  V30 2059 H 184.271 3.50893 3.60393 0
M  V30 2060 H 183.971 5.11455 2.89288 0
M  V30 2061 H 185.495 4.80207 3.77139 0
M  V30 2062 H 186.909 5.50214 1.61052 0
M  V30 2063 H 185.306 5.92648 0.942762 0
M  V30 2064 H 186.376 4.84892 0.0279022 0
M  V30 2065 N 187.719 -0.156864 1.56817 0
M  V30 2066 C 189.135 -0.50916 1.5126 0
M  V30 2067 C 189.335 -1.83897 0.823658 0
M  V30 2068 O 188.391 -2.49469 0.390055 0
M  V30 2069 C 189.704 -0.52857 2.96018 0
M  V30 2070 C 191.252 -0.614771 3.06903 0
M  V30 2071 C 191.727 -0.664938 4.53147 0
M  V30 2072 N 193.218 -0.727433 4.57452 0
M  V30 2073 C 193.953 -0.787067 5.67973 0
M  V30 2074 N 193.449 -0.806649 6.88088 0
M  V30 2075 N 195.242 -0.827195 5.5598 0
M  V30 2076 H 187.393 0.714935 2.00006 0
M  V30 2077 H 189.656 0.259526 0.911784 0
M  V30 2078 H 189.362 0.380154 3.49639 0
M  V30 2079 H 189.236 -1.36998 3.51442 0
M  V30 2080 H 191.623 -1.51392 2.53307 0
M  V30 2081 H 191.704 0.253597 2.5454 0
M  V30 2082 H 191.348 0.230011 5.07379 0
M  V30 2083 H 191.278 -1.54966 5.03282 0
M  V30 2084 H 193.769 -0.719998 3.70978 0
M  V30 2085 H 194.082 -0.853727 7.6807 0
M  V30 2086 H 192.427 -0.774687 6.90669 0
M  V30 2087 H 195.618 -0.808998 4.61056 0
M  V30 2088 H 195.791 -0.870206 6.4213 0
M  V30 2089 N 189.197 -1.51736 -0.425897 0
M  V30 2090 C 190.474 -1.55519 -1.1863 0
M  V30 2091 C 190.854 -0.326219 -2.08564 0
M  V30 2092 O 190.202 0.688012 -2.17896 0
M  V30 2093 C 190.412 -2.87521 -1.9782 0
M  V30 2094 C 191.76 -3.39899 -2.54468 0
M  V30 2095 O 192.784 -2.89148 -2.08019 0
M  V30 2096 O 191.643 -4.2848 -3.39215 0
M  V30 2097 H 188.737 -0.625739 -0.540721 0
M  V30 2098 H 191.283 -1.64055 -0.434038 0
M  V30 2099 H 190.055 -3.68422 -1.31836 0
M  V30 2100 H 189.678 -2.822 -2.80088 0
M  V30 2101 N 190.675 0.682077 -1.42076 0
M  V30 2102 C 191.622 1.79578 -1.44984 0
M  V30 2103 C 192.592 1.6332 -0.302614 0
M  V30 2104 O 193.777 1.83978 -0.505633 0
M  V30 2105 C 190.917 3.1756 -1.35091 0
M  V30 2106 C 190.03 3.45156 -2.59791 0
M  V30 2107 C 189.165 4.72826 -2.42093 0
M  V30 2108 C 188.204 4.93433 -3.62202 0
M  V30 2109 N 187.341 6.12338 -3.43491 0
M  V30 2110 H 192.181 1.76427 -2.40161 0
M  V30 2111 H 189.718 0.861376 -1.19242 0
M  V30 2112 H 191.676 3.97287 -1.27354 0
M  V30 2113 H 190.306 3.19854 -0.435133 0
M  V30 2114 H 189.358 2.59736 -2.77923 0
M  V30 2115 H 190.67 3.5628 -3.49094 0
M  V30 2116 H 189.824 5.60631 -2.319 0
M  V30 2117 H 188.563 4.63973 -1.50268 0
M  V30 2118 H 187.568 4.04073 -3.72834 0
M  V30 2119 H 188.793 5.04136 -4.54998 0
M  V30 2120 H 186.739 6.04672 -2.54377 0
M  V30 2121 H 186.656 6.2429 -4.26377 0
M  V30 2122 H 187.924 7.02841 -3.37097 0
M  V30 2123 N 192.153 1.28127 0.917671 0
M  V30 2124 C 193.569 1.05749 1.19538 0
M  V30 2125 C 193.769 -0.202633 2.00479 0
M  V30 2126 O 192.825 -0.905382 2.3571 0
M  V30 2127 C 194.138 2.30273 1.93378 0
M  V30 2128 C 195.686 2.35412 2.06277 0
M  V30 2129 C 196.161 3.59692 2.83524 0
M  V30 2130 N 197.652 3.60309 2.91087 0
M  V30 2131 C 198.387 4.53147 3.51348 0
M  V30 2132 N 197.883 5.563 4.12919 0
M  V30 2133 N 199.676 4.40751 3.48849 0
M  V30 2134 H 191.827 2.09024 0.377184 0
M  V30 2135 H 194.09 0.919798 0.22951 0
M  V30 2136 H 193.796 3.22055 1.41328 0
M  V30 2137 H 193.67 2.36378 2.93947 0
M  V30 2138 H 196.057 1.4413 2.57508 0
M  V30 2139 H 196.138 2.33304 1.04895 0
M  V30 2140 H 195.782 4.51316 2.32973 0
M  V30 2141 H 195.712 3.59054 3.85211 0
M  V30 2142 H 198.203 2.85714 2.47338 0
M  V30 2143 H 198.516 6.2329 4.56869 0
M  V30 2144 H 196.861 5.60131 4.11435 0
M  V30 2145 H 200.052 3.59367 2.99955 0
M  V30 2146 H 200.225 5.13291 3.9552 0
M  V30 2147 N 193.631 -1.12557 1.10312 0
M  V30 2148 C 194.877 -1.84515 0.855901 0
M  V30 2149 C 195.232 -1.82409 -0.611936 0
M  V30 2150 O 194.525 -1.25778 -1.44535 0
M  V30 2151 C 194.719 -3.31462 1.33669 0
M  V30 2152 C 194.548 -3.47879 2.84974 0
M  V30 2153 C 193.318 -3.61589 3.52961 0
M  V30 2154 C 195.516 -3.43152 3.83081 0
M  V30 2155 N 193.498 -3.66359 4.926 0
M  V30 2156 C 194.869 -3.54401 5.08724 0
M  V30 2157 C 196.924 -3.2661 3.75807 0
M  V30 2158 C 195.627 -3.50815 6.2795 0
M  V30 2159 C 197.653 -3.24335 4.94531 0
M  V30 2160 C 197.015 -3.36144 6.19021 0
M  V30 2161 H 193.114 -0.690967 0.366182 0
M  V30 2162 H 195.698 -1.34763 1.40524 0
M  V30 2163 H 193.869 -3.7976 0.814686 0
M  V30 2164 H 195.601 -3.91272 1.03385 0
M  V30 2165 H 192.356 -3.63652 3.03404 0
M  V30 2166 H 192.78 -3.72411 5.65366 0
M  V30 2167 H 197.422 -3.16375 2.80476 0
M  V30 2168 H 195.14 -3.5982 7.23571 0
M  V30 2169 H 198.726 -3.12719 4.9061 0
M  V30 2170 H 197.606 -3.34357 7.09348 0
M  V30 2171 N 195.109 -0.891671 -1.2995 0
M  V30 2172 C 196.019 -0.367691 -2.31701 0
M  V30 2173 C 197.035 0.533486 -1.6562 0
M  V30 2174 O 198.211 0.424997 -1.96865 0
M  V30 2175 C 195.276 0.403406 -3.44345 0
M  V30 2176 C 194.337 -0.528328 -4.26037 0
M  V30 2177 C 193.57 0.206063 -5.33302 0
M  V30 2178 O 193.793 1.43119 -5.52153 0
M  V30 2179 O 192.727 -0.447281 -6.00236 0
M  V30 2180 H 196.553 -1.21163 -2.78484 0
M  V30 2181 H 194.138 -0.655725 -1.34241 0
M  V30 2182 H 196.02 0.839753 -4.12948 0
M  V30 2183 H 194.695 1.22354 -2.99685 0
M  V30 2184 H 193.602 -1.01362 -3.60106 0
M  V30 2185 H 194.935 -1.31465 -4.74318 0
M  V30 2186 N 196.587 1.43421 -0.653314 0
M  V30 2187 C 197.497 2.34568 0.0388565 0
M  V30 2188 C 198.513 1.53888 0.81207 0
M  V30 2189 O 199.689 1.86539 0.759294 0
M  V30 2190 C 196.754 3.32167 0.993269 0
M  V30 2191 C 195.815 4.28751 0.216977 0
M  V30 2192 C 195.048 5.21688 1.12593 0
M  V30 2193 O 195.271 5.19052 2.36519 0
M  V30 2194 O 194.205 5.98919 0.598284 0
M  V30 2195 H 198.031 2.95251 -0.711386 0
M  V30 2196 H 195.616 1.43564 -0.413502 0
M  V30 2197 H 197.498 3.92183 1.54176 0
M  V30 2198 H 196.173 2.73987 1.72374 0
M  V30 2199 H 195.08 3.72215 -0.375101 0
M  V30 2200 H 196.413 4.89913 -0.473924 0
M  V30 2201 N 198.065 0.39524 1.52563 0
M  V30 2202 C 199.311 -0.185318 2.01952 0
M  V30 2203 C 199.644 -1.45964 1.28095 0
M  V30 2204 O 198.919 -1.90689 0.38315 0
M  V30 2205 C 199.202 -0.447193 3.57312 0
M  V30 2206 C 199.055 0.842828 4.41833 0
M  V30 2207 C 200.374 -1.23529 4.22408 0
M  V30 2208 H 197.493 -0.0658788 0.73405 0
M  V30 2209 H 200.135 0.525975 1.82575 0
M  V30 2210 H 198.285 -1.05312 3.73954 0
M  V30 2211 H 199.957 1.4795 4.36931 0
M  V30 2212 H 198.2 1.45686 4.08605 0
M  V30 2213 H 198.871 0.614165 5.48573 0
M  V30 2214 H 201.347 -0.722445 4.0978 0
M  V30 2215 H 200.223 -1.38727 5.3108 0
M  V30 2216 H 200.484 -2.25213 3.80436 0
M  V30 2217 N 199.544 -1.57102 0.125237 0
M  V30 2218 C 200.96 -1.57915 -0.231322 0
M  V30 2219 C 201.16 -1.13833 -1.66266 0
M  V30 2220 O 200.216 -0.828581 -2.38518 0
M  V30 2221 C 201.529 -3.00699 0.00766489 0
M  V30 2222 C 203.077 -3.12947 -0.0577483 0
M  V30 2223 C 203.552 -4.57742 0.153626 0
M  V30 2224 N 205.043 -4.63092 0.0998073 0
M  V30 2225 C 205.778 -5.72905 0.238174 0
M  V30 2226 N 205.274 -6.91445 0.433057 0
M  V30 2227 N 207.067 -5.6182 0.177308 0
M  V30 2228 H 199.218 -1.84055 1.06007 0
M  V30 2229 H 201.481 -0.850905 0.417929 0
M  V30 2230 H 201.187 -3.3726 0.997431 0
M  V30 2231 H 201.061 -3.70236 -0.721452 0
M  V30 2232 H 203.448 -2.7624 -1.03804 0
M  V30 2233 H 203.529 -2.4594 0.70335 0
M  V30 2234 H 203.173 -4.95149 1.13092 0
M  V30 2235 H 203.103 -5.22848 -0.627534 0
M  V30 2236 H 205.594 -3.77871 -0.047051 0
M  V30 2237 H 205.907 -7.70985 0.529332 0
M  V30 2238 H 204.252 -6.93415 0.469109 0
M  V30 2239 H 207.443 -4.68093 0.0259748 0
M  V30 2240 H 207.616 -6.47357 0.288582 0
M  V30 2241 N 201.022 0.148545 -1.56898 0
M  V30 2242 C 202.27 0.859717 -1.82902 0
M  V30 2243 C 202.591 1.81775 -0.70588 0
M  V30 2244 O 201.861 1.93994 0.272586 0
M  V30 2245 H 200.441 0.320469 -0.674766 0
M  V30 2246 H 203.103 0.142918 -1.94375 0
M  V30 2247 H 202.199 1.4229 -2.77777 0
M  V30 2248 N 202.5 1.5196 0.417844 0
M  V30 2249 C 203.463 1.74065 1.49111 0
M  V30 2250 C 204.463 0.610537 1.48758 0
M  V30 2251 O 205.653 0.87832 1.50437 0
M  V30 2252 C 202.785 1.81502 2.88565 0
M  V30 2253 H 203.978 2.69869 1.30807 0
M  V30 2254 H 201.531 1.42244 0.647785 0
M  V30 2255 H 202.266 0.875813 3.1225 0
M  V30 2256 H 202.051 2.63651 2.90225 0
M  V30 2257 H 203.541 2.00376 3.66387 0
M  V30 2258 N 203.978 -0.674533 1.42435 0
M  V30 2259 C 204.908 -1.80009 1.48724 0
M  V30 2260 C 205.889 -1.6659 0.343793 0
M  V30 2261 O 207.074 -1.86007 0.558137 0
M  V30 2262 C 204.204 -3.18306 1.38919 0
M  V30 2263 C 203.158 -3.46461 2.51294 0
M  V30 2264 C 202.484 -4.84335 2.26547 0
M  V30 2265 C 203.784 -3.43328 3.93603 0
M  V30 2266 H 205.478 -1.75004 2.42928 0
M  V30 2267 H 203.024 -0.840533 1.16923 0
M  V30 2268 H 204.977 -3.9678 1.41927 0
M  V30 2269 H 203.701 -3.2399 0.412094 0
M  V30 2270 H 202.36 -2.70348 2.47604 0
M  V30 2271 H 202.008 -4.86669 1.2713 0
M  V30 2272 H 201.708 -5.04136 3.01861 0
M  V30 2273 H 203.232 -5.65094 2.31304 0
M  V30 2274 H 204.646 -4.11772 3.98894 0
M  V30 2275 H 203.043 -3.74664 4.68771 0
M  V30 2276 H 204.113 -2.41897 4.20255 0
M  V30 2277 N 205.456 -1.28612 -0.910864 0
M  V30 2278 C 206.389 -1.07109 -2.01502 0
M  V30 2279 C 207.367 0.013706 -1.62594 0
M  V30 2280 O 208.551 -0.134796 -1.88017 0
M  V30 2281 C 205.678 -0.628255 -3.32822 0
M  V30 2282 C 204.724 -1.71012 -3.90714 0
M  V30 2283 S 205.557 -3.30676 -4.21205 0
M  V30 2284 C 206.713 -2.88234 -5.55583 0
M  V30 2285 H 206.946 -2.00591 -2.19432 0
M  V30 2286 H 204.479 -1.12633 -1.05609 0
M  V30 2287 H 206.437 -0.37946 -4.08742 0
M  V30 2288 H 205.098 0.28678 -3.12788 0
M  V30 2289 H 204.291 -1.35195 -4.85529 0
M  V30 2290 H 203.893 -1.91186 -3.21441 0
M  V30 2291 H 206.185 -2.34584 -6.35591 0
M  V30 2292 H 207.128 -3.81857 -5.96314 0
M  V30 2293 H 207.536 -2.26862 -5.16908 0
M  V30 2294 N 206.934 1.1197 -1.10907 0
M  V30 2295 C 208.159 1.87942 -0.877064 0
M  V30 2296 C 208.584 1.79341 0.567314 0
M  V30 2297 O 207.942 1.15184 1.40009 0
M  V30 2298 C 207.99 3.34926 -1.33629 0
M  V30 2299 O 207.094 4.09303 -0.504447 0
M  V30 2300 H 206.435 0.583785 -0.316371 0
M  V30 2301 H 208.965 1.4157 -1.47712 0
M  V30 2302 H 208.975 3.8577 -1.32837 0
M  V30 2303 H 207.65 3.40504 -2.3881 0
M  V30 2304 H 206.227 3.68393 -0.577993 0
M  V30 2305 N 208.412 0.89855 1.29475 0
M  V30 2306 C 209.375 0.380272 2.26023 0
M  V30 2307 C 210.375 -0.484891 1.53315 0
M  V30 2308 O 211.565 -0.290108 1.71767 0
M  V30 2309 C 208.697 -0.45651 3.3783 0
M  V30 2310 H 209.89 1.23295 2.73383 0
M  V30 2311 H 207.443 0.676589 1.40897 0
M  V30 2312 H 208.178 -1.32922 2.95808 0
M  V30 2313 H 207.963 0.163393 3.91759 0
M  V30 2314 H 209.453 -0.810466 4.0966 0
M  V30 2315 N 209.89 -1.43072 0.660911 0
M  V30 2316 C 211.137 -2.01721 0.177445 0
M  V30 2317 C 211.465 -1.5218 -1.21126 0
M  V30 2318 O 210.72 -0.708659 -1.82419 0
M  V30 2319 C 211.019 -3.57103 0.145563 0
M  V30 2320 C 210.685 -4.26021 1.47705 0
M  V30 2321 C 209.347 -4.44563 1.84165 0
M  V30 2322 C 211.699 -4.64983 2.35458 0
M  V30 2323 C 209.027 -4.99334 3.0803 0
M  V30 2324 C 211.379 -5.21127 3.58622 0
M  V30 2325 C 210.043 -5.37884 3.95268 0
M  V30 2326 H 209.313 -0.73815 0.0649317 0
M  V30 2327 H 211.96 -1.71446 0.853144 0
M  V30 2328 H 210.265 -3.86965 -0.61361 0
M  V30 2329 H 211.962 -4.00248 -0.2455 0
M  V30 2330 H 208.552 -4.11939 1.18339 0
M  V30 2331 H 212.736 -4.50343 2.08579 0
M  V30 2332 H 207.992 -5.10493 3.36462 0
M  V30 2333 H 212.166 -5.50262 4.26831 0
M  V30 2334 H 209.793 -5.80089 4.91325 0
M  V30 2335 N 211.368 -0.403325 -1.52352 0
M  V30 2336 C 212.593 0.176499 -2.06648 0
M  V30 2337 C 213.018 1.38577 -1.27193 0
M  V30 2338 O 212.376 1.7879 -0.300637 0
M  V30 2339 C 212.424 0.511061 -3.5696 0
M  V30 2340 O 211.528 1.60294 -3.79973 0
M  V30 2341 H 210.869 0.0167337 -0.663789 0
M  V30 2342 H 213.399 -0.574848 -1.96359 0
M  V30 2343 H 213.409 0.771362 -4.00642 0
M  V30 2344 H 212.084 -0.37296 -4.14224 0
M  V30 2345 H 210.661 1.33526 -3.48174 0
M  V30 2346 N 212.846 1.57033 -0.133567 0
M  V30 2347 C 214.257 1.82593 0.389464 0
M  V30 2348 C 214.608 1.05156 1.6564 0
M  V30 2349 O 213.733 0.292644 2.14412 0
M  V30 2350 C 214.328 3.31204 0.713377 0
M  V30 2351 C 212.887 3.57393 1.18098 0
M  V30 2352 C 212.034 2.76598 0.197126 0
M  V30 2353 H 214.985 1.54598 -0.358481 0
M  V30 2354 H 215.006 3.46627 1.56939 0
M  V30 2355 H 214.518 3.87537 -0.2089 0
M  V30 2356 H 212.619 3.06433 2.11966 0
M  V30 2357 H 212.732 4.65915 1.11624 0
M  V30 2358 H 211.096 2.45257 0.687088 0
M  V30 2359 H 211.879 3.35697 -0.718504 0
M  V30 2360 N 214.325 -0.140222 1.56975 0
M  V30 2361 C 215.235 -1.19223 2.02047 0
M  V30 2362 C 216.251 -1.46612 0.937062 0
M  V30 2363 O 217.427 -1.58148 1.24704 0
M  V30 2364 C 214.492 -2.50414 2.39778 0
M  V30 2365 C 213.553 -2.30612 3.621 0
M  V30 2366 C 212.786 -3.55547 3.98023 0
M  V30 2367 O 213.009 -4.62004 3.34528 0
M  V30 2368 O 211.943 -3.47808 4.91237 0
M  V30 2369 H 215.769 -0.839559 2.91865 0
M  V30 2370 H 213.354 -0.349453 1.45256 0
M  V30 2371 H 215.236 -3.27747 2.64877 0
M  V30 2372 H 213.911 -2.85198 1.53114 0
M  V30 2373 H 212.818 -1.51207 3.4218 0
M  V30 2374 H 214.151 -2.00741 4.49404 0
M  V30 2375 N 215.803 -1.52179 -0.40978 0
M  V30 2376 C 216.75 -1.75475 -1.49924 0
M  V30 2377 C 217.72 -0.597175 -1.54994 0
M  V30 2378 O 218.905 -0.834655 -1.71575 0
M  V30 2379 C 216.045 -1.9107 -2.87378 0
M  V30 2380 C 215.158 -3.18717 -2.91622 0
M  V30 2381 C 214.293 -3.24747 -4.20372 0
M  V30 2382 C 213.332 -4.46598 -4.18588 0
M  V30 2383 N 212.469 -4.50025 -5.38908 0
M  V30 2384 H 217.309 -2.68458 -1.29361 0
M  V30 2385 H 214.846 -1.33024 -0.627934 0
M  V30 2386 H 216.804 -1.98096 -3.6717 0
M  V30 2387 H 215.434 -1.01469 -3.06437 0
M  V30 2388 H 214.486 -3.20866 -2.04326 0
M  V30 2389 H 215.798 -4.08544 -2.86169 0
M  V30 2390 H 214.952 -3.30841 -5.08556 0
M  V30 2391 H 213.691 -2.32857 -4.28519 0
M  V30 2392 H 212.696 -4.40652 -3.28794 0
M  V30 2393 H 213.921 -5.39783 -4.12081 0
M  V30 2394 H 211.867 -3.61017 -5.47725 0
M  V30 2395 H 211.784 -5.33697 -5.35447 0
M  V30 2396 H 213.052 -4.60347 -6.29048 0
M  V30 2397 N 217.281 0.66697 -1.42791 0
M  V30 2398 C 218.211 1.79218 -1.49677 0
M  V30 2399 C 219.192 1.66405 -0.352623 0
M  V30 2400 O 220.377 1.85708 -0.567993 0
M  V30 2401 C 217.507 3.17565 -1.40605 0
M  V30 2402 C 216.461 3.45124 -2.53127 0
M  V30 2403 C 215.787 4.83127 -2.29112 0
M  V30 2404 C 217.087 3.41236 -3.95418 0
M  V30 2405 H 218.781 1.73713 -2.43853 0
M  V30 2406 H 216.327 0.83432 -1.17367 0
M  V30 2407 H 218.28 3.96022 -1.44029 0
M  V30 2408 H 217.004 3.23767 -0.429271 0
M  V30 2409 H 215.663 2.69031 -2.49034 0
M  V30 2410 H 215.311 4.85988 -1.29709 0
M  V30 2411 H 215.011 5.02528 -3.04531 0
M  V30 2412 H 216.535 5.63859 -2.34297 0
M  V30 2413 H 217.949 4.09651 -4.01073 0
M  V30 2414 H 216.346 3.72173 -4.70752 0
M  V30 2415 H 217.416 2.39665 -4.21532 0
M  V30 2416 N 218.759 1.29093 0.90403 0
M  V30 2417 C 219.707 1.13727 2.02901 0
M  V30 2418 C 220.701 0.0539853 1.69314 0
M  V30 2419 O 221.907 0.213469 1.7873 0
M  V30 2420 H 218.282 0.35117 0.664969 0
M  V30 2421 H 220.253 2.08982 2.13001 0
M  V30 2422 C 219.002 0.826066 3.37745 0
M  V30 2423 H 218.325 1.65164 3.64089 0
M  V30 2424 H 219.765 0.758559 4.17159 0
M  V30 2425 C 218.224 -0.470541 3.33598 0
M  V30 2426 O 218.754 -1.49792 3.72727 0
M  V30 2427 N 216.96 -0.474812 2.86695 0
M  V30 2428 H 216.507 0.361692 2.55048 0
M  V30 2429 H 216.465 -1.34236 2.84303 0
M  V30 2430 N 220.237 -1.11381 1.11499 0
M  V30 2431 C 221.147 -2.21019 0.786628 0
M  V30 2432 C 222.163 -1.72597 -0.220507 0
M  V30 2433 O 223.339 -2.01321 -0.0565251 0
M  V30 2434 C 220.404 -3.459 0.235333 0
M  V30 2435 C 219.465 -4.09107 1.30115 0
M  V30 2436 C 218.698 -5.28027 0.776068 0
M  V30 2437 O 218.921 -5.6904 -0.393661 0
M  V30 2438 O 217.855 -5.81835 1.54114 0
M  V30 2439 H 221.681 -2.51521 1.70209 0
M  V30 2440 H 219.266 -1.19928 0.890928 0
M  V30 2441 H 221.148 -4.21346 -0.067715 0
M  V30 2442 H 219.823 -3.17049 -0.652828 0
M  V30 2443 H 218.73 -3.35391 1.65722 0
M  V30 2444 H 220.063 -4.42139 2.16273 0
M  V30 2445 N 221.715 -0.905404 -1.28997 0
M  V30 2446 C 222.648 -0.331959 -2.25773 0
M  V30 2447 C 223.626 0.559099 -1.52685 0
M  V30 2448 O 224.81 0.50463 -1.8162 0
M  V30 2449 C 221.937 0.526276 -3.34586 0
M  V30 2450 C 220.983 -0.298249 -4.25456 0
M  V30 2451 S 221.816 -1.69968 -5.0781 0
M  V30 2452 C 222.972 -0.848519 -6.20122 0
M  V30 2453 H 223.205 -1.15222 -2.74064 0
M  V30 2454 H 220.738 -0.706112 -1.37308 0
M  V30 2455 H 222.696 1.01565 -3.97737 0
M  V30 2456 H 221.357 1.32084 -2.84978 0
M  V30 2457 H 220.55 0.357607 -5.0273 0
M  V30 2458 H 220.152 -0.720968 -3.66985 0
M  V30 2459 H 222.444 -0.0744325 -6.77459 0
M  V30 2460 H 223.387 -1.59353 -6.89937 0
M  V30 2461 H 223.795 -0.400383 -5.63078 0
M  V30 2462 N 223.193 1.4272 -0.668489 0
M  V30 2463 C 224.439 2.01923 -0.188419 0
M  V30 2464 C 224.772 1.52704 1.19979 0
M  V30 2465 O 224.047 0.726566 1.8042 0
M  V30 2466 C 224.33 3.59451 -0.216085 0
M  V30 2467 C 224.183 4.18864 -1.6393 0
M  V30 2468 C 225.502 4.37903 0.439179 0
M  V30 2469 H 222.621 0.733674 -0.0699412 0
M  V30 2470 H 225.263 1.69822 -0.852076 0
M  V30 2471 H 223.413 3.86929 0.349012 0
M  V30 2472 H 225.085 4.02362 -2.25616 0
M  V30 2473 H 223.328 3.74933 -2.18193 0
M  V30 2474 H 223.999 5.27987 -1.61039 0
M  V30 2475 H 226.475 4.16079 -0.0417878 0
M  V30 2476 H 225.351 5.47519 0.389157 0
M  V30 2477 H 225.612 4.15303 1.51577 0
M  V30 2478 N 224.671 0.411399 1.52136 0
M  V30 2479 C 226.082 -0.0576826 1.86611 0
M  V30 2480 C 226.433 -1.44238 1.33003 0
M  V30 2481 O 225.558 -2.05759 0.670228 0
M  V30 2482 C 226.153 -0.111448 3.38617 0
M  V30 2483 C 224.712 -0.52487 3.72723 0
M  V30 2484 C 223.859 0.299176 2.75681 0
M  V30 2485 H 226.81 0.628368 1.4573 0
M  V30 2486 H 226.831 -0.926252 3.69054 0
M  V30 2487 H 226.343 0.896488 3.77604 0
M  V30 2488 H 224.444 -1.53936 3.39315 0
M  V30 2489 H 224.557 -0.267681 4.78352 0
M  V30 2490 H 222.921 -0.238814 2.53578 0
M  V30 2491 H 223.704 1.3055 3.17508 0
M  V30 2492 N 226.149 -1.5696 0.141893 0
M  V30 2493 C 227.079 -2.19516 -0.795936 0
M  V30 2494 C 228.06 -1.14187 -1.26077 0
M  V30 2495 O 229.245 -1.42511 -1.31925 0
M  V30 2496 C 226.375 -2.81272 -2.03723 0
M  V30 2497 C 225.329 -3.92384 -1.70936 0
M  V30 2498 C 224.655 -4.41052 -3.02287 0
M  V30 2499 C 225.955 -5.13403 -0.959954 0
M  V30 2500 H 227.649 -2.98138 -0.274596 0
M  V30 2501 H 225.195 -1.43406 -0.130636 0
M  V30 2502 H 227.148 -3.237 -2.69808 0
M  V30 2503 H 225.872 -1.99973 -2.58221 0
M  V30 2504 H 224.531 -3.50566 -1.07232 0
M  V30 2505 H 224.179 -3.56582 -3.54765 0
M  V30 2506 H 223.879 -5.15993 -2.81114 0
M  V30 2507 H 225.403 -4.86146 -3.69451 0
M  V30 2508 H 226.817 -5.52706 -1.52279 0
M  V30 2509 H 225.214 -5.94073 -0.848357 0
M  V30 2510 H 226.284 -4.84875 0.0492434 0
M  V30 2511 N 227.627 0.131896 -1.57047 0
M  V30 2512 C 228.876 0.84044 -1.83356 0
M  V30 2513 C 229.189 1.81646 -0.725535 0
M  V30 2514 O 230.395 2.57025 -0.874659 0
M  V30 2515 C 228.851 1.54528 -3.25037 0
M  V30 2516 C 228.459 0.610902 -4.43815 0
M  V30 2517 C 230.203 2.23972 -3.60606 0
M  V30 2518 C 228.11 1.31823 -5.76521 0
M  V30 2519 H 227.04 0.317599 -0.683847 0
M  V30 2520 H 229.691 0.0931561 -1.83263 0
M  V30 2521 H 228.073 2.33873 -3.19561 0
M  V30 2522 H 229.247 -0.148407 -4.60561 0
M  V30 2523 H 227.562 0.0241016 -4.16393 0
M  V30 2524 H 230.159 2.77558 -4.57018 0
M  V30 2525 H 230.502 3.01173 -2.87403 0
M  V30 2526 H 231.035 1.51529 -3.6781 0
M  V30 2527 H 227.774 0.587771 -6.52859 0
M  V30 2528 H 227.294 2.04987 -5.63685 0
M  V30 2529 H 228.973 1.855 -6.19838 0
M  V30 2530 N 229.106 1.52395 0.401703 0
M  V30 2531 C 230.331 1.70972 1.17403 0
M  V30 2532 C 230.756 0.421615 1.83314 0
M  V30 2533 O 230.114 -0.621564 1.70312 0
M  V30 2534 C 230.162 2.85151 2.20728 0
M  V30 2535 O 229.266 2.51238 3.27037 0
M  V30 2536 H 228.607 0.568927 0.342372 0
M  V30 2537 H 231.137 1.99131 0.469891 0
M  V30 2538 H 231.147 3.10279 2.64936 0
M  V30 2539 H 229.822 3.78603 1.7214 0
M  V30 2540 H 228.399 2.36808 2.88057 0
M  V30 2541 N 230.584 -0.659388 1.43143 0
M  V30 2542 C 231.516 -1.7849 1.43784 0
M  V30 2543 C 232.529 -1.5932 0.334787 0
M  V30 2544 O 233.718 -1.68155 0.598842 0
M  V30 2545 C 230.818 -3.15828 1.22906 0
M  V30 2546 C 229.991 -3.61711 2.45934 0
M  V30 2547 C 229.05 -4.77831 2.20371 0
M  V30 2548 O 228.076 -4.87586 2.93681 0
M  V30 2549 N 229.278 -5.67611 1.21647 0
M  V30 2550 H 232.043 -1.7842 2.40803 0
M  V30 2551 H 229.604 -0.84302 1.3822 0
M  V30 2552 H 231.596 -3.91189 1.03697 0
M  V30 2553 H 230.166 -3.10707 0.343542 0
M  V30 2554 H 229.386 -2.76861 2.80609 0
M  V30 2555 H 230.674 -3.89112 3.27825 0
M  V30 2556 H 230.072 -5.62397 0.610449 0
M  V30 2557 H 228.629 -6.42719 1.08423 0
M  V30 2558 N 232.062 -1.29571 -0.897171 0
M  V30 2559 C 233.025 -1.14913 -1.98312 0
M  V30 2560 C 234.025 -0.0838629 -1.60581 0
M  V30 2561 O 235.215 -0.331006 -1.71026 0
M  V30 2562 C 232.347 -0.757835 -3.3237 0
M  V30 2563 H 233.54 -2.11377 -2.12743 0
M  V30 2564 H 231.093 -1.12793 -1.08201 0
M  V30 2565 H 231.828 0.206837 -3.2364 0
M  V30 2566 H 231.613 -1.52755 -3.61121 0
M  V30 2567 H 233.103 -0.678408 -4.12053 0
M  V30 2568 N 233.54 1.10788 -1.12088 0
M  V30 2569 C 234.78 1.84297 -0.883974 0
M  V30 2570 C 235.144 1.83036 0.579797 0
M  V30 2571 O 236.345 2.52061 0.933734 0
M  V30 2572 C 234.616 3.27173 -1.43849 0
M  V30 2573 S 236.175 4.17853 -1.33957 0
M  V30 2574 H 232.993 0.635433 -0.318977 0
M  V30 2575 H 235.595 1.33341 -1.4297 0
M  V30 2576 H 234.299 3.25658 -2.49749 0
M  V30 2577 H 233.83 3.83198 -0.890096 0
M  V30 2578 H 235.845 4.95239 -0.308603 0
M  V30 2579 N 235.018 0.912232 1.28515 0
M  V30 2580 C 236.295 0.463597 1.90027 0
M  V30 2581 C 236.675 -1.05753 1.82701 0
M  V30 2582 O 236.023 -1.90492 1.26194 0
M  V30 2583 C 236.233 0.992253 3.34597 0
M  V30 2584 C 237.581 1.04344 4.11579 0
M  V30 2585 O 238.605 0.94079 3.43551 0
M  V30 2586 O 237.464 1.1995 5.33174 0
M  V30 2587 H 234.558 0.146666 0.813891 0
M  V30 2588 H 237.104 1.00292 1.36893 0
M  V30 2589 H 235.876 2.03623 3.34146 0
M  V30 2590 H 235.499 0.433672 3.95228 0
M  V30 2591 N 236.496 -1.42363 0.676048 0
M  V30 2592 C 237.426 -2.33497 0.0124832 0
M  V30 2593 C 238.407 -1.50748 -0.787981 0
M  V30 2594 O 239.592 -1.79346 -0.744884 0
M  V30 2595 C 236.722 -3.34377 -0.938582 0
M  V30 2596 C 235.676 -4.27289 -0.246622 0
M  V30 2597 C 235.002 -5.18386 -1.31071 0
M  V30 2598 C 236.302 -5.14916 0.875125 0
M  V30 2599 H 237.996 -2.89233 0.773593 0
M  V30 2600 H 235.542 -1.39073 0.37346 0
M  V30 2601 H 237.495 -3.97044 -1.41188 0
M  V30 2602 H 236.219 -2.76947 -1.73113 0
M  V30 2603 H 234.878 -3.66018 0.206456 0
M  V30 2604 H 234.526 -4.57282 -2.09528 0
M  V30 2605 H 234.226 -5.81378 -0.852839 0
M  V30 2606 H 235.75 -5.83929 -1.78492 0
M  V30 2607 H 237.164 -5.71262 0.482983 0
M  V30 2608 H 235.561 -5.86747 1.25887 0
M  V30 2609 H 236.631 -4.53242 1.72335 0
M  V30 2610 N 237.974 -0.419461 -1.51915 0
M  V30 2611 C 238.904 0.391813 -2.30189 0
M  V30 2612 C 239.885 1.03699 -1.34836 0
M  V30 2613 O 241.07 1.04403 -1.63748 0
M  V30 2614 C 238.2 1.50312 -3.13087 0
M  V30 2615 C 237.154 0.9824 -4.16573 0
M  V30 2616 C 236.48 2.18809 -4.8788 0
M  V30 2617 C 237.78 0.0292356 -5.22292 0
M  V30 2618 H 239.474 -0.26135 -2.98257 0
M  V30 2619 H 237.02 -0.127134 -1.43438 0
M  V30 2620 H 238.973 2.07773 -3.66617 0
M  V30 2621 H 237.697 2.18431 -2.42807 0
M  V30 2622 H 236.356 0.430119 -3.64068 0
M  V30 2623 H 236.004 2.85507 -4.14119 0
M  V30 2624 H 235.704 1.84615 -5.57845 0
M  V30 2625 H 237.228 2.76858 -5.44226 0
M  V30 2626 H 238.642 0.512976 -5.71 0
M  V30 2627 H 237.039 -0.2244 -5.9968 0
M  V30 2628 H 238.109 -0.912931 -4.76228 0
M  V30 2629 N 239.452 1.56882 -0.150215 0
M  V30 2630 C 240.382 2.19935 0.784284 0
M  V30 2631 C 241.363 1.14854 1.25469 0
M  V30 2632 O 242.548 1.43209 1.31168 0
M  V30 2633 C 239.678 2.82349 2.02229 0
M  V30 2634 C 238.632 3.93285 1.68853 0
M  V30 2635 C 237.958 4.42649 2.99944 0
M  V30 2636 C 239.258 5.13904 0.932714 0
M  V30 2637 H 240.952 2.9828 0.258781 0
M  V30 2638 H 238.498 1.43473 0.123029 0
M  V30 2639 H 240.451 3.25126 2.68088 0
M  V30 2640 H 239.175 2.0134 2.57157 0
M  V30 2641 H 237.834 3.5113 1.05371 0
M  V30 2642 H 237.482 3.58458 3.52869 0
M  V30 2643 H 237.182 5.17476 2.78374 0
M  V30 2644 H 238.706 4.88099 3.66868 0
M  V30 2645 H 240.12 5.53506 1.49345 0
M  V30 2646 H 238.517 5.94515 0.81684 0
M  V30 2647 H 239.587 4.84842 -0.0749568 0
M  V30 2648 N 240.93 -0.123565 1.57115 0
M  V30 2649 C 241.893 -1.13583 1.99076 0
M  V30 2650 C 242.893 -1.34564 0.880296 0
M  V30 2651 O 244.083 -1.31158 1.14644 0
M  V30 2652 C 241.215 -2.49128 2.32698 0
M  V30 2653 H 242.408 -0.775287 2.89706 0
M  V30 2654 H 239.961 -0.36771 1.51913 0
M  V30 2655 H 240.696 -2.90111 1.44934 0
M  V30 2656 H 240.481 -2.35255 3.13684 0
M  V30 2657 H 241.971 -3.2199 2.65918 0
M  V30 2658 N 242.408 -1.52605 -0.393616 0
M  V30 2659 C 243.358 -1.73436 -1.48 0
M  V30 2660 C 244.342 -0.588386 -1.49756 0
M  V30 2661 O 245.534 -0.846047 -1.5547 0
M  V30 2662 C 242.663 -1.90247 -2.85764 0
M  V30 2663 C 241.749 -3.10763 -2.88595 0
M  V30 2664 N 242.14 -4.33196 -2.61103 0
M  V30 2665 C 240.438 -3.10914 -3.19763 0
M  V30 2666 C 241.139 -5.1477 -2.70899 0
M  V30 2667 N 240.115 -4.50356 -3.04435 0
M  V30 2668 H 243.917 -2.65727 -1.25563 0
M  V30 2669 H 241.431 -1.5085 -0.601513 0
M  V30 2670 H 243.428 -2.03291 -3.63976 0
M  V30 2671 H 242.088 -0.991663 -3.09186 0
M  V30 2672 H 243.099 -4.61408 -2.35209 0
M  V30 2673 H 239.776 -2.29626 -3.4868 0
M  V30 2674 H 241.166 -6.22355 -2.53227 0
M  V30 2675 N 243.887 0.651787 -1.4349 0
M  V30 2676 C 244.817 1.77621 -1.51569 0
M  V30 2677 C 245.798 1.66022 -0.370253 0
M  V30 2678 O 246.983 1.85095 -0.587658 0
M  V30 2679 C 244.113 3.16056 -1.43966 0
M  V30 2680 C 243.067 3.4242 -2.56774 0
M  V30 2681 C 242.393 4.8067 -2.34223 0
M  V30 2682 C 243.693 3.37023 -3.99015 0
M  V30 2683 H 245.387 1.71117 -2.45681 0
M  V30 2684 H 242.933 0.821825 -1.18246 0
M  V30 2685 H 244.886 3.94472 -1.48221 0
M  V30 2686 H 243.61 3.23293 -0.463586 0
M  V30 2687 H 242.269 2.66375 -2.51873 0
M  V30 2688 H 241.917 4.84585 -1.34856 0
M  V30 2689 H 241.617 4.9927 -3.09844 0
M  V30 2690 H 243.141 5.61342 -2.40265 0
M  V30 2691 H 244.555 4.05374 -4.05395 0
M  V30 2692 H 242.952 3.67159 -4.74673 0
M  V30 2693 H 244.022 2.3518 -4.2405 0
M  V30 2694 N 245.365 1.30045 0.890287 0
M  V30 2695 C 246.312 1.15976 1.99545 0
M  V30 2696 C 247.282 0.0506202 1.66023 0
M  V30 2697 O 248.467 0.219847 1.89529 0
M  V30 2698 C 245.607 0.852054 3.34416 0
M  V30 2699 C 244.72 2.04255 3.80662 0
M  V30 2700 C 243.855 1.6734 5.04154 0
M  V30 2701 C 242.894 2.82916 5.42794 0
M  V30 2702 N 242.031 2.46333 6.57468 0
M  V30 2703 H 246.871 2.10524 2.10911 0
M  V30 2704 H 244.408 1.04749 1.03276 0
M  V30 2705 H 246.366 0.654296 4.12037 0
M  V30 2706 H 244.996 -0.0565502 3.2275 0
M  V30 2707 H 244.048 2.35172 2.98995 0
M  V30 2708 H 245.36 2.90826 4.05242 0
M  V30 2709 H 244.514 1.43908 5.89386 0
M  V30 2710 H 243.253 0.779308 4.81433 0
M  V30 2711 H 242.258 3.0702 4.56091 0
M  V30 2712 H 243.483 3.73004 5.6749 0
M  V30 2713 H 241.429 1.59423 6.36334 0
M  V30 2714 H 241.346 3.26436 6.81891 0
M  V30 2715 H 242.614 2.26244 7.45945 0
M  V30 2716 N 246.843 -1.10192 1.12674 0
M  V30 2717 C 248.259 -1.34235 0.863317 0
M  V30 2718 C 248.459 -1.95062 -0.505277 0
M  V30 2719 O 247.515 -2.19192 -1.25345 0
M  V30 2720 C 248.828 -2.2616 1.98172 0
M  V30 2721 C 250.376 -2.3969 2.0129 0
M  V30 2722 C 250.851 -3.34946 3.1237 0
M  V30 2723 N 252.342 -3.42515 3.11829 0
M  V30 2724 C 253.077 -4.16199 3.94419 0
M  V30 2725 N 252.573 -4.92747 4.87004 0
M  V30 2726 N 254.366 -4.11843 3.82547 0
M  V30 2727 H 246.517 -0.690798 2.00853 0
M  V30 2728 H 248.78 -0.366774 0.874174 0
M  V30 2729 H 248.486 -1.8868 2.96804 0
M  V30 2730 H 248.36 -3.26488 1.88906 0
M  V30 2731 H 250.747 -2.76438 1.03276 0
M  V30 2732 H 250.828 -1.39169 2.14629 0
M  V30 2733 H 250.472 -2.98923 4.10619 0
M  V30 2734 H 250.402 -4.35353 2.96269 0
M  V30 2735 H 252.893 -2.87926 2.44759 0
M  V30 2736 H 253.206 -5.46376 5.46528 0
M  V30 2737 H 251.551 -4.91862 4.91016 0
M  V30 2738 H 254.742 -3.51136 3.0955 0
M  V30 2739 H 254.915 -4.69007 4.47142 0
M  V30 2740 N 248.321 -0.919034 -1.28029 0
M  V30 2741 C 249.551 -0.570143 -1.98577 0
M  V30 2742 C 249.959 0.854172 -1.68821 0
M  V30 2743 O 249.302 1.57807 -0.940351 0
M  V30 2744 C 249.364 -0.705734 -3.52505 0
M  V30 2745 C 249.028 -2.10057 -4.05863 0
M  V30 2746 C 250.025 -3.07385 -4.19298 0
M  V30 2747 C 247.71 -2.41517 -4.40426 0
M  V30 2748 C 249.704 -4.34287 -4.66555 0
M  V30 2749 C 247.391 -3.68657 -4.87376 0
M  V30 2750 C 248.389 -4.64856 -5.00398 0
M  V30 2751 O 248.077 -5.89735 -5.46322 0
M  V30 2752 H 247.809 -0.215592 -0.6407 0
M  V30 2753 H 250.363 -1.23583 -1.64062 0
M  V30 2754 H 248.593 0.0170414 -3.86696 0
M  V30 2755 H 250.282 -0.363172 -4.04272 0
M  V30 2756 H 251.048 -2.84398 -3.92865 0
M  V30 2757 H 246.927 -1.67389 -4.29537 0
M  V30 2758 H 250.471 -5.09377 -4.76635 0
M  V30 2759 H 246.368 -3.91466 -5.13249 0
M  V30 2760 H 247.136 -5.92599 -5.64596 0
M  V30 2761 N 249.799 1.42003 -0.683588 0
M  V30 2762 C 250.762 2.29191 -0.0198243 0
M  V30 2763 C 251.762 1.43773 0.72013 0
M  V30 2764 O 252.952 1.65061 0.556815 0
M  V30 2765 C 250.084 3.26435 0.982487 0
M  V30 2766 H 251.277 2.8938 -0.787345 0
M  V30 2767 H 248.83 1.49789 -0.446418 0
M  V30 2768 H 249.565 2.71203 1.77819 0
M  V30 2769 H 249.35 3.89449 0.455182 0
M  V30 2770 H 250.84 3.918 1.44508 0
M  V30 2771 N 251.277 0.427512 1.51691 0
M  V30 2772 C 252.187 -0.39527 2.31246 0
M  V30 2773 C 253.203 -1.03674 1.39742 0
M  V30 2774 O 254.379 -1.03425 1.72816 0
M  V30 2775 C 251.444 -1.48706 3.13189 0
M  V30 2776 C 250.505 -0.866743 4.20459 0
M  V30 2777 C 249.738 -1.90651 4.98486 0
M  V30 2778 O 249.961 -3.12733 4.77026 0
M  V30 2779 O 248.895 -1.5025 5.82845 0
M  V30 2780 H 252.721 0.253918 3.02637 0
M  V30 2781 H 250.306 0.190274 1.48183 0
M  V30 2782 H 252.188 -2.12047 3.64162 0
M  V30 2783 H 250.863 -2.12051 2.44573 0
M  V30 2784 H 249.77 -0.195544 3.73589 0
M  V30 2785 H 251.103 -0.276934 4.9142 0
M  V30 2786 N 252.755 -1.56801 0.158532 0
M  V30 2787 C 253.98 -2.01295 -0.499516 0
M  V30 2788 C 254.405 -1.03799 -1.56867 0
M  V30 2789 O 253.763 -0.0155162 -1.81293 0
M  V30 2790 C 253.811 -3.44469 -1.06647 0
M  V30 2791 O 252.915 -3.50012 -2.18095 0
M  V30 2792 H 252.256 -0.652884 -0.12099 0
M  V30 2793 H 254.786 -2.02958 0.258661 0
M  V30 2794 H 254.796 -3.8351 -1.39227 0
M  V30 2795 H 253.471 -4.14932 -0.283581 0
M  V30 2796 H 252.048 -3.22822 -1.86656 0
M  V30 2797 N 254.233 0.115231 -1.57178 0
M  V30 2798 C 255.481 0.820727 -1.84685 0
M  V30 2799 C 255.802 1.80237 -0.744279 0
M  V30 2800 O 255.072 1.94529 0.231375 0
M  V30 2801 H 253.652 0.306084 -0.681411 0
M  V30 2802 H 256.314 0.101656 -1.94635 0
M  V30 2803 H 255.41 1.36366 -2.80733 0
M  V30 2804 N 255.711 1.52812 0.385517 0
M  V30 2805 C 256.988 1.5861 1.14465 0
M  V30 2806 C 257.368 0.381402 2.07626 0
M  V30 2807 O 256.716 -0.629999 2.19643 0
M  V30 2808 C 256.926 2.92664 1.90128 0
M  V30 2809 C 258.274 3.46526 2.45367 0
M  V30 2810 O 259.298 2.94562 2.0028 0
M  V30 2811 O 258.157 4.37323 3.27736 0
M  V30 2812 H 255.251 0.639855 0.523941 0
M  V30 2813 H 257.797 1.65149 0.390389 0
M  V30 2814 H 256.569 3.71788 1.22022 0
M  V30 2815 H 256.192 2.89527 2.72507 0
M  V30 2816 N 257.189 -0.644168 1.43834 0
M  V30 2817 C 258.152 -1.73857 1.49353 0
M  V30 2818 C 259.152 -1.56315 0.377112 0
M  V30 2819 O 260.342 -1.62048 0.639226 0
M  V30 2820 C 257.474 -3.12819 1.35488 0
M  V30 2821 H 258.667 -1.70342 2.46827 0
M  V30 2822 H 256.22 -0.856652 1.30733 0
M  V30 2823 H 256.955 -3.2194 0.390569 0
M  V30 2824 H 256.74 -3.26958 2.16428 0
M  V30 2825 H 258.23 -3.92606 1.42302 0
M  V30 2826 N 258.668 -1.30515 -0.883378 0
M  V30 2827 C 259.915 -1.1943 -1.63532 0
M  V30 2828 C 260.243 0.250627 -1.92878 0
M  V30 2829 O 259.498 1.19556 -1.54935 0
M  V30 2830 C 259.797 -1.96994 -2.98209 0
M  V30 2831 C 259.463 -3.466 -2.88408 0
M  V30 2832 C 258.125 -3.87397 -2.85442 0
M  V30 2833 C 260.477 -4.41863 -2.76418 0
M  V30 2834 C 257.805 -5.21745 -2.68327 0
M  V30 2835 C 260.157 -5.7632 -2.60841 0
M  V30 2836 C 258.821 -6.16354 -2.56251 0
M  V30 2837 H 258.091 -0.437025 -0.598406 0
M  V30 2838 H 260.738 -1.61635 -1.02696 0
M  V30 2839 H 259.043 -1.47429 -3.63004 0
M  V30 2840 H 260.74 -1.85808 -3.55354 0
M  V30 2841 H 257.33 -3.14182 -2.91527 0
M  V30 2842 H 261.514 -4.11285 -2.77775 0
M  V30 2843 H 256.77 -5.51853 -2.63189 0
M  V30 2844 H 260.944 -6.49772 -2.50538 0
M  V30 2845 H 258.571 -7.20401 -2.42748 0
M  V30 2846 N 260.146 1.09593 -1.13257 0
M  V30 2847 C 261.423 1.78293 -0.804432 0
M  V30 2848 C 261.803 1.99004 0.70431 0
M  V30 2849 O 261.151 1.59007 1.641 0
M  V30 2850 C 261.361 3.10707 -1.5894 0
M  V30 2851 C 262.709 3.85443 -1.78099 0
M  V30 2852 O 263.733 3.20454 -1.55525 0
M  V30 2853 O 262.592 5.02108 -2.15753 0
M  V30 2854 H 259.686 0.773156 -0.293528 0
M  V30 2855 H 262.232 1.16164 -1.23709 0
M  V30 2856 H 261.004 2.91106 -2.61482 0
M  V30 2857 H 260.627 3.80558 -1.15157 0
M  V30 2858 N 261.624 0.925811 1.2754 0
M  V30 2859 C 262.873 0.561084 1.93739 0
M  V30 2860 C 263.186 -0.901685 1.73577 0
M  V30 2861 O 264.392 -1.37511 2.34101 0
M  V30 2862 C 262.848 0.952668 3.47062 0
M  V30 2863 C 262.456 2.43599 3.75983 0
M  V30 2864 C 264.2 0.659103 4.19352 0
M  V30 2865 C 262.107 2.76707 5.22673 0
M  V30 2866 H 261.037 0.206122 0.725279 0
M  V30 2867 H 263.688 1.12637 1.44863 0
M  V30 2868 H 262.07 0.316053 3.94737 0
M  V30 2869 H 263.244 3.12035 3.39073 0
M  V30 2870 H 261.559 2.70125 3.16893 0
M  V30 2871 H 264.156 0.882985 5.27359 0
M  V30 2872 H 264.499 -0.403607 4.14339 0
M  V30 2873 H 265.032 1.25473 3.77494 0
M  V30 2874 H 261.771 3.8188 5.32774 0
M  V30 2875 H 261.291 2.12919 5.60737 0
M  V30 2876 H 262.97 2.6435 5.90532 0
M  V30 2877 N 263.102 -1.41638 0.69111 0
M  V30 2878 C 264.034 -2.29194 -0.0161523 0
M  V30 2879 C 265.047 -1.44549 -0.748955 0
M  V30 2880 O 266.236 -1.681 -0.6004 0
M  V30 2881 C 263.336 -3.22325 -1.0469 0
M  V30 2882 C 262.509 -4.35706 -0.384621 0
M  V30 2883 C 261.568 -5.09443 -1.31737 0
M  V30 2884 O 260.594 -5.63386 -0.811451 0
M  V30 2885 N 261.796 -5.16487 -2.64993 0
M  V30 2886 H 264.561 -2.90534 0.735523 0
M  V30 2887 H 262.122 -1.52742 0.53679 0
M  V30 2888 H 264.114 -3.68522 -1.67252 0
M  V30 2889 H 262.684 -2.62323 -1.70015 0
M  V30 2890 H 261.904 -3.91948 0.420804 0
M  V30 2891 H 263.192 -5.08743 0.0760765 0
M  V30 2892 H 262.59 -4.741 -3.08619 0
M  V30 2893 H 261.147 -5.66276 -3.22761 0
M  V30 2894 N 264.58 -0.43555 -1.51462 0
M  V30 2895 C 265.996 -0.0877501 -1.59359 0
M  V30 2896 C 266.196 1.4027 -1.4466 0
M  V30 2897 O 265.252 2.17243 -1.28693 0
M  V30 2898 C 266.565 -0.606264 -2.94525 0
M  V30 2899 C 268.113 -0.566548 -3.0783 0
M  V30 2900 C 268.588 -1.06201 -4.45517 0
M  V30 2901 N 270.079 -1.01992 -4.51832 0
M  V30 2902 C 270.814 -1.37417 -5.5669 0
M  V30 2903 N 270.31 -1.80119 -6.68976 0
M  V30 2904 N 272.103 -1.29245 -5.47039 0
M  V30 2905 H 264.254 -1.40533 -1.59261 0
M  V30 2906 H 266.517 -0.578992 -0.750648 0
M  V30 2907 H 266.223 -1.64901 -3.10645 0
M  V30 2908 H 266.097 -0.0302097 -3.77188 0
M  V30 2909 H 268.484 0.467208 -2.91378 0
M  V30 2910 H 268.565 -1.17898 -2.2701 0
M  V30 2911 H 268.209 -2.09422 -4.62715 0
M  V30 2912 H 268.139 -0.426127 -5.24873 0
M  V30 2913 H 270.63 -0.706308 -3.71241 0
M  V30 2914 H 270.943 -2.05392 -7.45006 0
M  V30 2915 H 269.288 -1.84044 -6.70189 0
M  V30 2916 H 272.479 -0.957522 -4.58202 0
M  V30 2917 H 272.652 -1.57182 -6.28648 0
M  V30 2918 N 266.058 1.56714 -0.166846 0
M  V30 2919 C 267.298 1.98641 0.481763 0
M  V30 2920 C 267.662 1.05038 1.6072 0
M  V30 2921 O 268.863 1.36087 2.31805 0
M  V30 2922 C 267.134 3.44362 0.956517 0
M  V30 2923 S 268.693 4.08317 1.60694 0
M  V30 2924 H 265.511 0.693873 0.155116 0
M  V30 2925 H 268.113 1.93719 -0.263251 0
M  V30 2926 H 266.817 4.10204 0.126936 0
M  V30 2927 H 266.348 3.53041 1.73568 0
M  V30 2928 H 268.363 4.02999 2.89494 0
M  V30 2929 N 267.536 -0.106894 1.57237 0
M  V30 2930 C 268.766 -0.825191 1.89405 0
M  V30 2931 C 269.174 -1.73374 0.757496 0
M  V30 2932 O 268.517 -1.81552 -0.280115 0
M  V30 2933 C 268.579 -1.70102 3.1671 0
M  V30 2934 C 268.243 -0.965523 4.46684 0
M  V30 2935 C 269.24 -0.300741 5.19029 0
M  V30 2936 C 266.925 -0.943105 4.93367 0
M  V30 2937 C 268.919 0.376622 6.36286 0
M  V30 2938 C 266.606 -0.261949 6.10538 0
M  V30 2939 C 267.604 0.396748 6.81847 0
M  V30 2940 O 267.292 1.06701 7.96787 0
M  V30 2941 H 267.024 -0.241852 0.631255 0
M  V30 2942 H 269.578 -0.0921491 2.05193 0
M  V30 2943 H 267.808 -2.47601 2.97036 0
M  V30 2944 H 269.497 -2.29483 3.34802 0
M  V30 2945 H 270.263 -0.309599 4.84011 0
M  V30 2946 H 266.142 -1.44524 4.3776 0
M  V30 2947 H 269.686 0.891334 6.91882 0
M  V30 2948 H 265.583 -0.250896 6.45012 0
M  V30 2949 H 266.351 0.972707 8.127 0
M  V30 2950 N 269.014 -1.53014 -0.377408 0
M  V30 2951 C 270.254 -1.70318 -1.1301 0
M  V30 2952 C 270.618 -0.439538 -1.86901 0
M  V30 2953 O 271.819 -0.489095 -2.64313 0
M  V30 2954 C 270.09 -2.91125 -2.07319 0
M  V30 2955 S 271.649 -3.29075 -2.90268 0
M  V30 2956 H 268.467 -0.599426 -0.382374 0
M  V30 2957 H 271.069 -1.91089 -0.412933 0
M  V30 2958 H 269.773 -3.81303 -1.51777 0
M  V30 2959 H 269.304 -2.7272 -2.83526 0
M  V30 2960 H 271.319 -2.80165 -4.09539 0
M  V30 2961 N 270.492 0.636531 -1.44174 0
M  V30 2962 C 271.44 1.76995 -1.50915 0
M  V30 2963 C 272.434 1.65053 -0.381295 0
M  V30 2964 O 273.64 1.71197 -0.55601 0
M  V30 2965 H 270.015 0.584247 -0.473455 0
M  V30 2966 H 271.986 1.68432 -2.4632 0
M  V30 2967 C 270.735 3.15314 -1.46534 0
M  V30 2968 H 270.058 3.25149 -2.32633 0
M  V30 2969 H 271.498 3.9453 -1.55312 0
M  V30 2970 C 269.957 3.3639 -0.185305 0
M  V30 2971 O 270.487 3.94699 0.746688 0
M  V30 2972 N 268.693 2.9046 -0.0901606 0
M  V30 2973 H 268.24 2.43193 -0.849416 0
M  V30 2974 H 268.198 3.04937 0.765553 0
M  V30 2975 N 271.97 1.30982 0.876444 0
M  V30 2976 C 273.2 1.23063 1.65949 0
M  V30 2977 C 273.608 -0.207537 1.88058 0
M  V30 2978 O 272.951 -1.14781 1.43426 0
M  V30 2979 C 273.013 1.89768 3.05333 0
M  V30 2980 C 272.677 3.39106 3.0636 0
M  V30 2981 C 273.674 4.3496 2.84791 0
M  V30 2982 C 271.359 3.80693 3.27686 0
M  V30 2983 C 273.353 5.70375 2.84519 0
M  V30 2984 C 271.04 5.16223 3.27043 0
M  V30 2985 C 272.038 6.10875 3.05485 0
M  V30 2986 O 271.726 7.43928 3.04674 0
M  V30 2987 H 271.458 0.426685 0.524324 0
M  V30 2988 H 274.012 1.7329 1.10271 0
M  V30 2989 H 272.242 1.34082 3.6271 0
M  V30 2990 H 273.931 1.75853 3.65829 0
M  V30 2991 H 274.697 4.0416 2.68103 0
M  V30 2992 H 270.576 3.07457 3.43499 0
M  V30 2993 H 274.12 6.44228 2.67611 0
M  V30 2994 H 270.017 5.4666 3.43269 0
M  V30 2995 H 270.785 7.53022 3.2078 0
M  V30 2996 N 273.449 -1.08991 1.13837 0
M  V30 2997 C 274.677 -1.85011 0.926202 0
M  V30 2998 C 275.092 -1.8135 -0.525127 0
M  V30 2999 O 274.449 -1.21287 -1.36366 0
M  V30 3000 C 274.5 -3.32802 1.41155 0
M  V30 3001 O 274.221 -3.36444 2.80601 0
M  V30 3002 C 275.722 -4.25649 1.23847 0
M  V30 3003 H 272.942 -0.584249 0.32999 0
M  V30 3004 H 275.486 -1.37688 1.51202 0
M  V30 3005 H 273.641 -3.77536 0.868631 0
M  V30 3006 H 274.055 -4.28657 3.02248 0
M  V30 3007 H 275.529 -5.27485 1.62675 0
M  V30 3008 H 276.006 -4.38828 0.18065 0
M  V30 3009 H 276.612 -3.86735 1.76964 0
M  V30 3010 N 274.927 -0.932562 -1.27047 0
M  V30 3011 C 276.155 -0.592031 -1.98249 0
M  V30 3012 C 276.57 0.831062 -1.69525 0
M  V30 3013 O 275.927 1.55299 -0.958561 0
M  V30 3014 C 275.978 -0.814279 -3.5221 0
M  V30 3015 O 275.699 -2.18139 -3.7993 0
M  V30 3016 C 277.2 -0.483121 -4.4066 0
M  V30 3017 H 274.42 -0.223896 -0.632544 0
M  V30 3018 H 276.964 -1.25091 -1.61779 0
M  V30 3019 H 275.119 -0.20213 -3.86872 0
M  V30 3020 H 275.533 -2.235 -4.74498 0
M  V30 3021 H 277.007 -0.689298 -5.47679 0
M  V30 3022 H 277.484 0.581546 -4.35333 0
M  V30 3023 H 278.09 -1.07362 -4.11526 0
M  V30 3024 N 276.405 1.4127 -0.698611 0
M  V30 3025 C 277.682 1.94955 -0.158762 0
M  V30 3026 C 278.062 1.63781 1.33188 0
M  V30 3027 O 277.41 0.946423 2.07979 0
M  V30 3028 C 277.62 3.46044 -0.453309 0
M  V30 3029 C 278.968 4.22872 -0.382707 0
M  V30 3030 O 279.992 3.54076 -0.388396 0
M  V30 3031 O 278.851 5.45407 -0.345463 0
M  V30 3032 H 275.945 0.82683 -0.0167505 0
M  V30 3033 H 278.491 1.50971 -0.77498 0
M  V30 3034 H 277.263 3.62028 -1.48498 0
M  V30 3035 H 276.886 3.97128 0.19373 0
M  V30 3036 N 277.883 0.443576 1.51229 0
M  V30 3037 C 279.129 -0.120975 2.02439 0
M  V30 3038 C 279.462 -1.41815 1.32674 0
M  V30 3039 O 278.737 -1.89373 0.443622 0
M  V30 3040 C 279.02 -0.333291 3.58554 0
M  V30 3041 C 278.873 0.982968 4.38928 0
M  V30 3042 C 280.192 -1.10028 4.26124 0
M  V30 3043 H 277.311 -0.0424923 0.735774 0
M  V30 3044 H 279.953 0.583794 1.80809 0
M  V30 3045 H 278.103 -0.933614 3.77115 0
M  V30 3046 H 279.775 1.61775 4.32003 0
M  V30 3047 H 278.018 1.58611 4.03763 0
M  V30 3048 H 278.689 0.788379 5.46341 0
M  V30 3049 H 281.165 -0.591711 4.11871 0
M  V30 3050 H 280.041 -1.21761 5.35225 0
M  V30 3051 H 280.302 -2.12996 3.87408 0
M  V30 3052 N 279.361 -1.56624 0.175154 0
M  V30 3053 C 280.607 -1.9729 -0.469506 0
M  V30 3054 C 280.94 -1.06128 -1.62636 0
M  V30 3055 O 280.215 -0.109183 -1.94193 0
M  V30 3056 C 280.498 -3.47375 -0.948804 0
M  V30 3057 C 280.351 -4.49317 0.208491 0
M  V30 3058 C 281.67 -4.00652 -1.82116 0
M  V30 3059 H 278.789 -0.717317 -0.16919 0
M  V30 3060 H 281.431 -1.88184 0.262062 0
M  V30 3061 H 279.581 -3.55267 -1.57219 0
M  V30 3062 H 281.253 -4.53482 0.845682 0
M  V30 3063 H 279.496 -4.25121 0.863395 0
M  V30 3064 H 280.167 -5.51741 -0.169059 0
M  V30 3065 H 282.643 -3.95416 -1.2956 0
M  V30 3066 H 281.519 -5.06075 -2.12554 0
M  V30 3067 H 281.78 -3.44699 -2.7683 0
M  V30 3068 N 280.839 0.0985539 -1.57292 0
M  V30 3069 C 281.802 1.10402 -2.00858 0
M  V30 3070 C 282.802 1.33146 -0.901593 0
M  V30 3071 O 283.992 1.29318 -1.16716 0
M  V30 3072 C 281.124 2.45394 -2.36632 0
M  V30 3073 H 282.317 0.729099 -2.90902 0
M  V30 3074 H 279.87 0.343495 -1.52479 0
M  V30 3075 H 280.605 2.87769 -1.49531 0
M  V30 3076 H 280.39 2.30235 -3.17387 0
M  V30 3077 H 281.88 3.17718 -2.71007 0
M  V30 3078 N 282.317 1.53212 0.369288 0
M  V30 3079 C 283.542 1.73423 1.1375 0
M  V30 3080 C 283.967 0.460404 1.82378 0
M  V30 3081 O 283.325 -0.585298 1.71592 0
M  V30 3082 C 283.373 2.89769 2.1463 0
M  V30 3083 O 282.477 2.58119 3.21634 0
M  V30 3084 H 281.818 0.576061 0.330227 0
M  V30 3085 H 284.348 2.00083 0.427547 0
M  V30 3086 H 284.358 3.15829 2.58294 0
M  V30 3087 H 283.033 3.8217 1.64071 0
M  V30 3088 H 281.61 2.42864 2.82969 0
M  V30 3089 N 283.795 -0.628877 1.44509 0
M  V30 3090 C 285.041 -1.39045 1.47629 0
M  V30 3091 C 285.374 -1.93892 0.109343 0
M  V30 3092 O 284.649 -1.7379 -0.87334 0
M  V30 3093 C 284.932 -2.55408 2.53848 0
M  V30 3094 C 284.785 -2.05896 3.99909 0
M  V30 3095 C 286.104 -3.5759 2.56549 0
M  V30 3096 H 283.223 -0.504232 0.537512 0
M  V30 3097 H 285.865 -0.710854 1.76201 0
M  V30 3098 H 284.015 -3.13384 2.29615 0
M  V30 3099 H 285.687 -1.52734 4.35282 0
M  V30 3100 H 283.93 -1.37061 4.11578 0
M  V30 3101 H 284.601 -2.89681 4.69882 0
M  V30 3102 H 287.077 -3.09419 2.78207 0
M  V30 3103 H 285.953 -4.36527 3.32769 0
M  V30 3104 H 286.214 -4.11808 1.60832 0
M  V30 3105 N 285.273 -1.31445 -0.869486 0
M  V30 3106 C 286.236 -1.19094 -1.9583 0
M  V30 3107 C 287.236 -0.117906 -1.60367 0
M  V30 3108 O 288.426 -0.367208 -1.70286 0
M  V30 3109 C 285.558 -0.828165 -3.30688 0
M  V30 3110 H 286.751 -2.15842 -2.08212 0
M  V30 3111 H 284.304 -1.15063 -1.05784 0
M  V30 3112 H 285.039 0.138142 -3.24006 0
M  V30 3113 H 284.824 -1.6038 -3.578 0
M  V30 3114 H 286.314 -0.765658 -4.10521 0
M  V30 3115 N 286.751 1.08385 -1.14413 0
M  V30 3116 C 287.998 1.80776 -0.912482 0
M  V30 3117 C 288.326 1.86236 0.560934 0
M  V30 3118 O 287.581 1.33431 1.43159 0
M  V30 3119 C 287.88 3.26273 -1.45879 0
M  V30 3120 C 287.546 3.4093 -2.95089 0
M  V30 3121 C 286.208 3.44638 -3.35824 0
M  V30 3122 C 288.56 3.44591 -3.91033 0
M  V30 3123 C 285.888 3.49597 -4.71167 0
M  V30 3124 C 288.24 3.51086 -5.26233 0
M  V30 3125 C 286.904 3.53067 -5.6648 0
M  V30 3126 H 286.174 0.661507 -0.333901 0
M  V30 3127 H 288.821 1.27613 -1.42784 0
M  V30 3128 H 287.126 3.82146 -0.864376 0
M  V30 3129 H 288.823 3.80839 -1.2555 0
M  V30 3130 H 285.413 3.38736 -2.62594 0
M  V30 3131 H 289.597 3.40957 -3.60641 0
M  V30 3132 H 284.853 3.49424 -5.0171 0
M  V30 3133 H 289.027 3.52864 -6.00383 0
M  V30 3134 H 286.654 3.56662 -6.71339 0
M  V30 3135 N 288.23 0.939286 1.26551 0
M  V30 3136 C 289.478 0.58469 1.93457 0
M  V30 3137 C 289.799 -0.878774 1.74076 0
M  V30 3138 O 289.069 -1.62421 1.09528 0
M  V30 3139 H 287.649 0.21325 0.715914 0
M  V30 3140 H 290.311 1.1942 1.54029 0
M  V30 3141 H 289.407 0.800849 3.0165 0
M  V30 3142 N 289.708 -1.40897 0.706093 0
M  V30 3143 C 290.936 -2.05373 0.250887 0
M  V30 3144 C 291.351 -1.53172 -1.10381 0
M  V30 3145 O 290.708 -0.684305 -1.69185 0
M  V30 3146 C 290.759 -3.6088 0.211571 0
M  V30 3147 O 290.48 -4.11153 1.51276 0
M  V30 3148 C 291.981 -4.42517 -0.263346 0
M  V30 3149 H 289.201 -0.66115 0.114552 0
M  V30 3150 H 291.745 -1.80479 0.961635 0
M  V30 3151 H 289.9 -3.84777 -0.450073 0
M  V30 3152 H 290.314 -5.05279 1.40689 0
M  V30 3153 H 291.788 -5.51479 -0.239718 0
M  V30 3154 H 292.265 -4.19396 -1.30397 0
M  V30 3155 H 292.871 -4.23708 0.367677 0
M  V30 3156 N 291.186 -0.45159 -1.50991 0
M  V30 3157 C 292.597 0.00818571 -1.86698 0
M  V30 3158 C 292.948 1.40661 -1.3678 0
M  V30 3159 O 292.073 2.0391 -0.724546 0
M  V30 3160 C 292.668 0.0216303 -3.38793 0
M  V30 3161 C 291.227 0.425865 -3.73983 0
M  V30 3162 C 290.374 -0.372163 -2.74791 0
M  V30 3163 H 293.325 -0.666785 -1.44013 0
M  V30 3164 H 293.346 0.828078 -3.7138 0
M  V30 3165 H 292.858 -0.996288 -3.75094 0
M  V30 3166 H 290.959 1.44886 -3.43277 0
M  V30 3167 H 291.072 0.140761 -4.78893 0
M  V30 3168 H 289.436 0.171498 -2.54122 0
M  V30 3169 H 290.219 -1.38922 -3.13935 0
M  V30 3170 N 292.664 1.56529 -0.183458 0
M  V30 3171 C 293.91 1.97537 0.459036 0
M  V30 3172 C 294.243 1.06989 1.62071 0
M  V30 3173 O 293.518 0.11948 1.94133 0
M  V30 3174 C 293.801 3.47874 0.930368 0
M  V30 3175 C 293.654 4.492 -0.232317 0
M  V30 3176 C 294.973 4.01612 1.79989 0
M  V30 3177 H 292.092 0.718204 0.165383 0
M  V30 3178 H 294.734 1.88042 -0.272038 0
M  V30 3179 H 292.884 3.56095 1.55333 0
M  V30 3180 H 294.556 4.53027 -0.86972 0
M  V30 3181 H 292.799 4.24657 -0.885928 0
M  V30 3182 H 293.47 5.51823 0.139796 0
M  V30 3183 H 295.946 3.96097 1.27461 0
M  V30 3184 H 294.822 5.07195 2.09867 0
M  V30 3185 H 295.083 3.46163 2.74998 0
M  V30 3186 N 294.142 -0.090211 1.57342 0
M  V30 3187 C 295.419 -0.824761 1.77361 0
M  V30 3188 C 295.799 -1.96698 0.76637 0
M  V30 3189 O 295.147 -2.27586 -0.204179 0
M  V30 3190 C 295.357 -1.31481 3.23286 0
M  V30 3191 C 296.705 -1.75563 3.86604 0
M  V30 3192 O 297.729 -1.41093 3.27065 0
M  V30 3193 O 296.588 -2.39317 4.91314 0
M  V30 3194 H 293.682 -0.393776 0.727234 0
M  V30 3195 H 296.228 -0.0717138 1.69548 0
M  V30 3196 H 295 -0.496671 3.88135 0
M  V30 3197 H 294.623 -2.12973 3.35751 0
M  V30 3198 N 295.62 -1.53406 -0.361157 0
M  V30 3199 C 296.845 -1.74024 -1.12829 0
M  V30 3200 C 297.27 -0.470069 -1.82132 0
M  V30 3201 O 296.628 0.57619 -1.719 0
M  V30 3202 C 296.676 -2.90903 -2.13091 0
M  V30 3203 O 295.78 -2.59821 -3.20261 0
M  V30 3204 H 295.121 -0.577804 -0.327168 0
M  V30 3205 H 297.651 -2.00307 -0.41693 0
M  V30 3206 H 297.661 -3.17194 -2.56616 0
M  V30 3207 H 296.336 -3.83034 -1.62042 0
M  V30 3208 H 294.913 -2.44362 -2.81677 0
M  V30 3209 N 297.098 0.621204 -1.44841 0
M  V30 3210 C 298.344 1.38073 -1.49357 0
M  V30 3211 C 298.699 1.91973 -0.128115 0
M  V30 3212 O 297.992 1.71311 0.858087 0
M  V30 3213 C 298.186 2.55675 -2.4973 0
M  V30 3214 C 298.015 2.13289 -3.95901 0
M  V30 3215 C 296.785 2.001 -4.63991 0
M  V30 3216 C 298.983 1.7159 -4.84831 0
M  V30 3217 N 296.965 1.51381 -5.94943 0
M  V30 3218 C 298.336 1.34188 -6.05304 0
M  V30 3219 C 300.391 1.59059 -4.7181 0
M  V30 3220 C 299.094 0.855085 -7.14199 0
M  V30 3221 C 301.12 1.11784 -5.8074 0
M  V30 3222 C 300.482 0.753385 -7.0036 0
M  V30 3223 H 296.581 0.499675 -0.601539 0
M  V30 3224 H 299.165 0.711609 -1.8123 0
M  V30 3225 H 297.336 3.20201 -2.19832 0
M  V30 3226 H 299.068 3.22509 -2.4448 0
M  V30 3227 H 295.823 2.20863 -4.18947 0
M  V30 3228 H 296.247 1.29293 -6.64539 0
M  V30 3229 H 300.889 1.85865 -3.79755 0
M  V30 3230 H 298.607 0.574552 -8.06055 0
M  V30 3231 H 302.193 1.02533 -5.72694 0
M  V30 3232 H 301.073 0.393183 -7.83214 0
M  V30 3233 N 298.576 1.31904 0.862503 0
M  V30 3234 C 299.508 1.16005 1.97675 0
M  V30 3235 C 300.521 0.0971234 1.6251 0
M  V30 3236 O 301.71 0.345337 1.75128 0
M  V30 3237 C 298.81 0.751791 3.30456 0
M  V30 3238 C 297.983 1.90133 3.93914 0
M  V30 3239 C 297.042 1.4779 5.05019 0
M  V30 3240 O 296.068 2.18872 5.25437 0
M  V30 3241 N 297.27 0.369491 5.79323 0
M  V30 3242 H 300.035 2.11982 2.11857 0
M  V30 3243 H 297.596 1.24337 1.03691 0
M  V30 3244 H 299.588 0.451084 4.02178 0
M  V30 3245 H 298.158 -0.116593 3.12382 0
M  V30 3246 H 297.378 2.36896 3.15078 0
M  V30 3247 H 298.666 2.67111 4.33047 0
M  V30 3248 H 298.064 -0.222299 5.65263 0
M  V30 3249 H 296.621 0.128354 6.51674 0
M  V30 3250 N 300.054 -1.07777 1.14986 0
M  V30 3251 C 301.017 -2.13041 0.845358 0
M  V30 3252 C 302.017 -1.60071 -0.152931 0
M  V30 3253 O 303.207 -1.74033 0.0761879 0
M  V30 3254 C 300.339 -3.39896 0.261383 0
M  V30 3255 H 301.532 -2.41485 1.77834 0
M  V30 3256 H 299.085 -1.23595 0.956757 0
M  V30 3257 H 299.82 -3.17091 -0.68 0
M  V30 3258 H 299.605 -3.79642 0.980514 0
M  V30 3259 H 301.095 -4.17548 0.0657687 0
M  V30 3260 N 301.532 -0.945985 -1.26051 0
M  V30 3261 C 302.943 -0.638096 -1.75457 0
M  V30 3262 C 303.294 0.846672 -1.76991 0
M  V30 3263 O 302.419 1.66262 -1.38513 0
M  V30 3264 C 303.014 -1.15157 -3.18629 0
M  V30 3265 C 301.573 -0.894004 -3.65629 0
M  V30 3266 C 300.72 -1.29967 -2.44957 0
M  V30 3267 H 303.671 -1.12376 -1.1206 0
M  V30 3268 H 303.692 -0.507615 -3.77099 0
M  V30 3269 H 303.204 -2.23222 -3.1748 0
M  V30 3270 H 301.305 0.172057 -3.72203 0
M  V30 3271 H 301.418 -1.52439 -4.54202 0
M  V30 3272 H 299.782 -0.718078 -2.44368 0
M  V30 3273 H 300.565 -2.38935 -2.46505 0
M  V30 3274 N 303.011 1.40521 -0.713556 0
M  V30 3275 C 303.921 2.34522 -0.0606667 0
M  V30 3276 C 304.937 1.57193 0.74607 0
M  V30 3277 O 306.113 1.89591 0.679493 0
M  V30 3278 C 303.178 3.36081 0.851491 0
M  V30 3279 C 302.239 4.29286 0.0349339 0
M  V30 3280 C 301.472 5.25994 0.903649 0
M  V30 3281 O 301.695 5.28616 2.14292 0
M  V30 3282 O 300.629 6.00918 0.343723 0
M  V30 3283 H 304.455 2.91968 -0.835972 0
M  V30 3284 H 302.04 1.41681 -0.47402 0
M  V30 3285 H 303.922 3.98369 1.37404 0
M  V30 3286 H 302.597 2.81052 1.60598 0
M  V30 3287 H 301.504 3.70289 -0.532633 0
M  V30 3288 H 302.837 4.87462 -0.681287 0
M  V30 3289 N 304.489 0.459591 1.5075 0
M  V30 3290 C 305.766 -0.160371 1.94941 0
M  V30 3291 C 306.146 -1.58048 1.39943 0
M  V30 3292 O 305.494 -2.206 0.595629 0
M  V30 3293 C 305.704 -0.115432 3.48809 0
M  V30 3294 C 307.052 -0.310026 4.23467 0
M  V30 3295 O 308.076 -0.192543 3.55679 0
M  V30 3296 O 306.935 -0.546031 5.43765 0
M  V30 3297 H 304.029 -0.117925 0.818549 0
M  V30 3298 H 306.575 0.519169 1.61563 0
M  V30 3299 H 305.347 0.87652 3.81357 0
M  V30 3300 H 304.97 -0.836928 3.88692 0
M  V30 3301 N 305.967 -1.56429 0.191757 0
M  V30 3302 C 307.378 -1.83912 -0.321428 0
M  V30 3303 C 307.729 -1.11231 -1.61623 0
M  V30 3304 O 306.854 -0.37202 -2.13178 0
M  V30 3305 C 307.449 -3.33624 -0.589961 0
M  V30 3306 C 306.008 -3.6153 -1.04753 0
M  V30 3307 C 305.155 -2.7714 -0.0943327 0
M  V30 3308 H 308.106 -1.53161 0.415612 0
M  V30 3309 H 308.127 -3.52213 -1.43966 0
M  V30 3310 H 307.639 -3.86495 0.352588 0
M  V30 3311 H 305.74 -3.14089 -2.00447 0
M  V30 3312 H 305.853 -4.69737 -0.942549 0
M  V30 3313 H 304.217 -2.47638 -0.595589 0
M  V30 3314 H 305 -3.32799 0.842601 0
M  V30 3315 N 307.445 0.0818655 -1.57387 0
M  V30 3316 C 308.692 0.782914 -1.86753 0
M  V30 3317 C 309.02 1.78082 -0.782118 0
M  V30 3318 O 308.275 1.94426 0.22295 0
M  V30 3319 C 308.574 1.53513 -3.22752 0
M  V30 3320 C 308.24 0.678134 -4.45771 0
M  V30 3321 C 306.902 0.441929 -4.79166 0
M  V30 3322 C 309.254 0.0832243 -5.21134 0
M  V30 3323 C 306.582 -0.398833 -5.85343 0
M  V30 3324 C 308.934 -0.744935 -6.28199 0
M  V30 3325 C 307.598 -0.991107 -6.60101 0
M  V30 3326 H 306.868 0.286489 -0.683378 0
M  V30 3327 H 309.515 0.0439808 -1.91449 0
M  V30 3328 H 307.82 2.34599 -3.138 0
M  V30 3329 H 309.517 2.08218 -3.42705 0
M  V30 3330 H 306.107 0.872357 -4.19628 0
M  V30 3331 H 310.291 0.252847 -4.95655 0
M  V30 3332 H 305.547 -0.598405 -6.08465 0
M  V30 3333 H 309.721 -1.21271 -6.8576 0
M  V30 3334 H 307.348 -1.64437 -7.42202 0
M  V30 3335 N 308.923 1.53595 0.353017 0
M  V30 3336 C 310.169 1.70638 1.09593 0
M  V30 3337 C 310.502 0.463286 1.88593 0
M  V30 3338 O 309.777 -0.539597 1.86865 0
M  V30 3339 C 310.06 2.96406 2.04489 0
M  V30 3340 C 309.913 4.30901 1.29014 0
M  V30 3341 C 311.232 3.17812 3.0444 0
M  V30 3342 H 308.351 0.620913 0.397034 0
M  V30 3343 H 310.993 1.86254 0.375446 0
M  V30 3344 H 309.143 2.83223 2.65927 0
M  V30 3345 H 310.815 4.55917 0.702638 0
M  V30 3346 H 309.058 4.29741 0.592071 0
M  V30 3347 H 309.729 5.1506 1.98537 0
M  V30 3348 H 312.205 3.30263 2.53112 0
M  V30 3349 H 311.081 4.07223 3.6805 0
M  V30 3350 H 311.342 2.33669 3.75301 0
M  V30 3351 N 310.401 -0.613514 1.45168 0
M  V30 3352 C 311.348 -1.72456 1.53387 0
M  V30 3353 C 312.318 -1.6169 0.380191 0
M  V30 3354 O 313.503 -1.81356 0.592836 0
M  V30 3355 C 310.643 -3.10753 1.50088 0
M  V30 3356 C 309.756 -3.32368 2.75963 0
M  V30 3357 C 308.891 -4.60737 2.64376 0
M  V30 3358 C 307.93 -4.7559 3.85332 0
M  V30 3359 N 307.067 -5.95253 3.72315 0
M  V30 3360 H 311.907 -1.64768 2.48305 0
M  V30 3361 H 309.444 -0.803503 1.23216 0
M  V30 3362 H 311.402 -3.90758 1.46164 0
M  V30 3363 H 310.032 -3.17413 0.587243 0
M  V30 3364 H 309.084 -2.4618 2.89999 0
M  V30 3365 H 310.396 -3.39218 3.65695 0
M  V30 3366 H 309.55 -5.48928 2.58385 0
M  V30 3367 H 308.289 -4.56275 1.72233 0
M  V30 3368 H 307.294 -3.85824 3.91688 0
M  V30 3369 H 308.519 -4.81854 4.78533 0
M  V30 3370 H 306.465 -5.91847 2.82937 0
M  V30 3371 H 306.382 -6.03236 4.55677 0
M  V30 3372 H 307.65 -6.85958 3.70246 0
M  V30 3373 N 311.879 -1.3236 -0.855495 0
M  V30 3374 C 312.829 -1.17809 -1.95205 0
M  V30 3375 C 313.813 -0.0852319 -1.60674 0
M  V30 3376 O 315.005 -0.311651 -1.74235 0
M  V30 3377 C 312.134 -0.902437 -3.31226 0
M  V30 3378 C 311.22 -2.03695 -3.7198 0
M  V30 3379 N 311.611 -3.28544 -3.84568 0
M  V30 3380 C 309.909 -1.93993 -4.016 0
M  V30 3381 C 310.61 -4.02847 -4.19629 0
M  V30 3382 N 309.586 -3.31138 -4.31102 0
M  V30 3383 H 313.388 -2.12462 -2.0307 0
M  V30 3384 H 310.902 -1.24127 -1.0472 0
M  V30 3385 H 312.899 -0.77915 -4.09554 0
M  V30 3386 H 311.559 0.0357267 -3.2468 0
M  V30 3387 H 312.57 -3.6349 -3.68911 0
M  V30 3388 H 309.247 -1.07733 -4.03361 0
M  V30 3389 H 310.637 -5.10506 -4.36845 0
M  V30 3390 N 313.357 1.07166 -1.15556 0
M  V30 3391 C 314.597 1.81391 -0.94216 0
M  V30 3392 C 314.961 1.84788 0.521272 0
M  V30 3393 O 316.162 2.54904 0.85307 0
M  V30 3394 C 314.433 3.22431 -1.54185 0
M  V30 3395 S 315.992 4.13379 -1.47183 0
M  V30 3396 H 312.81 0.624963 -0.339031 0
M  V30 3397 H 315.412 1.28725 -1.4714 0
M  V30 3398 H 314.116 3.17548 -2.59984 0
M  V30 3399 H 313.647 3.80172 -1.01156 0
M  V30 3400 H 315.662 4.94007 -0.466004 0
M  V30 3401 N 314.835 0.952656 1.25548 0
M  V30 3402 C 315.782 0.47008 2.25962 0
M  V30 3403 C 316.752 -0.476384 1.59122 0
M  V30 3404 O 317.937 -0.39007 1.8677 0
M  V30 3405 C 315.077 -0.247881 3.44209 0
M  V30 3406 C 314.19 0.735591 4.25691 0
M  V30 3407 C 313.325 -0.0047306 5.312 0
M  V30 3408 C 312.364 0.969805 6.04368 0
M  V30 3409 N 311.501 0.260486 7.01617 0
M  V30 3410 H 316.341 1.33126 2.66611 0
M  V30 3411 H 313.878 0.66765 1.31076 0
M  V30 3412 H 315.836 -0.680695 4.1161 0
M  V30 3413 H 314.466 -1.07312 3.0444 0
M  V30 3414 H 313.518 1.28689 3.57971 0
M  V30 3415 H 314.83 1.47934 4.76358 0
M  V30 3416 H 313.984 -0.496275 6.04667 0
M  V30 3417 H 312.723 -0.781282 4.81401 0
M  V30 3418 H 311.728 1.47237 5.29718 0
M  V30 3419 H 312.953 1.74655 6.56256 0
M  V30 3420 H 310.899 -0.497364 6.54112 0
M  V30 3421 H 310.816 0.943362 7.50091 0
M  V30 3422 H 312.084 -0.209587 7.79218 0
M  V30 3423 N 316.313 -1.40141 0.720998 0
M  V30 3424 C 317.729 -1.54632 0.395113 0
M  V30 3425 C 317.929 -1.69115 -1.09555 0
M  V30 3426 O 316.985 -1.68377 -1.88163 0
M  V30 3427 C 318.298 -2.77177 1.1659 0
M  V30 3428 C 319.846 -2.91 1.15274 0
M  V30 3429 C 320.321 -4.16465 1.90579 0
M  V30 3430 N 321.812 -4.23476 1.87675 0
M  V30 3431 C 322.547 -5.19475 2.42762 0
M  V30 3432 N 322.043 -6.21348 3.06428 0
M  V30 3433 N 323.836 -5.11592 2.32874 0
M  V30 3434 H 315.987 -1.28986 1.68749 0
M  V30 3435 H 318.25 -0.62412 0.713567 0
M  V30 3436 H 317.956 -2.72771 2.22011 0
M  V30 3437 H 317.83 -3.69442 0.76108 0
M  V30 3438 H 320.217 -2.94907 0.106702 0
M  V30 3439 H 320.298 -1.99838 1.59682 0
M  V30 3440 H 319.942 -4.1332 2.95176 0
M  V30 3441 H 319.872 -5.06646 1.43587 0
M  V30 3442 H 322.363 -3.50497 1.41281 0
M  V30 3443 H 322.676 -6.91034 3.45965 0
M  V30 3444 H 321.021 -6.21777 3.10514 0
M  V30 3445 H 324.212 -4.30936 1.82789 0
M  V30 3446 H 324.385 -5.86233 2.76106 0
M  V30 3447 N 317.792 -0.46758 -1.50504 0
M  V30 3448 C 319.039 0.0886219 -2.02306 0
M  V30 3449 C 319.367 1.40037 -1.34981 0
M  V30 3450 O 318.622 1.90136 -0.463318 0
M  V30 3451 C 318.921 0.323995 -3.55928 0
M  V30 3452 C 318.587 -0.905618 -4.41712 0
M  V30 3453 C 317.249 -1.24275 -4.64875 0
M  V30 3454 C 319.601 -1.72448 -4.91845 0
M  V30 3455 C 316.929 -2.39888 -5.35417 0
M  V30 3456 C 319.281 -2.87185 -5.63656 0
M  V30 3457 C 317.945 -3.21317 -5.85074 0
M  V30 3458 H 317.215 0.0324291 -0.74029 0
M  V30 3459 H 319.862 -0.620945 -1.81153 0
M  V30 3460 H 318.167 1.11577 -3.75577 0
M  V30 3461 H 319.864 0.76826 -3.93572 0
M  V30 3462 H 316.454 -0.632956 -4.239 0
M  V30 3463 H 320.638 -1.4772 -4.73806 0
M  V30 3464 H 315.894 -2.66611 -5.50208 0
M  V30 3465 H 320.068 -3.50985 -6.01484 0
M  V30 3466 H 317.695 -4.1101 -6.39511 0
M  V30 3467 N 319.27 1.56325 -0.20005 0
M  V30 3468 C 320.517 1.97719 0.437411 0
M  V30 3469 C 320.845 1.08709 1.61284 0
M  V30 3470 O 320.1 0.127261 1.95286 0
M  V30 3471 C 320.399 3.4495 0.935103 0
M  V30 3472 C 320.065 4.5072 -0.12749 0
M  V30 3473 C 318.727 4.79368 -0.419451 0
M  V30 3474 C 321.079 5.14268 -0.847231 0
M  V30 3475 C 318.407 5.68854 -1.43604 0
M  V30 3476 C 320.759 6.04852 -1.85301 0
M  V30 3477 C 319.423 6.31855 -2.15211 0
M  V30 3478 H 318.693 0.723507 0.16006 0
M  V30 3479 H 321.34 1.89166 -0.298056 0
M  V30 3480 H 319.645 3.50599 1.74894 0
M  V30 3481 H 321.342 3.74337 1.43781 0
M  V30 3482 H 317.932 4.28458 0.11023 0
M  V30 3483 H 322.116 4.92222 -0.634901 0
M  V30 3484 H 317.372 5.88047 -1.67364 0
M  V30 3485 H 321.546 6.53152 -2.41591 0
M  V30 3486 H 319.173 7.00994 -2.94129 0
M  V30 3487 N 320.748 -0.0735177 1.57428 0
M  V30 3488 C 321.658 -1.10547 2.06922 0
M  V30 3489 C 322.674 -1.42506 0.998402 0
M  V30 3490 O 323.85 -1.52717 1.31299 0
M  V30 3491 C 320.915 -2.40019 2.50184 0
M  V30 3492 C 319.976 -2.15046 3.71556 0
M  V30 3493 C 319.209 -3.38345 4.12745 0
M  V30 3494 O 319.432 -4.47399 3.53822 0
M  V30 3495 O 318.366 -3.2666 5.05546 0
M  V30 3496 H 322.192 -0.715013 2.95163 0
M  V30 3497 H 319.777 -0.287531 1.46607 0
M  V30 3498 H 321.659 -3.16218 2.78539 0
M  V30 3499 H 320.334 -2.78447 1.65072 0
M  V30 3500 H 319.241 -1.36558 3.48285 0
M  V30 3501 H 320.574 -1.81499 4.57514 0
M  V30 3502 N 322.226 -1.5378 -0.344866 0
M  V30 3503 C 323.473 -1.70963 -1.08526 0
M  V30 3504 C 323.801 -0.472126 -1.88683 0
M  V30 3505 O 323.056 0.546116 -1.87926 0
M  V30 3506 C 323.355 -2.92407 -2.05506 0
M  V30 3507 C 323.021 -4.28066 -1.41671 0
M  V30 3508 C 321.683 -4.64951 -1.2399 0
M  V30 3509 C 324.035 -5.12344 -0.956726 0
M  V30 3510 C 321.363 -5.83733 -0.589277 0
M  V30 3511 C 323.715 -6.3179 -0.320015 0
M  V30 3512 C 322.379 -6.67372 -0.130881 0
M  V30 3513 H 321.649 -0.625598 -0.397124 0
M  V30 3514 H 324.296 -1.87995 -0.36469 0
M  V30 3515 H 322.601 -2.69973 -2.8394 0
M  V30 3516 H 324.298 -3.02895 -2.62784 0
M  V30 3517 H 320.888 -3.99034 -1.56429 0
M  V30 3518 H 325.072 -4.8438 -1.08118 0
M  V30 3519 H 320.328 -6.09877 -0.431344 0
M  V30 3520 H 324.502 -6.96386 0.0445072 0
M  V30 3521 H 322.129 -7.59273 0.375318 0
M  V30 3522 N 323.704 0.605807 -1.45491 0
M  V30 3523 C 324.944 1.37606 -1.51142 0
M  V30 3524 C 325.308 1.91413 -0.150075 0
M  V30 3525 O 326.509 2.68677 -0.0812828 0
M  V30 3526 C 324.78 2.49197 -2.56195 0
M  V30 3527 S 326.339 3.36953 -2.81083 0
M  V30 3528 H 323.157 0.469118 -0.534275 0
M  V30 3529 H 325.759 0.698845 -1.82583 0
M  V30 3530 H 324.463 2.0802 -3.53773 0
M  V30 3531 H 323.994 3.21717 -2.26411 0
M  V30 3532 H 326.009 4.47395 -2.14598 0
M  V30 3533 N 325.182 1.32811 0.848464 0
M  V30 3534 C 326.431 1.23075 1.59798 0
M  V30 3535 C 326.744 -0.204419 1.94529 0
M  V30 3536 O 327.95 -0.423701 2.68173 0
M  V30 3537 C 326.406 2.15594 2.88179 0
M  V30 3538 C 326.014 3.64228 2.60849 0
M  V30 3539 C 327.758 2.14709 3.66197 0
M  V30 3540 C 325.665 4.48689 3.85269 0
M  V30 3541 H 324.595 0.457091 0.599653 0
M  V30 3542 H 327.246 1.57813 0.936342 0
M  V30 3543 H 325.628 1.73778 3.55833 0
M  V30 3544 H 326.802 4.14424 2.01467 0
M  V30 3545 H 325.117 3.67306 1.96151 0
M  V30 3546 H 327.714 2.75046 4.58534 0
M  V30 3547 H 328.057 1.13966 4.00397 0
M  V30 3548 H 328.59 2.54837 3.05455 0
M  V30 3549 H 325.329 5.5027 3.56207 0
M  V30 3550 H 324.849 4.03241 4.44024 0
M  V30 3551 H 326.528 4.62006 4.52946 0
M  V30 3552 N 326.66 -1.06551 1.16123 0
M  V30 3553 C 328.071 -1.60768 0.949232 0
M  V30 3554 C 328.422 -1.89523 -0.507508 0
M  V30 3555 O 327.547 -1.66671 -1.38021 0
M  V30 3556 C 328.142 -2.92086 1.71671 0
M  V30 3557 C 326.701 -3.43015 1.54977 0
M  V30 3558 C 325.848 -2.16947 1.72711 0
M  V30 3559 H 328.799 -0.895354 1.31031 0
M  V30 3560 H 328.82 -3.6138 1.19099 0
M  V30 3561 H 328.332 -2.71127 2.7769 0
M  V30 3562 H 326.433 -3.69039 0.513873 0
M  V30 3563 H 326.546 -4.18516 2.33198 0
M  V30 3564 H 324.91 -2.27041 1.15431 0
M  V30 3565 H 325.693 -1.98473 2.80113 0
M  V30 3566 N 328.138 -0.959301 -1.25041 0
M  V30 3567 C 329.554 -0.664474 -1.4511 0
M  V30 3568 C 329.754 0.776481 -1.85938 0
M  V30 3569 O 328.81 1.55128 -1.99227 0
M  V30 3570 C 330.123 -1.64139 -2.5195 0
M  V30 3571 C 331.671 -1.65309 -2.65786 0
M  V30 3572 C 332.146 -2.61777 -3.75815 0
M  V30 3573 N 333.637 -2.60169 -3.83231 0
M  V30 3574 C 334.372 -3.31489 -4.6787 0
M  V30 3575 N 333.868 -4.12298 -5.56761 0
M  V30 3576 N 335.661 -3.20354 -4.61876 0
M  V30 3577 H 327.812 -1.89043 -0.968332 0
M  V30 3578 H 330.075 -0.813408 -0.4869 0
M  V30 3579 H 329.781 -2.67086 -2.28819 0
M  V30 3580 H 329.655 -1.40756 -3.49954 0
M  V30 3581 H 332.042 -0.630778 -2.8828 0
M  V30 3582 H 332.123 -1.92753 -1.68167 0
M  V30 3583 H 331.767 -3.64137 -3.54071 0
M  V30 3584 H 331.697 -2.31616 -4.72929 0
M  V30 3585 H 334.188 -2.01507 -3.19692 0
M  V30 3586 H 334.501 -4.63625 -6.18281 0
M  V30 3587 H 332.846 -4.16395 -5.56454 0
M  V30 3588 H 336.037 -2.56692 -3.91442 0
M  V30 3589 H 336.21 -3.76201 -5.27614 0
M  V30 3590 N 329.616 1.39756 -0.72842 0
M  V30 3591 C 331.027 1.83498 -0.344289 0
M  V30 3592 C 331.378 1.60868 1.12321 0
M  V30 3593 O 330.503 1.09634 1.86573 0
M  V30 3594 C 331.098 3.33114 -0.618112 0
M  V30 3595 C 329.657 3.753 -0.287549 0
M  V30 3596 C 328.804 2.62831 -0.884048 0
M  V30 3597 H 331.755 1.28842 -0.926578 0
M  V30 3598 H 331.776 3.80334 0.112349 0
M  V30 3599 H 331.288 3.49553 -1.68625 0
M  V30 3600 H 329.389 3.64451 0.775012 0
M  V30 3601 H 329.502 4.72945 -0.765512 0
M  V30 3602 H 327.866 2.52792 -0.311149 0
M  V30 3603 H 328.649 2.82078 -1.95671 0
M  V30 3604 N 331.094 0.475555 1.50254 0
M  V30 3605 C 332.343 -0.0795996 2.01543 0
M  V30 3606 C 332.656 -1.4038 1.36209 0
M  V30 3607 O 333.862 -2.04415 1.7868 0
M  V30 3608 C 332.318 -0.192363 3.59386 0
M  V30 3609 C 331.926 1.12367 4.33679 0
M  V30 3610 C 333.67 -0.699238 4.18701 0
M  V30 3611 C 331.577 0.974453 5.83317 0
M  V30 3612 H 330.507 -0.0335228 0.753254 0
M  V30 3613 H 333.158 0.611128 1.73025 0
M  V30 3614 H 331.54 -0.946974 3.84511 0
M  V30 3615 H 332.714 1.88958 4.20276 0
M  V30 3616 H 331.029 1.562 3.85993 0
M  V30 3617 H 333.626 -0.827978 5.28251 0
M  V30 3618 H 333.969 -1.69171 3.80377 0
M  V30 3619 H 334.502 -0.00188807 3.978 0
M  V30 3620 H 331.241 1.94042 6.26121 0
M  V30 3621 H 330.761 0.248998 5.99283 0
M  V30 3622 H 332.44 0.642867 6.43798 0
M  V30 3623 N 332.573 -1.56217 0.208337 0
M  V30 3624 C 333.503 -2.22694 -0.702116 0
M  V30 3625 C 334.484 -1.19432 -1.2112 0
M  V30 3626 O 335.669 -1.47978 -1.25762 0
M  V30 3627 C 332.799 -2.8966 -1.9161 0
M  V30 3628 C 331.753 -3.9928 -1.5414 0
M  V30 3629 C 331.079 -4.53476 -2.83308 0
M  V30 3630 C 332.379 -5.17012 -0.741339 0
M  V30 3631 H 334.073 -2.99034 -0.147898 0
M  V30 3632 H 331.619 -1.43831 -0.0696951 0
M  V30 3633 H 333.572 -3.34852 -2.55836 0
M  V30 3634 H 332.296 -2.10746 -2.49507 0
M  V30 3635 H 330.955 -3.54799 -0.922668 0
M  V30 3636 H 330.603 -3.71308 -3.39322 0
M  V30 3637 H 330.303 -5.27451 -2.58976 0
M  V30 3638 H 331.827 -5.01378 -3.485 0
M  V30 3639 H 333.241 -5.58667 -1.28699 0
M  V30 3640 H 331.638 -5.97137 -0.595627 0
M  V30 3641 H 332.708 -4.8423 0.254851 0
M  V30 3642 N 334.051 0.0651679 -1.57465 0
M  V30 3643 C 335.297 0.764193 -1.87851 0
M  V30 3644 C 335.63 1.76889 -0.801495 0
M  V30 3645 O 334.905 1.93594 0.187528 0
M  V30 3646 C 335.188 1.46625 -3.28897 0
M  V30 3647 C 335.041 0.477515 -4.47258 0
M  V30 3648 C 336.36 2.4095 -3.68281 0
M  V30 3649 H 333.479 0.276351 -0.683227 0
M  V30 3650 H 336.121 0.0272868 -1.8998 0
M  V30 3651 H 334.271 2.09438 -3.27212 0
M  V30 3652 H 335.943 -0.145922 -4.61069 0
M  V30 3653 H 334.186 -0.206576 -4.33308 0
M  V30 3654 H 334.857 1.0065 -5.42746 0
M  V30 3655 H 337.333 1.88209 -3.71102 0
M  V30 3656 H 336.209 2.87072 -4.67847 0
M  V30 3657 H 336.47 3.26049 -2.98571 0
M  V30 3658 N 335.529 1.53961 0.336706 0
M  V30 3659 C 336.459 1.85417 1.41925 0
M  V30 3660 C 337.44 0.709856 1.5458 0
M  V30 3661 O 338.625 0.962396 1.68676 0
M  V30 3662 C 335.755 2.06985 2.78881 0
M  V30 3663 C 334.709 3.22813 2.81026 0
M  V30 3664 C 334.035 3.29727 4.20932 0
M  V30 3665 C 335.335 4.60767 2.45949 0
M  V30 3666 H 337.029 2.76079 1.15848 0
M  V30 3667 H 334.575 1.32839 0.555859 0
M  V30 3668 H 336.528 2.27575 3.54665 0
M  V30 3669 H 335.252 1.13061 3.06406 0
M  V30 3670 H 333.911 3.0209 2.07695 0
M  V30 3671 H 333.559 2.33385 4.45579 0
M  V30 3672 H 333.259 4.07566 4.23277 0
M  V30 3673 H 334.783 3.52536 4.98549 0
M  V30 3674 H 336.197 4.81325 3.11446 0
M  V30 3675 H 334.594 5.4106 2.59566 0
M  V30 3676 H 335.664 4.6391 1.41122 0
M  V30 3677 N 337.007 -0.598083 1.45811 0
M  V30 3678 C 337.937 -1.71873 1.58057 0
M  V30 3679 C 338.918 -1.64533 0.431615 0
M  V30 3680 O 340.103 -1.82787 0.65595 0
M  V30 3681 C 337.233 -3.10495 1.55597 0
M  V30 3682 C 336.187 -3.32654 2.69305 0
M  V30 3683 C 335.513 -4.71646 2.51902 0
M  V30 3684 C 336.813 -3.21981 4.11248 0
M  V30 3685 H 338.507 -1.61881 2.51863 0
M  V30 3686 H 336.053 -0.777372 1.21214 0
M  V30 3687 H 338.006 -3.88699 1.6276 0
M  V30 3688 H 336.73 -3.2135 0.583255 0
M  V30 3689 H 335.389 -2.56843 2.61586 0
M  V30 3690 H 335.037 -4.79246 1.52748 0
M  V30 3691 H 334.737 -4.87426 3.2816 0
M  V30 3692 H 336.261 -5.52038 2.60933 0
M  V30 3693 H 337.675 -3.90049 4.20161 0
M  V30 3694 H 336.072 -3.49289 4.87972 0
M  V30 3695 H 337.142 -2.1928 4.32486 0
M  V30 3696 N 338.485 -1.33259 -0.841409 0
M  V30 3697 C 339.415 -1.25926 -1.96634 0
M  V30 3698 C 340.396 -0.140349 -1.6952 0
M  V30 3699 O 341.581 -0.329707 -1.91381 0
M  V30 3700 C 338.711 -0.99512 -3.32738 0
M  V30 3701 C 337.665 -2.0767 -3.74242 0
M  V30 3702 C 336.991 -1.66474 -5.08125 0
M  V30 3703 C 338.291 -3.49318 -3.88297 0
M  V30 3704 H 339.985 -2.20046 -2.03027 0
M  V30 3705 H 337.531 -1.05931 -0.975425 0
M  V30 3706 H 339.484 -0.930323 -4.11002 0
M  V30 3707 H 338.208 -0.0183004 -3.26595 0
M  V30 3708 H 336.867 -2.13187 -2.98239 0
M  V30 3709 H 336.515 -0.675012 -4.9845 0
M  V30 3710 H 336.215 -2.3885 -5.36865 0
M  V30 3711 H 337.739 -1.61455 -5.88867 0
M  V30 3712 H 339.153 -3.46316 -4.56879 0
M  V30 3713 H 337.55 -4.20158 -4.28471 0
M  V30 3714 H 338.62 -3.8801 -2.9082 0
M  V30 3715 N 339.963 1.05934 -1.16686 0
M  V30 3716 C 341.188 1.83029 -0.975455 0
M  V30 3717 C 341.613 1.82096 0.471452 0
M  V30 3718 O 340.971 1.22443 1.33706 0
M  V30 3719 C 341.019 3.27372 -1.51195 0
M  V30 3720 O 340.123 4.06054 -0.720701 0
M  V30 3721 H 339.464 0.566194 -0.346872 0
M  V30 3722 H 341.994 1.33541 -1.55009 0
M  V30 3723 H 342.004 3.78186 -1.53099 0
M  V30 3724 H 340.679 3.27366 -2.56523 0
M  V30 3725 H 339.256 3.64812 -0.772458 0
M  V30 3726 N 341.441 0.965919 1.2453 0
M  V30 3727 C 342.688 0.626831 1.92554 0
M  V30 3728 C 343.016 -0.837739 1.75534 0
M  V30 3729 O 342.271 -1.61793 1.10098 0
M  V30 3730 C 342.57 0.945428 3.44669 0
M  V30 3731 C 342.236 2.39785 3.81856 0
M  V30 3732 C 340.898 2.79483 3.91718 0
M  V30 3733 C 343.25 3.34055 4.00071 0
M  V30 3734 C 340.578 4.12496 4.1721 0
M  V30 3735 C 342.93 4.66694 4.27059 0
M  V30 3736 C 341.594 5.06172 4.3514 0
M  V30 3737 H 340.864 0.229374 0.704605 0
M  V30 3738 H 343.511 1.21707 1.4785 0
M  V30 3739 H 341.816 0.272926 3.90848 0
M  V30 3740 H 343.513 0.661484 3.95507 0
M  V30 3741 H 340.103 2.08003 3.74743 0
M  V30 3742 H 344.287 3.04571 3.91855 0
M  V30 3743 H 339.543 4.42709 4.21685 0
M  V30 3744 H 343.717 5.3971 4.40097 0
M  V30 3745 H 341.344 6.09262 4.54646 0
M  V30 3746 N 342.919 -1.39368 0.735821 0
M  V30 3747 C 344.33 -1.83313 0.354015 0
M  V30 3748 C 344.681 -1.61461 -1.11466 0
M  V30 3749 O 343.806 -1.10621 -1.85989 0
M  V30 3750 C 344.401 -3.32781 0.635769 0
M  V30 3751 C 342.96 -3.75142 0.307448 0
M  V30 3752 C 342.107 -2.62358 0.897974 0
M  V30 3753 H 345.058 -1.28349 0.933398 0
M  V30 3754 H 345.079 -3.80388 -0.0921773 0
M  V30 3755 H 344.591 -3.48654 1.70476 0
M  V30 3756 H 342.692 -3.64857 -0.755674 0
M  V30 3757 H 342.805 -4.72532 0.790583 0
M  V30 3758 H 341.169 -2.52624 0.324551 0
M  V30 3759 H 341.952 -2.81036 1.97164 0
M  V30 3760 N 344.397 -0.483516 -1.5 0
M  V30 3761 C 345.622 0.0667119 -2.07293 0
M  V30 3762 C 346.047 1.3164 -1.3436 0
M  V30 3763 O 345.405 1.76945 -0.394987 0
M  V30 3764 C 345.453 0.321126 -3.59167 0
M  V30 3765 O 344.557 1.39927 -3.87936 0
M  V30 3766 H 343.898 -0.0184758 -0.663743 0
M  V30 3767 H 346.428 -0.678125 -1.93035 0
M  V30 3768 H 346.438 0.557906 -4.04168 0
M  V30 3769 H 345.113 -0.592007 -4.11665 0
M  V30 3770 H 343.69 1.14882 -3.54763 0
M  V30 3771 N 345.875 1.56104 -0.216619 0
M  V30 3772 C 347.124 1.97348 0.416744 0
M  V30 3773 C 347.437 1.10715 1.6125 0
M  V30 3774 O 348.643 1.41836 2.31506 0
M  V30 3775 C 347.099 3.51059 0.792835 0
M  V30 3776 C 346.707 4.46387 -0.379828 0
M  V30 3777 C 348.451 4.01026 1.39208 0
M  V30 3778 C 346.358 5.91397 0.0184223 0
M  V30 3779 H 345.288 0.736942 0.159475 0
M  V30 3780 H 347.939 1.80827 -0.31205 0
M  V30 3781 H 346.321 3.63162 1.57891 0
M  V30 3782 H 347.495 4.46029 -1.15737 0
M  V30 3783 H 345.81 4.06734 -0.891979 0
M  V30 3784 H 348.407 5.0686 1.70286 0
M  V30 3785 H 348.75 3.46587 2.30614 0
M  V30 3786 H 349.283 3.92125 0.669537 0
M  V30 3787 H 346.022 6.49807 -0.862002 0
M  V30 3788 H 345.542 5.94961 0.760384 0
M  V30 3789 H 347.221 6.45455 0.446818 0
M  V30 3790 N 347.353 -0.0568162 1.57498 0
M  V30 3791 C 348.286 -1.09817 2.00039 0
M  V30 3792 C 349.264 -1.3674 0.879819 0
M  V30 3793 O 350.448 -1.49863 1.14338 0
M  V30 3794 C 347.575 -2.43924 2.34986 0
M  V30 3795 C 346.621 -2.33039 3.57204 0
M  V30 3796 S 347.454 -1.7102 5.07457 0
M  V30 3797 C 348.61 -3.06674 5.45621 0
M  V30 3798 H 348.843 -0.735701 2.88053 0
M  V30 3799 H 346.376 -0.265871 1.52094 0
M  V30 3800 H 348.334 -3.2106 2.55795 0
M  V30 3801 H 346.995 -2.77327 1.47474 0
M  V30 3802 H 346.188 -3.31973 3.79223 0
M  V30 3803 H 345.79 -1.64043 3.36104 0
M  V30 3804 H 348.082 -4.03 5.44608 0
M  V30 3805 H 349.025 -2.8942 6.46252 0
M  V30 3806 H 349.433 -3.07969 4.73091 0
M  V30 3807 N 348.832 -1.54138 -0.328536 0
M  V30 3808 C 350.078 -1.7236 -1.06865 0
M  V30 3809 C 350.411 -0.493231 -1.87832 0
M  V30 3810 O 349.686 0.5098 -1.877 0
M  V30 3811 C 349.969 -2.99621 -1.99747 0
M  V30 3812 C 349.822 -4.32899 -1.22143 0
M  V30 3813 C 351.141 -3.22615 -2.99345 0
M  V30 3814 H 348.26 -0.627151 -0.387105 0
M  V30 3815 H 350.902 -1.86827 -0.345767 0
M  V30 3816 H 349.052 -2.87418 -2.61387 0
M  V30 3817 H 350.724 -4.56978 -0.630017 0
M  V30 3818 H 348.967 -4.30628 -0.523628 0
M  V30 3819 H 349.638 -5.18154 -1.90318 0
M  V30 3820 H 352.114 -3.34248 -2.47826 0
M  V30 3821 H 350.99 -4.13027 -3.61524 0
M  V30 3822 H 351.251 -2.3961 -3.71536 0
M  V30 3823 N 350.31 0.590341 -1.46126 0
M  V30 3824 C 351.721 1.17243 -1.45296 0
M  V30 3825 C 352.072 1.95281 -0.189723 0
M  V30 3826 O 351.197 2.04502 0.707674 0
M  V30 3827 C 351.792 2.13284 -2.6324 0
M  V30 3828 C 350.351 2.66832 -2.65476 0
M  V30 3829 C 349.498 1.42557 -2.3785 0
M  V30 3830 H 352.449 0.378692 -1.54116 0
M  V30 3831 H 352.47 2.96619 -2.38323 0
M  V30 3832 H 351.982 1.56459 -3.55165 0
M  V30 3833 H 350.083 3.27548 -1.77603 0
M  V30 3834 H 350.196 3.10088 -3.65215 0
M  V30 3835 H 348.56 1.72107 -1.87753 0
M  V30 3836 H 349.343 0.875741 -3.31942 0
M  V30 3837 N 351.788 1.33704 0.83433 0
M  V30 3838 C 352.718 1.26967 1.95963 0
M  V30 3839 C 353.699 0.149337 1.69443 0
M  V30 3840 O 354.884 0.339852 1.91203 0
M  V30 3841 C 352.014 1.01275 3.32206 0
M  V30 3842 C 350.968 2.09652 3.73136 0
M  V30 3843 C 350.294 1.69166 5.07235 0
M  V30 3844 C 351.594 3.51372 3.86439 0
M  V30 3845 H 353.288 2.2112 2.01857 0
M  V30 3846 H 350.834 1.06447 0.969793 0
M  V30 3847 H 352.787 0.952106 4.10503 0
M  V30 3848 H 351.511 0.0356203 3.26581 0
M  V30 3849 H 350.17 2.14766 2.97104 0
M  V30 3850 H 349.818 0.701437 4.98085 0
M  V30 3851 H 349.518 2.41694 5.35591 0
M  V30 3852 H 351.042 1.64576 5.88003 0
M  V30 3853 H 352.456 3.48734 4.55036 0
M  V30 3854 H 350.853 4.22425 4.26236 0
M  V30 3855 H 351.923 3.89546 2.88759 0
M  V30 3856 N 353.266 -1.05314 1.17247 0
M  V30 3857 C 354.229 -2.112 0.890357 0
M  V30 3858 C 355.229 -1.60359 -0.118943 0
M  V30 3859 O 356.419 -1.73833 0.113086 0
M  V30 3860 C 353.551 -3.39266 0.333422 0
M  V30 3861 H 354.744 -2.37659 1.82916 0
M  V30 3862 H 352.297 -1.21538 0.982758 0
M  V30 3863 H 353.032 -3.18462 -0.612587 0
M  V30 3864 H 352.817 -3.77477 1.06082 0
M  V30 3865 H 354.307 -4.17315 0.154322 0
M  V30 3866 N 354.744 -0.972509 -1.24016 0
M  V30 3867 C 356.16 -0.679827 -1.44397 0
M  V30 3868 C 356.36 0.756716 -1.86751 0
M  V30 3869 O 355.416 1.53007 -2.00861 0
M  V30 3870 C 356.729 -1.66803 -2.50195 0
M  V30 3871 C 358.277 -1.68119 -2.64017 0
M  V30 3872 C 358.752 -2.65748 -3.73017 0
M  V30 3873 N 360.243 -2.64219 -3.8045 0
M  V30 3874 C 360.978 -3.36433 -4.64328 0
M  V30 3875 N 360.474 -4.1818 -5.52356 0
M  V30 3876 N 362.267 -3.25235 -4.58453 0
M  V30 3877 H 354.418 -1.90059 -0.948228 0
M  V30 3878 H 356.681 -0.818527 -0.478245 0
M  V30 3879 H 356.387 -2.69498 -2.25973 0
M  V30 3880 H 356.261 -1.4446 -3.48441 0
M  V30 3881 H 358.648 -0.661319 -2.87594 0
M  V30 3882 H 358.729 -1.94525 -1.66113 0
M  V30 3883 H 358.373 -3.67872 -3.50189 0
M  V30 3884 H 358.303 -2.36619 -4.70446 0
M  V30 3885 H 360.794 -2.04887 -3.17537 0
M  V30 3886 H 361.107 -4.70157 -6.13329 0
M  V30 3887 H 359.452 -4.22273 -5.52006 0
M  V30 3888 H 362.643 -2.60829 -3.88698 0
M  V30 3889 H 362.816 -3.81776 -5.23594 0
M  V30 3890 N 356.222 1.38976 -0.743202 0
M  V30 3891 C 357.471 1.99581 -0.291592 0
M  V30 3892 C 357.784 1.59656 1.13001 0
M  V30 3893 O 358.99 2.13157 1.68156 0
M  V30 3894 C 357.446 3.56813 -0.470391 0
M  V30 3895 C 357.054 4.05695 -1.90041 0
M  V30 3896 C 358.798 4.24423 -0.0809709 0
M  V30 3897 C 356.705 5.5553 -2.02832 0
M  V30 3898 H 355.635 0.746615 -0.105272 0
M  V30 3899 H 358.286 1.58872 -0.918258 0
M  V30 3900 H 356.668 3.95359 0.225299 0
M  V30 3901 H 357.842 3.78464 -2.62872 0
M  V30 3902 H 356.157 3.50775 -2.24379 0
M  V30 3903 H 358.754 5.34474 -0.155445 0
M  V30 3904 H 359.097 4.04962 0.96497 0
M  V30 3905 H 359.63 3.9108 -0.728124 0
M  V30 3906 H 356.369 5.79881 -3.05643 0
M  V30 3907 H 355.889 5.84537 -1.34448 0
M  V30 3908 H 357.568 6.21069 -1.81335 0
M  V30 3909 N 357.7 0.491464 1.49741 0
M  V30 3910 C 358.63 -0.28154 2.31796 0
M  V30 3911 C 359.611 -0.971473 1.3963 0
M  V30 3912 O 360.796 -0.964719 1.68543 0
M  V30 3913 C 357.926 -1.35203 3.19902 0
M  V30 3914 C 356.88 -0.782529 4.20786 0
M  V30 3915 C 356.206 -1.95283 4.97764 0
M  V30 3916 C 357.506 0.21999 5.21837 0
M  V30 3917 H 359.2 0.403355 2.96671 0
M  V30 3918 H 356.746 0.195425 1.42668 0
M  V30 3919 H 358.699 -1.90045 3.76113 0
M  V30 3920 H 357.423 -2.06598 2.52953 0
M  V30 3921 H 356.082 -0.255928 3.65706 0
M  V30 3922 H 355.73 -2.65423 4.2727 0
M  V30 3923 H 355.43 -1.57789 5.66018 0
M  V30 3924 H 356.954 -2.50577 5.56816 0
M  V30 3925 H 358.368 -0.23996 5.72798 0
M  V30 3926 H 356.765 0.51026 5.97927 0
M  V30 3927 H 357.835 1.13911 4.7133 0
M  V30 3928 N 359.178 -1.55987 0.224894 0
M  V30 3929 C 360.589 -1.84553 -0.282345 0
M  V30 3930 C 360.94 -1.14634 -1.59227 0
M  V30 3931 O 360.065 -0.417155 -2.12341 0
M  V30 3932 C 360.66 -3.348 -0.519062 0
M  V30 3933 C 359.219 -3.63671 -0.970604 0
M  V30 3934 C 358.366 -2.77277 -0.0355261 0
M  V30 3935 H 361.317 -1.52245 0.448006 0
M  V30 3936 H 361.338 -3.55187 -1.36463 0
M  V30 3937 H 360.85 -3.8566 0.43449 0
M  V30 3938 H 358.951 -3.1827 -1.9374 0
M  V30 3939 H 359.064 -4.71631 -0.842698 0
M  V30 3940 H 357.428 -2.48846 -0.542927 0
M  V30 3941 H 358.211 -3.30937 0.913003 0
M  V30 3942 N 360.656 0.0484629 -1.57525 0
M  V30 3943 C 361.604 1.07359 -2.06341 0
M  V30 3944 C 362.598 1.3865 -0.973269 0
M  V30 3945 O 363.804 1.37783 -1.15827 0
M  V30 3946 H 360.179 0.363662 -0.65822 0
M  V30 3947 H 362.15 0.635916 -2.91545 0
M  V30 3948 C 360.899 2.37198 -2.54229 0
M  V30 3949 H 360.222 2.13977 -3.37719 0
M  V30 3950 H 361.662 3.07319 -2.92115 0
M  V30 3951 C 360.121 3.04805 -1.43511 0
M  V30 3952 O 360.651 3.93848 -0.79034 0
M  V30 3953 N 358.857 2.65811 -1.17444 0
M  V30 3954 H 358.404 1.93488 -1.70059 0
M  V30 3955 H 358.362 3.11366 -0.435737 0
M  V30 3956 N 362.134 1.5431 0.320358 0
M  V30 3957 C 363.081 1.83918 1.39438 0
M  V30 3958 C 364.051 0.686525 1.51248 0
M  V30 3959 O 365.236 0.933269 1.66417 0
M  V30 3960 C 362.376 2.075 2.75749 0
M  V30 3961 C 361.489 3.35177 2.72544 0
M  V30 3962 C 360.624 3.48704 4.00723 0
M  V30 3963 C 359.663 4.70244 3.91838 0
M  V30 3964 N 358.8 4.80679 5.11754 0
M  V30 3965 H 363.64 2.75544 1.13489 0
M  V30 3966 H 361.177 1.36459 0.549309 0
M  V30 3967 H 363.135 2.19166 3.54996 0
M  V30 3968 H 361.765 1.19163 3 0
M  V30 3969 H 360.817 3.32233 1.85271 0
M  V30 3970 H 362.129 4.24534 2.61863 0
M  V30 3971 H 361.283 3.59928 4.88402 0
M  V30 3972 H 360.022 2.57445 4.14214 0
M  V30 3973 H 359.027 4.59072 3.02544 0
M  V30 3974 H 360.252 5.6289 3.7991 0
M  V30 3975 H 358.198 3.92337 5.25745 0
M  V30 3976 H 358.115 5.64007 5.0342 0
M  V30 3977 H 359.383 4.96239 6.01138 0
M  V30 3978 N 363.613 -0.582584 1.46437 0
M  V30 3979 C 364.561 -1.71272 1.5738 0
M  V30 3980 C 365.555 -1.63524 0.44229 0
M  V30 3981 O 366.761 -1.69016 0.619166 0
M  V30 3982 H 363.136 -0.566273 0.494813 0
M  V30 3983 H 365.107 -1.59174 2.52401 0
M  V30 3984 C 363.856 -3.09658 1.58136 0
M  V30 3985 H 363.179 -3.16291 2.44541 0
M  V30 3986 H 364.619 -3.88494 1.69847 0
M  V30 3987 C 363.078 -3.3547 0.310026 0
M  V30 3988 O 363.608 -3.97199 -0.599683 0
M  V30 3989 N 361.814 -2.89925 0.197901 0
M  V30 3990 H 361.361 -2.39873 0.93909 0
M  V30 3991 H 361.319 -3.07568 -0.65185 0
M  V30 3992 N 365.091 -1.34144 -0.827227 0
M  V30 3993 C 366.507 -1.13732 -1.11969 0
M  V30 3994 C 366.707 0.0640463 -2.01398 0
M  V30 3995 O 365.763 0.740856 -2.41387 0
M  V30 3996 C 367.076 -2.43047 -1.77055 0
M  V30 3997 C 368.624 -2.49063 -1.89569 0
M  V30 3998 C 369.099 -3.78369 -2.58072 0
M  V30 3999 N 370.59 -3.79505 -2.65575 0
M  V30 4000 C 371.325 -4.76274 -3.19297 0
M  V30 4001 N 370.821 -5.83424 -3.73616 0
M  V30 4002 N 372.614 -4.63735 -3.17658 0
M  V30 4003 H 364.765 -2.11126 -0.232296 0
M  V30 4004 H 367.028 -0.933424 -0.165602 0
M  V30 4005 H 366.734 -3.31025 -1.18807 0
M  V30 4006 H 366.608 -2.56066 -2.76966 0
M  V30 4007 H 368.995 -1.61527 -2.46968 0
M  V30 4008 H 369.076 -2.39975 -0.885745 0
M  V30 4009 H 368.72 -4.66293 -2.01329 0
M  V30 4010 H 368.65 -3.84737 -3.59562 0
M  V30 4011 H 371.141 -3.02074 -2.27068 0
M  V30 4012 H 371.454 -6.53282 -4.12846 0
M  V30 4013 H 369.799 -5.87143 -3.71871 0
M  V30 4014 H 372.99 -3.79177 -2.74486 0
M  V30 4015 H 373.163 -5.39318 -3.59221 0
M  V30 4016 N 366.569 1.04691 -1.17803 0
M  V30 4017 C 367.846 1.7472 -0.879328 0
M  V30 4018 C 368.226 2.01812 0.619271 0
M  V30 4019 O 367.574 1.65824 1.57209 0
M  V30 4020 C 367.784 3.03686 -1.71976 0
M  V30 4021 C 369.132 3.77542 -1.94286 0
M  V30 4022 O 370.156 3.13569 -1.68976 0
M  V30 4023 O 369.015 4.92506 -2.36855 0
M  V30 4024 H 366.109 0.760011 -0.326056 0
M  V30 4025 H 368.655 1.10813 -1.28525 0
M  V30 4026 H 367.427 2.79754 -2.73594 0
M  V30 4027 H 367.05 3.75332 -1.31194 0
M  V30 4028 N 368.047 0.979072 1.23499 0
M  V30 4029 C 368.957 0.526431 2.28617 0
M  V30 4030 C 369.973 -0.418126 1.68901 0
M  V30 4031 O 371.149 -0.288372 1.99325 0
M  V30 4032 C 368.214 -0.165235 3.46306 0
M  V30 4033 C 367.275 0.82056 4.21385 0
M  V30 4034 C 366.508 0.161807 5.33455 0
M  V30 4035 O 366.731 -1.04742 5.60701 0
M  V30 4036 O 365.665 0.859708 5.95729 0
M  V30 4037 H 369.491 1.4006 2.69475 0
M  V30 4038 H 367.076 0.746643 1.29405 0
M  V30 4039 H 368.958 -0.553287 4.17752 0
M  V30 4040 H 367.633 -1.01419 3.07402 0
M  V30 4041 H 366.54 1.25929 3.52268 0
M  V30 4042 H 367.873 1.63828 4.64135 0
M  V30 4043 N 369.525 -1.3858 0.750561 0
M  V30 4044 C 370.455 -2.33102 0.136237 0
M  V30 4045 C 371.436 -1.54713 -0.706965 0
M  V30 4046 O 372.621 -1.83043 -0.648769 0
M  V30 4047 C 369.751 -3.38882 -0.760017 0
M  V30 4048 C 368.705 -4.27995 -0.0197785 0
M  V30 4049 C 368.031 -5.24605 -1.03408 0
M  V30 4050 C 369.331 -5.09554 1.14684 0
M  V30 4051 H 371.025 -2.84726 0.925822 0
M  V30 4052 H 368.571 -1.36898 0.446654 0
M  V30 4053 H 370.524 -4.0397 -1.19943 0
M  V30 4054 H 369.248 -2.85734 -1.58189 0
M  V30 4055 H 367.907 -3.64409 0.400184 0
M  V30 4056 H 367.555 -4.67746 -1.84994 0
M  V30 4057 H 367.255 -5.85081 -0.543464 0
M  V30 4058 H 368.779 -5.9257 -1.47288 0
M  V30 4059 H 370.193 -5.67899 0.785118 0
M  V30 4060 H 368.59 -5.7925 1.56812 0
M  V30 4061 H 369.66 -4.4347 1.96118 0
M  V30 4062 N 371.003 -0.499398 -1.49478 0
M  V30 4063 C 371.951 0.293604 -2.3074 0
M  V30 4064 C 372.945 0.96427 -1.39277 0
M  V30 4065 O 374.151 0.892141 -1.56336 0
M  V30 4066 H 370.526 0.113541 -0.743379 0
M  V30 4067 H 372.497 -0.411772 -2.95545 0
M  V30 4068 C 371.246 1.3462 -3.20582 0
M  V30 4069 H 370.569 0.83954 -3.90886 0
M  V30 4070 H 372.009 1.87308 -3.80384 0
M  V30 4071 C 370.468 2.36351 -2.40083 0
M  V30 4072 O 370.998 3.422 -2.10385 0
M  V30 4073 N 369.204 2.0878 -2.02137 0
M  V30 4074 H 368.751 1.22723 -2.26488 0
M  V30 4075 H 368.709 2.77075 -1.48583 0
M  V30 4076 N 372.481 1.55866 -0.233164 0
M  V30 4077 C 373.729 1.9821 0.394593 0
M  V30 4078 C 374.05 1.12234 1.59463 0
M  V30 4079 O 373.32 0.201981 1.94856 0
M  V30 4080 H 371.9 0.732034 0.148778 0
M  V30 4081 H 374.562 1.92107 -0.32876 0
M  V30 4082 H 373.658 3.03845 0.713063 0
M  V30 4083 N 373.959 -0.0401083 1.57549 0
M  V30 4084 C 375.206 -0.733125 1.88763 0
M  V30 4085 C 375.534 -1.75946 0.829058 0
M  V30 4086 O 374.789 -1.94949 -0.171323 0
M  V30 4087 C 375.088 -1.44902 3.26708 0
M  V30 4088 C 374.754 -0.559707 4.47413 0
M  V30 4089 C 373.416 -0.314731 4.8017 0
M  V30 4090 C 375.768 0.0549743 5.21171 0
M  V30 4091 C 373.096 0.553886 5.8408 0
M  V30 4092 C 375.448 0.911229 6.26003 0
M  V30 4093 C 374.112 1.16577 6.57241 0
M  V30 4094 H 373.382 -0.268269 0.690733 0
M  V30 4095 H 376.029 0.00679408 1.91499 0
M  V30 4096 H 374.334 -2.26197 3.1991 0
M  V30 4097 H 376.031 -1.99058 3.48105 0
M  V30 4098 H 372.621 -0.760793 4.21794 0
M  V30 4099 H 376.805 -0.121344 4.96152 0
M  V30 4100 H 372.061 0.759518 6.06664 0
M  V30 4101 H 376.235 1.3941 6.82303 0
M  V30 4102 H 373.862 1.84058 7.37582 0
M  V30 4103 N 375.437 -1.54477 -0.31217 0
M  V30 4104 C 376.684 -1.73227 -1.04875 0
M  V30 4105 C 377.012 -0.512042 -1.87639 0
M  V30 4106 O 376.267 0.506131 -1.89042 0
M  V30 4107 C 376.566 -2.967 -1.99258 0
M  V30 4108 C 376.232 -4.30974 -1.32559 0
M  V30 4109 C 374.894 -4.67477 -1.141 0
M  V30 4110 C 377.246 -5.14258 -0.847835 0
M  V30 4111 C 374.574 -5.84852 -0.465326 0
M  V30 4112 C 376.926 -6.32327 -0.185931 0
M  V30 4113 C 375.59 -6.67499 0.0107077 0
M  V30 4114 H 374.86 -0.633881 -0.383765 0
M  V30 4115 H 377.507 -1.88727 -0.324731 0
M  V30 4116 H 375.812 -2.75935 -2.7815 0
M  V30 4117 H 377.509 -3.08401 -2.563 0
M  V30 4118 H 374.099 -4.02262 -1.4793 0
M  V30 4119 H 378.283 -4.86565 -0.978192 0
M  V30 4120 H 373.539 -6.10654 -0.301883 0
M  V30 4121 H 377.713 -6.96135 0.192211 0
M  V30 4122 H 375.34 -7.58306 0.536287 0
M  V30 4123 N 376.915 0.57481 -1.46744 0
M  V30 4124 C 377.863 1.70435 -1.58286 0
M  V30 4125 C 378.857 1.63287 -0.450956 0
M  V30 4126 O 380.063 1.68685 -0.628121 0
M  V30 4127 H 376.438 0.56364 -0.497809 0
M  V30 4128 H 378.409 1.57833 -2.53242 0
M  V30 4129 C 377.158 3.08815 -1.59776 0
M  V30 4130 H 376.481 3.1499 -2.46214 0
M  V30 4131 H 377.921 3.87588 -1.71905 0
M  V30 4132 C 376.38 3.35301 -0.327812 0
M  V30 4133 O 376.91 3.97511 0.57861 0
M  V30 4134 N 375.116 2.89816 -0.213274 0
M  V30 4135 H 374.663 2.39371 -0.951798 0
M  V30 4136 H 374.621 3.0791 0.63553 0
M  V30 4137 N 378.394 1.34581 0.820102 0
M  V30 4138 C 379.341 1.2639 1.93117 0
M  V30 4139 C 380.311 0.138554 1.65521 0
M  V30 4140 O 381.496 0.320004 1.88097 0
M  V30 4141 C 378.636 1.02812 3.29429 0
M  V30 4142 C 377.749 2.24146 3.693 0
M  V30 4143 C 376.884 1.93829 4.94574 0
M  V30 4144 C 375.923 3.1129 5.27034 0
M  V30 4145 N 375.06 2.80838 6.43486 0
M  V30 4146 H 379.9 2.21408 1.99455 0
M  V30 4147 H 377.437 1.10077 0.975784 0
M  V30 4148 H 379.395 0.871788 4.0799 0
M  V30 4149 H 378.025 0.114612 3.22596 0
M  V30 4150 H 377.077 2.50691 2.86109 0
M  V30 4151 H 378.389 3.11899 3.89257 0
M  V30 4152 H 377.543 1.74948 5.80929 0
M  V30 4153 H 376.282 1.03341 4.76626 0
M  V30 4154 H 375.287 3.30764 4.39175 0
M  V30 4155 H 376.512 4.02561 5.4692 0
M  V30 4156 H 374.458 1.92929 6.26988 0
M  V30 4157 H 374.375 3.62123 6.63629 0
M  V30 4158 H 375.643 2.65467 7.32903 0
M  V30 4159 N 379.872 -1.04064 1.18357 0
M  V30 4160 C 380.802 -2.14001 0.934113 0
M  V30 4161 C 381.783 -1.69616 -0.128186 0
M  V30 4162 O 382.968 -1.94185 0.0244093 0
M  V30 4163 C 380.098 -3.44253 0.459066 0
M  V30 4164 C 379.052 -4.02261 1.46185 0
M  V30 4165 C 378.378 -5.27992 0.844322 0
M  V30 4166 C 379.678 -4.38432 2.83856 0
M  V30 4167 H 381.372 -2.35127 1.85352 0
M  V30 4168 H 378.918 -1.12998 0.892604 0
M  V30 4169 H 380.871 -4.20522 0.271907 0
M  V30 4170 H 379.595 -3.22813 -0.495912 0
M  V30 4171 H 378.254 -3.28074 1.63595 0
M  V30 4172 H 377.902 -5.02862 -0.117845 0
M  V30 4173 H 377.602 -5.67765 1.51384 0
M  V30 4174 H 379.126 -6.06938 0.667693 0
M  V30 4175 H 380.54 -5.05688 2.70098 0
M  V30 4176 H 378.937 -4.89254 3.47491 0
M  V30 4177 H 380.007 -3.4826 3.37406 0
M  V30 4178 N 381.35 -0.985608 -1.22978 0
M  V30 4179 C 382.599 -0.652881 -1.90841 0
M  V30 4180 C 382.912 0.817842 -1.77681 0
M  V30 4181 O 384.118 1.26185 -2.40395 0
M  V30 4182 C 382.574 -1.11717 -3.42122 0
M  V30 4183 C 382.182 -2.6126 -3.63933 0
M  V30 4184 C 383.926 -0.85843 -4.1573 0
M  V30 4185 C 381.833 -3.0133 -5.08876 0
M  V30 4186 H 380.763 -0.240491 -0.714619 0
M  V30 4187 H 383.414 -1.1942 -1.39324 0
M  V30 4188 H 381.796 -0.504027 -3.92779 0
M  V30 4189 H 382.97 -3.27858 -3.23799 0
M  V30 4190 H 381.285 -2.84937 -3.03644 0
M  V30 4191 H 383.882 -1.13359 -5.22546 0
M  V30 4192 H 384.225 0.205461 -4.15793 0
M  V30 4193 H 384.758 -1.43341 -3.71077 0
M  V30 4194 H 381.497 -4.06864 -5.13947 0
M  V30 4195 H 381.017 -2.3943 -5.49939 0
M  V30 4196 H 382.696 -2.92224 -5.77247 0
M  V30 4197 N 382.828 1.3818 -0.7579 0
M  V30 4198 C 384.244 1.5353 -0.435972 0
M  V30 4199 C 384.444 1.71961 1.05032 0
M  V30 4200 O 383.5 1.73307 1.83633 0
M  V30 4201 C 384.813 2.73989 -1.23898 0
M  V30 4202 C 386.361 2.87841 -1.22949 0
M  V30 4203 C 386.836 4.11266 -2.01554 0
M  V30 4204 N 388.327 4.18352 -1.98837 0
M  V30 4205 C 389.062 5.12856 -2.5645 0
M  V30 4206 N 388.558 6.13005 -3.22794 0
M  V30 4207 N 390.351 5.05238 -2.46356 0
M  V30 4208 H 382.502 1.24467 -1.7211 0
M  V30 4209 H 384.765 0.604982 -0.729864 0
M  V30 4210 H 384.471 2.66789 -2.29165 0
M  V30 4211 H 384.345 3.67294 -0.858764 0
M  V30 4212 H 386.732 2.9452 -0.184854 0
M  V30 4213 H 386.813 1.95534 -1.64924 0
M  V30 4214 H 386.457 4.05349 -3.06031 0
M  V30 4215 H 386.387 5.02661 -1.5697 0
M  V30 4216 H 388.878 3.46628 -1.50524 0
M  V30 4217 H 389.191 6.81619 -3.64165 0
M  V30 4218 H 387.536 6.13325 -3.2689 0
M  V30 4219 H 390.727 4.25938 -1.9415 0
M  V30 4220 H 390.9 5.78707 -2.91552 0
M  V30 4221 N 384.306 0.507319 1.49211 0
M  V30 4222 C 385.254 -0.281364 2.30892 0
M  V30 4223 C 386.248 -0.95687 1.39787 0
M  V30 4224 O 387.454 -0.883838 1.56807 0
M  V30 4225 H 383.829 -0.109597 0.743971 0
M  V30 4226 H 385.8 0.42744 2.95323 0
M  V30 4227 C 384.549 -1.32918 3.21291 0
M  V30 4228 H 383.872 -0.818799 3.91326 0
M  V30 4229 H 385.312 -1.85288 3.81372 0
M  V30 4230 C 383.771 -2.35074 2.41333 0
M  V30 4231 O 384.301 -3.4108 2.12197 0
M  V30 4232 N 382.507 -2.07705 2.03241 0
M  V30 4233 H 382.054 -1.2152 2.27136 0
M  V30 4234 H 382.012 -2.76283 1.50051 0
M  V30 4235 N 385.784 -1.5574 0.241426 0
M  V30 4236 C 387.03 -1.99104 -0.385406 0
M  V30 4237 C 387.363 -1.1293 -1.57988 0
M  V30 4238 O 386.638 -0.191449 -1.93555 0
M  V30 4239 C 386.921 -3.51087 -0.800616 0
M  V30 4240 C 386.774 -4.48028 0.398874 0
M  V30 4241 C 388.093 -4.08015 -1.64959 0
M  V30 4242 H 385.212 -0.723848 -0.138614 0
M  V30 4243 H 387.854 -1.86903 0.341642 0
M  V30 4244 H 386.004 -3.61615 -1.4201 0
M  V30 4245 H 387.676 -4.49487 1.03726 0
M  V30 4246 H 385.919 -4.21077 1.04293 0
M  V30 4247 H 386.59 -5.51962 0.0651056 0
M  V30 4248 H 389.066 -4.00555 -1.12672 0
M  V30 4249 H 387.942 -5.14635 -1.90898 0
M  V30 4250 H 388.203 -3.56131 -2.61961 0
M  V30 4251 N 387.262 0.0317525 -1.57568 0
M  V30 4252 C 388.511 0.722131 -1.8833 0
M  V30 4253 C 388.824 1.76664 -0.839587 0
M  V30 4254 O 390.03 2.50942 -1.03635 0
M  V30 4255 C 388.486 1.33544 -3.34207 0
M  V30 4256 C 388.094 0.327415 -4.46802 0
M  V30 4257 C 389.838 2.00585 -3.7412 0
M  V30 4258 C 387.745 0.948915 -5.83738 0
M  V30 4259 H 386.675 0.273466 -0.702661 0
M  V30 4260 H 389.326 -0.0235811 -1.83485 0
M  V30 4261 H 387.708 2.13077 -3.33788 0
M  V30 4262 H 388.882 -0.441006 -4.58685 0
M  V30 4263 H 387.197 -0.240758 -4.15703 0
M  V30 4264 H 389.794 2.47932 -4.73744 0
M  V30 4265 H 390.137 2.82285 -3.05975 0
M  V30 4266 H 390.67 1.27831 -3.76702 0
M  V30 4267 H 387.409 0.171387 -6.55276 0
M  V30 4268 H 386.929 1.68724 -5.7558 0
M  V30 4269 H 388.608 1.45705 -6.3038 0
M  V30 4270 N 388.74 1.54641 0.303973 0
M  V30 4271 C 389.703 1.84646 1.35789 0
M  V30 4272 C 390.703 0.7192 1.4382 0
M  V30 4273 O 391.893 0.987491 1.43507 0
M  V30 4274 C 389.025 2.02407 2.74307 0
M  V30 4275 H 390.218 2.78829 1.10429 0
M  V30 4276 H 387.771 1.46658 0.540487 0
M  V30 4277 H 388.506 1.10502 3.04893 0
M  V30 4278 H 388.291 2.84453 2.69868 0
M  V30 4279 H 389.781 2.27002 3.50514 0
M  V30 4280 N 390.218 -0.567019 1.47046 0
M  V30 4281 C 391.148 -1.68482 1.61667 0
M  V30 4282 C 392.129 -1.6358 0.466418 0
M  V30 4283 O 393.314 -1.81354 0.694574 0
M  V30 4284 C 390.444 -3.07124 1.62148 0
M  V30 4285 C 389.398 -3.26867 2.76301 0
M  V30 4286 C 388.724 -4.66196 2.61849 0
M  V30 4287 C 390.024 -3.13186 4.17986 0
M  V30 4288 H 391.718 -1.56502 2.5524 0
M  V30 4289 H 389.264 -0.751486 1.22836 0
M  V30 4290 H 391.217 -3.8516 1.70968 0
M  V30 4291 H 389.941 -3.2004 0.651287 0
M  V30 4292 H 388.6 -2.51237 2.66975 0
M  V30 4293 H 388.248 -4.75898 1.62879 0
M  V30 4294 H 387.948 -4.80356 3.38425 0
M  V30 4295 H 389.472 -5.46379 2.72584 0
M  V30 4296 H 390.886 -3.81049 4.2834 0
M  V30 4297 H 389.283 -3.3886 4.95272 0
M  V30 4298 H 390.353 -2.10057 4.3704 0
M  V30 4299 N 391.696 -1.35014 -0.812953 0
M  V30 4300 C 393.112 -1.14914 -1.10757 0
M  V30 4301 C 393.312 0.0426818 -2.01455 0
M  V30 4302 O 392.368 0.715212 -2.42159 0
M  V30 4303 C 393.681 -2.44911 -1.74468 0
M  V30 4304 C 395.229 -2.5106 -1.86917 0
M  V30 4305 C 395.704 -3.81085 -2.54044 0
M  V30 4306 N 397.195 -3.82301 -2.61535 0
M  V30 4307 C 397.93 -4.79634 -3.14227 0
M  V30 4308 N 397.426 -5.87353 -3.67407 0
M  V30 4309 N 399.219 -4.67078 -3.12721 0
M  V30 4310 H 391.37 -2.1136 -0.20989 0
M  V30 4311 H 393.633 -0.935128 -0.155692 0
M  V30 4312 H 393.339 -3.32267 -1.15289 0
M  V30 4313 H 393.213 -2.58989 -2.74234 0
M  V30 4314 H 395.6 -1.64137 -2.45241 0
M  V30 4315 H 395.681 -2.40901 -0.860242 0
M  V30 4316 H 395.325 -4.68402 -1.96372 0
M  V30 4317 H 395.255 -3.88529 -3.55461 0
M  V30 4318 H 397.746 -3.04465 -2.23851 0
M  V30 4319 H 398.059 -6.57624 -4.05894 0
M  V30 4320 H 396.404 -5.91054 -3.65623 0
M  V30 4321 H 399.595 -3.82067 -2.70449 0
M  V30 4322 H 399.768 -5.43098 -3.53481 0
M  V30 4323 N 393.175 1.03435 -1.18907 0
M  V30 4324 C 394.452 1.73778 -0.89781 0
M  V30 4325 C 394.832 2.02458 0.597832 0
M  V30 4326 O 394.18 1.67482 1.55441 0
M  V30 4327 C 394.39 3.01845 -1.75187 0
M  V30 4328 C 395.738 3.7546 -1.9828 0
M  V30 4329 O 396.762 3.11759 -1.72293 0
M  V30 4330 O 395.621 4.89966 -2.42065 0
M  V30 4331 H 392.715 0.75651 -0.334098 0
M  V30 4332 H 395.261 1.09444 -1.29693 0
M  V30 4333 H 394.033 2.76836 -2.76545 0
M  V30 4334 H 393.656 3.73919 -1.35167 0
M  V30 4335 N 394.653 0.992116 1.22453 0
M  V30 4336 C 395.585 0.500024 2.23679 0
M  V30 4337 C 396.598 -0.404463 1.57696 0
M  V30 4338 O 397.787 -0.206722 1.77299 0
M  V30 4339 C 394.887 -0.294711 3.37616 0
M  V30 4340 C 394.06 0.605723 4.33186 0
M  V30 4341 C 393.119 -0.13717 5.26021 0
M  V30 4342 O 392.145 0.477164 5.67196 0
M  V30 4343 N 393.347 -1.4197 5.62872 0
M  V30 4344 H 396.112 1.37045 2.66531 0
M  V30 4345 H 393.673 0.866741 1.36745 0
M  V30 4346 H 395.665 -0.800329 3.96707 0
M  V30 4347 H 394.235 -1.06623 2.93854 0
M  V30 4348 H 393.455 1.29202 3.72425 0
M  V30 4349 H 394.743 1.21896 4.93983 0
M  V30 4350 H 394.141 -1.94015 5.31389 0
M  V30 4351 H 392.698 -1.87052 6.24383 0
M  V30 4352 N 396.131 -1.37776 0.765217 0
M  V30 4353 C 397.063 -2.28958 0.105361 0
M  V30 4354 C 398.076 -1.48316 -0.67128 0
M  V30 4355 O 399.265 -1.71046 -0.51045 0
M  V30 4356 C 396.365 -3.27421 -0.874569 0
M  V30 4357 C 395.538 -4.37132 -0.153123 0
M  V30 4358 C 394.597 -5.1571 -1.04547 0
M  V30 4359 O 393.623 -5.66896 -0.511672 0
M  V30 4360 N 394.825 -5.29808 -2.37243 0
M  V30 4361 H 397.59 -2.86227 0.888495 0
M  V30 4362 H 395.151 -1.49682 0.617 0
M  V30 4363 H 397.143 -3.7687 -1.47483 0
M  V30 4364 H 395.713 -2.70967 -1.55871 0
M  V30 4365 H 394.933 -3.89166 0.627975 0
M  V30 4366 H 396.221 -5.07625 0.345643 0
M  V30 4367 H 395.619 -4.89793 -2.83054 0
M  V30 4368 H 394.176 -5.82589 -2.9229 0
M  V30 4369 N 397.609 -0.515225 -1.4894 0
M  V30 4370 C 398.572 0.244681 -2.2789 0
M  V30 4371 C 399.572 0.881166 -1.34507 0
M  V30 4372 O 400.762 0.743497 -1.57537 0
M  V30 4373 C 397.894 1.35247 -3.12923 0
M  V30 4374 H 399.087 -0.448289 -2.96531 0
M  V30 4375 H 396.64 -0.270656 -1.53939 0
M  V30 4376 H 397.375 2.07916 -2.48881 0
M  V30 4377 H 397.16 0.901374 -3.81599 0
M  V30 4378 H 398.65 1.88737 -3.72516 0
M  V30 4379 N 399.087 1.5561 -0.249682 0
M  V30 4380 C 400.05 2.20217 0.635394 0
M  V30 4381 C 401.05 1.17227 1.10066 0
M  V30 4382 O 402.24 1.42292 1.00492 0
M  V30 4383 C 399.372 2.84794 1.87363 0
M  V30 4384 H 400.565 2.99814 0.0716752 0
M  V30 4385 H 398.118 1.563 -0.000153234 0
M  V30 4386 H 398.853 2.09142 2.47851 0
M  V30 4387 H 398.638 3.60241 1.5482 0
M  V30 4388 H 400.128 3.3423 2.5036 0
M  V30 4389 N 400.565 -0.0233959 1.57583 0
M  V30 4390 C 401.475 -1.03907 2.10334 0
M  V30 4391 C 402.491 -1.39257 1.04323 0
M  V30 4392 O 403.667 -1.48462 1.36091 0
M  V30 4393 C 400.732 -2.31938 2.57693 0
M  V30 4394 C 399.793 -2.03117 3.78209 0
M  V30 4395 C 399.026 -3.25043 4.233 0
M  V30 4396 O 399.249 -4.35916 3.67876 0
M  V30 4397 O 398.183 -3.10411 5.15683 0
M  V30 4398 H 402.009 -0.620748 2.97288 0
M  V30 4399 H 399.594 -0.240743 1.47448 0
M  V30 4400 H 401.476 -3.07196 2.88458 0
M  V30 4401 H 400.151 -2.73055 1.73847 0
M  V30 4402 H 399.058 -1.25408 3.52454 0
M  V30 4403 H 400.391 -1.66852 4.63056 0
M  V30 4404 N 402.043 -1.548 -0.295768 0
M  V30 4405 C 402.953 -1.89177 -1.38742 0
M  V30 4406 C 403.969 -0.786481 -1.55211 0
M  V30 4407 O 405.145 -1.08344 -1.69775 0
M  V30 4408 C 402.21 -2.13663 -2.73036 0
M  V30 4409 C 401.271 -3.37349 -2.65508 0
M  V30 4410 C 400.504 -3.60658 -3.93398 0
M  V30 4411 O 400.727 -2.86882 -4.93006 0
M  V30 4412 O 399.661 -4.54179 -3.94975 0
M  V30 4413 H 403.487 -2.82059 -1.12589 0
M  V30 4414 H 401.072 -1.41056 -0.492295 0
M  V30 4415 H 402.954 -2.3094 -3.52484 0
M  V30 4416 H 401.629 -1.23967 -2.99022 0
M  V30 4417 H 400.536 -3.25431 -1.84514 0
M  V30 4418 H 401.869 -4.27192 -2.44474 0
M  V30 4419 N 403.521 0.559213 -1.47345 0
M  V30 4420 C 404.937 0.884943 -1.32819 0
M  V30 4421 C 405.137 1.98988 -0.317173 0
M  V30 4422 O 404.193 2.51031 0.272011 0
M  V30 4423 C 405.506 1.28007 -2.72093 0
M  V30 4424 C 407.054 1.39161 -2.80363 0
M  V30 4425 C 407.529 1.82031 -4.20272 0
M  V30 4426 N 409.02 1.89185 -4.22804 0
M  V30 4427 C 409.755 2.2368 -5.27973 0
M  V30 4428 N 409.251 2.56802 -6.43447 0
M  V30 4429 N 411.044 2.24436 -5.15349 0
M  V30 4430 H 403.195 -0.170304 -2.11716 0
M  V30 4431 H 405.458 -0.0135247 -0.947904 0
M  V30 4432 H 405.164 0.542027 -3.47498 0
M  V30 4433 H 405.038 2.23665 -3.03733 0
M  V30 4434 H 407.425 2.12048 -2.05231 0
M  V30 4435 H 407.506 0.41696 -2.52379 0
M  V30 4436 H 407.15 1.09715 -4.95908 0
M  V30 4437 H 407.08 2.80495 -4.45679 0
M  V30 4438 H 409.571 1.65982 -3.39497 0
M  V30 4439 H 409.884 2.82144 -7.19454 0
M  V30 4440 H 408.229 2.54387 -6.46771 0
M  V30 4441 H 411.42 1.97998 -4.24163 0
M  V30 4442 H 411.593 2.50989 -5.97418 0
M  V30 4443 N 404.999 1.35443 0.805782 0
M  V30 4444 C 406.415 1.15499 1.10146 0
M  V30 4445 C 406.615 -0.0319975 2.01475 0
M  V30 4446 O 405.671 -0.70236 2.42535 0
M  V30 4447 C 406.984 2.45833 1.73166 0
M  V30 4448 C 408.532 2.52047 1.85583 0
M  V30 4449 C 409.007 3.82427 2.52019 0
M  V30 4450 N 410.498 3.83682 2.59504 0
M  V30 4451 C 411.233 4.81294 3.11679 0
M  V30 4452 N 410.729 5.89294 3.64287 0
M  V30 4453 N 412.522 4.6873 3.1024 0
M  V30 4454 H 404.673 2.11469 0.198678 0
M  V30 4455 H 406.936 0.93594 0.150731 0
M  V30 4456 H 406.642 3.32874 1.13526 0
M  V30 4457 H 406.516 2.6044 2.72857 0
M  V30 4458 H 408.903 1.65435 2.44367 0
M  V30 4459 H 408.984 2.41354 0.847455 0
M  V30 4460 H 408.628 4.69437 1.93885 0
M  V30 4461 H 408.558 3.90409 3.53395 0
M  V30 4462 H 411.049 3.05648 2.22234 0
M  V30 4463 H 411.362 6.59768 4.02401 0
M  V30 4464 H 409.707 5.92985 3.62483 0
M  V30 4465 H 412.898 3.83496 2.68419 0
M  V30 4466 H 413.071 5.44965 3.50596 0
M  V30 4467 N 406.477 -1.02803 1.19454 0
M  V30 4468 C 407.893 -1.28473 0.946937 0
M  V30 4469 C 408.093 -1.97881 -0.380202 0
M  V30 4470 O 407.149 -2.26719 -1.11151 0
M  V30 4471 C 408.462 -2.13099 2.12154 0
M  V30 4472 C 410.01 -2.26404 2.16126 0
M  V30 4473 C 410.485 -3.14402 3.33039 0
M  V30 4474 N 411.976 -3.21991 3.32981 0
M  V30 4475 C 412.711 -3.90272 4.20089 0
M  V30 4476 N 412.207 -4.60777 5.17355 0
M  V30 4477 N 414 -3.8668 4.07964 0
M  V30 4478 H 406.151 -0.561665 2.04839 0
M  V30 4479 H 408.414 -0.310438 0.89573 0
M  V30 4480 H 408.12 -1.69422 3.08203 0
M  V30 4481 H 407.994 -3.13813 2.09287 0
M  V30 4482 H 410.381 -2.69311 1.20647 0
M  V30 4483 H 410.462 -1.25237 2.23045 0
M  V30 4484 H 410.106 -2.72204 4.28798 0
M  V30 4485 H 410.036 -4.1563 3.23356 0
M  V30 4486 H 412.527 -2.71778 2.62574 0
M  V30 4487 H 412.84 -5.10513 5.80169 0
M  V30 4488 H 411.185 -4.5964 5.21302 0
M  V30 4489 H 414.376 -3.30739 3.31254 0
M  V30 4490 H 414.549 -4.39621 4.76064 0
M  V30 4491 N 407.956 -0.998596 -1.21925 0
M  V30 4492 C 409.233 -0.593401 -1.86382 0
M  V30 4493 C 409.613 0.92916 -1.89552 0
M  V30 4494 O 408.961 1.81347 -1.39017 0
M  V30 4495 C 409.171 -1.22039 -3.26967 0
M  V30 4496 C 410.519 -1.32449 -4.03413 0
M  V30 4497 O 411.543 -1.17522 -3.36254 0
M  V30 4498 O 410.402 -1.56395 -5.23644 0
M  V30 4499 H 407.496 -0.202385 -0.801854 0
M  V30 4500 H 410.042 -1.09484 -1.29659 0
M  V30 4501 H 408.814 -2.26158 -3.19325 0
M  V30 4502 H 408.437 -0.704906 -3.91301 0
M  V30 4503 N 409.434 1.37368 -0.772513 0
M  V30 4504 C 410.681 1.99673 -0.337182 0
M  V30 4505 C 411.009 1.61324 1.0865 0
M  V30 4506 O 410.264 0.851377 1.7621 0
M  V30 4507 C 410.563 3.54817 -0.428876 0
M  V30 4508 C 410.229 4.12936 -1.81092 0
M  V30 4509 C 408.891 4.28523 -2.1891 0
M  V30 4510 C 411.243 4.44801 -2.71664 0
M  V30 4511 C 408.571 4.73277 -3.46735 0
M  V30 4512 C 410.923 4.90981 -3.98899 0
M  V30 4513 C 409.587 5.04773 -4.36761 0
M  V30 4514 H 408.857 0.730656 -0.123384 0
M  V30 4515 H 411.504 1.64124 -0.986686 0
M  V30 4516 H 409.809 3.90618 0.304167 0
M  V30 4517 H 411.506 4.00933 -0.0733334 0
M  V30 4518 H 408.096 4.01233 -1.50699 0
M  V30 4519 H 412.28 4.32344 -2.43706 0
M  V30 4520 H 407.536 4.82142 -3.75964 0
M  V30 4521 H 411.71 5.14603 -4.69208 0
M  V30 4522 H 409.337 5.39211 -5.35868 0
M  V30 4523 N 410.912 0.523116 1.48665 0
M  V30 4524 C 411.842 -0.23231 2.32342 0
M  V30 4525 C 412.823 -0.941637 1.41659 0
M  V30 4526 O 414.008 -0.928751 1.70552 0
M  V30 4527 C 411.138 -1.28387 3.22698 0
M  V30 4528 C 410.092 -0.693098 4.22351 0
M  V30 4529 C 409.418 -1.8468 5.01794 0
M  V30 4530 C 410.718 0.33063 5.21252 0
M  V30 4531 H 412.412 0.466192 2.95748 0
M  V30 4532 H 409.958 0.225643 1.42221 0
M  V30 4533 H 411.911 -1.82024 3.80059 0
M  V30 4534 H 410.635 -2.01186 2.57278 0
M  V30 4535 H 409.294 -0.178299 3.66166 0
M  V30 4536 H 408.942 -2.56301 4.32804 0
M  V30 4537 H 408.642 -1.45747 5.69238 0
M  V30 4538 H 410.166 -2.38709 5.62006 0
M  V30 4539 H 411.58 -0.118407 5.73178 0
M  V30 4540 H 409.977 0.636974 5.9671 0
M  V30 4541 H 411.047 1.23883 4.68808 0
M  V30 4542 N 412.39 -1.55475 0.257931 0
M  V30 4543 C 413.322 -2.19192 -0.669881 0
M  V30 4544 C 414.335 -1.17148 -1.1305 0
M  V30 4545 O 415.524 -1.43959 -1.05537 0
M  V30 4546 C 412.624 -2.79016 -1.92363 0
M  V30 4547 C 411.797 -4.06586 -1.61265 0
M  V30 4548 C 410.856 -4.50622 -2.7171 0
M  V30 4549 O 409.882 -5.16765 -2.38627 0
M  V30 4550 N 411.084 -4.19325 -4.01431 0
M  V30 4551 H 413.849 -2.99441 -0.124635 0
M  V30 4552 H 411.41 -1.6171 0.0783311 0
M  V30 4553 H 413.402 -3.05427 -2.65511 0
M  V30 4554 H 411.972 -2.0286 -2.37837 0
M  V30 4555 H 411.192 -3.87646 -0.715811 0
M  V30 4556 H 412.48 -4.89737 -1.37967 0
M  V30 4557 H 411.878 -3.66247 -4.31138 0
M  V30 4558 H 410.435 -4.50547 -4.7101 0
M  V30 4559 N 413.868 0.0150385 -1.57593 0
M  V30 4560 C 414.801 1.04475 -2.0288 0
M  V30 4561 C 415.779 1.3436 -0.915764 0
M  V30 4562 O 416.963 1.46779 -1.18271 0
M  V30 4563 C 414.09 2.37608 -2.41371 0
M  V30 4564 C 413.136 2.23487 -3.63257 0
M  V30 4565 S 413.969 1.57505 -5.11813 0
M  V30 4566 C 415.125 2.921 -5.5356 0
M  V30 4567 H 415.358 0.65907 -2.89903 0
M  V30 4568 H 412.891 0.225452 -1.52745 0
M  V30 4569 H 414.849 3.14165 -2.64217 0
M  V30 4570 H 413.51 2.7332 -1.54775 0
M  V30 4571 H 412.703 3.21802 -3.87891 0
M  V30 4572 H 412.305 1.55074 -3.40335 0
M  V30 4573 H 414.597 3.88419 -5.55101 0
M  V30 4574 H 415.54 2.72184 -6.53698 0
M  V30 4575 H 415.948 2.95318 -4.8109 0
M  V30 4576 N 415.346 1.54954 0.287554 0
M  V30 4577 C 416.592 1.75132 1.02257 0
M  V30 4578 C 416.925 0.542858 1.86458 0
M  V30 4579 O 416.2 -0.459856 1.88986 0
M  V30 4580 C 416.483 3.04812 1.91733 0
M  V30 4581 C 416.336 4.35985 1.10622 0
M  V30 4582 C 417.655 3.30438 2.90687 0
M  V30 4583 H 414.774 0.637194 0.370341 0
M  V30 4584 H 417.416 1.87678 0.296111 0
M  V30 4585 H 415.566 2.94247 2.53675 0
M  V30 4586 H 417.238 4.58487 0.508636 0
M  V30 4587 H 415.481 4.31865 0.409271 0
M  V30 4588 H 416.152 5.23017 1.76513 0
M  V30 4589 H 418.628 3.40701 2.38877 0
M  V30 4590 H 417.504 4.22467 3.50447 0
M  V30 4591 H 417.765 2.49377 3.65053 0
M  V30 4592 N 416.824 -0.551391 1.4764 0
M  V30 4593 C 417.754 -1.66757 1.63445 0
M  V30 4594 C 418.735 -1.63077 0.483742 0
M  V30 4595 O 419.92 -1.80607 0.71377 0
M  V30 4596 C 417.05 -3.05387 1.65396 0
M  V30 4597 C 416.004 -3.23918 2.79752 0
M  V30 4598 C 415.33 -4.63393 2.66779 0
M  V30 4599 C 416.63 -3.08735 4.21284 0
M  V30 4600 H 418.324 -1.53786 2.56886 0
M  V30 4601 H 415.87 -0.738415 1.23626 0
M  V30 4602 H 417.823 -3.83325 1.75043 0
M  V30 4603 H 416.547 -3.19332 0.685195 0
M  V30 4604 H 415.206 -2.48391 2.69625 0
M  V30 4605 H 414.854 -4.74144 1.67918 0
M  V30 4606 H 414.554 -4.7674 3.43501 0
M  V30 4607 H 416.078 -5.43458 2.78364 0
M  V30 4608 H 417.492 -3.76484 4.32357 0
M  V30 4609 H 415.889 -3.33588 4.98838 0
M  V30 4610 H 416.959 -2.0541 4.39243 0
M  V30 4611 N 418.302 -1.35869 -0.798587 0
M  V30 4612 C 419.579 -1.20145 -1.54352 0
M  V30 4613 C 419.959 0.216161 -2.0999 0
M  V30 4614 O 419.307 1.22068 -1.93162 0
M  V30 4615 C 419.517 -2.27602 -2.64572 0
M  V30 4616 C 420.865 -2.63811 -3.32699 0
M  V30 4617 O 421.889 -2.26576 -2.74849 0
M  V30 4618 O 420.748 -3.27866 -4.37226 0
M  V30 4619 H 417.842 -0.467248 -0.682355 0
M  V30 4620 H 420.388 -1.47574 -0.837859 0
M  V30 4621 H 419.16 -3.2265 -2.21388 0
M  V30 4622 H 418.783 -2.01488 -3.42766 0
M  V30 4623 N 419.78 1.02168 -1.19998 0
M  V30 4624 C 420.743 2.08765 -0.94604 0
M  V30 4625 C 421.743 1.60618 0.0763846 0
M  V30 4626 O 422.933 1.73472 -0.159135 0
M  V30 4627 C 420.065 3.38262 -0.423255 0
M  V30 4628 H 421.258 2.32726 -1.89153 0
M  V30 4629 H 418.811 1.1889 -1.01464 0
M  V30 4630 H 419.546 3.19974 0.527938 0
M  V30 4631 H 419.331 3.74532 -1.16053 0
M  V30 4632 H 420.821 4.16759 -0.264911 0
M  V30 4633 N 421.258 1.00505 1.21394 0
M  V30 4634 C 422.674 0.717873 1.42544 0
M  V30 4635 C 422.874 -0.706936 1.88692 0
M  V30 4636 O 421.93 -1.47627 2.04847 0
M  V30 4637 C 423.243 1.73377 2.45684 0
M  V30 4638 C 424.791 1.75059 2.59467 0
M  V30 4639 C 425.266 2.75545 3.6584 0
M  V30 4640 N 426.757 2.74213 3.73311 0
M  V30 4641 C 427.492 3.48626 4.55245 0
M  V30 4642 N 426.988 4.32678 5.41075 0
M  V30 4643 N 428.781 3.37276 4.49668 0
M  V30 4644 H 420.932 1.92506 0.897503 0
M  V30 4645 H 423.195 0.830919 0.456375 0
M  V30 4646 H 422.901 2.75395 2.18748 0
M  V30 4647 H 422.775 1.53647 3.44489 0
M  V30 4648 H 425.162 0.737337 2.8574 0
M  V30 4649 H 425.243 1.98861 1.60897 0
M  V30 4650 H 424.887 3.77028 3.40313 0
M  V30 4651 H 424.817 2.49009 4.64007 0
M  V30 4652 H 427.308 2.13234 3.11993 0
M  V30 4653 H 427.621 4.86253 6.00648 0
M  V30 4654 H 425.966 4.3676 5.40616 0
M  V30 4655 H 429.157 2.71043 3.81646 0
M  V30 4656 H 429.33 3.95524 5.13288 0
M  V30 4657 N 422.737 -1.36956 0.779787 0
M  V30 4658 C 423.687 -2.27539 0.144892 0
M  V30 4659 C 424.671 -1.46493 -0.665488 0
M  V30 4660 O 425.863 -1.68968 -0.527141 0
M  V30 4661 C 422.992 -3.35512 -0.727082 0
M  V30 4662 C 422.078 -4.24001 0.0915642 0
M  V30 4663 N 422.469 -4.92757 1.14125 0
M  V30 4664 C 420.767 -4.45807 -0.131141 0
M  V30 4665 C 421.468 -5.58138 1.6388 0
M  V30 4666 N 420.444 -5.35241 0.94962 0
M  V30 4667 H 424.246 -2.78176 0.948446 0
M  V30 4668 H 421.76 -1.50169 0.618315 0
M  V30 4669 H 423.757 -3.99324 -1.19776 0
M  V30 4670 H 422.417 -2.86431 -1.52929 0
M  V30 4671 H 423.428 -4.94984 1.52353 0
M  V30 4672 H 420.105 -4.07582 -0.904621 0
M  V30 4673 H 421.495 -6.23071 2.51461 0
M  V30 4674 N 424.215 -0.530993 -1.48385 0
M  V30 4675 C 425.44 0.000729535 -2.074 0
M  V30 4676 C 425.865 1.27298 -1.3848 0
M  V30 4677 O 425.223 1.75599 -0.451081 0
M  V30 4678 C 425.271 0.206697 -3.60007 0
M  V30 4679 O 424.375 1.27514 -3.92191 0
M  V30 4680 H 423.716 -0.039583 -0.662819 0
M  V30 4681 H 426.246 -0.739194 -1.9078 0
M  V30 4682 H 426.256 0.42904 -4.05738 0
M  V30 4683 H 424.931 -0.722675 -4.09573 0
M  V30 4684 H 423.508 1.03537 -3.58238 0
M  V30 4685 N 425.693 1.55336 -0.266172 0
M  V30 4686 C 426.656 2.20878 0.612001 0
M  V30 4687 C 427.656 1.18388 1.08816 0
M  V30 4688 O 428.846 1.4335 0.989774 0
M  V30 4689 C 425.978 2.86765 1.84332 0
M  V30 4690 H 427.171 2.99873 0.0398718 0
M  V30 4691 H 424.724 1.56291 -0.0167309 0
M  V30 4692 H 425.459 2.11759 2.45619 0
M  V30 4693 H 425.244 3.61862 1.5099 0
M  V30 4694 H 426.734 3.36867 2.46801 0
M  V30 4695 N 427.171 -0.0066808 1.57599 0
M  V30 4696 C 428.396 -0.707738 1.94951 0
M  V30 4697 C 428.821 -1.66882 0.867868 0
M  V30 4698 O 428.179 -1.80457 -0.17458 0
M  V30 4699 C 428.227 -1.42162 3.31394 0
M  V30 4700 O 427.331 -2.53578 3.25226 0
M  V30 4701 H 426.672 -0.188752 0.636607 0
M  V30 4702 H 429.202 0.0445193 2.04552 0
M  V30 4703 H 429.212 -1.78655 3.66806 0
M  V30 4704 H 427.887 -0.716903 4.09675 0
M  V30 4705 H 426.464 -2.19463 3.01481 0
M  V30 4706 N 428.649 -1.55105 -0.279332 0
M  V30 4707 C 430.06 -1.66186 -0.850832 0
M  V30 4708 C 430.411 -0.584707 -1.87285 0
M  V30 4709 O 429.536 0.274919 -2.14647 0
M  V30 4710 C 430.131 -3.01264 -1.55001 0
M  V30 4711 C 428.69 -3.14394 -2.06963 0
M  V30 4712 C 427.837 -2.61959 -0.909536 0
M  V30 4713 H 430.788 -1.58602 -0.0558235 0
M  V30 4714 H 430.809 -2.93899 -2.41669 0
M  V30 4715 H 430.321 -3.7964 -0.805931 0
M  V30 4716 H 428.422 -2.4078 -2.84352 0
M  V30 4717 H 428.535 -4.20867 -2.28928 0
M  V30 4718 H 426.899 -2.18957 -1.30116 0
M  V30 4719 H 427.682 -3.42833 -0.179062 0
M  V30 4720 N 430.127 0.543554 -1.4793 0
M  V30 4721 C 431.06 1.66556 -1.55995 0
M  V30 4722 C 432.038 1.57315 -0.411205 0
M  V30 4723 O 433.222 1.7798 -0.620922 0
M  V30 4724 C 430.349 3.04883 -1.47527 0
M  V30 4725 C 429.395 3.32526 -2.67074 0
M  V30 4726 S 430.228 3.20282 -4.29162 0
M  V30 4727 C 431.384 4.61079 -4.23269 0
M  V30 4728 H 431.617 1.59462 -2.50917 0
M  V30 4729 H 429.15 0.725456 -1.36296 0
M  V30 4730 H 431.108 3.84665 -1.43328 0
M  V30 4731 H 429.769 3.09429 -0.539665 0
M  V30 4732 H 428.962 4.33403 -2.5725 0
M  V30 4733 H 428.564 2.60389 -2.68466 0
M  V30 4734 H 430.856 5.52318 -3.92365 0
M  V30 4735 H 431.799 4.75959 -5.24279 0
M  V30 4736 H 432.207 4.39766 -3.5393 0
M  V30 4737 N 431.605 1.3629 0.791371 0
M  V30 4738 C 432.853 1.30154 1.5461 0
M  V30 4739 C 433.174 -0.119409 1.94634 0
M  V30 4740 O 432.444 -1.05924 1.64794 0
M  V30 4741 H 431.024 0.478784 0.573389 0
M  V30 4742 H 433.686 1.70565 0.94306 0
M  V30 4743 H 432.782 1.92762 2.45457 0
M  V30 4744 N 433.083 -1.0153 1.20538 0
M  V30 4745 C 434.329 -1.75408 1.01783 0
M  V30 4746 C 434.662 -1.88943 -0.448814 0
M  V30 4747 O 433.937 -1.4162 -1.33319 0
M  V30 4748 C 434.22 -3.17255 1.70356 0
M  V30 4749 C 434.073 -3.11508 3.24473 0
M  V30 4750 C 435.392 -4.15955 1.43769 0
M  V30 4751 H 432.511 -0.636713 0.371167 0
M  V30 4752 H 435.153 -1.18436 1.4857 0
M  V30 4753 H 433.303 -3.65898 1.30578 0
M  V30 4754 H 434.975 -2.70658 3.73553 0
M  V30 4755 H 433.218 -2.4887 3.55311 0
M  V30 4756 H 433.889 -4.11784 3.67611 0
M  V30 4757 H 436.365 -3.75973 1.7828 0
M  V30 4758 H 435.241 -5.13368 1.94279 0
M  V30 4759 H 435.502 -4.40586 0.365564 0
M  V30 4760 N 434.561 -1.01147 -1.20859 0
M  V30 4761 C 435.493 -0.535546 -2.22855 0
M  V30 4762 C 436.506 0.379323 -1.58319 0
M  V30 4763 O 437.695 0.178489 -1.77605 0
M  V30 4764 C 434.795 0.240962 -3.38042 0
M  V30 4765 C 433.968 -0.674562 -4.32167 0
M  V30 4766 C 433.027 0.053467 -5.26173 0
M  V30 4767 O 432.053 -0.567339 -5.66366 0
M  V30 4768 N 433.255 1.32997 -5.65059 0
M  V30 4769 H 436.02 -1.41268 -2.64317 0
M  V30 4770 H 433.581 -0.888386 -1.35349 0
M  V30 4771 H 435.573 0.737115 -3.97931 0
M  V30 4772 H 434.143 1.01935 -2.95513 0
M  V30 4773 H 433.363 -1.35111 -3.70322 0
M  V30 4774 H 434.651 -1.2974 -4.91981 0
M  V30 4775 H 434.049 1.85536 -5.34409 0
M  V30 4776 H 432.606 1.77095 -6.2728 0
M  V30 4777 N 436.039 1.36541 -0.78704 0
M  V30 4778 C 437.316 1.9355 -0.282424 0
M  V30 4779 C 437.696 1.71919 1.22503 0
M  V30 4780 O 437.044 1.07677 2.01539 0
M  V30 4781 C 437.254 3.4246 -0.672462 0
M  V30 4782 C 438.602 4.19582 -0.650863 0
M  V30 4783 O 439.626 3.50889 -0.612789 0
M  V30 4784 O 438.485 5.42106 -0.691623 0
M  V30 4785 H 435.579 0.824091 -0.0693 0
M  V30 4786 H 438.125 1.45736 -0.869423 0
M  V30 4787 H 436.897 3.51851 -1.71221 0
M  V30 4788 H 436.52 3.97556 -0.0592211 0
M  V30 4789 N 437.518 0.538854 1.48102 0
M  V30 4790 C 438.765 0.0080018 2.02498 0
M  V30 4791 C 439.093 -1.33437 1.41509 0
M  V30 4792 O 438.348 -1.87709 0.553507 0
M  V30 4793 C 438.647 -0.153808 3.57069 0
M  V30 4794 C 438.313 1.11533 4.36888 0
M  V30 4795 C 436.975 1.46314 4.58417 0
M  V30 4796 C 439.327 1.95718 4.83057 0
M  V30 4797 C 436.655 2.6516 5.23361 0
M  V30 4798 C 439.007 3.13751 5.49312 0
M  V30 4799 C 437.671 3.48866 5.69077 0
M  V30 4800 H 436.941 0.00292807 0.740994 0
M  V30 4801 H 439.588 0.706668 1.77984 0
M  V30 4802 H 437.893 -0.935309 3.80472 0
M  V30 4803 H 439.59 -0.579607 3.96789 0
M  V30 4804 H 436.18 0.834484 4.20398 0
M  V30 4805 H 440.364 1.70158 4.66219 0
M  V30 4806 H 435.62 2.92558 5.36861 0
M  V30 4807 H 439.794 3.79282 5.84053 0
M  V30 4808 H 437.421 4.41054 6.19173 0
M  V30 4809 N 438.996 -1.55193 0.274407 0
M  V30 4810 C 440.273 -1.91584 -0.394331 0
M  V30 4811 C 440.653 -1.19858 -1.73774 0
M  V30 4812 O 440.001 -0.3252 -2.26174 0
M  V30 4813 C 440.211 -3.4487 -0.535311 0
M  V30 4814 C 441.559 -4.16636 -0.818534 0
M  V30 4815 O 442.583 -3.5076 -0.620146 0
M  V30 4816 O 441.442 -5.33209 -1.19792 0
M  V30 4817 H 438.536 -0.798349 -0.215794 0
M  V30 4818 H 441.082 -1.66646 0.320507 0
M  V30 4819 H 439.854 -3.89145 0.410141 0
M  V30 4820 H 439.477 -3.75759 -1.29964 0
M  V30 4821 N 440.474 -0.00167713 -1.576 0
M  V30 4822 C 441.723 0.682021 -1.89819 0
M  V30 4823 C 442.036 1.74844 -0.876871 0
M  V30 4824 O 443.242 2.48688 -1.08934 0
M  V30 4825 C 441.698 1.26425 -3.36964 0
M  V30 4826 C 441.306 0.232568 -4.47396 0
M  V30 4827 C 443.05 1.92604 -3.78291 0
M  V30 4828 C 440.957 0.824882 -5.85619 0
M  V30 4829 H 439.887 0.258499 -0.708304 0
M  V30 4830 H 442.538 -0.0624957 -1.83394 0
M  V30 4831 H 440.92 2.05949 -3.38232 0
M  V30 4832 H 442.094 -0.5382 -4.57646 0
M  V30 4833 H 440.409 -0.32888 -4.15099 0
M  V30 4834 H 443.006 2.37827 -4.78897 0
M  V30 4835 H 443.349 2.75732 -3.11894 0
M  V30 4836 H 443.882 1.19812 -3.79328 0
M  V30 4837 H 440.621 0.0323542 -6.55492 0
M  V30 4838 H 440.141 1.56477 -5.79029 0
M  V30 4839 H 441.82 1.32301 -6.33329 0
M  V30 4840 N 441.952 1.55251 0.271103 0
M  V30 4841 C 443.198 1.76207 1.00394 0
M  V30 4842 C 443.531 0.562604 1.85872 0
M  V30 4843 O 442.806 -0.439785 1.89463 0
M  V30 4844 C 443.089 3.06828 1.8849 0
M  V30 4845 C 442.942 4.37134 1.05992 0
M  V30 4846 C 444.261 3.33503 2.87165 0
M  V30 4847 H 441.38 0.641086 0.363562 0
M  V30 4848 H 444.022 1.87982 0.276189 0
M  V30 4849 H 442.172 2.96921 2.5054 0
M  V30 4850 H 443.844 4.59001 0.459978 0
M  V30 4851 H 442.087 4.32275 0.363443 0
M  V30 4852 H 442.758 5.2486 1.70955 0
M  V30 4853 H 445.234 3.43215 2.3525 0
M  V30 4854 H 444.11 4.2616 3.45946 0
M  V30 4855 H 444.371 2.53235 3.62387 0
M  V30 4856 N 443.43 -0.535701 1.48216 0
M  V30 4857 C 444.846 -0.863701 1.3421 0
M  V30 4858 C 445.046 -1.98458 0.34879 0
M  V30 4859 O 444.102 -2.51432 -0.23204 0
M  V30 4860 C 445.415 -1.23662 2.74095 0
M  V30 4861 C 446.963 -1.34683 2.82541 0
M  V30 4862 C 447.438 -1.75322 4.23115 0
M  V30 4863 N 448.929 -1.82434 4.2576 0
M  V30 4864 C 449.664 -2.15252 5.31464 0
M  V30 4865 N 449.16 -2.46533 6.47452 0
M  V30 4866 N 450.953 -2.16209 5.18855 0
M  V30 4867 H 443.104 0.203965 2.11418 0
M  V30 4868 H 445.367 0.0286033 0.947568 0
M  V30 4869 H 445.073 -0.486674 3.48316 0
M  V30 4870 H 444.947 -2.18805 3.07253 0
M  V30 4871 H 447.334 -2.08756 2.08579 0
M  V30 4872 H 447.415 -0.376756 2.5301 0
M  V30 4873 H 447.059 -1.01812 4.97591 0
M  V30 4874 H 446.989 -2.7337 4.50085 0
M  V30 4875 H 449.48 -1.6056 3.42095 0
M  V30 4876 H 449.793 -2.70662 7.23852 0
M  V30 4877 H 448.138 -2.44065 6.50736 0
M  V30 4878 H 451.329 -1.91224 4.2726 0
M  V30 4879 H 451.502 -2.41453 6.01335 0
M  V30 4880 N 444.908 -1.36708 -0.784132 0
M  V30 4881 C 446.185 -1.21776 -1.53069 0
M  V30 4882 C 446.565 0.193876 -2.10208 0
M  V30 4883 O 445.913 1.20012 -1.94446 0
M  V30 4884 C 446.123 -2.30395 -2.62143 0
M  V30 4885 C 447.471 -2.67325 -3.29882 0
M  V30 4886 O 448.495 -2.29478 -2.7243 0
M  V30 4887 O 447.354 -3.32485 -4.33724 0
M  V30 4888 H 444.448 -0.474459 -0.677361 0
M  V30 4889 H 446.994 -1.48454 -0.82216 0
M  V30 4890 H 445.766 -3.2498 -2.17953 0
M  V30 4891 H 445.389 -2.05112 -3.40609 0
M  V30 4892 N 446.386 1.0089 -1.21074 0
M  V30 4893 C 447.632 1.74866 -1.02712 0
M  V30 4894 C 447.965 1.89178 0.438787 0
M  V30 4895 O 447.24 1.42325 1.32567 0
M  V30 4896 C 447.523 3.16347 -1.72036 0
M  V30 4897 C 447.376 3.09782 -3.26121 0
M  V30 4898 C 448.695 4.15187 -1.45973 0
M  V30 4899 H 445.814 0.634736 -0.374539 0
M  V30 4900 H 448.456 1.17646 -1.49196 0
M  V30 4901 H 446.606 3.65201 -1.32517 0
M  V30 4902 H 448.278 2.68673 -3.74983 0
M  V30 4903 H 446.521 2.46982 -3.56626 0
M  V30 4904 H 447.192 4.09829 -3.6979 0
M  V30 4905 H 449.668 3.75022 -1.80272 0
M  V30 4906 H 448.544 5.12331 -1.96999 0
M  V30 4907 H 448.805 4.40386 -0.388924 0
M  V30 4908 N 447.864 1.01787 1.20321 0
M  V30 4909 C 449.111 0.707936 1.89722 0
M  V30 4910 C 449.439 -0.762535 1.78929 0
M  V30 4911 O 448.694 -1.56977 1.16861 0
M  V30 4912 C 448.993 1.09076 3.40349 0
M  V30 4913 C 448.659 2.55765 3.71342 0
M  V30 4914 C 447.321 2.95845 3.79511 0
M  V30 4915 C 449.673 3.50723 3.85542 0
M  V30 4916 C 447.001 4.2982 3.99339 0
M  V30 4917 C 449.353 4.84387 4.06881 0
M  V30 4918 C 448.017 5.24172 4.1328 0
M  V30 4919 H 447.287 0.259052 0.694243 0
M  V30 4920 H 449.934 1.27868 1.42555 0
M  V30 4921 H 448.239 0.438453 3.89339 0
M  V30 4922 H 449.936 0.828636 3.92345 0
M  V30 4923 H 446.526 2.2371 3.65584 0
M  V30 4924 H 450.71 3.20916 3.78585 0
M  V30 4925 H 445.966 4.60196 4.02529 0
M  V30 4926 H 450.14 5.57891 4.1681 0
M  V30 4927 H 447.767 6.27997 4.28396 0
M  V30 4928 N 449.342 -1.36122 0.79427 0
M  V30 4929 C 450.567 -2.03891 0.379871 0
M  V30 4930 C 450.992 -1.59488 -0.997251 0
M  V30 4931 O 450.35 -0.765652 -1.64339 0
M  V30 4932 C 450.398 -3.57687 0.457442 0
M  V30 4933 O 449.502 -4.08931 -0.5338 0
M  V30 4934 H 448.843 -0.6443 0.160541 0
M  V30 4935 H 451.373 -1.73976 1.07673 0
M  V30 4936 H 451.383 -4.06721 0.322792 0
M  V30 4937 H 450.058 -3.89357 1.46199 0
M  V30 4938 H 448.635 -3.71154 -0.360409 0
M  V30 4939 N 450.82 -0.546701 -1.47814 0
M  V30 4940 C 452.045 -0.021268 -2.07389 0
M  V30 4941 C 452.47 1.25822 -1.39822 0
M  V30 4942 O 451.828 1.75111 -0.46968 0
M  V30 4943 C 451.876 0.168502 -3.60206 0
M  V30 4944 O 450.98 1.23347 -3.93522 0
M  V30 4945 H 450.321 -0.0466108 -0.662362 0
M  V30 4946 H 452.851 -0.759387 -1.89985 0
M  V30 4947 H 452.861 0.385982 -4.0617 0
M  V30 4948 H 451.536 -0.766075 -4.08784 0
M  V30 4949 H 450.113 0.997319 -3.59316 0
M  V30 4950 N 452.299 1.55045 -0.282633 0
M  V30 4951 C 453.527 2.04168 0.33512 0
M  V30 4952 C 453.942 1.16071 1.48906 0
M  V30 4953 O 453.299 0.182391 1.81586 0
M  V30 4954 C 453.35 3.52332 0.808957 0
M  V30 4955 O 453.071 4.37078 -0.299038 0
M  V30 4956 C 454.572 4.17375 1.49375 0
M  V30 4957 H 451.792 0.666744 0.0754543 0
M  V30 4958 H 454.336 2.00205 -0.416918 0
M  V30 4959 H 452.491 3.56715 1.51106 0
M  V30 4960 H 452.905 5.24458 0.0665514 0
M  V30 4961 H 454.379 5.22627 1.77664 0
M  V30 4962 H 454.856 3.65999 2.42778 0
M  V30 4963 H 455.462 4.17016 0.835305 0
M  V30 4964 N 453.777 0.010035 1.57597 0
M  V30 4965 C 455.025 -0.671371 1.90623 0
M  V30 4966 C 455.346 -1.73753 0.885151 0
M  V30 4967 O 454.616 -1.95752 -0.0760611 0
M  V30 4968 H 453.196 -0.250968 0.703579 0
M  V30 4969 H 455.858 0.0533325 1.94827 0
M  V30 4970 H 454.954 -1.13626 2.90681 0
M  V30 4971 N 455.255 -1.55392 -0.262866 0
M  V30 4972 C 456.495 -1.78231 -1.00064 0
M  V30 4973 C 456.859 -0.576966 -1.83126 0
M  V30 4974 O 458.06 -0.683809 -2.59957 0
M  V30 4975 C 456.331 -3.05701 -1.85153 0
M  V30 4976 S 457.89 -3.49699 -2.65058 0
M  V30 4977 H 454.708 -0.626138 -0.336856 0
M  V30 4978 H 457.31 -1.93626 -0.27005 0
M  V30 4979 H 456.014 -3.91511 -1.23074 0
M  V30 4980 H 455.545 -2.93 -2.62515 0
M  V30 4981 H 457.56 -3.09772 -3.87629 0
M  V30 4982 N 456.733 0.527833 -1.48498 0
M  V30 4983 C 457.68 1.6322 -1.6318 0
M  V30 4984 C 458.65 1.59199 -0.473815 0
M  V30 4985 O 459.835 1.77591 -0.697563 0
M  V30 4986 C 456.975 3.01474 -1.67951 0
M  V30 4987 C 456.088 3.15713 -2.94871 0
M  V30 4988 C 455.223 4.44539 -2.90789 0
M  V30 4989 C 454.262 4.52315 -4.12404 0
M  V30 4990 N 453.399 5.72533 -4.06387 0
M  V30 4991 H 458.239 1.50011 -2.57489 0
M  V30 4992 H 455.776 0.730298 -1.27691 0
M  V30 4993 H 457.734 3.81572 -1.68698 0
M  V30 4994 H 456.364 3.1345 -0.771306 0
M  V30 4995 H 455.416 2.28854 -3.03859 0
M  V30 4996 H 456.728 3.1732 -3.8485 0
M  V30 4997 H 455.882 5.3293 -2.89949 0
M  V30 4998 H 454.621 4.45457 -1.98542 0
M  V30 4999 H 453.626 3.62331 -4.13517 0
M  V30 5000 H 454.851 4.53134 -5.05812 0
M  V30 5001 H 452.797 5.74344 -3.16962 0
M  V30 5002 H 452.714 5.75643 -4.90073 0
M  V30 5003 H 453.982 6.63204 -4.0961 0
M  V30 5004 N 458.211 1.37122 0.776871 0
M  V30 5005 C 459.622 1.28667 1.35284 0
M  V30 5006 C 459.973 -0.0680035 1.96082 0
M  V30 5007 O 459.098 -0.969743 1.93455 0
M  V30 5008 C 459.693 2.32997 2.45963 0
M  V30 5009 C 458.252 2.28191 2.99342 0
M  V30 5010 C 457.399 2.17101 1.72517 0
M  V30 5011 H 460.35 1.47819 0.577527 0
M  V30 5012 H 460.371 1.97366 3.2531 0
M  V30 5013 H 459.883 3.3158 2.01684 0
M  V30 5014 H 457.984 1.33115 3.4801 0
M  V30 5015 H 458.097 3.21397 3.55304 0
M  V30 5016 H 456.461 1.63562 1.95242 0
M  V30 5017 H 457.244 3.17591 1.30348 0
M  V30 5018 N 459.689 -1.00246 1.21608 0
M  V30 5019 C 460.637 -2.11193 0.97469 0
M  V30 5020 C 461.631 -1.69216 -0.0789303 0
M  V30 5021 O 462.837 -1.79853 0.0726806 0
M  V30 5022 H 459.212 -0.690455 0.297953 0
M  V30 5023 H 461.183 -2.2873 1.91638 0
M  V30 5024 C 459.932 -3.43182 0.558717 0
M  V30 5025 H 459.255 -3.75918 1.3611 0
M  V30 5026 H 460.695 -4.21823 0.429154 0
M  V30 5027 C 459.154 -3.28882 -0.730648 0
M  V30 5028 O 459.684 -3.59835 -1.78554 0
M  V30 5029 N 457.89 -2.8209 -0.698131 0
M  V30 5030 H 457.437 -2.57099 0.16061 0
M  V30 5031 H 457.395 -2.72903 -1.56113 0
M  V30 5032 N 461.167 -1.02423 -1.1978 0
M  V30 5033 C 462.578 -0.748389 -1.71044 0
M  V30 5034 C 462.929 0.732398 -1.82017 0
M  V30 5035 O 462.054 1.57116 -1.48807 0
M  V30 5036 C 462.649 -1.35187 -3.1066 0
M  V30 5037 C 461.208 -1.12472 -3.59203 0
M  V30 5038 C 460.355 -1.45283 -2.36195 0
M  V30 5039 H 463.306 -1.19275 -1.04686 0
M  V30 5040 H 463.327 -0.746408 -3.73107 0
M  V30 5041 H 462.839 -2.4296 -3.02642 0
M  V30 5042 H 460.94 -0.0649983 -3.72543 0
M  V30 5043 H 461.053 -1.81016 -4.43588 0
M  V30 5044 H 459.417 -0.872034 -2.39307 0
M  V30 5045 H 460.2 -2.54129 -2.30811 0
M  V30 5046 N 462.645 1.35699 -0.801477 0
M  V30 5047 C 463.87 2.03687 -0.390678 0
M  V30 5048 C 464.295 1.60015 0.988778 0
M  V30 5049 O 463.653 0.774357 1.63931 0
M  V30 5050 C 463.701 3.57439 -0.476404 0
M  V30 5051 O 462.805 4.09208 0.512106 0
M  V30 5052 H 462.146 0.64344 -0.163956 0
M  V30 5053 H 464.676 1.73403 -1.08594 0
M  V30 5054 H 464.686 4.06544 -0.344357 0
M  V30 5055 H 463.361 3.88576 -1.48262 0
M  V30 5056 H 461.938 3.7134 0.340721 0
M  V30 5057 N 464.123 0.554532 1.47522 0
M  V30 5058 C 465.539 0.214107 1.58157 0
M  V30 5059 C 465.739 -1.28331 1.55349 0
M  V30 5060 O 464.795 -2.06329 1.45549 0
M  V30 5061 C 466.108 0.838391 2.88776 0
M  V30 5062 C 467.656 0.809374 3.02354 0
M  V30 5063 C 468.131 1.41268 4.35669 0
M  V30 5064 N 469.622 1.37574 4.42298 0
M  V30 5065 C 470.357 1.8122 5.4401 0
M  V30 5066 N 469.853 2.3271 6.52547 0
M  V30 5067 N 471.646 1.72307 5.35039 0
M  V30 5068 H 463.797 1.52744 1.4759 0
M  V30 5069 H 466.06 0.636812 0.702264 0
M  V30 5070 H 465.766 1.89065 2.96559 0
M  V30 5071 H 465.64 0.329847 3.75755 0
M  V30 5072 H 468.027 -0.234187 2.94169 0
M  V30 5073 H 468.108 1.35565 2.16924 0
M  V30 5074 H 467.752 2.45529 4.4461 0
M  V30 5075 H 467.682 0.841871 5.19827 0
M  V30 5076 H 470.173 0.999081 3.64454 0
M  V30 5077 H 470.486 2.63944 7.26329 0
M  V30 5078 H 468.831 2.36719 6.53444 0
M  V30 5079 H 472.022 1.3186 4.49144 0
M  V30 5080 H 472.195 2.06641 6.14169 0
M  V30 5081 N 465.601 -1.54893 0.290851 0
M  V30 5082 C 466.533 -2.20564 -0.623236 0
M  V30 5083 C 467.546 -1.19519 -1.1054 0
M  V30 5084 O 468.735 -1.46165 -1.02459 0
M  V30 5085 C 465.835 -2.83033 -1.86401 0
M  V30 5086 C 465.008 -4.09916 -1.52604 0
M  V30 5087 C 464.067 -4.56284 -2.62091 0
M  V30 5088 O 463.093 -5.2171 -2.27612 0
M  V30 5089 N 464.295 -4.27746 -3.92446 0
M  V30 5090 H 467.06 -2.99638 -0.0610915 0
M  V30 5091 H 464.621 -1.61508 0.112615 0
M  V30 5092 H 466.613 -3.1099 -2.58973 0
M  V30 5093 H 465.183 -2.0786 -2.33481 0
M  V30 5094 H 464.403 -3.89078 -0.633424 0
M  V30 5095 H 465.691 -4.92554 -1.27547 0
M  V30 5096 H 465.089 -3.7531 -4.23272 0
M  V30 5097 H 463.646 -4.60437 -4.61347 0
M  V30 5098 N 467.08 -0.0183926 -1.57589 0
M  V30 5099 C 468.03 0.975944 -2.06057 0
M  V30 5100 C 469.014 1.29204 -0.958908 0
M  V30 5101 O 470.206 1.27995 -1.22255 0
M  V30 5102 C 467.335 2.26194 -2.58247 0
M  V30 5103 C 466.421 1.97467 -3.75323 0
M  V30 5104 N 466.812 1.38968 -4.86335 0
M  V30 5105 C 465.11 2.27515 -3.83605 0
M  V30 5106 C 465.811 1.27131 -5.67638 0
M  V30 5107 N 464.787 1.76319 -5.14211 0
M  V30 5108 H 468.589 0.518444 -2.89291 0
M  V30 5109 H 466.103 0.18688 -1.61321 0
M  V30 5110 H 468.1 2.98289 -2.91255 0
M  V30 5111 H 466.76 2.7258 -1.76438 0
M  V30 5112 H 467.771 1.06608 -5.06809 0
M  V30 5113 H 464.448 2.76649 -3.12684 0
M  V30 5114 H 465.838 0.819882 -6.66879 0
M  V30 5115 N 468.558 1.5553 0.254621 0
M  V30 5116 C 469.49 1.86104 1.33783 0
M  V30 5117 C 470.503 0.746752 1.44663 0
M  V30 5118 O 471.692 1.0248 1.46151 0
M  V30 5119 C 468.792 2.02532 2.71724 0
M  V30 5120 C 467.965 3.33335 2.83208 0
M  V30 5121 C 467.024 3.396 4.01943 0
M  V30 5122 O 466.05 4.12862 3.91834 0
M  V30 5123 N 467.252 2.68332 5.1476 0
M  V30 5124 H 470.017 2.79605 1.07893 0
M  V30 5125 H 467.578 1.55672 0.444732 0
M  V30 5126 H 469.57 2.04074 3.4948 0
M  V30 5127 H 468.14 1.15811 2.90356 0
M  V30 5128 H 467.36 3.44176 1.92189 0
M  V30 5129 H 468.648 4.19565 2.87824 0
M  V30 5130 H 468.046 2.08528 5.25864 0
M  V30 5131 H 466.603 2.75575 5.90679 0
M  V30 5132 N 470.036 -0.519951 1.48776 0
M  V30 5133 C 471.447 -1.10177 1.50725 0
M  V30 5134 C 471.798 -1.94153 0.282678 0
M  V30 5135 O 470.923 -2.07645 -0.609298 0
M  V30 5136 C 471.518 -2.00482 2.73116 0
M  V30 5137 C 470.077 -2.53862 2.77905 0
M  V30 5138 C 469.224 -1.31047 2.44381 0
M  V30 5139 H 472.175 -0.30473 1.55747 0
M  V30 5140 H 472.196 -2.8491 2.52203 0
M  V30 5141 H 471.708 -1.39335 3.62225 0
M  V30 5142 H 469.809 -3.18702 1.93029 0
M  V30 5143 H 469.922 -2.9231 3.79594 0
M  V30 5144 H 468.286 -1.62953 1.95751 0
M  V30 5145 H 469.069 -0.71637 3.35743 0
M  V30 5146 N 471.514 -1.37532 -0.769588 0
M  V30 5147 C 472.739 -1.36231 -1.56384 0
M  V30 5148 C 473.164 0.0495849 -1.88035 0
M  V30 5149 O 472.522 1.02723 -1.49391 0
M  V30 5150 C 472.57 -2.20986 -2.84952 0
M  V30 5151 O 471.674 -1.61597 -3.79421 0
M  V30 5152 H 471.015 -0.465387 -0.473615 0
M  V30 5153 H 473.545 -1.81085 -0.952342 0
M  V30 5154 H 473.555 -2.34277 -3.34034 0
M  V30 5155 H 472.23 -3.23612 -2.61243 0
M  V30 5156 H 470.807 -1.57359 -3.38072 0
M  V30 5157 N 472.992 0.995999 -1.22138 0
M  V30 5158 C 474.403 1.54961 -1.04135 0
M  V30 5159 C 474.754 1.92159 0.396147 0
M  V30 5160 O 473.879 1.74435 1.28069 0
M  V30 5161 C 474.474 2.81581 -1.88408 0
M  V30 5162 C 473.033 3.33396 -1.74712 0
M  V30 5163 C 472.18 2.06509 -1.85066 0
M  V30 5164 H 475.131 0.817436 -1.36028 0
M  V30 5165 H 475.152 3.53822 -1.39966 0
M  V30 5166 H 474.664 2.54476 -2.93025 0
M  V30 5167 H 472.765 3.65416 -0.728159 0
M  V30 5168 H 472.878 4.04208 -2.57202 0
M  V30 5169 H 471.242 2.19925 -1.28472 0
M  V30 5170 H 472.025 1.81804 -2.91208 0
M  V30 5171 N 474.47 1.03057 1.19235 0
M  V30 5172 C 475.403 0.557384 2.21288 0
M  V30 5173 C 476.381 -0.402675 1.57535 0
M  V30 5174 O 477.565 -0.319376 1.85775 0
M  V30 5175 C 474.692 -0.187041 3.38183 0
M  V30 5176 C 473.738 0.72471 4.20298 0
M  V30 5177 S 474.571 2.20187 4.88137 0
M  V30 5178 C 475.727 1.46801 6.08441 0
M  V30 5179 H 475.96 1.42207 2.61083 0
M  V30 5180 H 473.493 0.840651 1.29508 0
M  V30 5181 H 475.451 -0.610405 4.05936 0
M  V30 5182 H 474.112 -1.02748 2.96819 0
M  V30 5183 H 473.305 0.149911 5.03777 0
M  V30 5184 H 472.907 1.08647 3.57871 0
M  V30 5185 H 475.199 0.755522 6.73274 0
M  V30 5186 H 476.142 2.27946 6.70407 0
M  V30 5187 H 476.55 0.964762 5.56195 0
M  V30 5188 N 475.948 -1.35272 0.808662 0
M  V30 5189 C 476.911 -2.28082 0.226093 0
M  V30 5190 C 477.911 -1.49673 -0.587762 0
M  V30 5191 O 479.101 -1.69404 -0.405943 0
M  V30 5192 C 476.233 -3.33955 -0.684596 0
M  V30 5193 H 477.426 -2.81116 1.04469 0
M  V30 5194 H 474.979 -1.45162 0.579466 0
M  V30 5195 H 475.714 -2.86111 -1.5268 0
M  V30 5196 H 475.499 -3.91965 -0.102699 0
M  V30 5197 H 476.989 -4.03219 -1.08646 0
M  V30 5198 N 477.426 -0.562348 -1.47226 0
M  V30 5199 C 478.842 -0.222492 -1.58042 0
M  V30 5200 C 479.042 1.27505 -1.56028 0
M  V30 5201 O 478.098 2.05555 -1.46641 0
M  V30 5202 C 479.411 -0.853694 -2.88327 0
M  V30 5203 C 480.959 -0.825397 -3.01921 0
M  V30 5204 C 481.434 -1.43576 -4.34914 0
M  V30 5205 N 482.925 -1.39918 -4.41562 0
M  V30 5206 C 483.66 -1.84103 -5.43041 0
M  V30 5207 N 483.156 -2.36167 -6.51304 0
M  V30 5208 N 484.949 -1.75142 -5.34118 0
M  V30 5209 H 477.1 -1.53525 -1.46778 0
M  V30 5210 H 479.363 -0.640527 -0.698877 0
M  V30 5211 H 479.069 -1.90635 -2.95552 0
M  V30 5212 H 478.943 -0.34977 -3.75575 0
M  V30 5213 H 481.33 0.218583 -2.94289 0
M  V30 5214 H 481.411 -1.36713 -2.16202 0
M  V30 5215 H 481.055 -2.47884 -4.43301 0
M  V30 5216 H 480.985 -0.869427 -5.19373 0
M  V30 5217 H 483.476 -1.0184 -3.63919 0
M  V30 5218 H 483.789 -2.67793 -7.24919 0
M  V30 5219 H 482.134 -2.40181 -6.52179 0
M  V30 5220 H 485.325 -1.34241 -4.48439 0
M  V30 5221 H 485.498 -2.09895 -6.13065 0
M  V30 5222 N 478.904 1.54736 -0.299062 0
M  V30 5223 C 480.315 1.8569 0.193971 0
M  V30 5224 C 480.666 1.22101 1.53577 0
M  V30 5225 O 479.791 0.51799 2.10109 0
M  V30 5226 C 480.386 3.36895 0.358733 0
M  V30 5227 C 478.945 3.67887 0.795986 0
M  V30 5228 C 478.092 2.77131 -0.096807 0
M  V30 5229 H 481.043 1.49934 -0.520134 0
M  V30 5230 H 481.064 3.61294 1.19361 0
M  V30 5231 H 480.576 3.83148 -0.617998 0
M  V30 5232 H 478.677 3.27151 1.78334 0
M  V30 5233 H 478.79 4.75114 0.616718 0
M  V30 5234 H 477.154 2.51153 0.423581 0
M  V30 5235 H 477.937 3.26204 -1.06986 0
M  V30 5236 N 480.382 0.0267497 1.57577 0
M  V30 5237 C 481.312 -0.954308 2.13108 0
M  V30 5238 C 482.293 -1.34088 1.04663 0
M  V30 5239 O 483.478 -1.41992 1.32484 0
M  V30 5240 C 480.608 -2.23744 2.65624 0
M  V30 5241 C 479.562 -1.99168 3.78835 0
M  V30 5242 C 478.888 -3.33726 4.17769 0
M  V30 5243 C 480.188 -1.33277 5.0501 0
M  V30 5244 H 481.882 -0.491848 2.95332 0
M  V30 5245 H 479.428 -0.23514 1.42067 0
M  V30 5246 H 481.381 -2.92754 3.03106 0
M  V30 5247 H 480.105 -2.72151 1.80558 0
M  V30 5248 H 478.764 -1.32577 3.41788 0
M  V30 5249 H 478.412 -3.79888 3.29688 0
M  V30 5250 H 478.112 -3.18089 4.94058 0
M  V30 5251 H 479.636 -4.04008 4.57832 0
M  V30 5252 H 481.05 -1.92283 5.40093 0
M  V30 5253 H 479.447 -1.28045 5.8628 0
M  V30 5254 H 480.517 -0.305411 4.83937 0
M  V30 5255 N 481.861 -1.55662 -0.24637 0
M  V30 5256 C 483.089 -1.81575 -0.991876 0
M  V30 5257 C 483.504 -0.602545 -1.78927 0
M  V30 5258 O 482.861 0.428795 -1.77391 0
M  V30 5259 C 482.912 -3.05711 -1.92933 0
M  V30 5260 O 482.633 -4.22348 -1.1642 0
M  V30 5261 C 484.134 -3.44428 -2.79078 0
M  V30 5262 H 481.354 -0.604209 -0.291844 0
M  V30 5263 H 483.898 -2.02722 -0.269095 0
M  V30 5264 H 482.053 -2.86612 -2.60638 0
M  V30 5265 H 482.467 -4.92706 -1.79835 0
M  V30 5266 H 483.941 -4.34388 -3.40603 0
M  V30 5267 H 484.418 -2.65037 -3.50217 0
M  V30 5268 H 485.024 -3.65879 -2.16824 0
M  V30 5269 N 483.339 0.512053 -1.4905 0
M  V30 5270 C 484.585 1.26874 -1.58212 0
M  V30 5271 C 484.918 1.9241 -0.263073 0
M  V30 5272 O 484.193 1.80181 0.732476 0
M  V30 5273 C 484.476 2.34428 -2.73341 0
M  V30 5274 C 484.329 1.73466 -4.15006 0
M  V30 5275 C 485.648 3.36073 -2.84154 0
M  V30 5276 H 482.767 0.459924 -0.575881 0
M  V30 5277 H 485.409 0.568587 -1.81293 0
M  V30 5278 H 483.559 2.94146 -2.53792 0
M  V30 5279 H 485.231 1.17661 -4.46042 0
M  V30 5280 H 483.474 1.03921 -4.21168 0
M  V30 5281 H 484.145 2.51426 -4.91415 0
M  V30 5282 H 486.621 2.86332 -3.01916 0
M  V30 5283 H 485.497 4.08703 -3.66406 0
M  V30 5284 H 485.758 3.97725 -1.93048 0
M  V30 5285 N 484.817 1.37938 0.762283 0
M  V30 5286 C 486.094 1.24196 1.51112 0
M  V30 5287 C 486.474 -0.160409 2.1049 0
M  V30 5288 O 485.822 -1.16904 1.96331 0
M  V30 5289 C 486.032 2.34537 2.58445 0
M  V30 5290 C 487.38 2.7254 3.25588 0
M  V30 5291 O 488.404 2.33783 2.68745 0
M  V30 5292 O 487.263 3.39343 4.28379 0
M  V30 5293 H 484.357 0.485175 0.669727 0
M  V30 5294 H 486.903 1.49743 0.798438 0
M  V30 5295 H 485.675 3.28406 2.12756 0
M  V30 5296 H 485.298 2.10505 3.37303 0
M  V30 5297 N 486.295 -0.989507 1.22664 0
M  V30 5298 C 487.205 -2.11449 1.01619 0
M  V30 5299 C 488.221 -1.73962 -0.036545 0
M  V30 5300 O 489.397 -2.00788 0.156924 0
M  V30 5301 C 486.462 -3.41465 0.600204 0
M  V30 5302 C 485.523 -3.93033 1.72695 0
M  V30 5303 C 484.756 -5.16844 1.33071 0
M  V30 5304 O 484.979 -5.7001 0.210975 0
M  V30 5305 O 483.913 -5.6225 2.14845 0
M  V30 5306 H 487.739 -2.32088 1.9588 0
M  V30 5307 H 485.324 -1.09823 1.01289 0
M  V30 5308 H 487.206 -4.19695 0.37873 0
M  V30 5309 H 485.881 -3.22178 -0.313511 0
M  V30 5310 H 484.788 -3.15961 2.00298 0
M  V30 5311 H 486.121 -4.16758 2.61865 0
M  V30 5312 N 487.773 -1.03688 -1.18687 0
M  V30 5313 C 489.022 -0.733235 -1.879 0
M  V30 5314 C 489.335 0.741745 -1.8099 0
M  V30 5315 O 490.541 1.15875 -2.4553 0
M  V30 5316 C 488.997 -1.26127 -3.37076 0
M  V30 5317 C 488.605 -2.76461 -3.52524 0
M  V30 5318 C 490.349 -1.03398 -4.11715 0
M  V30 5319 C 488.256 -3.22642 -4.95637 0
M  V30 5320 H 487.186 -0.270584 -0.703776 0
M  V30 5321 H 489.837 -1.25222 -1.34133 0
M  V30 5322 H 488.219 -0.670165 -3.90288 0
M  V30 5323 H 489.393 -3.41296 -3.09602 0
M  V30 5324 H 487.708 -2.97559 -2.91286 0
M  V30 5325 H 490.305 -1.3542 -5.17267 0
M  V30 5326 H 490.648 0.0289246 -4.1629 0
M  V30 5327 H 491.181 -1.5895 -3.64664 0
M  V30 5328 H 487.92 -4.28296 -4.96228 0
M  V30 5329 H 487.44 -2.62539 -5.39289 0
M  V30 5330 H 489.119 -3.16444 -5.64333 0
M  V30 5331 N 489.251 1.34841 -0.815825 0
M  V30 5332 C 490.497 1.98793 -0.401129 0
M  V30 5333 C 490.83 1.64548 1.03139 0
M  V30 5334 O 490.105 0.913487 1.71714 0
M  V30 5335 C 490.388 3.55143 -0.595409 0
M  V30 5336 C 490.241 3.99155 -2.07352 0
M  V30 5337 C 491.56 4.40092 -0.0268823 0
M  V30 5338 H 488.679 0.722146 -0.14722 0
M  V30 5339 H 491.321 1.59847 -1.02707 0
M  V30 5340 H 489.471 3.8845 -0.0625779 0
M  V30 5341 H 491.143 3.76216 -2.66945 0
M  V30 5342 H 489.386 3.49726 -2.56659 0
M  V30 5343 H 490.057 5.07971 -2.1603 0
M  V30 5344 H 492.533 4.13298 -0.482042 0
M  V30 5345 H 491.409 5.48562 -0.19267 0
M  V30 5346 H 491.67 4.29016 1.06759 0
M  V30 5347 N 490.729 0.570148 1.46925 0
M  V30 5348 C 491.977 0.0508523 2.02036 0
M  V30 5349 C 492.298 -1.30885 1.44548 0
M  V30 5350 O 491.568 -1.85647 0.625453 0
M  V30 5351 H 490.148 0.0158088 0.746833 0
M  V30 5352 H 492.81 0.743086 1.80178 0
M  V30 5353 H 491.906 -0.027575 3.12088 0
M  V30 5354 N 492.207 -1.54576 0.307264 0
M  V30 5355 C 493.139 -2.21212 -0.599807 0
M  V30 5356 C 494.152 -1.20685 -1.09266 0
M  V30 5357 O 495.341 -1.47244 -1.00903 0
M  V30 5358 C 492.441 -2.84994 -1.83389 0
M  V30 5359 C 491.614 -4.11511 -1.48248 0
M  V30 5360 C 490.673 -4.59038 -2.57237 0
M  V30 5361 O 489.699 -5.24095 -2.22065 0
M  V30 5362 N 490.901 -4.31884 -3.87887 0
M  V30 5363 H 493.666 -2.99686 -0.0293075 0
M  V30 5364 H 491.227 -1.61379 0.129738 0
M  V30 5365 H 493.219 -3.1372 -2.5566 0
M  V30 5366 H 491.789 -2.10324 -2.31263 0
M  V30 5367 H 491.009 -3.89728 -0.592122 0
M  V30 5368 H 492.297 -4.93879 -1.22316 0
M  V30 5369 H 491.695 -3.79778 -4.19268 0
M  V30 5370 H 490.252 -4.65304 -4.56438 0
M  V30 5371 N 493.685 -0.035106 -1.57561 0
M  V30 5372 C 494.648 0.929819 -2.09492 0
M  V30 5373 C 495.648 1.25026 -1.01119 0
M  V30 5374 O 496.838 1.18961 -1.27255 0
M  V30 5375 C 493.97 2.24457 -2.56577 0
M  V30 5376 H 495.163 0.479935 -2.96035 0
M  V30 5377 H 492.716 0.213033 -1.54841 0
M  V30 5378 H 493.451 2.74061 -1.73382 0
M  V30 5379 H 493.236 2.02508 -3.35757 0
M  V30 5380 H 494.726 2.93607 -2.96959 0
M  V30 5381 N 495.163 1.55791 0.238111 0
M  V30 5382 C 496.41 1.78033 0.964907 0
M  V30 5383 C 496.738 0.600984 1.84982 0
M  V30 5384 O 495.993 -0.41536 1.91241 0
M  V30 5385 C 496.292 3.05869 1.84875 0
M  V30 5386 C 495.958 4.36808 1.11846 0
M  V30 5387 C 494.62 4.72388 0.916662 0
M  V30 5388 C 496.972 5.17717 0.60151 0
M  V30 5389 C 494.3 5.86406 0.185756 0
M  V30 5390 C 496.652 6.32494 -0.115972 0
M  V30 5391 C 495.316 6.66688 -0.329168 0
M  V30 5392 H 494.586 0.651469 0.353085 0
M  V30 5393 H 497.233 1.90061 0.234318 0
M  V30 5394 H 495.538 2.88891 2.64668 0
M  V30 5395 H 497.235 3.20278 2.41294 0
M  V30 5396 H 493.825 4.08862 1.28569 0
M  V30 5397 H 498.009 4.90678 0.744932 0
M  V30 5398 H 493.265 6.11399 0.0101886 0
M  V30 5399 H 497.439 6.94425 -0.524127 0
M  V30 5400 H 495.066 7.54884 -0.897474 0
M  V30 5401 N 496.642 -0.504142 1.49319 0
M  V30 5402 C 497.891 -1.25507 1.57895 0
M  V30 5403 C 498.204 -1.93735 0.269433 0
M  V30 5404 O 499.41 -2.70492 0.233706 0
M  V30 5405 C 497.866 -2.27869 2.78574 0
M  V30 5406 C 497.474 -1.65594 4.16272 0
M  V30 5407 C 499.218 -3.0381 2.96479 0
M  V30 5408 C 497.125 -2.66048 5.28178 0
M  V30 5409 H 496.055 -0.47212 0.587894 0
M  V30 5410 H 498.706 -0.52931 1.757 0
M  V30 5411 H 497.088 -3.03594 2.54257 0
M  V30 5412 H 498.262 -0.958826 4.50714 0
M  V30 5413 H 496.577 -1.02055 4.037 0
M  V30 5414 H 499.174 -3.78925 3.77253 0
M  V30 5415 H 499.517 -3.61235 2.06918 0
M  V30 5416 H 500.05 -2.352 3.20821 0
M  V30 5417 H 496.789 -2.13408 6.19788 0
M  V30 5418 H 496.309 -3.34009 4.98195 0
M  V30 5419 H 497.988 -3.28536 5.57381 0
M  V30 5420 N 498.12 -1.38341 -0.754957 0
M  V30 5421 C 499.367 -1.34473 -1.51404 0
M  V30 5422 C 499.695 0.0656458 -1.94389 0
M  V30 5423 O 498.95 1.04244 -1.65625 0
M  V30 5424 C 499.249 -2.2452 -2.78075 0
M  V30 5425 C 498.915 -3.72512 -2.54059 0
M  V30 5426 C 497.577 -4.1284 -2.47218 0
M  V30 5427 C 499.929 -4.66197 -2.33044 0
M  V30 5428 C 497.257 -5.44945 -2.17376 0
M  V30 5429 C 499.609 -5.98558 -2.04723 0
M  V30 5430 C 498.273 -6.37972 -1.96337 0
M  V30 5431 H 497.543 -0.492072 -0.554027 0
M  V30 5432 H 500.19 -1.70687 -0.868223 0
M  V30 5433 H 498.495 -1.81357 -3.473 0
M  V30 5434 H 500.192 -2.18832 -3.36026 0
M  V30 5435 H 496.782 -3.40538 -2.60253 0
M  V30 5436 H 500.966 -4.35888 -2.37309 0
M  V30 5437 H 496.222 -5.74426 -2.09391 0
M  V30 5438 H 500.396 -6.70693 -1.87465 0
M  V30 5439 H 498.023 -7.40258 -1.72978 0
M  V30 5440 N 499.598 0.982988 -1.23187 0
M  V30 5441 C 500.528 2.09301 -1.03515 0
M  V30 5442 C 501.509 1.70035 0.0471136 0
M  V30 5443 O 502.694 1.93847 -0.117029 0
M  V30 5444 C 499.824 3.4167 -0.622791 0
M  V30 5445 C 498.778 3.94828 -1.65211 0
M  V30 5446 C 498.104 5.23362 -1.09527 0
M  V30 5447 C 499.404 4.2439 -3.04451 0
M  V30 5448 H 501.098 2.26016 -1.96359 0
M  V30 5449 H 498.644 1.08611 -0.945501 0
M  V30 5450 H 500.597 4.18746 -0.472233 0
M  V30 5451 H 499.321 3.24811 0.341329 0
M  V30 5452 H 497.98 3.19895 -1.79061 0
M  V30 5453 H 497.628 5.02852 -0.122211 0
M  V30 5454 H 497.328 5.59895 -1.783 0
M  V30 5455 H 498.852 6.03062 -0.956511 0
M  V30 5456 H 500.266 4.92225 -2.93917 0
M  V30 5457 H 498.663 4.72118 -3.70438 0
M  V30 5458 H 499.733 3.31765 -3.53638 0
M  V30 5459 N 501.076 1.04316 1.18135 0
M  V30 5460 C 502.325 0.74319 1.87509 0
M  V30 5461 C 502.638 -0.732136 1.81381 0
M  V30 5462 O 503.844 -1.14572 2.46141 0
M  V30 5463 C 502.3 1.27913 3.36402 0
M  V30 5464 C 501.908 2.78326 3.51053 0
M  V30 5465 C 503.652 1.0558 4.11161 0
M  V30 5466 C 501.559 3.25266 4.93919 0
M  V30 5467 H 500.489 0.274313 0.702331 0
M  V30 5468 H 503.14 1.25931 1.33467 0
M  V30 5469 H 501.522 0.690853 3.89927 0
M  V30 5470 H 502.696 3.42933 3.07788 0
M  V30 5471 H 501.011 2.991 2.89704 0
M  V30 5472 H 503.608 1.38161 5.16542 0
M  V30 5473 H 503.951 -0.00684729 4.16299 0
M  V30 5474 H 504.484 1.60882 3.63816 0
M  V30 5475 H 501.223 4.30922 4.9395 0
M  V30 5476 H 500.743 2.65396 5.3789 0
M  V30 5477 H 502.422 3.19433 5.62647 0
M  V30 5478 N 502.554 -1.34406 0.822964 0
M  V30 5479 C 503.517 -2.2783 0.250271 0
M  V30 5480 C 504.517 -1.50288 -0.571854 0
M  V30 5481 O 505.707 -1.69825 -0.387952 0
M  V30 5482 C 502.839 -3.34663 -0.649137 0
M  V30 5483 H 504.032 -2.79992 1.07444 0
M  V30 5484 H 501.585 -1.44539 0.594829 0
M  V30 5485 H 502.32 -2.87714 -1.49637 0
M  V30 5486 H 502.105 -3.92052 -0.0611199 0
M  V30 5487 H 503.595 -4.04349 -1.04363 0
M  V30 5488 N 504.032 -0.577932 -1.46621 0
M  V30 5489 C 505.28 -0.061566 -2.02006 0
M  V30 5490 C 505.601 1.30117 -1.4524 0
M  V30 5491 O 504.871 1.85313 -0.63529 0
M  V30 5492 H 503.451 -0.0197692 -0.746738 0
M  V30 5493 H 506.113 -0.752631 -1.79782 0
M  V30 5494 H 505.209 0.0110238 -3.12098 0
M  V30 5495 N 505.51 1.54411 -0.315457 0
M  V30 5496 C 506.74 2.04536 0.291315 0
M  V30 5497 C 507.148 1.19162 1.4696 0
M  V30 5498 O 506.491 0.213199 1.82459 0
M  V30 5499 C 506.553 3.5056 0.796725 0
M  V30 5500 C 506.217 4.5627 -0.258178 0
M  V30 5501 C 507.214 5.08312 -1.09153 0
M  V30 5502 C 504.899 5.00672 -0.404036 0
M  V30 5503 C 506.893 6.03312 -2.05655 0
M  V30 5504 C 504.58 5.95488 -1.37248 0
M  V30 5505 C 505.578 6.46693 -2.19721 0
M  V30 5506 O 505.266 7.39648 -3.14921 0
M  V30 5507 H 504.998 0.672856 0.0651165 0
M  V30 5508 H 507.552 2.00244 -0.457308 0
M  V30 5509 H 505.782 3.52223 1.59612 0
M  V30 5510 H 507.471 3.83804 1.32096 0
M  V30 5511 H 508.237 4.74793 -0.98979 0
M  V30 5512 H 504.116 4.60436 0.22799 0
M  V30 5513 H 507.66 6.43203 -2.70067 0
M  V30 5514 H 503.557 6.28424 -1.47489 0
M  V30 5515 H 504.325 7.57496 -3.10067 0
M  V30 5516 N 506.988 0.0434614 1.5754 0
M  V30 5517 C 507.898 -0.94893 2.14552 0
M  V30 5518 C 508.914 -1.34707 1.10136 0
M  V30 5519 O 510.09 -1.42557 1.42266 0
M  V30 5520 C 507.155 -2.208 2.67298 0
M  V30 5521 C 506.216 -1.86893 3.86484 0
M  V30 5522 C 505.449 -3.06797 4.36705 0
M  V30 5523 O 505.672 -4.19921 3.86034 0
M  V30 5524 O 504.606 -2.8826 5.28384 0
M  V30 5525 H 508.432 -0.494099 2.99654 0
M  V30 5526 H 506.017 -0.177989 1.48336 0
M  V30 5527 H 507.899 -2.94686 3.01228 0
M  V30 5528 H 506.574 -2.65436 1.85272 0
M  V30 5529 H 505.481 -1.10347 3.57455 0
M  V30 5530 H 506.814 -1.47062 4.69716 0
M  V30 5531 N 508.466 -1.55915 -0.229846 0
M  V30 5532 C 509.715 -1.77742 -0.953455 0
M  V30 5533 C 510.028 -0.610524 -1.85828 0
M  V30 5534 O 511.234 -0.712219 -2.61992 0
M  V30 5535 C 509.69 -3.14738 -1.74551 0
M  V30 5536 C 509.298 -4.39126 -0.887242 0
M  V30 5537 C 511.042 -3.45895 -2.46084 0
M  V30 5538 C 508.949 -5.67149 -1.67617 0
M  V30 5539 H 507.879 -0.662648 -0.359741 0
M  V30 5540 H 510.53 -1.82322 -0.207576 0
M  V30 5541 H 508.912 -3.04311 -2.53399 0
M  V30 5542 H 510.086 -4.60588 -0.139892 0
M  V30 5543 H 508.401 -4.15427 -0.284443 0
M  V30 5544 H 510.998 -4.38767 -3.05594 0
M  V30 5545 H 511.341 -2.68007 -3.18556 0
M  V30 5546 H 511.874 -3.57614 -1.74233 0
M  V30 5547 H 508.613 -6.47906 -0.994881 0
M  V30 5548 H 508.133 -5.49763 -2.39836 0
M  V30 5549 H 509.812 -6.07025 -2.23898 0
M  V30 5550 N 509.944 0.496216 -1.49584 0
M  V30 5551 C 511.193 1.24668 -1.58558 0
M  V30 5552 C 511.506 1.9359 -0.279703 0
M  V30 5553 O 512.712 2.70365 -0.248048 0
M  V30 5554 C 511.168 2.26388 -2.79779 0
M  V30 5555 C 510.776 1.63384 -4.17145 0
M  V30 5556 C 512.52 3.02233 -2.98086 0
M  V30 5557 C 510.427 2.63243 -5.29582 0
M  V30 5558 H 509.357 0.468995 -0.590389 0
M  V30 5559 H 512.008 0.519985 -1.75978 0
M  V30 5560 H 510.39 3.02241 -2.55863 0
M  V30 5561 H 511.564 0.93491 -4.51216 0
M  V30 5562 H 509.879 0.999121 -4.04236 0
M  V30 5563 H 512.476 3.76919 -3.79257 0
M  V30 5564 H 512.819 3.60132 -2.08831 0
M  V30 5565 H 513.352 2.33495 -3.22063 0
M  V30 5566 H 510.091 2.10119 -6.20911 0
M  V30 5567 H 509.611 3.31363 -4.99959 0
M  V30 5568 H 511.29 3.25575 -5.59115 0
M  V30 5569 N 511.423 1.38739 0.74761 0
M  V30 5570 C 512.651 1.38521 1.53686 0
M  V30 5571 C 513.066 -0.0235129 1.88785 0
M  V30 5572 O 512.423 -0.991662 1.53207 0
M  V30 5573 C 512.474 2.24641 2.83229 0
M  V30 5574 O 512.195 3.60026 2.49625 0
M  V30 5575 C 513.696 2.32669 3.77333 0
M  V30 5576 H 510.916 0.473589 0.475347 0
M  V30 5577 H 513.46 1.82395 0.924786 0
M  V30 5578 H 511.615 1.84213 3.40799 0
M  V30 5579 H 512.029 4.05435 3.3275 0
M  V30 5580 H 513.503 2.97201 4.65162 0
M  V30 5581 H 513.98 1.3421 4.18192 0
M  V30 5582 H 514.586 2.73512 3.25685 0
M  V30 5583 N 512.901 -0.976442 1.23707 0
M  V30 5584 C 513.849 -2.09078 1.01927 0
M  V30 5585 C 514.843 -1.69345 -0.0430193 0
M  V30 5586 O 516.049 -1.79659 0.110814 0
M  V30 5587 H 512.424 -0.68398 0.312531 0
M  V30 5588 H 514.395 -2.24614 1.96447 0
M  V30 5589 C 513.144 -3.41919 0.631385 0
M  V30 5590 H 512.467 -3.72946 1.44053 0
M  V30 5591 H 513.907 -4.20817 0.518532 0
M  V30 5592 C 512.366 -3.30357 -0.660723 0
M  V30 5593 O 512.896 -3.63542 -1.70881 0
M  V30 5594 N 511.102 -2.83507 -0.638139 0
M  V30 5595 H 510.649 -2.567 0.215108 0
M  V30 5596 H 510.607 -2.76153 -1.50289 0
M  V30 5597 N 514.379 -1.04941 -1.1758 0
M  V30 5598 C 515.607 -0.778294 -1.91703 0
M  V30 5599 C 516.022 0.665697 -1.76675 0
M  V30 5600 O 515.379 1.45456 -1.10222 0
M  V30 5601 C 515.43 -1.14628 -3.42845 0
M  V30 5602 O 515.151 -2.53359 -3.57409 0
M  V30 5603 C 516.652 -0.900931 -4.34049 0
M  V30 5604 H 513.872 -0.283167 -0.608323 0
M  V30 5605 H 516.416 -1.39942 -1.49119 0
M  V30 5606 H 514.571 -0.569953 -3.83184 0
M  V30 5607 H 514.985 -2.67709 -4.51035 0
M  V30 5608 H 516.459 -1.20817 -5.38616 0
M  V30 5609 H 516.936 0.163966 -4.38894 0
M  V30 5610 H 517.542 -1.46097 -3.99419 0
M  V30 5611 N 515.857 1.33968 -0.830081 0
M  V30 5612 C 516.787 2.31911 -0.271911 0
M  V30 5613 C 517.768 1.58571 0.61556 0
M  V30 5614 O 518.953 1.86514 0.540946 0
M  V30 5615 C 516.083 3.42737 0.561146 0
M  V30 5616 C 515.037 4.27383 -0.229789 0
M  V30 5617 C 514.363 5.29742 0.726463 0
M  V30 5618 C 515.663 5.02 -1.44197 0
M  V30 5619 H 517.357 2.78844 -1.09025 0
M  V30 5620 H 514.903 1.34061 -0.52571 0
M  V30 5621 H 516.856 4.10276 0.961867 0
M  V30 5622 H 515.58 2.94471 1.41261 0
M  V30 5623 H 514.239 3.61456 -0.611964 0
M  V30 5624 H 513.887 4.77736 1.57408 0
M  V30 5625 H 513.587 5.87255 0.20142 0
M  V30 5626 H 515.111 6.00149 1.12489 0
M  V30 5627 H 516.525 5.62355 -1.11488 0
M  V30 5628 H 514.922 5.69122 -1.90317 0
M  V30 5629 H 515.992 4.31281 -2.2164 0
M  V30 5630 N 517.335 0.585699 1.46312 0
M  V30 5631 C 518.56 0.0762461 2.0726 0
M  V30 5632 C 518.985 -1.22071 1.43109 0
M  V30 5633 O 518.343 -1.73804 0.515942 0
M  V30 5634 C 518.391 -0.0729404 3.60526 0
M  V30 5635 O 517.495 -1.1287 3.96654 0
M  V30 5636 H 516.836 0.0641558 0.660893 0
M  V30 5637 H 519.366 0.809492 1.87905 0
M  V30 5638 H 519.376 -0.278158 4.07051 0
M  V30 5639 H 518.051 0.874188 4.06609 0
M  V30 5640 H 516.628 -0.901703 3.61834 0
M  V30 5641 N 518.813 -1.54241 0.323641 0
M  V30 5642 C 520.06 -2.0057 -0.27891 0
M  V30 5643 C 520.388 -1.21181 -1.52136 0
M  V30 5644 O 519.643 -0.282043 -1.93657 0
M  V30 5645 C 519.942 -3.5129 -0.658031 0
M  V30 5646 C 519.608 -4.48281 0.485252 0
M  V30 5647 C 518.27 -4.74519 0.799055 0
M  V30 5648 C 520.622 -5.05909 1.25322 0
M  V30 5649 C 517.95 -5.55643 1.88354 0
M  V30 5650 C 520.302 -5.88215 2.32779 0
M  V30 5651 C 518.966 -6.12755 2.64741 0
M  V30 5652 H 518.236 -0.733938 -0.10206 0
M  V30 5653 H 520.883 -1.862 0.447435 0
M  V30 5654 H 519.188 -3.63388 -1.4648 0
M  V30 5655 H 520.885 -3.84578 -1.1358 0
M  V30 5656 H 517.475 -4.27979 0.230593 0
M  V30 5657 H 521.659 -4.8562 1.02404 0
M  V30 5658 H 516.915 -5.72888 2.13564 0
M  V30 5659 H 521.089 -6.31888 2.92729 0
M  V30 5660 H 518.716 -6.75404 3.48904 0
M  V30 5661 N 520.291 -0.0518155 -1.57515 0
M  V30 5662 C 521.254 0.907547 -2.10467 0
M  V30 5663 C 522.254 1.23947 -1.02439 0
M  V30 5664 O 523.444 1.17604 -1.2851 0
M  V30 5665 C 520.576 2.21723 -2.58944 0
M  V30 5666 H 521.769 0.44851 -2.96527 0
M  V30 5667 H 519.322 0.196598 -1.55059 0
M  V30 5668 H 520.057 2.72206 -1.76279 0
M  V30 5669 H 519.842 1.98935 -3.37886 0
M  V30 5670 H 521.332 2.90441 -3.00056 0
M  V30 5671 N 521.769 1.56035 0.221574 0
M  V30 5672 C 522.997 1.8313 0.962864 0
M  V30 5673 C 523.412 0.630934 1.77946 0
M  V30 5674 O 522.769 -0.400519 1.78051 0
M  V30 5675 C 522.82 3.08742 1.88045 0
M  V30 5676 O 522.541 4.24147 1.09686 0
M  V30 5677 C 524.042 3.48824 2.73563 0
M  V30 5678 H 521.262 0.608775 0.282194 0
M  V30 5679 H 523.806 2.03124 0.23681 0
M  V30 5680 H 521.961 2.90723 2.56045 0
M  V30 5681 H 522.375 4.95505 1.71974 0
M  V30 5682 H 523.849 4.39752 3.3365 0
M  V30 5683 H 524.326 2.70575 3.45956 0
M  V30 5684 H 524.932 3.69282 2.10976 0
M  V30 5685 N 523.247 -0.488276 1.49845 0
M  V30 5686 C 524.477 -1.26344 1.63465 0
M  V30 5687 C 524.885 -1.86637 0.310379 0
M  V30 5688 O 524.228 -1.69184 -0.715712 0
M  V30 5689 C 524.29 -2.42407 2.65479 0
M  V30 5690 C 523.954 -2.02886 4.09495 0
M  V30 5691 C 524.951 -1.56124 4.95904 0
M  V30 5692 C 522.636 -2.12131 4.55308 0
M  V30 5693 C 524.63 -1.19129 6.26169 0
M  V30 5694 C 522.317 -1.74747 5.85582 0
M  V30 5695 C 523.315 -1.28322 6.70837 0
M  V30 5696 O 523.003 -0.914491 7.98682 0
M  V30 5697 H 522.735 -0.388921 0.552916 0
M  V30 5698 H 525.289 -0.591288 1.96705 0
M  V30 5699 H 523.519 -3.12739 2.27445 0
M  V30 5700 H 525.208 -3.04409 2.68495 0
M  V30 5701 H 525.974 -1.48417 4.61733 0
M  V30 5702 H 521.853 -2.47217 3.89107 0
M  V30 5703 H 525.397 -0.828211 6.92666 0
M  V30 5704 H 521.294 -1.82109 6.19279 0
M  V30 5705 H 522.062 -1.04485 8.11804 0
M  V30 5706 N 524.725 -1.39134 -0.740242 0
M  V30 5707 C 525.655 -1.40165 -1.86751 0
M  V30 5708 C 526.636 -0.265708 -1.68012 0
M  V30 5709 O 527.821 -0.47076 -1.88408 0
M  V30 5710 C 524.951 -1.2392 -3.2444 0
M  V30 5711 C 523.905 -2.34858 -3.57807 0
M  V30 5712 C 523.231 -2.03707 -4.94376 0
M  V30 5713 C 524.531 -3.77159 -3.61315 0
M  V30 5714 H 526.225 -2.345 -1.86145 0
M  V30 5715 H 523.771 -1.12875 -0.89416 0
M  V30 5716 H 525.724 -1.23263 -4.02969 0
M  V30 5717 H 524.448 -0.26051 -3.25559 0
M  V30 5718 H 523.107 -2.34723 -2.81604 0
M  V30 5719 H 522.755 -1.04289 -4.9207 0
M  V30 5720 H 522.455 -2.78016 -5.17669 0
M  V30 5721 H 523.979 -2.04691 -5.75268 0
M  V30 5722 H 525.393 -3.79252 -4.29931 0
M  V30 5723 H 523.79 -4.50784 -3.96124 0
M  V30 5724 H 524.86 -4.08513 -2.61238 0
M  V30 5725 N 526.204 0.969867 -1.24223 0
M  V30 5726 C 527.134 2.08191 -1.05729 0
M  V30 5727 C 528.115 1.70075 0.0290765 0
M  V30 5728 O 529.3 1.93712 -0.137583 0
M  V30 5729 C 526.43 3.40991 -0.658995 0
M  V30 5730 C 525.384 3.93054 -1.69389 0
M  V30 5731 C 524.71 5.22171 -1.15072 0
M  V30 5732 C 526.01 4.21137 -3.08935 0
M  V30 5733 H 527.704 2.23921 -1.98746 0
M  V30 5734 H 525.25 1.07602 -0.956967 0
M  V30 5735 H 527.203 4.18221 -0.51662 0
M  V30 5736 H 525.927 3.25155 0.30686 0
M  V30 5737 H 524.586 3.17977 -1.82444 0
M  V30 5738 H 524.234 5.02694 -0.175539 0
M  V30 5739 H 523.934 5.57973 -1.84229 0
M  V30 5740 H 525.458 6.02013 -1.02042 0
M  V30 5741 H 526.872 4.8908 -2.99121 0
M  V30 5742 H 525.269 4.68163 -3.75425 0
M  V30 5743 H 526.339 3.27996 -3.57137 0
M  V30 5744 N 527.682 1.05563 1.17022 0
M  V30 5745 C 528.645 0.664098 2.19368 0
M  V30 5746 C 529.645 -0.286358 1.5823 0
M  V30 5747 O 530.835 -0.069728 1.7406 0
M  V30 5748 C 527.967 -0.0239932 3.40892 0
M  V30 5749 H 529.16 1.57 2.55521 0
M  V30 5750 H 526.713 0.849964 1.31169 0
M  V30 5751 H 527.448 -0.942988 3.10287 0
M  V30 5752 H 527.233 0.659351 3.86516 0
M  V30 5753 H 528.723 -0.283909 4.16634 0
M  V30 5754 N 529.16 -1.33526 0.837174 0
M  V30 5755 C 530.388 -2.02047 0.445494 0
M  V30 5756 C 530.803 -1.62995 -0.952788 0
M  V30 5757 O 530.16 -0.842447 -1.61892 0
M  V30 5758 C 530.211 -3.57221 0.554577 0
M  V30 5759 O 529.932 -3.94863 1.89776 0
M  V30 5760 C 531.433 -4.43012 0.159634 0
M  V30 5761 H 528.653 -0.647221 0.177048 0
M  V30 5762 H 531.197 -1.70492 1.12928 0
M  V30 5763 H 529.352 -3.87315 -0.0812781 0
M  V30 5764 H 529.766 -4.89569 1.88208 0
M  V30 5765 H 531.24 -5.51253 0.28701 0
M  V30 5766 H 531.717 -4.29916 -0.898289 0
M  V30 5767 H 532.323 -4.18274 0.769855 0
M  V30 5768 N 530.638 -0.59345 -1.46 0
M  V30 5769 C 531.586 0.146268 -2.3214 0
M  V30 5770 C 532.58 0.873743 -1.45128 0
M  V30 5771 O 533.786 0.790912 -1.61693 0
M  V30 5772 H 530.161 0.0660349 -0.749095 0
M  V30 5773 H 532.132 -0.598895 -2.92328 0
M  V30 5774 C 530.881 1.1396 -3.28494 0
M  V30 5775 H 530.204 0.589252 -3.95434 0
M  V30 5776 H 531.644 1.62738 -3.91526 0
M  V30 5777 C 530.103 2.20604 -2.54628 0
M  V30 5778 O 530.633 3.28128 -2.31722 0
M  V30 5779 N 528.839 1.95502 -2.15005 0
M  V30 5780 H 528.386 1.0807 -2.33834 0
M  V30 5781 H 528.344 2.67064 -1.65904 0
M  V30 5782 N 532.116 1.54067 -0.331816 0
M  V30 5783 C 533.527 1.86059 0.15454 0
M  V30 5784 C 533.878 1.25331 1.50952 0
M  V30 5785 O 533.003 0.562441 2.08963 0
M  V30 5786 C 533.598 3.37581 0.287192 0
M  V30 5787 C 532.157 3.69493 0.717773 0
M  V30 5788 C 531.304 2.76863 -0.155569 0
M  V30 5789 H 534.255 1.48797 -0.55182 0
M  V30 5790 H 534.276 3.63744 1.11671 0
M  V30 5791 H 533.788 3.81751 -0.699131 0
M  V30 5792 H 531.889 3.3086 1.71354 0
M  V30 5793 H 532.002 4.76315 0.5158 0
M  V30 5794 H 530.366 2.51995 0.370213 0
M  V30 5795 H 531.149 3.23861 -1.13881 0
M  V30 5796 N 533.594 0.0601682 1.57485 0
M  V30 5797 C 534.871 -0.651956 1.84415 0
M  V30 5798 C 535.251 -1.88498 0.950361 0
M  V30 5799 O 534.599 -2.28496 0.0136719 0
M  V30 5800 C 534.809 -1.00069 3.34346 0
M  V30 5801 C 536.157 -1.37915 4.01578 0
M  V30 5802 O 537.181 -1.09277 3.39024 0
M  V30 5803 O 536.04 -1.91399 5.11887 0
M  V30 5804 H 533.134 -0.322668 0.761455 0
M  V30 5805 H 535.68 0.0902159 1.6946 0
M  V30 5806 H 534.452 -0.124463 3.91102 0
M  V30 5807 H 534.075 -1.80001 3.54521 0
M  V30 5808 N 535.072 -1.5615 -0.213296 0
M  V30 5809 C 536.312 -1.81325 -0.943435 0
M  V30 5810 C 536.676 -0.634934 -1.81198 0
M  V30 5811 O 537.877 -0.766166 -2.5765 0
M  V30 5812 C 536.148 -3.11437 -1.75334 0
M  V30 5813 S 537.707 -3.57955 -2.53799 0
M  V30 5814 H 534.525 -0.636538 -0.316766 0
M  V30 5815 H 537.127 -1.94387 -0.208313 0
M  V30 5816 H 535.831 -3.95228 -1.10556 0
M  V30 5817 H 535.362 -3.01204 -2.53061 0
M  V30 5818 H 537.377 -3.21947 -3.77577 0
M  V30 5819 N 536.55 0.480323 -1.50102 0
M  V30 5820 C 537.482 1.59669 -1.64433 0
M  V30 5821 C 538.495 1.54063 -0.52615 0
M  V30 5822 O 539.684 1.59619 -0.798992 0
M  V30 5823 C 536.784 2.98527 -1.6042 0
M  V30 5824 C 535.957 3.291 -2.88117 0
M  V30 5825 C 535.016 4.47468 -2.76873 0
M  V30 5826 O 534.042 4.4823 -3.50825 0
M  V30 5827 N 535.244 5.48593 -1.89806 0
M  V30 5828 H 538.009 1.47795 -2.60723 0
M  V30 5829 H 535.57 0.66858 -1.4745 0
M  V30 5830 H 537.562 3.75666 -1.50523 0
M  V30 5831 H 536.132 3.04218 -0.719036 0
M  V30 5832 H 535.352 2.40662 -3.12211 0
M  V30 5833 H 536.64 3.46334 -3.72734 0
M  V30 5834 H 536.038 5.50791 -1.2902 0
M  V30 5835 H 534.595 6.24752 -1.85819 0
M  V30 5836 N 538.028 1.39524 0.732853 0
M  V30 5837 C 538.938 1.40695 1.87729 0
M  V30 5838 C 539.954 0.301496 1.71368 0
M  V30 5839 O 541.13 0.543313 1.93933 0
M  V30 5840 C 538.195 1.25098 3.23344 0
M  V30 5841 C 537.256 2.45634 3.52083 0
M  V30 5842 C 536.489 2.30772 4.81228 0
M  V30 5843 O 536.712 1.31233 5.55098 0
M  V30 5844 O 535.646 3.19799 5.09914 0
M  V30 5845 H 539.472 2.37168 1.89697 0
M  V30 5846 H 537.057 1.20663 0.880959 0
M  V30 5847 H 538.939 1.18541 4.04383 0
M  V30 5848 H 537.614 0.317209 3.22142 0
M  V30 5849 H 536.521 2.57767 2.71122 0
M  V30 5850 H 537.854 3.37712 3.58066 0
M  V30 5851 N 539.506 -0.963266 1.24736 0
M  V30 5852 C 540.453 -2.05857 1.04363 0
M  V30 5853 C 541.423 -1.6604 -0.0444951 0
M  V30 5854 O 542.608 -1.90477 0.110999 0
M  V30 5855 C 539.748 -3.38745 0.659235 0
M  V30 5856 C 538.861 -3.9173 1.82131 0
M  V30 5857 C 537.996 -5.12906 1.38208 0
M  V30 5858 C 537.035 -5.58098 2.51382 0
M  V30 5859 N 536.172 -6.7049 2.08295 0
M  V30 5860 H 541.012 -2.22616 1.98107 0
M  V30 5861 H 538.549 -1.09103 0.986661 0
M  V30 5862 H 540.507 -4.15107 0.417371 0
M  V30 5863 H 539.137 -3.21898 -0.241201 0
M  V30 5864 H 538.189 -3.11966 2.17672 0
M  V30 5865 H 539.501 -4.21225 2.67153 0
M  V30 5866 H 538.655 -5.96657 1.09935 0
M  V30 5867 H 537.394 -4.85105 0.502456 0
M  V30 5868 H 536.399 -4.72917 2.80409 0
M  V30 5869 H 537.624 -5.87911 3.39909 0
M  V30 5870 H 535.57 -6.44416 1.22737 0
M  V30 5871 H 535.487 -6.99458 2.86869 0
M  V30 5872 H 536.755 -7.57672 1.83175 0
M  V30 5873 N 540.985 -1.06182 -1.16461 0
M  V30 5874 C 541.915 -0.692861 -2.22984 0
M  V30 5875 C 542.896 0.314122 -1.67174 0
M  V30 5876 O 544.081 0.189499 -1.93273 0
M  V30 5877 C 541.211 -0.07732 -3.47214 0
M  V30 5878 C 540.165 -1.01015 -4.15909 0
M  V30 5879 C 539.491 -0.257973 -5.34077 0
M  V30 5880 C 540.791 -2.33868 -4.67015 0
M  V30 5881 H 542.485 -1.58343 -2.54102 0
M  V30 5882 H 540.031 -0.76279 -1.22137 0
M  V30 5883 H 541.984 0.19266 -4.20959 0
M  V30 5884 H 540.708 0.848254 -3.15392 0
M  V30 5885 H 539.367 -1.26486 -3.44088 0
M  V30 5886 H 539.015 0.670684 -4.98509 0
M  V30 5887 H 538.715 -0.879638 -5.80979 0
M  V30 5888 H 540.239 0.00448788 -6.106 0
M  V30 5889 H 541.653 -2.1279 -5.32347 0
M  V30 5890 H 540.05 -2.91522 -5.24533 0
M  V30 5891 H 541.12 -2.97019 -3.83286 0
M  V30 5892 N 542.463 1.3308 -0.844243 0
M  V30 5893 C 543.393 2.3161 -0.296493 0
M  V30 5894 C 544.374 1.59215 0.598707 0
M  V30 5895 O 545.559 1.87077 0.521134 0
M  V30 5896 C 542.689 3.43313 0.524762 0
M  V30 5897 C 541.643 4.27115 -0.275106 0
M  V30 5898 C 540.969 5.30483 0.670236 0
M  V30 5899 C 542.269 5.00443 -1.49514 0
M  V30 5900 H 543.963 2.77672 -1.11976 0
M  V30 5901 H 541.509 1.33496 -0.539899 0
M  V30 5902 H 543.462 4.11273 0.918298 0
M  V30 5903 H 542.186 2.95952 1.3813 0
M  V30 5904 H 540.845 3.60787 -0.650267 0
M  V30 5905 H 540.493 4.79379 1.52332 0
M  V30 5906 H 540.193 5.87435 0.139123 0
M  V30 5907 H 541.717 6.01308 1.06117 0
M  V30 5908 H 543.131 5.61141 -1.17447 0
M  V30 5909 H 541.528 5.67071 -1.96343 0
M  V30 5910 H 542.598 4.28906 -2.26202 0
M  V30 5911 N 543.941 0.601185 1.45683 0
M  V30 5912 C 545.357 0.264315 1.57396 0
M  V30 5913 C 545.557 -1.23324 1.59353 0
M  V30 5914 O 544.613 -2.01594 1.52039 0
M  V30 5915 C 545.926 0.929839 2.85962 0
M  V30 5916 C 547.474 0.905156 2.99626 0
M  V30 5917 C 547.949 1.55057 4.30954 0
M  V30 5918 N 549.44 1.51576 4.37697 0
M  V30 5919 C 550.175 1.98436 5.37969 0
M  V30 5920 N 549.671 2.53352 6.44813 0
M  V30 5921 N 551.464 1.89242 5.29286 0
M  V30 5922 H 543.615 1.57363 1.42656 0
M  V30 5923 H 545.878 0.658831 0.681649 0
M  V30 5924 H 545.584 1.98404 2.90394 0
M  V30 5925 H 545.458 0.449224 3.74515 0
M  V30 5926 H 547.845 -0.14048 2.94765 0
M  V30 5927 H 547.926 1.42397 2.12501 0
M  V30 5928 H 547.57 2.5955 4.36573 0
M  V30 5929 H 547.5 1.00682 5.16886 0
M  V30 5930 H 549.991 1.11452 3.61091 0
M  V30 5931 H 550.304 2.86918 7.17564 0
M  V30 5932 H 548.649 2.57388 6.45582 0
M  V30 5933 H 551.84 1.46083 4.44722 0
M  V30 5934 H 552.013 2.26075 6.07284 0
M  V30 5935 N 545.419 -1.53889 0.339982 0
M  V30 5936 C 546.329 -2.28604 -0.526988 0
M  V30 5937 C 547.345 -1.33578 -1.11503 0
M  V30 5938 O 548.521 -1.66612 -1.13148 0
M  V30 5939 C 545.586 -3.04164 -1.66389 0
M  V30 5940 C 544.647 -4.14809 -1.10599 0
M  V30 5941 C 543.88 -4.86756 -2.18871 0
M  V30 5942 O 544.103 -4.58343 -3.39526 0
M  V30 5943 O 543.037 -5.73289 -1.83366 0
M  V30 5944 H 546.863 -3.03594 0.0802707 0
M  V30 5945 H 544.448 -1.4903 0.105141 0
M  V30 5946 H 546.33 -3.51427 -2.32544 0
M  V30 5947 H 545.005 -2.32035 -2.25703 0
M  V30 5948 H 543.912 -3.71857 -0.409067 0
M  V30 5949 H 545.245 -4.89029 -0.557771 0
M  V30 5950 N 546.897 -0.0685191 -1.57451 0
M  V30 5951 C 548.143 0.602239 -1.93652 0
M  V30 5952 C 548.476 1.6946 -0.948526 0
M  V30 5953 O 547.751 1.94487 0.022782 0
M  V30 5954 C 548.034 1.18223 -3.4014 0
M  V30 5955 C 547.887 0.0967431 -4.49696 0
M  V30 5956 C 549.206 2.08872 -3.87377 0
M  V30 5957 H 546.325 0.217453 -0.70419 0
M  V30 5958 H 548.967 -0.133821 -1.89528 0
M  V30 5959 H 547.117 1.80953 -3.43785 0
M  V30 5960 H 548.789 -0.536155 -4.58174 0
M  V30 5961 H 547.032 -0.573063 -4.29998 0
M  V30 5962 H 547.703 0.542894 -5.49324 0
M  V30 5963 H 550.179 1.56081 -3.85717 0
M  V30 5964 H 549.055 2.46389 -4.90493 0
M  V30 5965 H 549.316 2.99572 -3.25129 0
M  V30 5966 N 548.375 1.56261 0.205012 0
M  V30 5967 C 549.652 1.70856 0.952233 0
M  V30 5968 C 550.032 0.620501 2.01775 0
M  V30 5969 O 549.38 -0.370035 2.25484 0
M  V30 5970 C 549.59 3.12807 1.54767 0
M  V30 5971 C 550.938 3.72733 2.0336 0
M  V30 5972 O 551.962 3.15873 1.64629 0
M  V30 5973 O 550.821 4.72501 2.746 0
M  V30 5974 H 547.915 0.696496 0.445895 0
M  V30 5975 H 550.461 1.6857 0.195489 0
M  V30 5976 H 549.233 3.83465 0.779132 0
M  V30 5977 H 548.856 3.1928 2.36951 0
M  V30 5978 N 549.853 -0.472356 1.50355 0
M  V30 5979 C 551.099 -1.22634 1.6152 0
M  V30 5980 C 551.432 -1.91645 0.313995 0
M  V30 5981 O 550.707 -1.82059 -0.684446 0
M  V30 5982 C 550.99 -2.27099 2.7946 0
M  V30 5983 C 550.843 -1.62402 4.19459 0
M  V30 5984 C 552.162 -3.28421 2.92964 0
M  V30 5985 H 549.281 -0.444494 0.587873 0
M  V30 5986 H 551.923 -0.520321 1.82737 0
M  V30 5987 H 550.073 -2.87314 2.61501 0
M  V30 5988 H 551.745 -1.05793 4.49005 0
M  V30 5989 H 549.988 -0.927184 4.23776 0
M  V30 5990 H 550.659 -2.38309 4.97909 0
M  V30 5991 H 553.135 -2.78227 3.09401 0
M  V30 5992 H 552.011 -3.98845 3.77113 0
M  V30 5993 H 552.272 -3.92467 2.03525 0
M  V30 5994 N 551.331 -1.39911 -0.725443 0
M  V30 5995 C 552.578 -1.37654 -1.48518 0
M  V30 5996 C 552.906 0.0243982 -1.94485 0
M  V30 5997 O 552.161 1.00708 -1.67799 0
M  V30 5998 C 552.46 -2.30368 -2.7325 0
M  V30 5999 C 552.126 -3.77817 -2.461 0
M  V30 6000 C 550.788 -4.17991 -2.38405 0
M  V30 6001 C 553.14 -4.71036 -2.23103 0
M  V30 6002 C 550.468 -5.49433 -2.05768 0
M  V30 6003 C 552.82 -6.02766 -1.9198 0
M  V30 6004 C 551.484 -6.41993 -1.82761 0
M  V30 6005 H 550.754 -0.503713 -0.543465 0
M  V30 6006 H 553.401 -1.7249 -0.831822 0
M  V30 6007 H 551.706 -1.88683 -3.43375 0
M  V30 6008 H 553.403 -2.2591 -3.31309 0
M  V30 6009 H 549.993 -3.45982 -2.52972 0
M  V30 6010 H 554.177 -4.40823 -2.2801 0
M  V30 6011 H 549.433 -5.78738 -1.9716 0
M  V30 6012 H 553.607 -6.74519 -1.73197 0
M  V30 6013 H 551.234 -7.43761 -1.57237 0
M  V30 6014 N 552.809 0.956637 -1.25245 0
M  V30 6015 C 553.756 2.053 -1.05454 0
M  V30 6016 C 554.726 1.66062 0.0356889 0
M  V30 6017 O 555.911 1.90415 -0.121099 0
M  V30 6018 C 553.051 3.38391 -0.677191 0
M  V30 6019 C 552.164 3.90758 -1.84206 0
M  V30 6020 C 551.299 5.12165 -1.40926 0
M  V30 6021 C 550.338 5.56757 -2.54338 0
M  V30 6022 N 549.475 6.69376 -2.11848 0
M  V30 6023 H 554.315 2.21562 -1.99284 0
M  V30 6024 H 551.852 1.08578 -0.992434 0
M  V30 6025 H 553.81 4.1488 -0.43938 0
M  V30 6026 H 552.44 3.22021 0.224127 0
M  V30 6027 H 551.492 3.10808 -2.19323 0
M  V30 6028 H 552.804 4.19802 -2.69383 0
M  V30 6029 H 551.958 5.96065 -1.13098 0
M  V30 6030 H 550.697 4.84832 -0.528175 0
M  V30 6031 H 549.702 4.71423 -2.82913 0
M  V30 6032 H 550.927 5.861 -3.43022 0
M  V30 6033 H 548.873 6.43756 -1.26153 0
M  V30 6034 H 548.79 6.97927 -2.90574 0
M  V30 6035 H 550.058 7.5669 -1.87191 0
M  V30 6036 N 554.287 1.06798 1.15896 0
M  V30 6037 C 555.197 0.694564 2.24083 0
M  V30 6038 C 556.213 -0.291687 1.71538 0
M  V30 6039 O 557.389 -0.139723 2.00915 0
M  V30 6040 C 554.454 0.0921014 3.46578 0
M  V30 6041 C 553.515 1.13087 4.14137 0
M  V30 6042 C 552.748 0.557064 5.30785 0
M  V30 6043 O 552.971 -0.628623 5.66925 0
M  V30 6044 O 551.905 1.29924 5.8771 0
M  V30 6045 H 555.731 1.59663 2.58344 0
M  V30 6046 H 553.316 0.840575 1.2351 0
M  V30 6047 H 555.198 -0.241884 4.20705 0
M  V30 6048 H 553.873 -0.78337 3.14078 0
M  V30 6049 H 552.78 1.51712 3.41957 0
M  V30 6050 H 554.113 1.97805 4.50704 0
M  V30 6051 N 555.766 -1.3263 0.851289 0
M  V30 6052 C 556.713 -2.28952 0.291469 0
M  V30 6053 C 557.683 -1.54897 -0.599676 0
M  V30 6054 O 558.868 -1.83137 -0.535305 0
M  V30 6055 C 556.008 -3.41206 -0.516992 0
M  V30 6056 C 555.121 -4.30148 0.399566 0
M  V30 6057 C 554.256 -5.29527 -0.4212 0
M  V30 6058 C 553.295 -6.10112 0.492969 0
M  V30 6059 N 552.432 -7.01499 -0.290414 0
M  V30 6060 H 557.272 -2.76228 1.11813 0
M  V30 6061 H 554.809 -1.35907 0.562826 0
M  V30 6062 H 556.767 -4.05005 -1.00132 0
M  V30 6063 H 555.397 -2.9509 -1.30851 0
M  V30 6064 H 554.449 -3.66959 1.00227 0
M  V30 6065 H 555.761 -4.8649 1.1013 0
M  V30 6066 H 554.915 -5.98914 -0.968832 0
M  V30 6067 H 553.654 -4.73794 -1.15632 0
M  V30 6068 H 552.659 -5.39632 1.05251 0
M  V30 6069 H 553.884 -6.6793 1.22664 0
M  V30 6070 H 551.83 -6.48199 -1.00868 0
M  V30 6071 H 551.747 -7.55178 0.352354 0
M  V30 6072 H 553.015 -7.75176 -0.819882 0
M  V30 6073 N 557.244 -0.608902 -1.45362 0
M  V30 6074 C 558.194 0.130616 -2.27626 0
M  V30 6075 C 559.178 0.837323 -1.37396 0
M  V30 6076 O 560.37 0.727096 -1.61376 0
M  V30 6077 C 557.499 1.12646 -3.24293 0
M  V30 6078 C 556.585 0.42052 -4.2201 0
M  V30 6079 N 556.976 -0.538569 -5.02925 0
M  V30 6080 C 555.274 0.667901 -4.40971 0
M  V30 6081 C 555.975 -0.953625 -5.7383 0
M  V30 6082 N 554.951 -0.297097 -5.42788 0
M  V30 6083 H 558.753 -0.605996 -2.87585 0
M  V30 6084 H 556.267 -0.432672 -1.5653 0
M  V30 6085 H 558.264 1.67066 -3.81961 0
M  V30 6086 H 556.924 1.86361 -2.65894 0
M  V30 6087 H 557.935 -0.915375 -5.09746 0
M  V30 6088 H 554.612 1.38963 -3.93695 0
M  V30 6089 H 556.002 -1.74473 -6.48852 0
M  V30 6090 N 558.722 1.53707 -0.348139 0
M  V30 6091 C 559.655 2.21481 0.549667 0
M  V30 6092 C 560.633 1.20046 1.09671 0
M  V30 6093 O 561.817 1.48883 1.15612 0
M  V30 6094 C 558.944 2.89585 1.75664 0
M  V30 6095 C 557.99 4.04948 1.33864 0
M  V30 6096 S 558.823 5.34325 0.354577 0
M  V30 6097 C 559.979 6.05934 1.56828 0
M  V30 6098 H 560.212 2.97289 -0.0259755 0
M  V30 6099 H 557.745 1.53833 -0.132216 0
M  V30 6100 H 559.703 3.29441 2.44906 0
M  V30 6101 H 558.364 2.13535 2.30351 0
M  V30 6102 H 557.557 4.51552 2.23868 0
M  V30 6103 H 557.159 3.66893 0.725651 0
M  V30 6104 H 559.451 6.29606 2.50205 0
M  V30 6105 H 560.394 6.98799 1.14395 0
M  V30 6106 H 560.802 5.36151 1.76642 0
M  V30 6107 N 560.2 0.0768682 1.57412 0
M  V30 6108 C 561.163 -0.873949 2.11884 0
M  V30 6109 C 562.163 -1.22301 1.04398 0
M  V30 6110 O 563.353 -1.15545 1.30365 0
M  V30 6111 C 560.485 -2.17575 2.62438 0
M  V30 6112 H 561.678 -0.401278 2.97203 0
M  V30 6113 H 559.231 -0.171904 1.55352 0
M  V30 6114 H 559.966 -2.69368 1.80587 0
M  V30 6115 H 559.751 -1.93534 3.41009 0
M  V30 6116 H 561.241 -2.85631 3.04639 0
M  V30 6117 N 561.678 -1.56367 -0.196722 0
M  V30 6118 C 563.089 -1.70462 -0.761545 0
M  V30 6119 C 563.44 -0.683161 -1.83922 0
M  V30 6120 O 562.565 0.160753 -2.15802 0
M  V30 6121 C 563.16 -3.09057 -1.38814 0
M  V30 6122 C 561.719 -3.24922 -1.90007 0
M  V30 6123 C 560.866 -2.66412 -0.769399 0
M  V30 6124 H 563.817 -1.58675 0.0283263 0
M  V30 6125 H 563.838 -3.06296 -2.2575 0
M  V30 6126 H 563.35 -3.83378 -0.603559 0
M  V30 6127 H 561.451 -2.55514 -2.71189 0
M  V30 6128 H 561.564 -4.3241 -2.06297 0
M  V30 6129 H 559.928 -2.25546 -1.18326 0
M  V30 6130 H 560.711 -3.433 0.00291773 0
M  V30 6131 N 563.156 0.464375 -1.50603 0
M  V30 6132 C 564.066 1.58723 -1.72754 0
M  V30 6133 C 565.082 1.62925 -0.610844 0
M  V30 6134 O 566.258 1.8067 -0.889963 0
M  V30 6135 C 563.323 2.94897 -1.82309 0
M  V30 6136 C 562.384 3.0103 -3.06071 0
M  V30 6137 C 561.617 4.30708 -3.1516 0
M  V30 6138 O 561.84 5.2159 -2.30868 0
M  V30 6139 O 560.774 4.42571 -4.0794 0
M  V30 6140 H 564.6 1.42954 -2.67951 0
M  V30 6141 H 562.185 0.644579 -1.3478 0
M  V30 6142 H 564.067 3.75764 -1.90735 0
M  V30 6143 H 562.742 3.10851 -0.902967 0
M  V30 6144 H 561.649 2.19217 -3.03142 0
M  V30 6145 H 562.982 2.90014 -3.97684 0
M  V30 6146 N 564.634 1.40294 0.718013 0
M  V30 6147 C 565.881 1.3844 1.47786 0
M  V30 6148 C 566.209 -0.0140838 1.94495 0
M  V30 6149 O 565.464 -0.998165 1.68331 0
M  V30 6150 C 565.763 2.31814 2.72024 0
M  V30 6151 C 565.429 3.79117 2.44093 0
M  V30 6152 C 564.091 4.19249 2.36185 0
M  V30 6153 C 566.443 4.72212 2.20602 0
M  V30 6154 C 563.771 5.50516 2.02851 0
M  V30 6155 C 566.123 6.03775 1.88781 0
M  V30 6156 C 564.787 6.42953 1.79354 0
M  V30 6157 H 564.057 0.506588 0.540786 0
M  V30 6158 H 566.704 1.72929 0.822663 0
M  V30 6159 H 565.009 1.90501 3.42369 0
M  V30 6160 H 566.706 2.27664 3.30106 0
M  V30 6161 H 563.296 3.47318 2.51133 0
M  V30 6162 H 567.48 4.42026 2.25669 0
M  V30 6163 H 562.736 5.79776 1.94088 0
M  V30 6164 H 566.91 6.75428 1.69617 0
M  V30 6165 H 564.537 7.44584 1.53291 0
M  V30 6166 N 566.112 -0.949982 1.2575 0
M  V30 6167 C 567.352 -1.70994 1.11984 0
M  V30 6168 C 567.716 -1.89095 -0.332746 0
M  V30 6169 O 568.917 -2.62192 -0.592331 0
M  V30 6170 C 567.188 -3.05286 1.85837 0
M  V30 6171 S 568.747 -3.96477 1.88019 0
M  V30 6172 H 565.565 -0.587689 0.400178 0
M  V30 6173 H 568.167 -1.13271 1.59342 0
M  V30 6174 H 566.871 -2.89785 2.90608 0
M  V30 6175 H 566.402 -3.68069 1.38885 0
M  V30 6176 H 568.417 -4.86814 0.96057 0
M  V30 6177 N 567.59 -1.07411 -1.15328 0
M  V30 6178 C 568.815 -0.818856 -1.90551 0
M  V30 6179 C 569.24 0.622194 -1.77512 0
M  V30 6180 O 568.598 1.43484 -1.10824 0
M  V30 6181 C 568.646 -1.23267 -3.38877 0
M  V30 6182 O 567.75 -0.378345 -4.10661 0
M  V30 6183 H 567.091 -0.29827 -0.593238 0
M  V30 6184 H 569.621 -1.43289 -1.46046 0
M  V30 6185 H 569.631 -1.20912 -3.89672 0
M  V30 6186 H 568.306 -2.28226 -3.47686 0
M  V30 6187 H 566.883 -0.464437 -3.69996 0
M  V30 6188 N 569.068 1.32177 -0.85831 0
M  V30 6189 C 569.998 2.31282 -0.321041 0
M  V30 6190 C 570.979 1.59841 0.581786 0
M  V30 6191 O 572.164 1.87619 0.501262 0
M  V30 6192 C 569.294 3.4385 0.48832 0
M  V30 6193 C 568.248 4.26799 -0.320391 0
M  V30 6194 C 567.574 5.31164 0.613934 0
M  V30 6195 C 568.874 4.98829 -1.54813 0
M  V30 6196 H 570.568 2.76469 -1.14915 0
M  V30 6197 H 568.114 1.32916 -0.554028 0
M  V30 6198 H 570.067 4.12224 0.874626 0
M  V30 6199 H 568.791 2.97401 1.34983 0
M  V30 6200 H 567.45 3.60077 -0.688497 0
M  V30 6201 H 567.098 4.80967 1.47239 0
M  V30 6202 H 566.798 5.8755 0.0768097 0
M  V30 6203 H 568.322 6.024 0.997336 0
M  V30 6204 H 569.736 5.59864 -1.23392 0
M  V30 6205 H 568.133 5.64957 -2.02346 0
M  V30 6206 H 569.203 4.26483 -2.30739 0
M  V30 6207 N 570.547 0.616602 1.45037 0
M  V30 6208 C 571.457 -0.0985401 2.34393 0
M  V30 6209 C 572.473 -0.850971 1.51771 0
M  V30 6210 O 573.649 -0.806521 1.84546 0
M  V30 6211 C 570.714 -1.07748 3.29532 0
M  V30 6212 C 569.775 -0.326022 4.2806 0
M  V30 6213 C 569.008 -1.25833 5.18654 0
M  V30 6214 O 569.231 -2.49652 5.12864 0
M  V30 6215 O 568.165 -0.750512 5.97203 0
M  V30 6216 H 571.991 0.636016 2.96966 0
M  V30 6217 H 569.576 0.376832 1.44569 0
M  V30 6218 H 571.458 -1.64107 3.88133 0
M  V30 6219 H 570.133 -1.79291 2.69512 0
M  V30 6220 H 569.04 0.280253 3.73049 0
M  V30 6221 H 570.373 0.349091 4.9096 0
M  V30 6222 N 572.025 -1.5352 0.356285 0
M  V30 6223 C 572.935 -2.29151 -0.502712 0
M  V30 6224 C 573.951 -1.34753 -1.1008 0
M  V30 6225 O 575.127 -1.67803 -1.11374 0
M  V30 6226 C 572.192 -3.05911 -1.63154 0
M  V30 6227 C 571.253 -4.15958 -1.06194 0
M  V30 6228 C 570.486 -4.8905 -2.13696 0
M  V30 6229 O 570.709 -4.61919 -3.34645 0
M  V30 6230 O 569.643 -5.75202 -1.77275 0
M  V30 6231 H 573.469 -3.03492 0.112466 0
M  V30 6232 H 571.054 -1.4891 0.120942 0
M  V30 6233 H 572.936 -3.53874 -2.28804 0
M  V30 6234 H 571.611 -2.34415 -2.23229 0
M  V30 6235 H 570.518 -3.7227 -0.369603 0
M  V30 6236 H 571.851 -4.89593 -0.505872 0
M  V30 6237 N 573.503 -0.0852151 -1.57369 0
M  V30 6238 C 574.751 0.579658 -1.93609 0
M  V30 6239 C 575.072 1.69332 -0.967043 0
M  V30 6240 O 574.342 1.95892 -0.0174215 0
M  V30 6241 H 572.922 0.217113 -0.714752 0
M  V30 6242 H 575.584 -0.146226 -1.94351 0
M  V30 6243 H 574.68 0.996276 -2.95771 0
M  V30 6244 N 574.981 1.5647 0.188427 0
M  V30 6245 C 575.911 1.98101 1.23606 0
M  V30 6246 C 576.892 0.853961 1.47111 0
M  V30 6247 O 578.077 1.11879 1.58735 0
M  V30 6248 C 575.207 2.32624 2.57882 0
M  V30 6249 C 574.161 3.48129 2.48978 0
M  V30 6250 C 573.487 3.68347 3.87588 0
M  V30 6251 C 574.787 4.82112 2.00911 0
M  V30 6252 H 576.481 2.85864 0.890068 0
M  V30 6253 H 574.027 1.37532 0.426714 0
M  V30 6254 H 575.98 2.60343 3.3136 0
M  V30 6255 H 574.704 1.41751 2.94235 0
M  V30 6256 H 573.363 3.20511 1.77956 0
M  V30 6257 H 573.011 2.74793 4.21305 0
M  V30 6258 H 572.711 4.46055 3.82503 0
M  V30 6259 H 574.235 3.98449 4.62678 0
M  V30 6260 H 575.649 5.08819 2.64151 0
M  V30 6261 H 574.046 5.63337 2.06814 0
M  V30 6262 H 575.116 4.75249 0.96262 0
M  V30 6263 N 576.459 -0.456382 1.50847 0
M  V30 6264 C 577.87 -1.03685 1.55262 0
M  V30 6265 C 578.221 -1.92779 0.364771 0
M  V30 6266 O 577.346 -2.10043 -0.52068 0
M  V30 6267 C 577.941 -1.88718 2.81374 0
M  V30 6268 C 576.5 -2.41847 2.88422 0
M  V30 6269 C 575.647 -1.20564 2.49719 0
M  V30 6270 H 578.598 -0.238399 1.56899 0
M  V30 6271 H 578.619 -2.73957 2.6406 0
M  V30 6272 H 578.131 -1.23847 3.67809 0
M  V30 6273 H 576.232 -3.10228 2.06372 0
M  V30 6274 H 576.345 -2.75947 3.9165 0
M  V30 6275 H 574.709 -1.54504 2.02486 0
M  V30 6276 H 575.492 -0.573326 3.38479 0
M  V30 6277 N 577.937 -1.40673 -0.710563 0
M  V30 6278 C 579.167 -1.4234 -1.49742 0
M  V30 6279 C 579.575 -0.022821 -1.89186 0
M  V30 6280 O 578.918 0.964773 -1.56326 0
M  V30 6281 C 578.98 -2.25509 -2.79975 0
M  V30 6282 C 578.644 -3.73862 -2.62824 0
M  V30 6283 C 579.641 -4.66379 -2.29752 0
M  V30 6284 C 577.326 -4.17735 -2.78932 0
M  V30 6285 C 579.32 -6.00756 -2.13006 0
M  V30 6286 C 577.007 -5.5218 -2.61802 0
M  V30 6287 C 578.005 -6.43505 -2.28888 0
M  V30 6288 O 577.693 -7.75472 -2.11894 0
M  V30 6289 H 577.425 -0.487311 -0.468513 0
M  V30 6290 H 579.979 -1.8542 -0.883668 0
M  V30 6291 H 578.209 -1.77218 -3.43701 0
M  V30 6292 H 579.898 -2.19058 -3.41714 0
M  V30 6293 H 580.664 -4.33778 -2.16936 0
M  V30 6294 H 576.543 -3.46967 -3.03537 0
M  V30 6295 H 580.087 -6.72003 -1.87237 0
M  V30 6296 H 575.984 -5.84365 -2.74204 0
M  V30 6297 H 576.752 -7.86458 -2.26775 0
M  V30 6298 N 579.415 0.9433 -1.26252 0
M  V30 6299 C 580.345 2.05902 -1.10122 0
M  V30 6300 C 581.326 1.70099 -0.00700552 0
M  V30 6301 O 582.511 1.93377 -0.178641 0
M  V30 6302 C 579.641 3.39516 -0.731175 0
M  V30 6303 C 578.595 3.89372 -1.77688 0
M  V30 6304 C 577.921 5.19613 -1.26122 0
M  V30 6305 C 579.221 4.14489 -3.17799 0
M  V30 6306 H 580.915 2.19655 -2.03451 0
M  V30 6307 H 578.461 1.05548 -0.979576 0
M  V30 6308 H 580.414 4.17031 -0.605215 0
M  V30 6309 H 579.138 3.25733 0.23782 0
M  V30 6310 H 577.797 3.14036 -1.89148 0
M  V30 6311 H 577.445 5.02208 -0.282128 0
M  V30 6312 H 577.145 5.53939 -1.96023 0
M  V30 6313 H 578.669 5.99713 -1.14789 0
M  V30 6314 H 580.083 4.82625 -3.09428 0
M  V30 6315 H 578.48 4.60094 -3.85271 0
M  V30 6316 H 579.55 3.20347 -3.64014 0
M  V30 6317 N 580.893 1.08022 1.14757 0
M  V30 6318 C 582.17 0.720386 1.81851 0
M  V30 6319 C 582.55 -0.796375 1.95502 0
M  V30 6320 O 581.898 -1.71339 1.51179 0
M  V30 6321 C 582.108 1.44273 3.17783 0
M  V30 6322 C 583.456 1.59925 3.93331 0
M  V30 6323 O 584.48 1.40407 3.2736 0
M  V30 6324 O 583.339 1.92096 5.11626 0
M  V30 6325 H 580.433 0.257142 0.786007 0
M  V30 6326 H 582.979 1.18155 1.21809 0
M  V30 6327 H 581.751 2.47618 3.02987 0
M  V30 6328 H 581.374 0.97279 3.85516 0
M  V30 6329 N 582.371 -1.3172 0.865308 0
M  V30 6330 C 583.304 -2.26687 0.262376 0
M  V30 6331 C 584.282 -1.50894 -0.605787 0
M  V30 6332 O 585.466 -1.79982 -0.56024 0
M  V30 6333 C 582.593 -3.3281 -0.628915 0
M  V30 6334 C 581.639 -4.26172 0.167278 0
M  V30 6335 S 582.472 -5.12797 1.54272 0
M  V30 6336 C 583.628 -6.22438 0.657427 0
M  V30 6337 H 583.861 -2.77478 1.0674 0
M  V30 6338 H 581.394 -1.39414 0.663555 0
M  V30 6339 H 583.352 -3.94426 -1.13747 0
M  V30 6340 H 582.013 -2.80782 -1.40785 0
M  V30 6341 H 581.206 -5.01392 -0.51203 0
M  V30 6342 H 580.808 -3.69029 0.607777 0
M  V30 6343 H 583.1 -6.77368 -0.133925 0
M  V30 6344 H 584.043 -6.9451 1.38061 0
M  V30 6345 H 584.451 -5.64043 0.227044 0
M  V30 6346 N 583.85 -0.624285 -1.44708 0
M  V30 6347 C 585.096 -0.126237 -2.02407 0
M  V30 6348 C 585.428 1.24618 -1.48943 0
M  V30 6349 O 584.704 1.82569 -0.670742 0
M  V30 6350 C 584.986 -0.105449 -3.59946 0
M  V30 6351 C 584.84 -1.50972 -4.23707 0
M  V30 6352 C 586.159 0.573629 -4.36346 0
M  V30 6353 H 583.278 -0.0473472 -0.735478 0
M  V30 6354 H 585.92 -0.799452 -1.72362 0
M  V30 6355 H 584.07 0.46783 -3.85673 0
M  V30 6356 H 585.742 -2.13136 -4.0911 0
M  V30 6357 H 583.985 -2.0656 -3.81465 0
M  V30 6358 H 584.656 -1.44727 -5.32689 0
M  V30 6359 H 587.132 0.0861787 -4.16011 0
M  V30 6360 H 586.008 0.557338 -5.46063 0
M  V30 6361 H 586.269 1.64276 -4.10446 0
M  V30 6362 N 585.328 1.53329 -0.364422 0
M  V30 6363 C 586.577 2.00421 0.226747 0
M  V30 6364 C 586.89 1.25581 1.49963 0
M  V30 6365 O 588.096 1.63256 2.16933 0
M  V30 6366 C 586.552 3.57017 0.454618 0
M  V30 6367 C 586.16 4.40734 -0.803568 0
M  V30 6368 C 587.904 4.12468 1.00351 0
M  V30 6369 C 585.811 5.8888 -0.545345 0
M  V30 6370 H 584.741 0.748787 0.0885082 0
M  V30 6371 H 587.392 1.7703 -0.482983 0
M  V30 6372 H 585.774 3.76558 1.22558 0
M  V30 6373 H 586.948 4.32967 -1.57723 0
M  V30 6374 H 585.263 3.96381 -1.27559 0
M  V30 6375 H 587.86 5.20783 1.212 0
M  V30 6376 H 588.203 3.6699 1.9653 0
M  V30 6377 H 588.736 3.96721 0.29274 0
M  V30 6378 H 585.475 6.38633 -1.47743 0
M  V30 6379 H 584.995 5.99499 0.189842 0
M  V30 6380 H 586.674 6.46776 -0.170425 0
M  V30 6381 N 586.806 0.0935595 1.57322 0
M  V30 6382 C 587.769 -0.851426 2.12799 0
M  V30 6383 C 588.769 -1.21187 1.0569 0
M  V30 6384 O 589.959 -1.14156 1.31583 0
M  V30 6385 C 587.091 -2.14779 2.64731 0
M  V30 6386 H 588.284 -0.369733 2.97612 0
M  V30 6387 H 585.837 -0.155417 1.55525 0
M  V30 6388 H 586.572 -2.67437 1.83434 0
M  V30 6389 H 586.357 -1.89907 3.43042 0
M  V30 6390 H 587.847 -2.82383 3.07651 0
M  V30 6391 N 588.284 -1.56567 -0.180126 0
M  V30 6392 C 589.194 -1.98947 -1.24327 0
M  V30 6393 C 590.21 -0.899446 -1.4895 0
M  V30 6394 O 591.386 -1.20639 -1.61271 0
M  V30 6395 C 588.451 -2.33328 -2.56435 0
M  V30 6396 C 587.512 -3.56114 -2.39752 0
M  V30 6397 C 586.745 -3.88845 -3.65561 0
M  V30 6398 O 586.968 -3.22662 -4.70368 0
M  V30 6399 O 585.902 -4.82226 -3.60197 0
M  V30 6400 H 589.728 -2.89634 -0.913565 0
M  V30 6401 H 587.313 -1.44319 -0.386306 0
M  V30 6402 H 589.195 -2.5645 -3.34382 0
M  V30 6403 H 587.87 -1.45806 -2.89002 0
M  V30 6404 H 586.777 -3.38221 -1.59866 0
M  V30 6405 H 588.11 -4.4415 -2.12113 0
M  V30 6406 N 589.762 0.448376 -1.51087 0
M  V30 6407 C 590.99 1.22143 -1.66999 0
M  V30 6408 C 591.405 1.85283 -0.362699 0
M  V30 6409 O 590.762 1.70236 0.65772 0
M  V30 6410 C 590.813 2.31357 -2.7777 0
M  V30 6411 O 590.534 1.70801 -4.03434 0
M  V30 6412 C 592.035 3.21836 -3.04855 0
M  V30 6413 H 589.255 0.368558 -0.560719 0
M  V30 6414 H 591.799 0.532618 -1.97442 0
M  V30 6415 H 589.954 2.95973 -2.49958 0
M  V30 6416 H 590.368 2.42895 -4.64868 0
M  V30 6417 H 591.842 3.94627 -3.85971 0
M  V30 6418 H 592.319 3.81949 -2.16821 0
M  V30 6419 H 592.925 2.62933 -3.34285 0
M  V30 6420 N 591.24 1.41047 0.703093 0
M  V30 6421 C 592.17 1.45067 1.82969 0
M  V30 6422 C 593.151 0.31016 1.67248 0
M  V30 6423 O 594.336 0.520548 1.87093 0
M  V30 6424 C 591.466 1.32478 3.2104 0
M  V30 6425 C 590.42 2.44262 3.51454 0
M  V30 6426 C 589.746 2.16742 4.88801 0
M  V30 6427 C 591.046 3.86606 3.51189 0
M  V30 6428 H 592.74 2.39353 1.79863 0
M  V30 6429 H 590.286 1.15206 0.863919 0
M  V30 6430 H 592.239 1.33904 3.99559 0
M  V30 6431 H 590.963 0.346735 3.24754 0
M  V30 6432 H 589.622 2.42107 2.75282 0
M  V30 6433 H 589.27 1.17299 4.89132 0
M  V30 6434 H 588.97 2.91643 5.10116 0
M  V30 6435 H 590.494 2.19872 5.69639 0
M  V30 6436 H 591.908 3.90517 4.19725 0
M  V30 6437 H 590.305 4.61128 3.84033 0
M  V30 6438 H 591.375 4.15296 2.50315 0
M  V30 6439 N 592.718 -0.936591 1.26751 0
M  V30 6440 C 594.134 -1.21095 1.03963 0
M  V30 6441 C 594.334 -2.00156 -0.232372 0
M  V30 6442 O 593.39 -2.3434 -0.940274 0
M  V30 6443 C 594.703 -1.96775 2.27377 0
M  V30 6444 C 596.251 -2.09749 2.32324 0
M  V30 6445 C 596.726 -2.88832 3.55443 0
M  V30 6446 N 598.217 -2.96404 3.55948 0
M  V30 6447 C 598.952 -3.58036 4.47881 0
M  V30 6448 N 598.448 -4.21132 5.50109 0
M  V30 6449 N 600.241 -3.55353 4.35523 0
M  V30 6450 H 592.392 -0.408173 2.08441 0
M  V30 6451 H 594.655 -0.243139 0.91629 0
M  V30 6452 H 594.361 -1.46094 3.19921 0
M  V30 6453 H 594.235 -2.97424 2.31989 0
M  V30 6454 H 596.622 -2.5962 1.40291 0
M  V30 6455 H 596.703 -1.08347 2.31721 0
M  V30 6456 H 596.347 -2.39647 4.47808 0
M  V30 6457 H 596.277 -3.90499 3.53296 0
M  V30 6458 H 598.768 -2.51552 2.82011 0
M  V30 6459 H 599.081 -4.66071 6.16439 0
M  V30 6460 H 597.426 -4.19705 5.53961 0
M  V30 6461 H 600.617 -3.05256 3.54875 0
M  V30 6462 H 600.79 -4.03097 5.07363 0
M  V30 6463 N 594.196 -1.08629 -1.14182 0
M  V30 6464 C 595.129 -0.662329 -2.18377 0
M  V30 6465 C 596.107 0.327054 -1.59277 0
M  V30 6466 O 597.291 0.230376 -1.87087 0
M  V30 6467 C 594.418 0.0254765 -3.3869 0
M  V30 6468 C 593.464 -0.924414 -4.16361 0
M  V30 6469 S 594.297 -2.43226 -4.77076 0
M  V30 6470 C 595.453 -1.75663 -6.00744 0
M  V30 6471 H 595.686 -1.54501 -2.54001 0
M  V30 6472 H 593.219 -0.901484 -1.2535 0
M  V30 6473 H 595.177 0.416032 -4.08386 0
M  V30 6474 H 593.838 0.884689 -3.01384 0
M  V30 6475 H 593.031 -0.390099 -5.02488 0
M  V30 6476 H 592.633 -1.25598 -3.5228 0
M  V30 6477 H 594.925 -1.07589 -6.68903 0
M  V30 6478 H 595.868 -2.59673 -6.58768 0
M  V30 6479 H 596.276 -1.22903 -5.50958 0
M  V30 6480 N 595.674 1.31259 -0.872281 0
M  V30 6481 C 596.904 2.00504 -0.498183 0
M  V30 6482 C 597.312 1.65632 0.914479 0
M  V30 6483 O 596.655 0.882849 1.61095 0
M  V30 6484 C 596.717 3.5482 -0.578194 0
M  V30 6485 C 596.381 4.13172 -1.95289 0
M  V30 6486 C 597.378 4.30107 -2.92069 0
M  V30 6487 C 595.063 4.48846 -2.25483 0
M  V30 6488 C 597.057 4.81908 -4.17185 0
M  V30 6489 C 594.744 5.00349 -3.50847 0
M  V30 6490 C 595.742 5.16831 -4.46514 0
M  V30 6491 O 595.43 5.67228 -5.69656 0
M  V30 6492 H 595.162 0.648055 -0.192354 0
M  V30 6493 H 597.716 1.6841 -1.17589 0
M  V30 6494 H 595.946 3.86383 0.156438 0
M  V30 6495 H 597.635 4.05318 -0.217192 0
M  V30 6496 H 598.401 4.02862 -2.7005 0
M  V30 6497 H 594.28 4.35292 -1.51795 0
M  V30 6498 H 597.824 4.94688 -4.91863 0
M  V30 6499 H 593.721 5.27028 -3.72708 0
M  V30 6500 H 594.489 5.85592 -5.7186 0
M  V30 6501 N 597.152 0.631951 1.44375 0
M  V30 6502 C 598.563 0.219036 1.85411 0
M  V30 6503 C 598.914 -1.22974 1.52879 0
M  V30 6504 O 598.039 -1.93579 0.967266 0
M  V30 6505 C 598.634 0.39075 3.36539 0
M  V30 6506 C 597.193 0.0323351 3.76386 0
M  V30 6507 C 596.34 0.703744 2.68221 0
M  V30 6508 H 599.291 0.837056 1.3483 0
M  V30 6509 H 599.312 -0.370056 3.78696 0
M  V30 6510 H 598.824 1.44527 3.60185 0
M  V30 6511 H 596.925 -1.02042 3.58355 0
M  V30 6512 H 597.038 0.442969 4.77048 0
M  V30 6513 H 595.402 0.138974 2.54321 0
M  V30 6514 H 596.185 1.76088 2.947 0
M  V30 6515 N 598.631 -1.53133 0.372548 0
M  V30 6516 C 600.042 -1.86404 -0.105155 0
M  V30 6517 C 600.393 -1.29289 -1.47576 0
M  V30 6518 O 599.518 -0.617646 -2.07398 0
M  V30 6519 C 600.113 -3.38223 -0.197588 0
M  V30 6520 C 598.672 -3.71266 -0.619556 0
M  V30 6521 C 597.819 -2.76353 0.228919 0
M  V30 6522 H 600.77 -1.47282 0.591077 0
M  V30 6523 H 600.791 -3.66577 -1.01987 0
M  V30 6524 H 600.303 -3.79763 0.800099 0
M  V30 6525 H 598.404 -3.35287 -1.62522 0
M  V30 6526 H 598.517 -4.77515 -0.389332 0
M  V30 6527 H 596.881 -2.52888 -0.303271 0
M  V30 6528 H 597.664 -3.20728 1.22428 0
M  V30 6529 N 600.109 -0.101901 -1.5727 0
M  V30 6530 C 601.072 0.840129 -2.13247 0
M  V30 6531 C 602.072 1.20625 -1.06331 0
M  V30 6532 O 603.262 1.13456 -1.32186 0
M  V30 6533 C 600.394 2.13372 -2.65867 0
M  V30 6534 H 601.587 0.353945 -2.97804 0
M  V30 6535 H 599.14 0.147167 -1.55606 0
M  V30 6536 H 599.875 2.66461 -1.84849 0
M  V30 6537 H 599.66 1.88085 -3.44044 0
M  V30 6538 H 601.15 2.80748 -3.09145 0
M  V30 6539 N 601.587 1.56661 0.17182 0
M  V30 6540 C 602.834 1.81965 0.888529 0
M  V30 6541 C 603.162 0.6789 1.82267 0
M  V30 6542 O 602.417 -0.333875 1.92831 0
M  V30 6543 C 602.716 3.13435 1.71736 0
M  V30 6544 C 602.382 4.41159 0.932184 0
M  V30 6545 C 601.044 4.75851 0.715481 0
M  V30 6546 C 603.396 5.19803 0.381387 0
M  V30 6547 C 600.724 5.86666 -0.063126 0
M  V30 6548 C 603.076 6.31433 -0.384129 0
M  V30 6549 C 601.74 6.64692 -0.611637 0
M  V30 6550 H 601.01 0.665859 0.325136 0
M  V30 6551 H 603.657 1.90884 0.153495 0
M  V30 6552 H 601.962 2.99857 2.52177 0
M  V30 6553 H 603.659 3.30224 2.27493 0
M  V30 6554 H 600.249 4.13947 1.11112 0
M  V30 6555 H 604.433 4.93396 0.536148 0
M  V30 6556 H 599.689 6.10892 -0.249136 0
M  V30 6557 H 603.863 6.91577 -0.818185 0
M  V30 6558 H 601.49 7.50398 -1.21684 0
M  V30 6559 N 603.065 -0.440357 1.51323 0
M  V30 6560 C 604.481 -0.7766 1.39431 0
M  V30 6561 C 604.681 -1.95838 0.474296 0
M  V30 6562 O 603.737 -2.52398 -0.0716692 0
M  V30 6563 C 605.05 -1.05981 2.81405 0
M  V30 6564 C 606.598 -1.16442 2.90534 0
M  V30 6565 C 607.073 -1.48058 4.33408 0
M  V30 6566 N 608.564 -1.54988 4.36501 0
M  V30 6567 C 609.299 -1.81017 5.44078 0
M  V30 6568 N 608.795 -2.04858 6.61819 0
M  V30 6569 N 610.588 -1.82774 5.31554 0
M  V30 6570 H 602.739 0.338006 2.09693 0
M  V30 6571 H 605.002 0.0888072 0.943831 0
M  V30 6572 H 604.708 -0.264173 3.50706 0
M  V30 6573 H 604.582 -1.98822 3.20546 0
M  V30 6574 H 606.969 -1.95068 2.21432 0
M  V30 6575 H 607.05 -0.215088 2.54894 0
M  V30 6576 H 606.694 -0.699605 5.03059 0
M  V30 6577 H 606.624 -2.44192 4.66559 0
M  V30 6578 H 609.115 -1.38479 3.51613 0
M  V30 6579 H 609.428 -2.2408 7.396 0
M  V30 6580 H 607.773 -2.02187 6.6494 0
M  V30 6581 H 610.964 -1.63665 4.38556 0
M  V30 6582 H 611.137 -2.02722 6.15474 0
M  V30 6583 N 604.543 -1.41418 -0.695603 0
M  V30 6584 C 605.79 -1.40774 -1.45564 0
M  V30 6585 C 606.118 -0.0168604 -1.94493 0
M  V30 6586 O 605.373 0.971259 -1.69897 0
M  V30 6587 C 605.672 -2.36112 -2.68302 0
M  V30 6588 C 605.338 -3.82952 -2.38031 0
M  V30 6589 C 604 -4.22954 -2.29486 0
M  V30 6590 C 606.352 -4.75662 -2.13061 0
M  V30 6591 C 603.68 -5.53674 -1.94067 0
M  V30 6592 C 606.032 -6.06702 -1.79151 0
M  V30 6593 C 604.696 -6.45725 -1.69102 0
M  V30 6594 H 603.966 -0.515128 -0.532658 0
M  V30 6595 H 606.613 -1.74216 -0.795047 0
M  V30 6596 H 604.918 -1.95924 -3.39295 0
M  V30 6597 H 606.615 -2.32887 -3.26442 0
M  V30 6598 H 603.205 -3.5127 -2.45576 0
M  V30 6599 H 607.389 -4.45561 -2.18608 0
M  V30 6600 H 602.645 -5.8279 -1.8484 0
M  V30 6601 H 606.819 -6.78041 -1.5885 0
M  V30 6602 H 604.446 -7.46929 -1.41426 0
M  V30 6603 N 606.021 0.929856 -1.27246 0
M  V30 6604 C 607.249 1.71144 -1.16265 0
M  V30 6605 C 607.664 1.867 0.280786 0
M  V30 6606 O 607.021 1.38249 1.19136 0
M  V30 6607 C 607.072 3.11222 -1.83911 0
M  V30 6608 O 606.793 2.96398 -3.22614 0
M  V30 6609 C 608.294 4.05541 -1.79028 0
M  V30 6610 H 605.514 0.535499 -0.404328 0
M  V30 6611 H 608.058 1.16492 -1.68077 0
M  V30 6612 H 606.213 3.6274 -1.36009 0
M  V30 6613 H 606.627 3.8494 -3.56261 0
M  V30 6614 H 608.101 5.01351 -2.30978 0
M  V30 6615 H 608.578 4.32589 -0.759168 0
M  V30 6616 H 609.184 3.59947 -2.26535 0
M  V30 6617 N 607.499 1.09233 1.13605 0
M  V30 6618 C 608.915 0.82163 1.36826 0
M  V30 6619 C 609.115 -0.565021 1.93416 0
M  V30 6620 O 608.171 -1.32026 2.15234 0
M  V30 6621 C 609.484 1.91124 2.32147 0
M  V30 6622 C 611.032 1.93824 2.45767 0
M  V30 6623 C 611.507 3.01923 3.44393 0
M  V30 6624 N 612.998 3.01149 3.51942 0
M  V30 6625 C 613.733 3.81434 4.2813 0
M  V30 6626 N 613.229 4.71621 5.07489 0
M  V30 6627 N 615.022 3.69702 4.23411 0
M  V30 6628 H 607.173 1.98633 0.752234 0
M  V30 6629 H 609.436 0.862482 0.393482 0
M  V30 6630 H 609.142 2.90862 1.97717 0
M  V30 6631 H 609.016 1.78777 3.32142 0
M  V30 6632 H 611.403 0.94726 2.79483 0
M  V30 6633 H 611.484 2.10248 1.45703 0
M  V30 6634 H 611.128 4.01232 3.11408 0
M  V30 6635 H 611.058 2.82742 4.44257 0
M  V30 6636 H 613.549 2.35789 2.95317 0
M  V30 6637 H 613.862 5.29468 5.62924 0
M  V30 6638 H 612.207 4.75658 5.06729 0
M  V30 6639 H 615.398 2.98606 3.60489 0
M  V30 6640 H 615.571 4.32509 4.82535 0
M  V30 6641 N 608.977 -1.30795 0.87923 0
M  V30 6642 C 609.887 -2.32041 0.345565 0
M  V30 6643 C 610.903 -1.65103 -0.549265 0
M  V30 6644 O 612.079 -1.9645 -0.443763 0
M  V30 6645 C 609.144 -3.43944 -0.436245 0
M  V30 6646 C 608.205 -4.26521 0.48765 0
M  V30 6647 C 607.438 -5.33081 -0.256943 0
M  V30 6648 O 607.661 -5.50762 -1.48381 0
M  V30 6649 O 606.595 -6.00635 0.389985 0
M  V30 6650 H 610.421 -2.79627 1.18501 0
M  V30 6651 H 608.006 -1.3486 0.642885 0
M  V30 6652 H 609.888 -4.12128 -0.879119 0
M  V30 6653 H 608.563 -2.98504 -1.25208 0
M  V30 6654 H 607.47 -3.61057 0.979216 0
M  V30 6655 H 608.803 -4.75551 1.26933 0
M  V30 6656 N 610.455 -0.639598 -1.44038 0
M  V30 6657 C 611.418 0.0506628 -2.29144 0
M  V30 6658 C 612.418 0.764001 -1.41491 0
M  V30 6659 O 613.608 0.607309 -1.63271 0
M  V30 6660 C 610.74 1.0824 -3.2326 0
M  V30 6661 H 611.933 -0.697987 -2.91664 0
M  V30 6662 H 609.486 -0.400146 -1.51091 0
M  V30 6663 H 610.221 1.86075 -2.65606 0
M  V30 6664 H 610.006 0.574725 -3.87865 0
M  V30 6665 H 611.496 1.56487 -3.87171 0
M  V30 6666 N 611.933 1.52934 -0.380664 0
M  V30 6667 C 612.896 2.24809 0.446473 0
M  V30 6668 C 613.896 1.26133 0.997347 0
M  V30 6669 O 615.086 1.50297 0.880714 0
M  V30 6670 C 612.218 2.99649 1.62553 0
M  V30 6671 H 613.411 2.99343 -0.182677 0
M  V30 6672 H 610.964 1.55736 -0.132618 0
M  V30 6673 H 611.699 2.29395 2.29235 0
M  V30 6674 H 611.484 3.72066 1.23732 0
M  V30 6675 H 612.974 3.54246 2.21133 0
M  V30 6676 N 613.412 0.11024 1.57214 0
M  V30 6677 C 614.344 -0.873497 2.11902 0
M  V30 6678 C 615.357 -1.23588 1.05971 0
M  V30 6679 O 616.546 -1.18636 1.33371 0
M  V30 6680 C 613.646 -2.17805 2.59643 0
M  V30 6681 C 612.819 -1.98869 3.89576 0
M  V30 6682 C 611.878 -3.12974 4.23006 0
M  V30 6683 O 610.904 -2.86272 4.91973 0
M  V30 6684 N 612.106 -4.39167 3.79622 0
M  V30 6685 H 614.871 -0.406317 2.96933 0
M  V30 6686 H 612.432 -0.074437 1.61729 0
M  V30 6687 H 614.424 -2.93117 2.79042 0
M  V30 6688 H 612.994 -2.55899 1.7954 0
M  V30 6689 H 612.214 -1.078 3.79174 0
M  V30 6690 H 613.502 -1.83512 4.74553 0
M  V30 6691 H 612.9 -4.63739 3.2398 0
M  V30 6692 H 611.457 -5.11379 4.04147 0
M  V30 6693 N 614.89 -1.56749 -0.16351 0
M  V30 6694 C 616.167 -1.73321 -0.906599 0
M  V30 6695 C 616.547 -0.673779 -2.00059 0
M  V30 6696 O 615.895 0.310121 -2.26386 0
M  V30 6697 C 616.105 -3.168 -1.46419 0
M  V30 6698 C 617.453 -3.77993 -1.93407 0
M  V30 6699 O 618.477 -3.20127 -1.56196 0
M  V30 6700 O 617.336 -4.79615 -2.61976 0
M  V30 6701 H 614.43 -0.708073 -0.427272 0
M  V30 6702 H 616.976 -1.69029 -0.150727 0
M  V30 6703 H 615.748 -3.85396 -0.677189 0
M  V30 6704 H 615.371 -3.2545 -2.28403 0
M  V30 6705 N 616.368 0.432326 -1.51554 0
M  V30 6706 C 617.608 1.19076 -1.66133 0
M  V30 6707 C 617.972 1.88364 -0.371873 0
M  V30 6708 O 619.173 2.65904 -0.39349 0
M  V30 6709 C 617.444 2.1768 -2.83461 0
M  V30 6710 S 619.003 3.01943 -3.18396 0
M  V30 6711 H 615.821 0.403735 -0.585251 0
M  V30 6712 H 618.423 0.481554 -1.89476 0
M  V30 6713 H 617.127 1.65424 -3.75583 0
M  V30 6714 H 616.658 2.93174 -2.62322 0
M  V30 6715 H 618.673 4.19373 -2.65219 0
M  V30 6716 N 617.846 1.41785 0.688094 0
M  V30 6717 C 618.756 1.46596 1.83158 0
M  V30 6718 C 619.772 0.355862 1.70322 0
M  V30 6719 O 620.948 0.604737 1.92106 0
M  V30 6720 C 618.013 1.35322 3.192 0
M  V30 6721 C 617.074 2.56711 3.4409 0
M  V30 6722 C 616.307 2.45965 4.73642 0
M  V30 6723 O 616.53 1.48827 5.50642 0
M  V30 6724 O 615.464 3.35859 4.99482 0
M  V30 6725 H 619.29 2.43083 1.82056 0
M  V30 6726 H 616.875 1.23404 0.842126 0
M  V30 6727 H 618.757 1.31347 4.00407 0
M  V30 6728 H 617.432 0.419536 3.2097 0
M  V30 6729 H 616.339 2.66262 2.62784 0
M  V30 6730 H 617.672 3.48933 3.47141 0
M  V30 6731 N 619.324 -0.923095 1.27737 0
M  V30 6732 C 620.57 -1.67375 1.14514 0
M  V30 6733 C 620.903 -1.91751 -0.307424 0
M  V30 6734 O 620.178 -1.51119 -1.22447 0
M  V30 6735 C 620.461 -3.03745 1.9342 0
M  V30 6736 C 620.314 -2.86581 3.46686 0
M  V30 6737 C 621.633 -4.04144 1.74228 0
M  V30 6738 H 618.752 -0.607427 0.417374 0
M  V30 6739 H 621.394 -1.07089 1.56946 0
M  V30 6740 H 619.544 -3.55204 1.5736 0
M  V30 6741 H 621.216 -2.42203 3.92601 0
M  V30 6742 H 619.459 -2.21829 3.72793 0
M  V30 6743 H 620.13 -3.83381 3.97143 0
M  V30 6744 H 622.606 -3.61712 2.05678 0
M  V30 6745 H 621.482 -4.97543 2.31824 0
M  V30 6746 H 621.743 -4.36661 0.691373 0
M  V30 6747 N 620.802 -1.09834 -1.13024 0
M  V30 6748 C 621.732 -0.763451 -2.20666 0
M  V30 6749 C 622.713 0.260778 -1.68089 0
M  V30 6750 O 623.898 0.127915 -1.93778 0
M  V30 6751 C 621.028 -0.187744 -3.46792 0
M  V30 6752 C 619.982 -1.14196 -4.12484 0
M  V30 6753 C 619.308 -0.427755 -5.32986 0
M  V30 6754 C 620.608 -2.48607 -4.59338 0
M  V30 6755 H 622.302 -1.66347 -2.48936 0
M  V30 6756 H 619.848 -0.801261 -1.19649 0
M  V30 6757 H 621.801 0.0586375 -4.21359 0
M  V30 6758 H 620.525 0.747485 -3.17931 0
M  V30 6759 H 619.184 -1.37369 -3.3989 0
M  V30 6760 H 618.832 0.511747 -5.0039 0
M  V30 6761 H 618.532 -1.06403 -5.77886 0
M  V30 6762 H 620.056 -0.189772 -6.10305 0
M  V30 6763 H 621.47 -2.29618 -5.25308 0
M  V30 6764 H 619.867 -3.08062 -5.14993 0
M  V30 6765 H 620.937 -3.09062 -3.73642 0
M  V30 6766 N 622.28 1.30327 -0.886154 0
M  V30 6767 C 623.528 1.9571 -0.504195 0
M  V30 6768 C 623.849 1.70294 0.950003 0
M  V30 6769 O 623.119 1.02718 1.66811 0
M  V30 6770 H 621.699 0.72412 -0.183465 0
M  V30 6771 H 624.361 1.58835 -1.12949 0
M  V30 6772 H 623.457 3.04704 -0.675431 0
M  V30 6773 N 623.758 0.647228 1.43697 0
M  V30 6774 C 624.69 -0.0866232 2.29036 0
M  V30 6775 C 625.703 -0.793051 1.42178 0
M  V30 6776 O 626.892 -0.651807 1.66174 0
M  V30 6777 C 623.992 -1.14552 3.18953 0
M  V30 6778 C 623.165 -0.518422 4.34317 0
M  V30 6779 C 622.224 -1.4734 5.05151 0
M  V30 6780 O 621.25 -0.984312 5.60625 0
M  V30 6781 N 622.452 -2.8075 5.08094 0
M  V30 6782 H 625.217 0.645834 2.92659 0
M  V30 6783 H 622.778 0.489567 1.54321 0
M  V30 6784 H 624.77 -1.78505 3.63205 0
M  V30 6785 H 623.34 -1.78001 2.56971 0
M  V30 6786 H 622.56 0.300079 3.93056 0
M  V30 6787 H 623.848 -0.080401 5.08736 0
M  V30 6788 H 623.246 -3.23052 4.64386 0
M  V30 6789 H 621.803 -3.40022 5.56083 0
M  V30 6790 N 625.236 -1.5273 0.388769 0
M  V30 6791 C 626.652 -1.59553 0.0387049 0
M  V30 6792 C 626.852 -1.40278 -1.44652 0
M  V30 6793 O 625.908 -1.21951 -2.21098 0
M  V30 6794 C 627.221 -2.9625 0.515409 0
M  V30 6795 C 628.769 -3.09426 0.471621 0
M  V30 6796 C 629.244 -4.48572 0.924505 0
M  V30 6797 N 630.735 -4.54754 0.880496 0
M  V30 6798 C 631.47 -5.60653 1.20234 0
M  V30 6799 N 630.966 -6.74198 1.59463 0
M  V30 6800 N 632.759 -5.50755 1.12363 0
M  V30 6801 H 624.91 -1.63508 1.35569 0
M  V30 6802 H 627.173 -0.768097 0.555636 0
M  V30 6803 H 626.879 -3.15569 1.5527 0
M  V30 6804 H 626.753 -3.77102 -0.085792 0
M  V30 6805 H 629.14 -2.89804 -0.556588 0
M  V30 6806 H 629.221 -2.30528 1.10862 0
M  V30 6807 H 628.865 -4.68936 1.95094 0
M  V30 6808 H 628.795 -5.25935 0.264524 0
M  V30 6809 H 631.286 -3.73237 0.591815 0
M  V30 6810 H 631.599 -7.5097 1.82385 0
M  V30 6811 H 629.944 -6.75531 1.63349 0
M  V30 6812 H 633.135 -4.6093 0.816169 0
M  V30 6813 H 633.308 -6.33184 1.37777 0
M  V30 6814 N 626.714 -0.118576 -1.57153 0
M  V30 6815 C 627.963 0.539339 -1.94355 0
M  V30 6816 C 628.276 1.67858 -1.00415 0
M  V30 6817 O 629.482 2.39922 -1.27081 0
M  V30 6818 C 627.938 1.01082 -3.45414 0
M  V30 6819 C 627.546 -0.0999402 -4.47889 0
M  V30 6820 C 629.29 1.64013 -3.91535 0
M  V30 6821 C 627.197 0.388212 -5.90124 0
M  V30 6822 H 626.127 0.205247 -0.725527 0
M  V30 6823 H 628.778 -0.19836 -1.82425 0
M  V30 6824 H 627.16 1.80292 -3.52577 0
M  V30 6825 H 628.334 -0.876189 -4.52393 0
M  V30 6826 H 626.649 -0.635885 -4.11516 0
M  V30 6827 H 629.246 2.01649 -4.95219 0
M  V30 6828 H 629.589 2.51836 -3.31488 0
M  V30 6829 H 630.122 0.913439 -3.87171 0
M  V30 6830 H 626.861 -0.453963 -6.53926 0
M  V30 6831 H 626.381 1.13095 -5.89041 0
M  V30 6832 H 628.06 0.849574 -6.41398 0
M  V30 6833 N 628.193 1.56834 0.155195 0
M  V30 6834 C 629.604 1.72421 0.716082 0
M  V30 6835 C 629.955 0.731685 1.82046 0
M  V30 6836 O 629.08 -0.103481 2.16152 0
M  V30 6837 C 629.675 3.12629 1.30571 0
M  V30 6838 C 628.234 3.29846 1.81325 0
M  V30 6839 C 627.381 2.68359 0.698494 0
M  V30 6840 H 630.332 1.58544 -0.0703861 0
M  V30 6841 H 630.353 3.12174 2.1755 0
M  V30 6842 H 629.865 3.84844 0.501701 0
M  V30 6843 H 627.966 2.62614 2.64319 0
M  V30 6844 H 628.079 4.37727 1.9476 0
M  V30 6845 H 626.443 2.28604 1.12305 0
M  V30 6846 H 627.226 3.43171 -0.0939366 0
M  V30 6847 N 629.671 -0.424282 1.51781 0
M  V30 6848 C 630.634 -1.49848 1.73431 0
M  V30 6849 C 631.634 -1.49016 0.604225 0
M  V30 6850 O 632.824 -1.50808 0.871935 0
M  V30 6851 C 629.956 -2.89332 1.80277 0
M  V30 6852 H 631.149 -1.3195 2.69312 0
M  V30 6853 H 628.702 -0.653809 1.41968 0
M  V30 6854 H 629.437 -3.12618 0.862568 0
M  V30 6855 H 629.222 -2.9134 2.62419 0
M  V30 6856 H 630.712 -3.67233 1.98821 0
M  V30 6857 N 631.149 -1.42148 -0.680565 0
M  V30 6858 C 632.397 -1.42029 -1.43779 0
M  V30 6859 C 632.718 -0.0356347 -1.94967 0
M  V30 6860 O 631.988 0.924936 -1.7269 0
M  V30 6861 H 630.568 -0.522835 -0.533529 0
M  V30 6862 H 633.23 -1.7752 -0.804538 0
M  V30 6863 H 632.326 -2.11658 -2.29363 0
M  V30 6864 N 632.627 0.916307 -1.28225 0
M  V30 6865 C 633.59 1.99996 -1.11957 0
M  V30 6866 C 634.59 1.60688 -0.0600152 0
M  V30 6867 O 635.78 1.71499 -0.30558 0
M  V30 6868 C 632.912 3.33458 -0.708411 0
M  V30 6869 H 634.105 2.15858 -2.08196 0
M  V30 6870 H 631.658 1.09863 -1.11175 0
M  V30 6871 H 632.393 3.23297 0.254859 0
M  V30 6872 H 632.178 3.63349 -1.47377 0
M  V30 6873 H 633.668 4.13014 -0.617164 0
M  V30 6874 N 634.105 1.10431 1.1244 0
M  V30 6875 C 635.351 0.847972 1.84221 0
M  V30 6876 C 635.684 -0.624903 1.83871 0
M  V30 6877 O 634.959 -1.46074 1.28423 0
M  V30 6878 C 635.242 1.39695 3.319 0
M  V30 6879 C 635.095 2.93668 3.40704 0
M  V30 6880 C 636.414 1.03924 4.27654 0
M  V30 6881 H 633.533 0.309502 0.668863 0
M  V30 6882 H 636.175 1.36745 1.31912 0
M  V30 6883 H 634.325 0.955095 3.76577 0
M  V30 6884 H 635.997 3.46379 3.04662 0
M  V30 6885 H 634.24 3.30272 2.81252 0
M  V30 6886 H 634.911 3.27162 4.446 0
M  V30 6887 H 637.387 1.42049 3.91102 0
M  V30 6888 H 636.263 1.45027 5.29394 0
M  V30 6889 H 636.524 -0.051336 4.4207 0
M  V30 6890 N 635.583 -1.29855 0.893053 0
M  V30 6891 C 636.513 -2.3035 0.382249 0
M  V30 6892 C 637.494 -1.61328 -0.539203 0
M  V30 6893 O 638.679 -1.88882 -0.451342 0
M  V30 6894 C 635.809 -3.45024 -0.396983 0
M  V30 6895 C 634.763 -4.258 0.433437 0
M  V30 6896 C 634.089 -5.32605 -0.472889 0
M  V30 6897 C 635.389 -4.94549 1.67984 0
M  V30 6898 H 637.083 -2.73325 1.22205 0
M  V30 6899 H 634.629 -1.314 0.589073 0
M  V30 6900 H 636.582 -4.14398 -0.765024 0
M  V30 6901 H 635.306 -3.00875 -1.2705 0
M  V30 6902 H 633.965 -3.58125 0.783723 0
M  V30 6903 H 633.613 -4.84702 -1.34435 0
M  V30 6904 H 633.313 -5.87547 0.0789958 0
M  V30 6905 H 634.837 -6.04832 -0.837269 0
M  V30 6906 H 636.251 -5.56395 1.38192 0
M  V30 6907 H 634.648 -5.59393 2.17254 0
M  V30 6908 H 635.718 -4.20215 2.41965 0
M  V30 6909 N 637.061 -0.65484 -1.43351 0
M  V30 6910 C 637.971 0.0363603 -2.34572 0
M  V30 6911 C 638.987 0.810432 -1.53974 0
M  V30 6912 O 640.163 0.757308 -1.86619 0
M  V30 6913 C 637.228 0.989733 -3.32273 0
M  V30 6914 C 636.289 0.212414 -4.28774 0
M  V30 6915 C 635.522 1.12038 -5.21808 0
M  V30 6916 O 635.745 2.35967 -5.19303 0
M  V30 6917 O 634.679 0.59191 -5.98982 0
M  V30 6918 H 638.505 -0.714527 -2.95175 0
M  V30 6919 H 636.09 -0.415029 -1.4352 0
M  V30 6920 H 637.972 1.53759 -3.92347 0
M  V30 6921 H 636.647 1.72082 -2.74171 0
M  V30 6922 H 635.554 -0.379062 -3.72175 0
M  V30 6923 H 636.887 -0.479138 -4.89862 0
M  V30 6924 N 638.539 1.52521 -0.396863 0
M  V30 6925 C 639.472 2.23118 0.478926 0
M  V30 6926 C 640.45 1.23475 1.05796 0
M  V30 6927 O 641.634 1.52486 1.10817 0
M  V30 6928 C 638.761 2.95028 1.66362 0
M  V30 6929 C 637.807 4.09002 1.20913 0
M  V30 6930 S 638.64 5.35182 0.184407 0
M  V30 6931 C 639.796 6.10616 1.37471 0
M  V30 6932 H 640.029 2.97056 -0.120542 0
M  V30 6933 H 637.562 1.53334 -0.18109 0
M  V30 6934 H 639.52 3.37066 2.34301 0
M  V30 6935 H 638.181 2.20756 2.23441 0
M  V30 6936 H 637.374 4.58445 2.09389 0
M  V30 6937 H 636.976 3.69016 0.608559 0
M  V30 6938 H 639.268 6.37247 2.30048 0
M  V30 6939 H 640.211 7.02084 0.921051 0
M  V30 6940 H 640.619 5.41499 1.59495 0
M  V30 6941 N 640.017 0.126909 1.57088 0
M  V30 6942 C 640.98 -0.806097 2.14557 0
M  V30 6943 C 641.98 -1.18918 1.08236 0
M  V30 6944 O 643.17 -1.11339 1.33975 0
M  V30 6945 C 640.302 -2.09116 2.69227 0
M  V30 6946 H 641.495 -0.306522 2.98329 0
M  V30 6947 H 639.048 -0.122393 1.5582 0
M  V30 6948 H 639.783 -2.63486 1.89065 0
M  V30 6949 H 639.568 -1.82588 3.46993 0
M  V30 6950 H 641.058 -2.75794 3.13572 0
M  V30 6951 N 641.495 -1.56914 -0.146875 0
M  V30 6952 C 642.741 -1.83628 -0.860741 0
M  V30 6953 C 643.074 -0.708528 -1.80813 0
M  V30 6954 O 642.349 0.287838 -1.92358 0
M  V30 6955 C 642.632 -3.20836 -1.63511 0
M  V30 6956 C 642.485 -4.44174 -0.709199 0
M  V30 6957 C 643.804 -3.55268 -2.59756 0
M  V30 6958 H 640.923 -0.667949 -0.311468 0
M  V30 6959 H 643.565 -1.89582 -0.125936 0
M  V30 6960 H 641.715 -3.15891 -2.26153 0
M  V30 6961 H 643.387 -4.61205 -0.0937781 0
M  V30 6962 H 641.63 -4.33796 -0.0187856 0
M  V30 6963 H 642.301 -5.36785 -1.28707 0
M  V30 6964 H 644.777 -3.60824 -2.07232 0
M  V30 6965 H 643.653 -4.52303 -3.10987 0
M  V30 6966 H 643.914 -2.81231 -3.41118 0
M  V30 6967 N 642.974 0.416227 -1.52004 0
M  V30 6968 C 644.222 1.16153 -1.65387 0
M  V30 6969 C 644.543 1.91208 -0.382669 0
M  V30 6970 O 643.813 1.86413 0.602231 0
M  V30 6971 H 642.393 0.431765 -0.60958 0
M  V30 6972 H 645.055 0.475151 -1.89019 0
M  V30 6973 H 644.151 1.87952 -2.4916 0
M  V30 6974 N 644.452 1.42507 0.673017 0
M  V30 6975 C 645.415 1.4582 1.76831 0
M  V30 6976 C 646.415 0.345542 1.57043 0
M  V30 6977 O 647.605 0.606447 1.63303 0
M  V30 6978 C 644.737 1.29158 3.15485 0
M  V30 6979 H 645.93 2.43345 1.7528 0
M  V30 6980 H 643.483 1.28981 0.882817 0
M  V30 6981 H 644.218 0.325626 3.22661 0
M  V30 6982 H 644.003 2.09797 3.31252 0
M  V30 6983 H 645.493 1.34363 3.95394 0
M  V30 6984 N 645.93 -0.909495 1.28709 0
M  V30 6985 C 646.86 -2.0291 1.15542 0
M  V30 6986 C 647.841 -1.7002 0.0521017 0
M  V30 6987 O 649.026 -1.92835 0.229849 0
M  V30 6988 C 646.156 -3.37458 0.820935 0
M  V30 6989 C 645.11 -3.84524 1.87949 0
M  V30 6990 C 644.436 -5.16086 1.39854 0
M  V30 6991 C 645.736 -4.05918 3.28676 0
M  V30 6992 H 647.43 -2.14183 2.09203 0
M  V30 6993 H 644.976 -1.02913 1.00722 0
M  V30 6994 H 646.929 -4.1528 0.715571 0
M  V30 6995 H 645.653 -3.26249 -0.151374 0
M  V30 6996 H 644.312 -3.08911 1.97408 0
M  V30 6997 H 643.96 -5.01284 0.41518 0
M  V30 6998 H 643.66 -5.48547 2.1064 0
M  V30 6999 H 645.184 -5.96459 1.30649 0
M  V30 7000 H 646.598 -4.74252 3.22115 0
M  V30 7001 H 644.995 -4.49717 3.97334 0
M  V30 7002 H 646.065 -3.10583 3.72379 0
M  V30 7003 N 647.408 -1.11026 -1.11852 0
M  V30 7004 C 648.358 -0.733836 -2.15868 0
M  V30 7005 C 649.342 0.26001 -1.58785 0
M  V30 7006 O 650.534 0.0677901 -1.7687 0
M  V30 7007 C 647.663 -0.173948 -3.42859 0
M  V30 7008 C 646.749 -1.1952 -4.0691 0
M  V30 7009 N 647.14 -2.38797 -4.45881 0
M  V30 7010 C 645.438 -1.03714 -4.33773 0
M  V30 7011 C 646.139 -3.03894 -4.96007 0
M  V30 7012 N 645.115 -2.31389 -4.91894 0
M  V30 7013 H 648.917 -1.64171 -2.43773 0
M  V30 7014 H 646.431 -0.988877 -1.28822 0
M  V30 7015 H 648.428 0.113836 -4.16745 0
M  V30 7016 H 647.088 0.728568 -3.16421 0
M  V30 7017 H 648.099 -2.76281 -4.38051 0
M  V30 7018 H 644.776 -0.190694 -4.17064 0
M  V30 7019 H 646.166 -4.05389 -5.35826 0
M  V30 7020 N 648.886 1.2938 -0.899927 0
M  V30 7021 C 649.836 2.25311 -0.349165 0
M  V30 7022 C 650.82 1.51889 0.530892 0
M  V30 7023 O 652.012 1.73028 0.372872 0
M  V30 7024 C 649.141 3.40696 0.422055 0
M  V30 7025 C 648.227 4.21455 -0.472935 0
M  V30 7026 N 648.618 4.8048 -1.58026 0
M  V30 7027 C 646.916 4.45177 -0.270767 0
M  V30 7028 C 647.617 5.41117 -2.13465 0
M  V30 7029 N 646.593 5.24518 -1.42766 0
M  V30 7030 H 650.395 2.68507 -1.19505 0
M  V30 7031 H 647.909 1.43992 -0.751006 0
M  V30 7032 H 649.906 4.08486 0.833369 0
M  V30 7033 H 648.566 2.99037 1.2652 0
M  V30 7034 H 649.577 4.79257 -1.96299 0
M  V30 7035 H 646.254 4.14071 0.533988 0
M  V30 7036 H 647.644 5.979 -3.06537 0
M  V30 7037 N 650.364 0.662433 1.43002 0
M  V30 7038 C 651.641 0.109096 1.95296 0
M  V30 7039 C 652.021 -1.37313 1.60338 0
M  V30 7040 O 651.369 -2.1032 0.893187 0
M  V30 7041 C 651.579 0.365096 3.47085 0
M  V30 7042 C 652.927 0.274964 4.23709 0
M  V30 7043 O 653.951 0.29816 3.5495 0
M  V30 7044 O 652.81 0.206549 5.4611 0
M  V30 7045 H 649.904 -0.00429724 0.826989 0
M  V30 7046 H 652.45 0.736308 1.52894 0
M  V30 7047 H 651.222 1.39237 3.65689 0
M  V30 7048 H 650.845 -0.294733 3.96506 0
M  V30 7049 N 651.842 -1.52309 0.404946 0
M  V30 7050 C 653.253 -1.86585 -0.0655926 0
M  V30 7051 C 653.604 -1.3239 -1.44801 0
M  V30 7052 O 652.729 -0.6615 -2.06042 0
M  V30 7053 C 653.324 -3.38566 -0.125801 0
M  V30 7054 C 651.883 -3.72497 -0.540666 0
M  V30 7055 C 651.03 -2.75806 0.287487 0
M  V30 7056 H 653.981 -1.45995 0.622185 0
M  V30 7057 H 654.002 -3.68658 -0.941888 0
M  V30 7058 H 653.514 -3.77981 0.880473 0
M  V30 7059 H 651.615 -3.38659 -1.55373 0
M  V30 7060 H 651.728 -4.78234 -0.287956 0
M  V30 7061 H 650.092 -2.53474 -0.249561 0
M  V30 7062 H 650.875 -3.18059 1.29203 0
M  V30 7063 N 653.32 -0.135238 -1.57019 0
M  V30 7064 C 654.23 0.822226 -2.19719 0
M  V30 7065 C 655.246 1.28057 -1.17802 0
M  V30 7066 O 656.422 1.3402 -1.50335 0
M  V30 7067 C 653.487 2.0484 -2.79717 0
M  V30 7068 C 652.548 1.64042 -3.96723 0
M  V30 7069 C 651.781 2.80814 -4.53849 0
M  V30 7070 O 652.004 3.967 -4.0986 0
M  V30 7071 O 650.938 2.56963 -5.44292 0
M  V30 7072 H 654.764 0.318552 -3.02025 0
M  V30 7073 H 652.349 0.0912021 -1.49121 0
M  V30 7074 H 654.231 2.76622 -3.17897 0
M  V30 7075 H 652.906 2.54182 -2.00432 0
M  V30 7076 H 651.813 0.893182 -3.63281 0
M  V30 7077 H 653.146 1.19426 -4.77492 0
M  V30 7078 N 654.798 1.5699 0.138552 0
M  V30 7079 C 655.748 1.9532 1.17619 0
M  V30 7080 C 656.732 0.825545 1.38107 0
M  V30 7081 O 657.924 1.08908 1.39528 0
M  V30 7082 C 655.053 2.34451 2.50774 0
M  V30 7083 C 654.139 3.53805 2.33844 0
M  V30 7084 N 654.53 4.70088 1.86685 0
M  V30 7085 C 652.828 3.59055 2.64567 0
M  V30 7086 C 653.529 5.52165 1.82998 0
M  V30 7087 N 652.505 4.94108 2.26624 0
M  V30 7088 H 656.307 2.82694 0.803809 0
M  V30 7089 H 653.821 1.5866 0.346519 0
M  V30 7090 H 655.818 2.60119 3.25797 0
M  V30 7091 H 654.478 1.48431 2.88788 0
M  V30 7092 H 655.489 4.93681 1.56523 0
M  V30 7093 H 652.166 2.83596 3.06398 0
M  V30 7094 H 653.556 6.55407 1.47957 0
M  V30 7095 N 656.276 -0.40816 1.52223 0
M  V30 7096 C 657.522 -1.15347 1.67531 0
M  V30 7097 C 657.877 -1.8818 0.400748 0
M  V30 7098 O 657.17 -1.81803 -0.604845 0
M  V30 7099 C 657.364 -2.17422 2.83659 0
M  V30 7100 C 657.193 -1.54611 4.22286 0
M  V30 7101 C 655.963 -1.31841 4.87797 0
M  V30 7102 C 658.161 -1.00648 5.04355 0
M  V30 7103 N 656.143 -0.649338 6.10456 0
M  V30 7104 C 657.514 -0.464384 6.18258 0
M  V30 7105 C 659.569 -0.901041 4.89679 0
M  V30 7106 C 658.272 0.172825 7.19092 0
M  V30 7107 C 660.298 -0.277684 5.90748 0
M  V30 7108 C 659.66 0.253734 7.03943 0
M  V30 7109 H 655.759 -0.408722 0.666686 0
M  V30 7110 H 658.343 -0.445713 1.8953 0
M  V30 7111 H 656.514 -2.85554 2.63274 0
M  V30 7112 H 658.246 -2.84321 2.87999 0
M  V30 7113 H 655.001 -1.58819 4.46176 0
M  V30 7114 H 655.425 -0.3314 6.76188 0
M  V30 7115 H 660.067 -1.29772 4.02392 0
M  V30 7116 H 657.785 0.581564 8.06005 0
M  V30 7117 H 661.371 -0.197605 5.81464 0
M  V30 7118 H 660.251 0.728482 7.80809 0
M  V30 7119 N 657.755 -1.42862 -0.66545 0
M  V30 7120 C 659.166 -1.3901 -1.24632 0
M  V30 7121 C 659.517 -0.0880285 -1.96002 0
M  V30 7122 O 658.642 0.812947 -2.0055 0
M  V30 7123 C 659.237 -2.51806 -2.2667 0
M  V30 7124 C 657.796 -2.51257 -2.80262 0
M  V30 7125 C 656.943 -2.30124 -1.5472 0
M  V30 7126 H 659.894 -1.5194 -0.458237 0
M  V30 7127 H 659.915 -2.22593 -3.08598 0
M  V30 7128 H 659.427 -3.46558 -1.74697 0
M  V30 7129 H 657.528 -1.60349 -3.36332 0
M  V30 7130 H 657.641 -3.48614 -3.28641 0
M  V30 7131 H 656.005 -1.7856 -1.81627 0
M  V30 7132 H 656.788 -3.26945 -1.04699 0
M  V30 7133 N 659.233 0.902656 -1.29189 0
M  V30 7134 C 660.458 1.69167 -1.19989 0
M  V30 7135 C 660.883 1.86607 0.236495 0
M  V30 7136 O 660.241 1.38425 1.17082 0
M  V30 7137 C 660.289 3.05532 -1.91527 0
M  V30 7138 O 659.393 3.93621 -1.2303 0
M  V30 7139 H 658.734 0.517584 -0.415936 0
M  V30 7140 H 661.264 1.12785 -1.70706 0
M  V30 7141 H 661.274 3.55693 -1.99866 0
M  V30 7142 H 659.949 2.92156 -2.96003 0
M  V30 7143 H 658.526 3.52055 -1.22928 0
M  V30 7144 N 660.711 1.11618 1.11262 0
M  V30 7145 C 662.122 0.881942 1.64556 0
M  V30 7146 C 662.473 -0.585442 1.87262 0
M  V30 7147 O 661.598 -1.44795 1.60821 0
M  V30 7148 C 662.193 1.59446 2.98935 0
M  V30 7149 C 660.752 1.40661 3.4913 0
M  V30 7150 C 659.899 1.63593 2.23903 0
M  V30 7151 H 662.85 1.27217 0.94877 0
M  V30 7152 H 662.871 1.04054 3.65996 0
M  V30 7153 H 662.383 2.66241 2.82378 0
M  V30 7154 H 660.484 0.360835 3.70849 0
M  V30 7155 H 660.597 2.15693 4.27801 0
M  V30 7156 H 658.961 1.05944 2.3162 0
M  V30 7157 H 659.744 2.71666 2.09886 0
M  V30 7158 N 662.189 -1.289 0.906776 0
M  V30 7159 C 663.099 -2.31256 0.394707 0
M  V30 7160 C 664.115 -1.66231 -0.514121 0
M  V30 7161 O 665.291 -1.97347 -0.401994 0
M  V30 7162 C 662.356 -3.44792 -0.363191 0
M  V30 7163 C 661.417 -4.25391 0.578012 0
M  V30 7164 C 660.65 -5.33506 -0.143811 0
M  V30 7165 O 660.873 -5.53786 -1.36665 0
M  V30 7166 O 659.807 -5.99673 0.5173 0
M  V30 7167 H 663.633 -2.77051 1.24405 0
M  V30 7168 H 661.218 -1.33466 0.671346 0
M  V30 7169 H 663.1 -4.139 -0.791503 0
M  V30 7170 H 661.775 -3.01093 -1.18848 0
M  V30 7171 H 660.682 -3.58899 1.05558 0
M  V30 7172 H 662.015 -4.72752 1.36992 0
M  V30 7173 N 663.667 -0.670007 -1.42649 0
M  V30 7174 C 664.895 -0.19854 -2.05945 0
M  V30 7175 C 665.31 1.14243 -1.50313 0
M  V30 7176 O 664.667 1.70872 -0.641027 0
M  V30 7177 C 664.718 -0.11966 -3.61302 0
M  V30 7178 O 664.439 -1.40764 -4.1487 0
M  V30 7179 C 665.94 0.375878 -4.41704 0
M  V30 7180 H 663.16 -0.0976894 -0.663851 0
M  V30 7181 H 665.704 -0.915392 -1.82868 0
M  V30 7182 H 663.859 0.547851 -3.83507 0
M  V30 7183 H 664.273 -1.27784 -5.08696 0
M  V30 7184 H 665.747 0.379988 -5.50691 0
M  V30 7185 H 666.224 1.41028 -4.15942 0
M  V30 7186 H 666.83 -0.259727 -4.24506 0
M  V30 7187 N 665.145 1.52092 -0.413018 0
M  V30 7188 C 666.392 2.01855 0.161497 0
M  V30 7189 C 666.72 1.29845 1.44812 0
M  V30 7190 O 665.975 0.394471 1.91683 0
M  V30 7191 C 666.274 3.54529 0.4521 0
M  V30 7192 C 665.94 4.4469 -0.745788 0
M  V30 7193 C 664.602 4.69053 -1.07435 0
M  V30 7194 C 666.954 4.97742 -1.54604 0
M  V30 7195 C 664.282 5.43717 -2.20429 0
M  V30 7196 C 666.634 5.73642 -2.66678 0
M  V30 7197 C 665.298 5.96277 -3.00016 0
M  V30 7198 H 664.568 0.73864 0.0590961 0
M  V30 7199 H 667.215 1.83274 -0.555234 0
M  V30 7200 H 665.52 3.7131 1.25045 0
M  V30 7201 H 667.217 3.90546 0.909647 0
M  V30 7202 H 663.807 4.25907 -0.479725 0
M  V30 7203 H 667.991 4.78824 -1.30543 0
M  V30 7204 H 663.247 5.59462 -2.46602 0
M  V30 7205 H 667.421 6.13746 -3.29072 0
M  V30 7206 H 665.048 6.53913 -3.87688 0
M  V30 7207 N 666.623 0.143563 1.56945 0
M  V30 7208 C 667.571 -0.814556 2.17871 0
M  V30 7209 C 668.565 -1.25778 1.13474 0
M  V30 7210 O 669.771 -1.22666 1.31731 0
M  V30 7211 H 666.146 -0.280873 0.697578 0
M  V30 7212 H 668.117 -0.276459 2.97117 0
M  V30 7213 C 666.866 -2.04503 2.81201 0
M  V30 7214 H 666.189 -1.71296 3.61245 0
M  V30 7215 H 667.629 -2.69493 3.27337 0
M  V30 7216 C 666.088 -2.85079 1.79532 0
M  V30 7217 O 666.618 -3.81306 1.26368 0
M  V30 7218 N 664.824 -2.49546 1.48913 0
M  V30 7219 H 664.371 -1.71359 1.92338 0
M  V30 7220 H 664.329 -3.03751 0.811348 0
M  V30 7221 N 668.101 -1.57061 -0.130224 0
M  V30 7222 C 669.512 -1.73539 -0.68856 0
M  V30 7223 C 669.863 -0.760554 -1.80859 0
M  V30 7224 O 668.988 0.0690796 -2.1629 0
M  V30 7225 C 669.583 -3.14666 -1.25581 0
M  V30 7226 C 668.142 -3.32689 -1.76055 0
M  V30 7227 C 667.289 -2.69436 -0.655712 0
M  V30 7228 H 670.24 -1.58412 0.0956002 0
M  V30 7229 H 670.261 -3.15595 -2.12556 0
M  V30 7230 H 669.773 -3.85593 -0.440412 0
M  V30 7231 H 667.874 -2.66786 -2.60108 0
M  V30 7232 H 667.987 -4.4077 -1.87772 0
M  V30 7233 H 666.351 -2.30362 -1.08654 0
M  V30 7234 H 667.134 -3.42979 0.14852 0
M  V30 7235 N 669.579 0.400081 -1.52437 0
M  V30 7236 C 670.489 1.51253 -1.79331 0
M  V30 7237 C 671.505 1.60188 -0.679396 0
M  V30 7238 O 672.681 1.76733 -0.965791 0
M  V30 7239 C 669.746 2.869 -1.94652 0
M  V30 7240 C 668.807 2.87777 -3.18564 0
M  V30 7241 C 668.04 4.16954 -3.33145 0
M  V30 7242 O 668.263 5.11329 -2.52783 0
M  V30 7243 O 667.197 4.2487 -4.26343 0
M  V30 7244 H 671.023 1.31461 -2.73773 0
M  V30 7245 H 668.608 0.586834 -1.37392 0
M  V30 7246 H 670.49 3.67336 -2.065 0
M  V30 7247 H 669.165 3.06741 -1.034 0
M  V30 7248 H 668.072 2.06162 -3.12167 0
M  V30 7249 H 669.405 2.72886 -4.09627 0
M  V30 7250 N 671.057 1.43213 0.657864 0
M  V30 7251 C 672.473 1.26511 0.972992 0
M  V30 7252 C 672.673 0.181477 2.00681 0
M  V30 7253 O 671.729 -0.441649 2.48608 0
M  V30 7254 C 673.042 2.62784 1.46168 0
M  V30 7255 C 674.59 2.70278 1.57857 0
M  V30 7256 C 675.065 4.06958 2.10117 0
M  V30 7257 N 676.556 4.08999 2.17426 0
M  V30 7258 C 677.291 5.11585 2.58975 0
M  V30 7259 N 676.787 6.24548 2.99853 0
M  V30 7260 N 678.58 4.9894 2.58873 0
M  V30 7261 H 670.731 2.12384 -0.0263129 0
M  V30 7262 H 672.994 0.946638 0.0507992 0
M  V30 7263 H 672.7 3.43022 0.776474 0
M  V30 7264 H 672.574 2.87863 2.43751 0
M  V30 7265 H 674.961 1.90376 2.25479 0
M  V30 7266 H 675.042 2.4897 0.587179 0
M  V30 7267 H 674.686 4.87325 1.43098 0
M  V30 7268 H 674.616 4.25628 3.10078 0
M  V30 7269 H 677.107 3.27457 1.88627 0
M  V30 7270 H 677.42 6.98661 3.30292 0
M  V30 7271 H 675.765 6.28027 2.97669 0
M  V30 7272 H 678.956 4.09757 2.26311 0
M  V30 7273 H 679.129 5.79019 2.90932 0
M  V30 7274 N 672.536 -0.895792 1.29666 0
M  V30 7275 C 673.783 -1.64664 1.17864 0
M  V30 7276 C 674.111 -1.92631 -0.26902 0
M  V30 7277 O 673.366 -1.53787 -1.21029 0
M  V30 7278 C 673.665 -3.00075 1.94139 0
M  V30 7279 C 673.331 -2.91702 3.43833 0
M  V30 7280 C 671.993 -2.89126 3.84656 0
M  V30 7281 C 674.345 -2.80622 4.39205 0
M  V30 7282 C 671.673 -2.73293 5.1916 0
M  V30 7283 C 674.025 -2.66329 5.73805 0
M  V30 7284 C 672.689 -2.62121 6.1388 0
M  V30 7285 H 671.959 -0.602549 0.431295 0
M  V30 7286 H 674.606 -1.04234 1.60648 0
M  V30 7287 H 672.911 -3.64394 1.43958 0
M  V30 7288 H 674.608 -3.57111 1.82408 0
M  V30 7289 H 671.198 -2.94511 3.11386 0
M  V30 7290 H 675.382 -2.81686 4.08615 0
M  V30 7291 H 670.638 -2.68443 5.49316 0
M  V30 7292 H 674.812 -2.56727 6.47352 0
M  V30 7293 H 672.439 -2.49611 7.18052 0
M  V30 7294 N 674.014 -1.12206 -1.10668 0
M  V30 7295 C 675.242 -0.898635 -1.86366 0
M  V30 7296 C 675.657 0.551991 -1.80551 0
M  V30 7297 O 675.014 1.38152 -1.19249 0
M  V30 7298 C 675.065 -1.36199 -3.34861 0
M  V30 7299 O 674.786 -2.75576 -3.40573 0
M  V30 7300 C 676.287 -1.17515 -4.2744 0
M  V30 7301 H 673.507 -0.321281 -0.589084 0
M  V30 7302 H 676.051 -1.49142 -1.39918 0
M  V30 7303 H 674.206 -0.81249 -3.78784 0
M  V30 7304 H 674.62 -2.95851 -4.33096 0
M  V30 7305 H 676.094 -1.54827 -5.29842 0
M  V30 7306 H 676.571 -0.115486 -4.39048 0
M  V30 7307 H 677.177 -1.71203 -3.89319 0
M  V30 7308 N 675.492 1.28418 -0.913599 0
M  V30 7309 C 676.455 2.25564 -0.406624 0
M  V30 7310 C 677.455 1.5387 0.466965 0
M  V30 7311 O 678.645 1.72094 0.270042 0
M  V30 7312 C 675.777 3.38339 0.417053 0
M  V30 7313 H 676.97 2.71926 -1.26477 0
M  V30 7314 H 674.523 1.40098 -0.692986 0
M  V30 7315 H 675.258 2.97339 1.29461 0
M  V30 7316 H 675.043 3.91542 -0.209102 0
M  V30 7317 H 676.533 4.10578 0.762602 0
M  V30 7318 N 676.97 0.677563 1.42291 0
M  V30 7319 C 677.88 0.000962654 2.346 0
M  V30 7320 C 678.896 -0.785833 1.55244 0
M  V30 7321 O 680.072 -0.727523 1.87801 0
M  V30 7322 C 677.137 -0.936746 3.33805 0
M  V30 7323 C 676.198 -0.144173 4.29058 0
M  V30 7324 C 675.431 -1.03722 5.23524 0
M  V30 7325 O 675.654 -2.27675 5.22992 0
M  V30 7326 O 674.588 -0.496542 5.99848 0
M  V30 7327 H 678.414 0.761397 2.94001 0
M  V30 7328 H 675.999 0.43781 1.42841 0
M  V30 7329 H 677.881 -1.47497 3.94744 0
M  V30 7330 H 676.556 -1.67698 2.76874 0
M  V30 7331 H 675.463 0.438224 3.71524 0
M  V30 7332 H 676.796 0.55701 4.89038 0
M  V30 7333 N 678.448 -1.51871 0.421078 0
M  V30 7334 C 679.411 -2.25914 -0.386712 0
M  V30 7335 C 680.411 -1.28733 -0.963555 0
M  V30 7336 O 681.601 -1.52579 -0.840556 0
M  V30 7337 C 678.733 -3.03853 -1.54551 0
M  V30 7338 H 679.926 -2.98754 0.261978 0
M  V30 7339 H 677.479 -1.5533 0.173862 0
M  V30 7340 H 678.214 -2.35392 -2.23072 0
M  V30 7341 H 677.999 -3.75215 -1.13824 0
M  V30 7342 H 679.489 -3.59984 -2.11663 0
M  V30 7343 N 679.926 -0.151884 -1.56866 0
M  V30 7344 C 681.342 0.204486 -1.58285 0
M  V30 7345 C 681.542 1.6431 -1.16639 0
M  V30 7346 O 680.598 2.37077 -0.868946 0
M  V30 7347 C 681.911 -0.0587019 -3.00643 0
M  V30 7348 C 683.459 0.00462303 -3.13 0
M  V30 7349 C 683.934 -0.231297 -4.57416 0
M  V30 7350 N 685.425 -0.178394 -4.62856 0
M  V30 7351 C 686.16 -0.335379 -5.72418 0
M  V30 7352 N 685.656 -0.550355 -6.90611 0
M  V30 7353 N 687.449 -0.272641 -5.61438 0
M  V30 7354 H 679.6 -1.09116 -1.82229 0
M  V30 7355 H 681.863 -0.432311 -0.843689 0
M  V30 7356 H 681.569 -1.05453 -3.35518 0
M  V30 7357 H 681.443 0.658508 -3.71407 0
M  V30 7358 H 683.83 0.991009 -2.77962 0
M  V30 7359 H 683.911 -0.744992 -2.44711 0
M  V30 7360 H 683.555 -1.2148 -4.93158 0
M  V30 7361 H 683.485 0.5387 -5.23837 0
M  V30 7362 H 685.976 -0.0170923 -3.77896 0
M  V30 7363 H 686.289 -0.660116 -7.69976 0
M  V30 7364 H 684.634 -0.586736 -6.92519 0
M  V30 7365 H 687.825 -0.105421 -4.67981 0
M  V30 7366 H 687.998 -0.398418 -6.46774 0
M  V30 7367 N 681.404 1.57128 0.121893 0
M  V30 7368 C 682.336 1.96773 1.17529 0
M  V30 7369 C 683.349 0.866668 1.37814 0
M  V30 7370 O 684.538 1.14497 1.3694 0
M  V30 7371 C 681.638 2.24832 2.53582 0
M  V30 7372 C 680.811 3.56138 2.53939 0
M  V30 7373 C 679.87 3.72443 3.71716 0
M  V30 7374 O 678.896 4.44584 3.55434 0
M  V30 7375 N 680.098 3.10993 4.90167 0
M  V30 7376 H 682.863 2.87743 0.838086 0
M  V30 7377 H 680.424 1.58881 0.311199 0
M  V30 7378 H 682.416 2.32958 3.30927 0
M  V30 7379 H 680.986 1.40002 2.79496 0
M  V30 7380 H 680.206 3.59226 1.62329 0
M  V30 7381 H 681.494 4.42448 2.51231 0
M  V30 7382 H 680.892 2.52345 5.06299 0
M  V30 7383 H 679.449 3.24644 5.65198 0
M  V30 7384 N 682.882 -0.391992 1.52647 0
M  V30 7385 C 683.814 -1.49811 1.73463 0
M  V30 7386 C 684.827 -1.50734 0.615078 0
M  V30 7387 O 686.016 -1.5469 0.890696 0
M  V30 7388 C 683.116 -2.88667 1.77552 0
M  V30 7389 C 682.289 -3.11743 3.06815 0
M  V30 7390 C 681.348 -4.30564 3.02491 0
M  V30 7391 O 680.374 -4.27014 3.76361 0
M  V30 7392 N 681.576 -5.36593 2.21468 0
M  V30 7393 H 684.341 -1.32343 2.68897 0
M  V30 7394 H 681.902 -0.581475 1.51098 0
M  V30 7395 H 683.894 -3.66251 1.7217 0
M  V30 7396 H 682.464 -2.99508 0.895181 0
M  V30 7397 H 681.684 -2.2205 3.25711 0
M  V30 7398 H 682.972 -3.24013 3.92292 0
M  V30 7399 H 682.37 -5.42332 1.60913 0
M  V30 7400 H 680.927 -6.12855 2.21928 0
M  V30 7401 N 684.36 -1.4356 -0.65026 0
M  V30 7402 C 685.31 -1.45392 -1.75628 0
M  V30 7403 C 686.294 -0.322006 -1.57645 0
M  V30 7404 O 687.486 -0.565996 -1.67707 0
M  V30 7405 C 684.615 -1.38254 -3.1423 0
M  V30 7406 C 683.701 -2.56487 -3.3775 0
M  V30 7407 N 684.092 -3.81824 -3.31729 0
M  V30 7408 C 682.39 -2.51274 -3.6848 0
M  V30 7409 C 683.091 -4.60497 -3.55412 0
M  V30 7410 N 682.067 -3.91274 -3.77367 0
M  V30 7411 H 685.869 -2.40167 -1.69402 0
M  V30 7412 H 683.383 -1.38254 -0.852037 0
M  V30 7413 H 685.38 -1.3765 -3.9352 0
M  V30 7414 H 684.04 -0.445019 -3.21636 0
M  V30 7415 H 685.051 -4.14069 -3.11074 0
M  V30 7416 H 681.728 -1.66223 -3.82983 0
M  V30 7417 H 683.118 -5.69518 -3.5651 0
M  V30 7418 N 685.838 0.888903 -1.30139 0
M  V30 7419 C 687.254 1.17153 -1.08385 0
M  V30 7420 C 687.454 2.0088 0.157925 0
M  V30 7421 O 686.51 2.37668 0.852652 0
M  V30 7422 C 687.823 1.882 -2.34523 0
M  V30 7423 C 689.371 2.00981 -2.39949 0
M  V30 7424 C 689.846 2.75441 -3.65918 0
M  V30 7425 N 691.337 2.82989 -3.66704 0
M  V30 7426 C 692.072 3.41167 -4.60861 0
M  V30 7427 N 691.568 4.00425 -5.6536 0
M  V30 7428 N 693.361 3.38944 -4.48412 0
M  V30 7429 H 685.512 0.33053 -2.09812 0
M  V30 7430 H 687.775 0.208964 -0.924683 0
M  V30 7431 H 687.481 1.34119 -3.25123 0
M  V30 7432 H 687.355 2.88609 -2.42868 0
M  V30 7433 H 689.742 2.54234 -1.4983 0
M  V30 7434 H 689.823 0.996725 -2.35582 0
M  V30 7435 H 689.467 2.22861 -4.56394 0
M  V30 7436 H 689.397 3.77118 -3.67546 0
M  V30 7437 H 691.888 2.40912 -2.91153 0
M  V30 7438 H 692.201 4.42871 -6.33313 0
M  V30 7439 H 690.546 3.98856 -5.69157 0
M  V30 7440 H 693.737 2.91875 -3.6596 0
M  V30 7441 H 693.91 3.83989 -5.21974 0
M  V30 7442 N 687.317 1.12792 1.10072 0
M  V30 7443 C 688.728 0.899346 1.63611 0
M  V30 7444 C 689.079 -0.565547 1.87872 0
M  V30 7445 O 688.204 -1.43081 1.62348 0
M  V30 7446 C 688.799 1.62608 2.97227 0
M  V30 7447 C 687.358 1.44356 3.47618 0
M  V30 7448 C 686.505 1.65958 2.22156 0
M  V30 7449 H 689.456 1.28216 0.935223 0
M  V30 7450 H 689.477 1.0793 3.64872 0
M  V30 7451 H 688.989 2.69221 2.79538 0
M  V30 7452 H 687.09 0.400148 3.70445 0
M  V30 7453 H 687.203 2.20218 4.25489 0
M  V30 7454 H 685.567 1.08395 2.30484 0
M  V30 7455 H 686.35 2.73877 2.06993 0
M  V30 7456 N 688.795 -1.27931 0.920396 0
M  V30 7457 C 690.042 -1.94689 0.557007 0
M  V30 7458 C 690.37 -1.724 -0.900476 0
M  V30 7459 O 689.625 -1.04194 -1.65657 0
M  V30 7460 C 689.924 -3.47853 0.820558 0
M  V30 7461 C 689.59 -3.90252 2.25863 0
M  V30 7462 C 688.252 -4.01539 2.65179 0
M  V30 7463 C 690.604 -4.11853 3.19415 0
M  V30 7464 C 687.932 -4.3181 3.97187 0
M  V30 7465 C 690.284 -4.43606 4.50995 0
M  V30 7466 C 688.948 -4.53105 4.90155 0
M  V30 7467 H 688.218 -0.712416 0.203823 0
M  V30 7468 H 690.865 -1.52142 1.16298 0
M  V30 7469 H 689.17 -3.91578 0.131844 0
M  V30 7470 H 690.867 -3.97634 0.51847 0
M  V30 7471 H 687.457 -3.81999 1.94358 0
M  V30 7472 H 691.641 -4.0258 2.90246 0
M  V30 7473 H 686.897 -4.37371 4.2722 0
M  V30 7474 H 691.071 -4.59268 5.23494 0
M  V30 7475 H 688.698 -4.76315 5.92476 0
M  V30 7476 N 690.273 -0.685099 -1.4193 0
M  V30 7477 C 691.501 -0.220372 -2.05723 0
M  V30 7478 C 691.916 1.12642 -1.51516 0
M  V30 7479 O 691.273 1.70182 -0.659114 0
M  V30 7480 C 691.324 -0.157974 -3.61155 0
M  V30 7481 O 691.045 -1.45156 -4.13354 0
M  V30 7482 C 692.546 0.329009 -4.42077 0
M  V30 7483 H 689.766 -0.104725 -0.662777 0
M  V30 7484 H 692.31 -0.934736 -1.81887 0
M  V30 7485 H 690.465 0.507144 -3.84066 0
M  V30 7486 H 690.879 -1.33172 -5.07312 0
M  V30 7487 H 692.353 0.321559 -5.51063 0
M  V30 7488 H 692.83 1.36608 -4.17414 0
M  V30 7489 H 693.436 -0.304737 -4.24207 0
M  V30 7490 N 691.751 1.51645 -0.429126 0
M  V30 7491 C 692.981 2.06133 0.138793 0
M  V30 7492 C 693.389 1.29735 1.37716 0
M  V30 7493 O 692.732 0.347955 1.80375 0
M  V30 7494 C 692.794 3.55504 0.534493 0
M  V30 7495 C 692.458 4.53098 -0.595917 0
M  V30 7496 C 693.455 4.98815 -1.46558 0
M  V30 7497 C 691.14 4.96296 -0.774309 0
M  V30 7498 C 693.134 5.86394 -2.4984 0
M  V30 7499 C 690.821 5.83667 -1.81042 0
M  V30 7500 C 691.819 6.28613 -2.67086 0
M  V30 7501 O 691.507 7.14251 -3.68919 0
M  V30 7502 H 691.239 0.675833 0.0150263 0
M  V30 7503 H 693.793 1.96301 -0.604584 0
M  V30 7504 H 692.023 3.63092 1.33045 0
M  V30 7505 H 693.712 3.92545 1.03262 0
M  V30 7506 H 694.478 4.66143 -1.33925 0
M  V30 7507 H 690.357 4.60859 -0.114178 0
M  V30 7508 H 693.901 6.21398 -3.17034 0
M  V30 7509 H 689.798 6.15753 -1.93698 0
M  V30 7510 H 690.566 7.3241 -3.65402 0
M  V30 7511 N 693.229 0.160201 1.56784 0
M  V30 7512 C 694.159 -0.770264 2.2043 0
M  V30 7513 C 695.14 -1.24736 1.15651 0
M  V30 7514 O 696.325 -1.30253 1.44041 0
M  V30 7515 C 693.455 -2.00427 2.83631 0
M  V30 7516 C 692.409 -1.66345 3.94352 0
M  V30 7517 C 691.735 -2.97119 4.4455 0
M  V30 7518 C 693.035 -0.899972 5.14488 0
M  V30 7519 H 694.729 -0.239783 2.98438 0
M  V30 7520 H 692.275 -0.113891 1.43549 0
M  V30 7521 H 694.228 -2.66012 3.26827 0
M  V30 7522 H 692.952 -2.5587 2.02973 0
M  V30 7523 H 691.611 -1.03133 3.51794 0
M  V30 7524 H 691.259 -3.5058 3.60698 0
M  V30 7525 H 690.959 -2.75073 5.19238 0
M  V30 7526 H 692.483 -3.63753 4.90425 0
M  V30 7527 H 693.897 -1.45818 5.54446 0
M  V30 7528 H 692.294 -0.778968 5.95023 0
M  V30 7529 H 693.364 0.105827 4.84785 0
M  V30 7530 N 694.707 -1.5719 -0.113559 0
M  V30 7531 C 696.118 -1.74259 -0.670116 0
M  V30 7532 C 696.469 -0.779694 -1.80042 0
M  V30 7533 O 695.594 0.0461353 -2.16351 0
M  V30 7534 C 696.189 -3.15981 -1.22236 0
M  V30 7535 C 694.748 -3.34537 -1.72516 0
M  V30 7536 C 693.895 -2.70116 -0.627098 0
M  V30 7537 H 696.846 -1.58301 0.112396 0
M  V30 7538 H 696.867 -3.17832 -2.09197 0
M  V30 7539 H 696.379 -3.86038 -0.39949 0
M  V30 7540 H 694.48 -2.6953 -2.57263 0
M  V30 7541 H 694.593 -4.42737 -1.83086 0
M  V30 7542 H 692.957 -2.31501 -1.06204 0
M  V30 7543 H 693.74 -3.42802 0.184889 0
M  V30 7544 N 696.185 0.383891 -1.52853 0
M  V30 7545 C 697.432 1.12842 -1.68146 0
M  V30 7546 C 697.76 1.89823 -0.423954 0
M  V30 7547 O 697.015 1.86475 0.593765 0
M  V30 7548 C 697.314 2.12881 -2.87082 0
M  V30 7549 C 696.98 1.52519 -4.24322 0
M  V30 7550 C 695.642 1.35783 -4.61645 0
M  V30 7551 C 697.994 1.0868 -5.09743 0
M  V30 7552 C 695.322 0.737643 -5.82044 0
M  V30 7553 C 697.674 0.480699 -6.30771 0
M  V30 7554 C 696.338 0.300681 -6.66822 0
M  V30 7555 H 695.608 0.412917 -0.615289 0
M  V30 7556 H 698.255 0.412416 -1.87006 0
M  V30 7557 H 696.56 2.90719 -2.62659 0
M  V30 7558 H 698.257 2.70408 -2.96109 0
M  V30 7559 H 694.847 1.66534 -3.94923 0
M  V30 7560 H 699.031 1.2041 -4.81472 0
M  V30 7561 H 694.287 0.586415 -6.08581 0
M  V30 7562 H 698.461 0.132733 -6.96273 0
M  V30 7563 H 696.088 -0.181966 -7.59982 0
M  V30 7564 N 697.663 1.43903 0.642637 0
M  V30 7565 C 698.911 1.45791 1.39962 0
M  V30 7566 C 699.232 0.0873144 1.94804 0
M  V30 7567 O 698.502 -0.878825 1.75081 0
M  V30 7568 H 697.082 0.536797 0.519479 0
M  V30 7569 H 699.744 1.7959 0.757189 0
M  V30 7570 H 698.84 2.17665 2.2367 0
M  V30 7571 N 699.141 -0.881989 1.30609 0
M  V30 7572 C 700.104 -1.96957 1.1722 0
M  V30 7573 C 701.104 -1.60472 0.102598 0
M  V30 7574 O 702.294 -1.70628 0.350943 0
M  V30 7575 C 699.426 -3.31463 0.796572 0
M  V30 7576 H 700.619 -2.10262 2.13846 0
M  V30 7577 H 698.172 -1.06877 1.14048 0
M  V30 7578 H 698.907 -3.23859 -0.169053 0
M  V30 7579 H 698.692 -3.59314 1.56959 0
M  V30 7580 H 700.182 -4.11233 0.72645 0
M  V30 7581 N 700.619 -1.13374 -1.09472 0
M  V30 7582 C 701.867 -0.893422 -1.8128 0
M  V30 7583 C 702.188 0.582029 -1.86111 0
M  V30 7584 O 701.458 1.42305 -1.34633 0
M  V30 7585 H 700.038 -0.327543 -0.67136 0
M  V30 7586 H 702.7 -1.43018 -1.32408 0
M  V30 7587 H 701.796 -1.28374 -2.84476 0
M  V30 7588 N 702.098 1.27442 -0.927168 0
M  V30 7589 C 703.509 1.76385 -0.611979 0
M  V30 7590 C 703.86 1.75715 0.872853 0
M  V30 7591 O 702.985 1.3603 1.683 0
M  V30 7592 C 703.58 3.20303 -1.10414 0
M  V30 7593 C 702.139 3.66916 -0.839628 0
M  V30 7594 C 701.286 2.46859 -1.26317 0
M  V30 7595 H 704.237 1.13716 -1.107 0
M  V30 7596 H 704.258 3.77811 -0.451578 0
M  V30 7597 H 703.77 3.20759 -2.18484 0
M  V30 7598 H 701.871 3.71906 0.227292 0
M  V30 7599 H 701.984 4.56415 -1.45679 0
M  V30 7600 H 700.348 2.45407 -0.681723 0
M  V30 7601 H 701.131 2.50025 -2.3525 0
M  V30 7602 N 703.576 0.692616 1.41565 0
M  V30 7603 C 704.992 0.363878 1.55397 0
M  V30 7604 C 705.192 -1.1294 1.66874 0
M  V30 7605 O 704.248 -1.91517 1.64552 0
M  V30 7606 C 705.561 1.10982 2.7947 0
M  V30 7607 C 707.109 1.09387 2.93263 0
M  V30 7608 C 707.584 1.8215 4.20221 0
M  V30 7609 N 709.075 1.79105 4.27172 0
M  V30 7610 C 709.81 2.32247 5.2426 0
M  V30 7611 N 709.306 2.93847 6.27396 0
M  V30 7612 N 711.099 2.22519 5.1618 0
M  V30 7613 H 703.25 1.66116 1.3236 0
M  V30 7614 H 705.513 0.700848 0.63837 0
M  V30 7615 H 705.219 2.1647 2.77188 0
M  V30 7616 H 705.093 0.686492 3.709 0
M  V30 7617 H 707.48 0.0472638 2.95062 0
M  V30 7618 H 707.561 1.55623 2.03015 0
M  V30 7619 H 707.205 2.86789 4.19183 0
M  V30 7620 H 707.135 1.33351 5.09436 0
M  V30 7621 H 709.626 1.34191 3.53272 0
M  V30 7622 H 709.939 3.31972 6.97864 0
M  V30 7623 H 708.284 2.97924 6.27906 0
M  V30 7624 H 711.475 1.7407 4.34531 0
M  V30 7625 H 711.648 2.64239 5.91677 0
M  V30 7626 N 705.054 -1.51416 0.437162 0
M  V30 7627 C 706.279 -2.0699 -0.130424 0
M  V30 7628 C 706.704 -1.30249 -1.35709 0
M  V30 7629 O 706.062 -0.340388 -1.78076 0
M  V30 7630 C 706.11 -3.5801 -0.43142 0
M  V30 7631 O 705.214 -3.8345 -1.5179 0
M  V30 7632 H 704.555 -0.663997 -0.00194339 0
M  V30 7633 H 707.085 -1.95029 0.618445 0
M  V30 7634 H 707.095 -4.02261 -0.681926 0
M  V30 7635 H 705.77 -4.13291 0.465137 0
M  V30 7636 H 704.347 -3.51062 -1.25737 0
M  V30 7637 N 706.532 -0.168513 -1.56696 0
M  V30 7638 C 707.772 0.479648 -1.98693 0
M  V30 7639 C 708.136 1.60609 -1.05209 0
M  V30 7640 O 709.337 2.3166 -1.36334 0
M  V30 7641 C 707.608 0.952852 -3.44464 0
M  V30 7642 S 709.167 1.60259 -4.08488 0
M  V30 7643 H 705.985 0.154377 -0.694038 0
M  V30 7644 H 708.587 -0.265312 -1.93691 0
M  V30 7645 H 707.291 0.12257 -4.10217 0
M  V30 7646 H 706.822 1.73192 -3.53225 0
M  V30 7647 H 708.837 2.89065 -4.03307 0
M  V30 7648 N 708.01 1.57248 0.105221 0
M  V30 7649 C 708.94 2.04374 1.12931 0
M  V30 7650 C 709.921 0.93074 1.42377 0
M  V30 7651 O 711.106 1.20136 1.52581 0
M  V30 7652 C 708.236 2.45967 2.45189 0
M  V30 7653 C 707.19 3.60838 2.30174 0
M  V30 7654 C 706.516 3.88374 3.67518 0
M  V30 7655 C 707.816 4.92084 1.75073 0
M  V30 7656 H 709.51 2.9018 0.737287 0
M  V30 7657 H 707.056 1.39601 0.353211 0
M  V30 7658 H 709.009 2.77542 3.17094 0
M  V30 7659 H 707.733 1.57148 2.86308 0
M  V30 7660 H 706.392 3.29493 1.60716 0
M  V30 7661 H 706.04 2.96739 4.06147 0
M  V30 7662 H 705.74 4.65703 3.58321 0
M  V30 7663 H 707.264 4.22415 4.40906 0
M  V30 7664 H 708.678 5.22106 2.36809 0
M  V30 7665 H 707.075 5.73507 1.76662 0
M  V30 7666 H 708.145 4.79684 0.709347 0
M  V30 7667 N 709.488 -0.375779 1.53054 0
M  V30 7668 C 710.736 -1.11727 1.68409 0
M  V30 7669 C 711.057 -1.90127 0.43323 0
M  V30 7670 O 710.327 -1.87945 -0.552595 0
M  V30 7671 H 708.907 -0.415451 0.620813 0
M  V30 7672 H 711.569 -0.424869 1.90213 0
M  V30 7673 H 710.665 -1.8128 2.54055 0
M  V30 7674 N 710.966 -1.44241 -0.634997 0
M  V30 7675 C 712.212 -1.47038 -1.39669 0
M  V30 7676 C 712.545 -0.101122 -1.93937 0
M  V30 7677 O 711.82 0.880699 -1.73418 0
M  V30 7678 C 712.103 -2.52763 -2.56482 0
M  V30 7679 C 711.956 -3.99032 -2.07589 0
M  V30 7680 C 713.275 -2.55031 -3.58674 0
M  V30 7681 H 710.394 -0.53537 -0.506506 0
M  V30 7682 H 713.036 -1.75898 -0.718317 0
M  V30 7683 H 711.186 -2.28284 -3.14354 0
M  V30 7684 H 712.858 -4.3463 -1.54577 0
M  V30 7685 H 711.101 -4.10994 -1.38804 0
M  V30 7686 H 711.772 -4.68649 -2.91671 0
M  V30 7687 H 714.248 -2.76893 -3.10595 0
M  V30 7688 H 713.124 -3.30916 -4.37934 0
M  V30 7689 H 713.385 -1.59085 -4.12486 0
M  V30 7690 N 712.444 0.87505 -1.31075 0
M  V30 7691 C 713.86 1.15997 -1.09622 0
M  V30 7692 C 714.06 2.01036 0.136611 0
M  V30 7693 O 713.116 2.38559 0.827397 0
M  V30 7694 C 714.429 1.85702 -2.36506 0
M  V30 7695 C 715.977 1.98425 -2.42067 0
M  V30 7696 C 716.452 2.71544 -3.68819 0
M  V30 7697 N 717.943 2.79084 -3.69684 0
M  V30 7698 C 718.678 3.36259 -4.64454 0
M  V30 7699 N 718.174 3.94406 -5.69575 0
M  V30 7700 N 719.967 3.34169 -4.51982 0
M  V30 7701 H 712.118 0.308258 -2.10151 0
M  V30 7702 H 714.381 0.199145 -0.926847 0
M  V30 7703 H 714.087 1.30663 -3.26527 0
M  V30 7704 H 713.961 2.86017 -2.45915 0
M  V30 7705 H 716.348 2.5263 -1.52518 0
M  V30 7706 H 716.429 0.971682 -2.36626 0
M  V30 7707 H 716.073 2.18008 -4.58732 0
M  V30 7708 H 716.003 3.73198 -3.71525 0
M  V30 7709 H 718.494 2.3781 -2.93691 0
M  V30 7710 H 718.807 4.36129 -6.37974 0
M  V30 7711 H 717.152 3.92797 -5.73355 0
M  V30 7712 H 720.343 2.87977 -3.69035 0
M  V30 7713 H 720.516 3.78431 -5.26017 0
M  V30 7714 N 713.922 1.13953 1.08869 0
M  V30 7715 C 714.852 0.844824 2.17681 0
M  V30 7716 C 715.833 -0.198213 1.68941 0
M  V30 7717 O 717.018 -0.0559073 1.9412 0
M  V30 7718 C 714.148 0.316325 3.45856 0
M  V30 7719 C 713.102 1.29426 4.07962 0
M  V30 7720 C 712.428 0.625275 5.31031 0
M  V30 7721 C 713.728 2.65484 4.49795 0
M  V30 7722 H 715.422 1.75471 2.42591 0
M  V30 7723 H 712.968 0.845116 1.16592 0
M  V30 7724 H 714.921 0.0977876 4.21287 0
M  V30 7725 H 713.645 -0.628972 3.20486 0
M  V30 7726 H 712.304 1.49889 3.34558 0
M  V30 7727 H 711.952 -0.325678 5.01945 0
M  V30 7728 H 711.652 1.27777 5.73539 0
M  V30 7729 H 713.176 0.416152 6.0918 0
M  V30 7730 H 714.59 2.48957 5.16424 0
M  V30 7731 H 712.987 3.26963 5.03205 0
M  V30 7732 H 714.057 3.22717 3.61914 0
M  V30 7733 N 715.4 -1.26948 0.933913 0
M  V30 7734 C 716.648 -1.93704 0.576484 0
M  V30 7735 C 716.969 -1.73702 -0.886145 0
M  V30 7736 O 716.239 -1.08838 -1.62884 0
M  V30 7737 H 714.819 -0.716812 0.210214 0
M  V30 7738 H 717.481 -1.54534 1.18766 0
M  V30 7739 H 716.577 -3.01987 0.788055 0
M  V30 7740 N 716.879 -0.700114 -1.41195 0
M  V30 7741 C 717.809 -0.0521132 -2.33442 0
M  V30 7742 C 718.79 0.76228 -1.52063 0
M  V30 7743 O 719.975 0.714336 -1.80585 0
M  V30 7744 C 717.105 0.881693 -3.35922 0
M  V30 7745 C 716.059 0.174062 -4.27646 0
M  V30 7746 C 715.385 1.22254 -5.20536 0
M  V30 7747 C 716.685 -0.962396 -5.13357 0
M  V30 7748 H 718.379 -0.822574 -2.87879 0
M  V30 7749 H 715.925 -0.397011 -1.38419 0
M  V30 7750 H 717.878 1.34429 -3.99383 0
M  V30 7751 H 716.602 1.68387 -2.79845 0
M  V30 7752 H 715.261 -0.268551 -3.65615 0
M  V30 7753 H 714.909 2.01736 -4.60773 0
M  V30 7754 H 714.609 0.754038 -5.82742 0
M  V30 7755 H 716.133 1.68555 -5.86874 0
M  V30 7756 H 717.547 -0.579875 -5.7036 0
M  V30 7757 H 715.944 -1.35828 -5.84526 0
M  V30 7758 H 717.014 -1.80003 -4.50252 0
M  V30 7759 N 718.357 1.51182 -0.445186 0
M  V30 7760 C 719.287 2.30821 0.352686 0
M  V30 7761 C 720.268 1.36576 1.01395 0
M  V30 7762 O 721.453 1.65497 1.01609 0
M  V30 7763 C 718.583 3.15593 1.44976 0
M  V30 7764 C 717.537 4.1818 0.911553 0
M  V30 7765 C 716.863 4.91523 2.10497 0
M  V30 7766 C 718.163 5.22266 -0.059418 0
M  V30 7767 H 719.857 2.97771 -0.311936 0
M  V30 7768 H 717.403 1.43201 -0.151461 0
M  V30 7769 H 719.356 3.70091 2.01521 0
M  V30 7770 H 718.08 2.4648 2.14278 0
M  V30 7771 H 716.739 3.64746 0.368264 0
M  V30 7772 H 716.387 4.18906 2.78437 0
M  V30 7773 H 716.087 5.60898 1.7512 0
M  V30 7774 H 717.611 5.48847 2.6758 0
M  V30 7775 H 719.025 5.71789 0.415985 0
M  V30 7776 H 717.422 5.99213 -0.326152 0
M  V30 7777 H 718.492 4.7461 -0.993631 0
M  V30 7778 N 719.835 0.176821 1.56605 0
M  V30 7779 C 720.745 -0.763682 2.21822 0
M  V30 7780 C 721.761 -1.24889 1.21156 0
M  V30 7781 O 722.937 -1.29987 1.53836 0
M  V30 7782 C 720.002 -1.97352 2.8505 0
M  V30 7783 C 719.063 -1.53466 4.00932 0
M  V30 7784 C 718.296 -2.68682 4.61135 0
M  V30 7785 O 718.519 -3.85694 4.20234 0
M  V30 7786 O 717.453 -2.42442 5.50913 0
M  V30 7787 H 721.279 -0.238363 3.02763 0
M  V30 7788 H 718.864 -0.0516331 1.49311 0
M  V30 7789 H 720.746 -2.68096 3.25119 0
M  V30 7790 H 719.421 -2.48779 2.07101 0
M  V30 7791 H 718.328 -0.796551 3.65521 0
M  V30 7792 H 719.661 -1.06724 4.8049 0
M  V30 7793 N 721.313 -1.57302 -0.09688 0
M  V30 7794 C 722.559 -1.86273 -0.801885 0
M  V30 7795 C 722.892 -0.765694 -1.78468 0
M  V30 7796 O 722.167 0.226495 -1.93177 0
M  V30 7797 C 722.45 -3.25876 -1.53221 0
M  V30 7798 C 722.303 -4.46205 -0.567529 0
M  V30 7799 C 723.622 -3.63352 -2.48321 0
M  V30 7800 H 720.741 -0.67752 -0.29006 0
M  V30 7801 H 723.383 -1.89887 -0.0655577 0
M  V30 7802 H 721.533 -3.22926 -2.15988 0
M  V30 7803 H 723.205 -4.6127 0.0529982 0
M  V30 7804 H 721.448 -4.33636 0.119233 0
M  V30 7805 H 722.119 -5.40608 -1.11564 0
M  V30 7806 H 724.595 -3.67234 -1.95648 0
M  V30 7807 H 723.471 -4.61968 -2.9644 0
M  V30 7808 H 723.732 -2.91941 -3.31998 0
M  V30 7809 N 722.791 0.367657 -1.53252 0
M  V30 7810 C 723.738 1.45028 -1.79543 0
M  V30 7811 C 724.708 1.53288 -0.63969 0
M  V30 7812 O 725.893 1.69209 -0.881653 0
M  V30 7813 C 723.033 2.82 -1.98923 0
M  V30 7814 C 722.146 2.82722 -3.26638 0
M  V30 7815 C 721.281 4.11257 -3.36216 0
M  V30 7816 C 720.32 4.06113 -4.57972 0
M  V30 7817 N 719.457 5.26293 -4.64715 0
M  V30 7818 H 724.297 1.21908 -2.71923 0
M  V30 7819 H 721.834 0.591011 -1.34705 0
M  V30 7820 H 723.792 3.61568 -2.08146 0
M  V30 7821 H 722.422 3.03523 -1.09881 0
M  V30 7822 H 721.474 1.95399 -3.26379 0
M  V30 7823 H 722.786 2.74794 -4.16281 0
M  V30 7824 H 721.94 4.99239 -3.44739 0
M  V30 7825 H 720.679 4.21935 -2.44586 0
M  V30 7826 H 719.684 3.16517 -4.49552 0
M  V30 7827 H 720.909 3.97039 -5.50942 0
M  V30 7828 H 718.855 5.37561 -3.75985 0
M  V30 7829 H 718.772 5.20526 -5.4826 0
M  V30 7830 H 720.04 6.16113 -4.77519 0
M  V30 7831 N 724.269 1.44576 0.627338 0
M  V30 7832 C 725.199 1.54562 1.75022 0
M  V30 7833 C 726.18 0.398378 1.65369 0
M  V30 7834 O 727.365 0.61899 1.84071 0
M  V30 7835 C 724.495 1.49309 3.13567 0
M  V30 7836 C 723.449 2.62549 3.38012 0
M  V30 7837 C 722.775 2.42348 4.76625 0
M  V30 7838 C 724.075 4.04678 3.30202 0
M  V30 7839 H 725.769 2.4855 1.66922 0
M  V30 7840 H 723.315 1.19624 0.801636 0
M  V30 7841 H 725.268 1.54895 3.919 0
M  V30 7842 H 723.992 0.518392 3.2246 0
M  V30 7843 H 722.651 2.56358 2.62061 0
M  V30 7844 H 722.299 1.43062 4.82226 0
M  V30 7845 H 721.999 3.18273 4.93939 0
M  V30 7846 H 723.523 2.49758 5.57183 0
M  V30 7847 H 724.937 4.12217 3.98435 0
M  V30 7848 H 723.334 4.80836 3.5905 0
M  V30 7849 H 724.404 4.2798 2.27949 0
M  V30 7850 N 725.747 -0.868086 1.31537 0
M  V30 7851 C 726.975 -1.65402 1.24298 0
M  V30 7852 C 727.39 -1.87827 -0.191389 0
M  V30 7853 O 726.747 -1.43776 -1.12404 0
M  V30 7854 C 726.798 -3.02093 1.9855 0
M  V30 7855 O 726.519 -2.80668 3.36388 0
M  V30 7856 C 728.02 -3.96538 1.98173 0
M  V30 7857 H 725.24 -0.515598 0.429417 0
M  V30 7858 H 727.784 -1.0834 1.73444 0
M  V30 7859 H 725.939 -3.55838 1.53161 0
M  V30 7860 H 726.353 -3.67504 3.74221 0
M  V30 7861 H 727.827 -4.8976 2.54635 0
M  V30 7862 H 728.304 -4.28474 0.964697 0
M  V30 7863 H 728.91 -3.48729 2.4345 0
M  V30 7864 N 727.225 -1.14528 -1.08264 0
M  V30 7865 C 728.155 -0.856356 -2.1723 0
M  V30 7866 C 729.136 0.189251 -1.69044 0
M  V30 7867 O 730.321 0.0456119 -1.94146 0
M  V30 7868 C 727.451 -0.334662 -3.45684 0
M  V30 7869 C 726.405 -1.31588 -4.0727 0
M  V30 7870 C 725.731 -0.653428 -5.30692 0
M  V30 7871 C 727.031 -2.67866 -4.48381 0
M  V30 7872 H 728.725 -1.76755 -2.41657 0
M  V30 7873 H 726.271 -0.851287 -1.16143 0
M  V30 7874 H 728.224 -0.120128 -4.21229 0
M  V30 7875 H 726.948 0.611967 -3.20815 0
M  V30 7876 H 725.607 -1.51661 -3.33758 0
M  V30 7877 H 725.255 0.299054 -5.0211 0
M  V30 7878 H 724.955 -1.30817 -5.72853 0
M  V30 7879 H 726.479 -0.448453 -6.08951 0
M  V30 7880 H 727.893 -2.51692 -5.15096 0
M  V30 7881 H 726.29 -3.29627 -5.01464 0
M  V30 7882 H 727.36 -3.24632 -3.60198 0
M  V30 7883 N 728.703 1.26451 -0.940633 0
M  V30 7884 C 729.633 2.28773 -0.467479 0
M  V30 7885 C 730.614 1.63218 0.478955 0
M  V30 7886 O 731.799 1.90427 0.380929 0
M  V30 7887 C 728.929 3.46259 0.268656 0
M  V30 7888 C 727.883 4.23898 -0.591171 0
M  V30 7889 C 727.209 5.33993 0.274891 0
M  V30 7890 C 728.509 4.87974 -1.86223 0
M  V30 7891 H 730.203 2.68601 -1.32265 0
M  V30 7892 H 727.749 1.29123 -0.637436 0
M  V30 7893 H 729.702 4.16951 0.610696 0
M  V30 7894 H 728.426 3.05383 1.15796 0
M  V30 7895 H 727.085 3.54969 -0.916098 0
M  V30 7896 H 726.733 4.89358 1.16353 0
M  V30 7897 H 726.433 5.86849 -0.297006 0
M  V30 7898 H 727.957 6.07523 0.612213 0
M  V30 7899 H 729.371 5.50883 -1.58747 0
M  V30 7900 H 727.768 5.50945 -2.37866 0
M  V30 7901 H 728.838 4.10945 -2.57394 0
M  V30 7902 N 730.181 0.707592 1.40822 0
M  V30 7903 C 731.131 0.0265008 2.27985 0
M  V30 7904 C 732.115 -0.740685 1.42838 0
M  V30 7905 O 733.307 -0.6142 1.66002 0
M  V30 7906 C 730.436 -0.900382 3.31282 0
M  V30 7907 C 729.522 -0.128807 4.23904 0
M  V30 7908 N 729.913 0.883744 4.9802 0
M  V30 7909 C 728.211 -0.362539 4.44524 0
M  V30 7910 C 728.912 1.34666 5.65898 0
M  V30 7911 N 727.888 0.670306 5.39451 0
M  V30 7912 H 731.69 0.802667 2.82727 0
M  V30 7913 H 729.204 0.539475 1.53178 0
M  V30 7914 H 731.201 -1.40357 3.92563 0
M  V30 7915 H 729.861 -1.67601 2.781 0
M  V30 7916 H 730.872 1.26435 5.0223 0
M  V30 7917 H 727.549 -1.11512 4.02332 0
M  V30 7918 H 728.939 2.18756 6.35292 0
M  V30 7919 N 731.66 -1.50943 0.453197 0
M  V30 7920 C 732.906 -2.02512 -0.108082 0
M  V30 7921 C 733.239 -1.33574 -1.40967 0
M  V30 7922 O 732.514 -0.455671 -1.89087 0
M  V30 7923 C 732.797 -3.58759 -0.310453 0
M  V30 7924 C 732.65 -4.38293 1.0109 0
M  V30 7925 C 733.969 -4.26816 -1.07313 0
M  V30 7926 H 731.088 -0.73603 -0.0378064 0
M  V30 7927 H 733.73 -1.80433 0.595295 0
M  V30 7928 H 731.88 -3.77702 -0.909582 0
M  V30 7929 H 733.552 -4.30964 1.64523 0
M  V30 7930 H 731.795 -4.02745 1.61179 0
M  V30 7931 H 732.466 -5.45828 0.82315 0
M  V30 7932 H 734.942 -4.1224 -0.565473 0
M  V30 7933 H 733.818 -5.35989 -1.1835 0
M  V30 7934 H 734.079 -3.88757 -2.10525 0
M  V30 7935 N 733.138 -0.185124 -1.56509 0
M  V30 7936 C 734.068 0.735098 -2.21627 0
M  V30 7937 C 735.049 1.2288 -1.1762 0
M  V30 7938 O 736.234 1.27945 -1.46095 0
M  V30 7939 C 733.364 1.95889 -2.86783 0
M  V30 7940 C 732.318 1.6005 -3.96948 0
M  V30 7941 C 731.644 2.90009 -4.4922 0
M  V30 7942 C 732.944 0.818008 -5.15855 0
M  V30 7943 H 734.638 0.192274 -2.98782 0
M  V30 7944 H 732.184 0.0910393 -1.43712 0
M  V30 7945 H 734.137 2.60779 -3.31017 0
M  V30 7946 H 732.861 2.52608 -2.07018 0
M  V30 7947 H 731.52 0.975237 -3.5339 0
M  V30 7948 H 731.168 3.44797 -3.6623 0
M  V30 7949 H 730.868 2.66778 -5.23549 0
M  V30 7950 H 732.392 3.55904 -4.9615 0
M  V30 7951 H 733.806 1.36979 -5.56695 0
M  V30 7952 H 732.203 0.684207 -5.96187 0
M  V30 7953 H 733.273 -0.182939 -4.84555 0
M  V30 7954 N 734.616 1.57351 0.0885366 0
M  V30 7955 C 735.566 1.98963 1.11346 0
M  V30 7956 C 736.55 0.869065 1.35411 0
M  V30 7957 O 737.742 1.13292 1.35992 0
M  V30 7958 C 734.871 2.4231 2.43189 0
M  V30 7959 C 733.957 3.61065 2.22469 0
M  V30 7960 N 734.348 4.75789 1.71635 0
M  V30 7961 C 732.646 3.6729 2.5301 0
M  V30 7962 C 733.347 5.57708 1.65339 0
M  V30 7963 N 732.323 5.01067 2.1079 0
M  V30 7964 H 736.125 2.85109 0.713465 0
M  V30 7965 H 733.639 1.59682 0.295868 0
M  V30 7966 H 735.636 2.70352 3.17357 0
M  V30 7967 H 734.296 1.57544 2.83919 0
M  V30 7968 H 735.307 4.98411 1.40738 0
M  V30 7969 H 731.984 2.932 2.9722 0
M  V30 7970 H 733.374 6.59782 1.27031 0
M  V30 7971 N 736.094 -0.359525 1.53444 0
M  V30 7972 C 737.041 -1.44073 1.8031 0
M  V30 7973 C 738.011 -1.52946 0.647811 0
M  V30 7974 O 739.196 -1.68739 0.890614 0
M  V30 7975 C 736.336 -2.80941 2.00416 0
M  V30 7976 C 735.449 -2.80986 3.28132 0
M  V30 7977 C 734.584 -4.09468 3.38393 0
M  V30 7978 C 733.623 -4.03679 4.60119 0
M  V30 7979 N 732.76 -5.23821 4.675 0
M  V30 7980 H 737.6 -1.20464 2.72566 0
M  V30 7981 H 735.137 -0.583859 1.35017 0
M  V30 7982 H 737.095 -3.60459 2.1006 0
M  V30 7983 H 735.725 -3.02936 1.11489 0
M  V30 7984 H 734.777 -1.93666 3.27411 0
M  V30 7985 H 736.089 -2.72583 4.17732 0
M  V30 7986 H 735.243 -4.97404 3.47382 0
M  V30 7987 H 733.982 -4.20632 2.4682 0
M  V30 7988 H 732.987 -3.14129 4.51224 0
M  V30 7989 H 734.212 -3.94112 5.5304 0
M  V30 7990 H 732.158 -5.35559 3.7883 0
M  V30 7991 H 732.075 -5.17611 5.51013 0
M  V30 7992 H 733.343 -6.13572 4.8078 0
M  V30 7993 N 737.572 -1.44907 -0.619662 0
M  V30 7994 C 738.819 -1.48292 -1.37898 0
M  V30 7995 C 739.147 -0.119933 -1.9413 0
M  V30 7996 O 738.402 0.879834 -1.74807 0
M  V30 7997 C 738.701 -2.50002 -2.55409 0
M  V30 7998 C 738.367 -3.95031 -2.17397 0
M  V30 7999 C 737.029 -4.34524 -2.06743 0
M  V30 8000 C 739.381 -4.86287 -1.87548 0
M  V30 8001 C 736.709 -5.63183 -1.64445 0
M  V30 8002 C 739.061 -6.15346 -1.4674 0
M  V30 8003 C 737.725 -6.53781 -1.34636 0
M  V30 8004 H 736.995 -0.542638 -0.504603 0
M  V30 8005 H 739.642 -1.78186 -0.701581 0
M  V30 8006 H 737.947 -2.13634 -3.28433 0
M  V30 8007 H 739.644 -2.49864 -3.13639 0
M  V30 8008 H 736.234 -3.63793 -2.26611 0
M  V30 8009 H 740.418 -4.56522 -1.94682 0
M  V30 8010 H 735.674 -5.91769 -1.53687 0
M  V30 8011 H 739.848 -6.85508 -1.22685 0
M  V30 8012 H 737.475 -7.53375 -1.01634 0
M  V30 8013 N 739.05 0.861098 -1.31996 0
M  V30 8014 C 740.466 1.14827 -1.10846 0
M  V30 8015 C 740.666 2.0117 0.11528 0
M  V30 8016 O 739.722 2.39423 0.802048 0
M  V30 8017 C 741.035 1.83183 -2.38462 0
M  V30 8018 C 742.583 1.95847 -2.44158 0
M  V30 8019 C 743.058 2.67617 -3.71679 0
M  V30 8020 N 744.549 2.75147 -3.72624 0
M  V30 8021 C 745.284 3.31314 -4.67994 0
M  V30 8022 N 744.78 3.88343 -5.73726 0
M  V30 8023 N 746.573 3.29356 -4.55501 0
M  V30 8024 H 738.724 0.285951 -2.10466 0
M  V30 8025 H 740.987 0.189303 -0.928907 0
M  V30 8026 H 740.693 1.27193 -3.27895 0
M  V30 8027 H 740.567 2.83393 -2.48935 0
M  V30 8028 H 742.954 2.50999 -1.55189 0
M  V30 8029 H 743.035 0.94653 -2.37644 0
M  V30 8030 H 742.679 2.13131 -4.61018 0
M  V30 8031 H 742.609 3.69237 -3.75462 0
M  V30 8032 H 745.1 2.34682 -2.96197 0
M  V30 8033 H 745.413 4.29338 -6.42564 0
M  V30 8034 H 743.758 3.86693 -5.77489 0
M  V30 8035 H 746.949 2.84047 -3.72069 0
M  V30 8036 H 747.122 3.7283 -5.30001 0
M  V30 8037 N 740.528 1.15101 1.07655 0
M  V30 8038 C 741.775 0.923974 1.80191 0
M  V30 8039 C 742.103 -0.549065 1.86589 0
M  V30 8040 O 741.358 -1.42307 1.3434 0
M  V30 8041 C 741.657 1.47954 3.25337 0
M  V30 8042 C 741.323 2.97253 3.39044 0
M  V30 8043 C 739.985 3.38012 3.42493 0
M  V30 8044 C 742.337 3.93219 3.42094 0
M  V30 8045 C 739.665 4.73384 3.4659 0
M  V30 8046 C 742.017 5.28458 3.47728 0
M  V30 8047 C 740.681 5.68717 3.49453 0
M  V30 8048 H 739.951 0.338106 0.659367 0
M  V30 8049 H 742.598 1.43594 1.26701 0
M  V30 8050 H 740.903 0.888691 3.81588 0
M  V30 8051 H 742.6 1.27972 3.80032 0
M  V30 8052 H 739.19 2.64746 3.37057 0
M  V30 8053 H 743.374 3.62805 3.38654 0
M  V30 8054 H 738.63 5.03925 3.46222 0
M  V30 8055 H 742.804 6.02618 3.49034 0
M  V30 8056 H 740.431 6.73596 3.5238 0
M  V30 8057 N 742.006 -1.2595 0.947325 0
M  V30 8058 C 742.938 -2.25336 0.41906 0
M  V30 8059 C 743.951 -1.56135 -0.461051 0
M  V30 8060 O 745.14 -1.76438 -0.270505 0
M  V30 8061 C 742.24 -3.36334 -0.416233 0
M  V30 8062 C 741.413 -4.35088 0.449162 0
M  V30 8063 C 740.472 -5.25185 -0.326716 0
M  V30 8064 O 739.498 -5.68548 0.272374 0
M  V30 8065 N 740.7 -5.57388 -1.6217 0
M  V30 8066 H 743.465 -2.71298 1.27348 0
M  V30 8067 H 741.026 -1.39781 0.81688 0
M  V30 8068 H 743.018 -3.93564 -0.942826 0
M  V30 8069 H 741.588 -2.89819 -1.17148 0
M  V30 8070 H 740.808 -3.76841 1.15692 0
M  V30 8071 H 742.096 -4.98056 1.04008 0
M  V30 8072 H 741.494 -5.2405 -2.13046 0
M  V30 8073 H 740.051 -6.17234 -2.0944 0
M  V30 8074 N 743.484 -0.715051 -1.40445 0
M  V30 8075 C 744.447 -0.0708726 -2.2909 0
M  V30 8076 C 745.447 0.687926 -1.45342 0
M  V30 8077 O 746.637 0.519908 -1.66261 0
M  V30 8078 C 743.769 0.909528 -3.28543 0
M  V30 8079 H 744.962 -0.851611 -2.87555 0
M  V30 8080 H 742.515 -0.479674 -1.48758 0
M  V30 8081 H 743.25 1.71734 -2.75096 0
M  V30 8082 H 743.035 0.368318 -3.90366 0
M  V30 8083 H 744.525 1.35744 -3.94922 0
M  V30 8084 N 744.962 1.50701 -0.461195 0
M  V30 8085 C 746.202 2.04174 0.0960673 0
M  V30 8086 C 746.566 1.33628 1.37868 0
M  V30 8087 O 747.767 1.77602 2.0177 0
M  V30 8088 C 746.038 3.56256 0.285676 0
M  V30 8089 S 747.597 4.31392 0.802917 0
M  V30 8090 H 744.415 0.710701 0.0206282 0
M  V30 8091 H 747.017 1.85204 -0.62607 0
M  V30 8092 H 745.721 4.05159 -0.653773 0
M  V30 8093 H 745.252 3.79562 1.03421 0
M  V30 8094 H 747.267 4.50611 2.07761 0
M  V30 8095 N 746.441 0.193421 1.56409 0
M  V30 8096 C 747.852 -0.319471 1.83946 0
M  V30 8097 C 748.203 -1.61505 1.11403 0
M  V30 8098 O 747.328 -2.13139 0.374289 0
M  V30 8099 C 747.923 -0.586411 3.33686 0
M  V30 8100 C 746.482 -1.04368 3.61641 0
M  V30 8101 C 745.629 -0.0913834 2.77149 0
M  V30 8102 H 748.58 0.417242 1.53117 0
M  V30 8103 H 748.601 -1.43591 3.52366 0
M  V30 8104 H 748.113 0.356701 3.86457 0
M  V30 8105 H 746.214 -2.00113 3.14302 0
M  V30 8106 H 746.327 -0.937549 4.69837 0
M  V30 8107 H 744.691 -0.592954 2.47702 0
M  V30 8108 H 745.474 0.846142 3.32709 0
M  V30 8109 N 747.919 -1.57396 -0.0801906 0
M  V30 8110 C 748.829 -2.06451 -1.11423 0
M  V30 8111 C 749.845 -0.992352 -1.42928 0
M  V30 8112 O 751.021 -1.30651 -1.53272 0
M  V30 8113 C 748.086 -2.49164 -2.41077 0
M  V30 8114 C 747.147 -3.70641 -2.16619 0
M  V30 8115 C 746.38 -4.11307 -3.40092 0
M  V30 8116 O 746.603 -3.51922 -4.48895 0
M  V30 8117 O 745.537 -5.04157 -3.288 0
M  V30 8118 H 749.363 -2.94857 -0.727519 0
M  V30 8119 H 746.948 -1.46484 -0.293743 0
M  V30 8120 H 748.83 -2.77196 -3.17396 0
M  V30 8121 H 747.505 -1.6389 -2.79145 0
M  V30 8122 H 746.412 -3.47703 -1.38033 0
M  V30 8123 H 747.745 -4.5674 -1.83437 0
M  V30 8124 N 749.397 0.351382 -1.53633 0
M  V30 8125 C 750.625 1.11275 -1.74429 0
M  V30 8126 C 751.04 1.82602 -0.479798 0
M  V30 8127 O 750.397 1.74074 0.548125 0
M  V30 8128 C 750.448 2.13223 -2.91921 0
M  V30 8129 O 750.169 1.44798 -4.13479 0
M  V30 8130 C 751.67 3.01797 -3.24706 0
M  V30 8131 H 748.89 0.332153 -0.583023 0
M  V30 8132 H 751.434 0.405974 -2.0043 0
M  V30 8133 H 749.589 2.79477 -2.68274 0
M  V30 8134 H 750.003 2.12839 -4.79374 0
M  V30 8135 H 751.477 3.69282 -4.10286 0
M  V30 8136 H 751.954 3.67387 -2.40673 0
M  V30 8137 H 752.56 2.41141 -3.5033 0
M  V30 8138 N 750.875 1.45233 0.611969 0
M  V30 8139 C 751.807 1.49575 1.73666 0
M  V30 8140 C 752.82 0.386987 1.58134 0
M  V30 8141 O 754.009 0.653804 1.66095 0
M  V30 8142 C 751.109 1.33223 3.11617 0
M  V30 8143 C 750.282 2.57694 3.5343 0
M  V30 8144 C 749.341 2.35962 4.70328 0
M  V30 8145 O 748.367 3.09553 4.77667 0
M  V30 8146 N 749.569 1.40243 5.63305 0
M  V30 8147 H 752.334 2.46539 1.70407 0
M  V30 8148 H 749.895 1.40917 0.79712 0
M  V30 8149 H 751.887 1.16502 3.87569 0
M  V30 8150 H 750.457 0.44551 3.09409 0
M  V30 8151 H 749.677 2.8956 2.67486 0
M  V30 8152 H 750.965 3.40441 3.78124 0
M  V30 8153 H 750.363 0.795023 5.60086 0
M  V30 8154 H 748.92 1.29496 6.38807 0
M  V30 8155 N 752.353 -0.854086 1.3245 0
M  V30 8156 C 753.599 -1.61069 1.23225 0
M  V30 8157 C 753.932 -1.93111 -0.205349 0
M  V30 8158 O 753.207 -1.57397 -1.14265 0
M  V30 8159 C 753.49 -2.93065 2.09249 0
M  V30 8160 C 753.343 -2.67801 3.6139 0
M  V30 8161 C 754.662 -3.94341 1.95406 0
M  V30 8162 H 751.781 -0.584449 0.448986 0
M  V30 8163 H 754.423 -0.986189 1.62402 0
M  V30 8164 H 752.573 -3.46364 1.75967 0
M  V30 8165 H 754.245 -2.21052 4.04887 0
M  V30 8166 H 752.488 -2.01756 3.84027 0
M  V30 8167 H 753.159 -3.6179 4.16907 0
M  V30 8168 H 755.635 -3.50301 2.24562 0
M  V30 8169 H 754.511 -4.84555 2.57872 0
M  V30 8170 H 754.772 -4.32382 0.921865 0
M  V30 8171 N 753.831 -1.1567 -1.07043 0
M  V30 8172 C 755.242 -0.942408 -1.61169 0
M  V30 8173 C 755.593 0.515537 -1.89306 0
M  V30 8174 O 754.718 1.38726 -1.66084 0
M  V30 8175 C 755.313 -1.70431 -2.92812 0
M  V30 8176 C 753.872 -1.53521 -3.43669 0
M  V30 8177 C 753.019 -1.7179 -2.17678 0
M  V30 8178 H 755.97 -1.3065 -0.9009 0
M  V30 8179 H 755.991 -1.17566 -3.61882 0
M  V30 8180 H 755.503 -2.76538 -2.72302 0
M  V30 8181 H 753.604 -0.498224 -3.69254 0
M  V30 8182 H 753.717 -2.31422 -4.19501 0
M  V30 8183 H 752.081 -1.14468 -2.27529 0
M  V30 8184 H 752.864 -2.79269 -1.99659 0
M  V30 8185 N 755.309 1.25446 -0.953992 0
M  V30 8186 C 756.239 2.28264 -0.491717 0
M  V30 8187 C 757.22 1.63717 0.461617 0
M  V30 8188 O 758.405 1.90821 0.36071 0
M  V30 8189 C 755.535 3.46525 0.231915 0
M  V30 8190 C 754.489 4.23247 -0.636098 0
M  V30 8191 C 753.815 5.34254 0.218238 0
M  V30 8192 C 755.115 4.85971 -1.91389 0
M  V30 8193 H 756.809 2.67183 -1.35106 0
M  V30 8194 H 754.355 1.2844 -0.651095 0
M  V30 8195 H 756.308 4.17576 0.566439 0
M  V30 8196 H 755.032 3.06594 1.12551 0
M  V30 8197 H 753.691 3.53978 -0.953696 0
M  V30 8198 H 753.339 4.90564 1.11156 0
M  V30 8199 H 753.039 5.86501 -0.359232 0
M  V30 8200 H 754.563 6.08138 0.547743 0
M  V30 8201 H 755.977 5.49168 -1.64581 0
M  V30 8202 H 754.374 5.48391 -2.43696 0
M  V30 8203 H 755.444 4.08192 -2.61738 0
M  V30 8204 N 756.787 0.722489 1.40064 0
M  V30 8205 C 757.719 0.0349057 2.29173 0
M  V30 8206 C 758.732 -0.716571 1.46182 0
M  V30 8207 O 759.921 -0.562806 1.69395 0
M  V30 8208 C 757.021 -0.974839 3.24577 0
M  V30 8209 C 756.194 -0.287471 4.36454 0
M  V30 8210 C 755.253 -1.20356 5.12251 0
M  V30 8211 O 754.279 -0.685753 5.65054 0
M  V30 8212 N 755.481 -2.53422 5.22262 0
M  V30 8213 H 758.246 0.800058 2.88824 0
M  V30 8214 H 755.807 0.57068 1.51509 0
M  V30 8215 H 757.799 -1.59002 3.72157 0
M  V30 8216 H 756.369 -1.6413 2.66046 0
M  V30 8217 H 755.589 0.508008 3.90913 0
M  V30 8218 H 756.877 0.189382 5.08447 0
M  V30 8219 H 756.275 -2.97981 4.80857 0
M  V30 8220 H 754.832 -3.10067 5.73325 0
M  V30 8221 N 758.265 -1.50454 0.469181 0
M  V30 8222 C 759.195 -2.31353 -0.31592 0
M  V30 8223 C 760.176 -1.38172 -0.992094 0
M  V30 8224 O 761.361 -1.67093 -0.989633 0
M  V30 8225 C 758.491 -3.1786 -1.39937 0
M  V30 8226 C 757.445 -4.19578 -0.844909 0
M  V30 8227 C 756.771 -4.9481 -2.0265 0
M  V30 8228 C 758.071 -5.22106 0.142499 0
M  V30 8229 H 759.765 -2.97237 0.359269 0
M  V30 8230 H 757.311 -1.42942 0.174224 0
M  V30 8231 H 759.264 -3.7325 -1.95607 0
M  V30 8232 H 757.988 -2.49858 -2.1033 0
M  V30 8233 H 756.647 -3.65285 -0.310189 0
M  V30 8234 H 756.295 -4.23282 -2.71737 0
M  V30 8235 H 755.995 -5.63613 -1.66174 0
M  V30 8236 H 757.519 -5.53035 -2.58815 0
M  V30 8237 H 758.933 -5.72378 -0.324966 0
M  V30 8238 H 757.33 -5.98618 0.421441 0
M  V30 8239 H 758.4 -4.7297 1.06901 0
M  V30 8240 N 759.743 -0.201713 -1.56304 0
M  V30 8241 C 760.653 0.728296 -2.23009 0
M  V30 8242 C 761.669 1.22945 -1.23128 0
M  V30 8243 O 762.845 1.27523 -1.55884 0
M  V30 8244 C 759.91 1.92792 -2.88153 0
M  V30 8245 C 758.971 1.47068 -4.03323 0
M  V30 8246 C 758.204 2.61312 -4.65351 0
M  V30 8247 O 758.427 3.7896 -4.26317 0
M  V30 8248 O 757.361 2.33646 -5.54701 0
M  V30 8249 H 761.187 0.190166 -3.03104 0
M  V30 8250 H 758.772 0.0278725 -1.49374 0
M  V30 8251 H 760.654 2.6289 -3.29343 0
M  V30 8252 H 759.329 2.45452 -2.11033 0
M  V30 8253 H 758.236 0.738299 -3.66742 0
M  V30 8254 H 759.569 0.990666 -4.82127 0
M  V30 8255 N 761.222 1.57436 0.0718424 0
M  V30 8256 C 762.447 1.91858 0.787745 0
M  V30 8257 C 762.872 0.798119 1.70328 0
M  V30 8258 O 762.23 -0.24905 1.79581 0
M  V30 8259 C 762.278 3.25232 1.55744 0
M  V30 8260 O 761.382 3.14462 2.6681 0
M  V30 8261 H 760.723 0.628258 0.214914 0
M  V30 8262 H 763.253 2.04561 0.0401012 0
M  V30 8263 H 763.263 3.59105 1.9367 0
M  V30 8264 H 761.938 4.0636 0.885691 0
M  V30 8265 H 760.515 2.92148 2.31741 0
M  V30 8266 N 762.7 -0.34323 1.53817 0
M  V30 8267 C 763.647 -1.42153 1.81827 0
M  V30 8268 C 764.617 -1.52251 0.663996 0
M  V30 8269 O 765.802 -1.67784 0.908461 0
M  V30 8270 C 762.942 -2.78799 2.03384 0
M  V30 8271 C 762.055 -2.7749 3.31094 0
M  V30 8272 C 761.19 -4.05856 3.42717 0
M  V30 8273 C 760.229 -3.98776 4.64375 0
M  V30 8274 N 759.366 -5.18833 4.73029 0
M  V30 8275 H 764.206 -1.17567 2.73829 0
M  V30 8276 H 761.743 -0.569506 1.35628 0
M  V30 8277 H 763.701 -3.58211 2.13872 0
M  V30 8278 H 762.331 -3.01736 1.14696 0
M  V30 8279 H 761.383 -1.90182 3.29446 0
M  V30 8280 H 762.695 -2.68137 4.206 0
M  V30 8281 H 761.849 -4.93691 3.52638 0
M  V30 8282 H 760.588 -4.1799 2.51267 0
M  V30 8283 H 759.593 -3.09325 4.5453 0
M  V30 8284 H 760.818 -3.88224 5.57189 0
M  V30 8285 H 758.764 -5.31511 3.84489 0
M  V30 8286 H 758.681 -5.11737 5.56472 0
M  V30 8287 H 759.949 -6.08439 4.87261 0
M  V30 8288 N 764.178 -1.45556 -0.604258 0
M  V30 8289 C 765.403 -1.53509 -1.39462 0
M  V30 8290 C 765.828 -0.169638 -1.87333 0
M  V30 8291 O 765.186 0.846346 -1.60333 0
M  V30 8292 C 765.234 -2.52654 -2.5729 0
M  V30 8293 O 764.338 -2.04666 -3.5803 0
M  V30 8294 H 763.679 -0.517355 -0.416221 0
M  V30 8295 H 766.209 -1.90939 -0.735072 0
M  V30 8296 H 766.219 -2.71568 -3.04491 0
M  V30 8297 H 764.894 -3.51823 -2.21797 0
M  V30 8298 H 763.471 -1.95643 -3.17456 0
M  V30 8299 N 765.656 0.84705 -1.32902 0
M  V30 8300 C 766.619 1.9378 -1.224 0
M  V30 8301 C 767.619 1.60144 -0.145108 0
M  V30 8302 O 768.809 1.69638 -0.396058 0
M  V30 8303 C 765.941 3.29234 -0.884174 0
M  V30 8304 H 767.134 2.04518 -2.19345 0
M  V30 8305 H 764.687 1.03816 -1.16842 0
M  V30 8306 H 765.422 3.24193 0.0831277 0
M  V30 8307 H 765.207 3.55026 -1.6643 0
M  V30 8308 H 766.697 4.09162 -0.835226 0
M  V30 8309 N 767.134 1.16236 1.06428 0
M  V30 8310 C 768.064 0.890807 2.1584 0
M  V30 8311 C 769.045 -0.162333 1.69324 0
M  V30 8312 O 770.23 -0.0147191 1.94194 0
M  V30 8313 C 767.36 0.389615 3.45108 0
M  V30 8314 C 766.314 1.38051 4.05125 0
M  V30 8315 C 765.64 0.737773 5.29586 0
M  V30 8316 C 766.94 2.74965 4.44062 0
M  V30 8317 H 768.634 1.80577 2.38814 0
M  V30 8318 H 766.18 0.869657 1.14774 0
M  V30 8319 H 768.133 0.187127 4.20984 0
M  V30 8320 H 766.857 -0.560851 3.21748 0
M  V30 8321 H 765.516 1.56952 3.31303 0
M  V30 8322 H 765.164 -0.219135 5.02522 0
M  V30 8323 H 764.864 1.39914 5.70699 0
M  V30 8324 H 766.388 0.545275 6.0816 0
M  V30 8325 H 767.802 2.59855 5.11027 0
M  V30 8326 H 766.199 3.37563 4.96156 0
M  V30 8327 H 767.269 3.30321 3.54987 0
M  V30 8328 N 768.612 -1.24939 0.960631 0
M  V30 8329 C 769.86 -1.92437 0.617441 0
M  V30 8330 C 770.181 -1.75543 -0.849101 0
M  V30 8331 O 769.451 -1.12269 -1.60538 0
M  V30 8332 H 768.031 -0.712192 0.225371 0
M  V30 8333 H 770.693 -1.5198 1.22017 0
M  V30 8334 H 769.789 -3.00247 0.851933 0
M  V30 8335 N 770.09 -0.729906 -1.39679 0
M  V30 8336 C 771.501 -0.346241 -1.83461 0
M  V30 8337 C 771.852 1.1215 -1.60987 0
M  V30 8338 O 770.977 1.86456 -1.09832 0
M  V30 8339 C 771.572 -0.621656 -3.33048 0
M  V30 8340 C 770.131 -0.291543 -3.75269 0
M  V30 8341 C 769.278 -0.886844 -2.62736 0
M  V30 8342 H 772.229 -0.927949 -1.28743 0
M  V30 8343 H 772.25 0.108301 -3.80346 0
M  V30 8344 H 771.762 -1.68996 -3.49373 0
M  V30 8345 H 769.863 0.771133 -3.64533 0
M  V30 8346 H 769.976 -0.770544 -4.72863 0
M  V30 8347 H 768.34 -0.313839 -2.52759 0
M  V30 8348 H 769.123 -1.95971 -2.81869 0
M  V30 8349 N 771.568 1.50203 -0.477153 0
M  V30 8350 C 772.515 2.28656 0.31386 0
M  V30 8351 C 773.485 1.33977 0.981802 0
M  V30 8352 O 774.67 1.62919 0.993072 0
M  V30 8353 C 771.81 3.16027 1.38639 0
M  V30 8354 C 770.923 4.25743 0.732615 0
M  V30 8355 C 770.058 5.00363 1.78355 0
M  V30 8356 C 769.097 6.01945 1.11035 0
M  V30 8357 N 768.234 6.6982 2.10441 0
M  V30 8358 H 773.074 2.958 -0.361445 0
M  V30 8359 H 770.611 1.45867 -0.190093 0
M  V30 8360 H 772.569 3.6504 2.01994 0
M  V30 8361 H 771.199 2.50917 2.03077 0
M  V30 8362 H 770.251 3.80398 -0.0136546 0
M  V30 8363 H 771.563 4.98393 0.201513 0
M  V30 8364 H 770.717 5.53124 2.49276 0
M  V30 8365 H 769.456 4.27432 2.34847 0
M  V30 8366 H 768.461 5.48438 0.386797 0
M  V30 8367 H 769.686 6.76851 0.552248 0
M  V30 8368 H 767.632 5.99677 2.65939 0
M  V30 8369 H 767.549 7.38366 1.62332 0
M  V30 8370 H 768.817 7.27196 2.80724 0
M  V30 8371 N 773.046 0.209999 1.56195 0
M  V30 8372 C 773.994 -0.721416 2.2113 0
M  V30 8373 C 774.988 -1.20852 1.18706 0
M  V30 8374 O 776.194 -1.16968 1.36815 0
M  V30 8375 H 772.569 -0.251033 0.708863 0
M  V30 8376 H 774.54 -0.150193 2.98022 0
M  V30 8377 C 773.289 -1.92392 2.89621 0
M  V30 8378 H 772.612 -1.5582 3.68185 0
M  V30 8379 H 774.052 -2.55367 3.38473 0
M  V30 8380 C 772.511 -2.77208 1.91461 0
M  V30 8381 O 773.041 -3.75603 1.42426 0
M  V30 8382 N 771.247 -2.43006 1.59363 0
M  V30 8383 H 770.794 -1.63047 1.99433 0
M  V30 8384 H 770.752 -3.00036 0.939449 0
M  V30 8385 N 774.524 -1.57472 -0.0634922 0
M  V30 8386 C 775.772 -1.87283 -0.759563 0
M  V30 8387 C 776.093 -0.803135 -1.77693 0
M  V30 8388 O 775.363 0.167293 -1.95184 0
M  V30 8389 H 773.943 -0.691106 -0.283516 0
M  V30 8390 H 776.605 -1.94864 -0.0376091 0
M  V30 8391 H 775.701 -2.85064 -1.27062 0
M  V30 8392 N 776.003 0.335068 -1.53997 0
M  V30 8393 C 777.249 1.07594 -1.71905 0
M  V30 8394 C 777.582 1.88039 -0.485264 0
M  V30 8395 O 776.857 1.87482 0.517752 0
M  V30 8396 C 777.14 2.01016 -2.98772 0
M  V30 8397 C 776.993 1.23977 -4.32377 0
M  V30 8398 C 778.312 3.0071 -3.21343 0
M  V30 8399 H 775.431 0.38976 -0.625505 0
M  V30 8400 H 778.073 0.353684 -1.86679 0
M  V30 8401 H 776.223 2.62603 -2.86307 0
M  V30 8402 H 777.895 0.649383 -4.56706 0
M  V30 8403 H 776.138 0.541878 -4.30402 0
M  V30 8404 H 776.809 1.92512 -5.17342 0
M  V30 8405 H 779.285 2.4924 -3.33194 0
M  V30 8406 H 778.161 3.63272 -4.11491 0
M  V30 8407 H 778.422 3.72549 -2.38033 0
M  V30 8408 N 777.481 1.45874 0.596531 0
M  V30 8409 C 778.711 1.5379 1.37958 0
M  V30 8410 C 779.119 0.173086 1.88407 0
M  V30 8411 O 778.462 -0.837498 1.63498 0
M  V30 8412 C 778.524 2.47044 2.61169 0
M  V30 8413 C 778.188 3.93565 2.32283 0
M  V30 8414 C 779.185 4.83162 1.91965 0
M  V30 8415 C 776.87 4.38579 2.44854 0
M  V30 8416 C 778.864 6.15782 1.64593 0
M  V30 8417 C 776.551 5.71238 2.17095 0
M  V30 8418 C 777.549 6.59659 1.77028 0
M  V30 8419 O 777.237 7.89857 1.49601 0
M  V30 8420 H 776.969 0.523 0.428307 0
M  V30 8421 H 779.523 1.91855 0.733529 0
M  V30 8422 H 777.753 2.0397 3.28532 0
M  V30 8423 H 779.442 2.4552 3.23226 0
M  V30 8424 H 780.208 4.49646 1.8178 0
M  V30 8425 H 776.087 3.6999 2.75006 0
M  V30 8426 H 779.631 6.84757 1.33245 0
M  V30 8427 H 775.528 6.04306 2.26901 0
M  V30 8428 H 776.296 8.01991 1.63561 0
M  V30 8429 N 778.959 -0.83999 1.33349 0
M  V30 8430 C 780.208 -1.59011 1.2409 0
M  V30 8431 C 780.521 -1.94655 -0.192029 0
M  V30 8432 O 781.727 -2.68438 -0.406617 0
M  V30 8433 C 780.183 -2.86801 2.17425 0
M  V30 8434 C 779.791 -2.58525 3.65881 0
M  V30 8435 C 781.535 -3.64823 2.17036 0
M  V30 8436 C 779.442 -3.82404 4.51133 0
M  V30 8437 H 778.372 -0.596731 0.460899 0
M  V30 8438 H 781.023 -0.926274 1.58406 0
M  V30 8439 H 779.405 -3.54719 1.7604 0
M  V30 8440 H 780.579 -1.98824 4.15699 0
M  V30 8441 H 778.894 -1.93808 3.68548 0
M  V30 8442 H 781.491 -4.56774 2.7796 0
M  V30 8443 H 781.834 -3.99663 1.16513 0
M  V30 8444 H 782.367 -3.03826 2.56777 0
M  V30 8445 H 779.106 -3.52696 5.52527 0
M  V30 8446 H 778.626 -4.41447 4.0606 0
M  V30 8447 H 780.305 -4.49995 4.6488 0
M  V30 8448 N 780.437 -1.16799 -1.0581 0
M  V30 8449 C 781.384 -0.87902 -2.13405 0
M  V30 8450 C 782.354 0.174541 -1.6518 0
M  V30 8451 O 783.539 0.0386843 -1.90761 0
M  V30 8452 C 780.679 -0.391616 -3.42871 0
M  V30 8453 C 779.792 -1.50857 -4.04804 0
M  V30 8454 C 778.927 -0.975682 -5.22163 0
M  V30 8455 C 777.966 -2.06851 -5.76089 0
M  V30 8456 N 777.103 -1.55085 -6.84758 0
M  V30 8457 H 781.943 -1.80043 -2.37463 0
M  V30 8458 H 779.48 -0.898083 -1.16503 0
M  V30 8459 H 781.438 -0.0906247 -4.17102 0
M  V30 8460 H 780.068 0.49284 -3.19016 0
M  V30 8461 H 779.12 -1.92542 -3.28073 0
M  V30 8462 H 780.432 -2.33305 -4.40874 0
M  V30 8463 H 779.586 -0.628165 -6.03439 0
M  V30 8464 H 778.325 -0.120566 -4.87551 0
M  V30 8465 H 777.33 -2.42467 -4.93447 0
M  V30 8466 H 778.555 -2.92768 -6.12751 0
M  V30 8467 H 776.501 -0.718345 -6.52055 0
M  V30 8468 H 776.418 -2.31145 -7.19797 0
M  V30 8469 H 777.686 -1.23206 -7.69702 0
M  V30 8470 N 781.915 1.24427 -0.967243 0
M  V30 8471 C 783.164 1.91789 -0.624478 0
M  V30 8472 C 783.477 1.76448 0.844129 0
M  V30 8473 O 784.683 2.38495 1.2974 0
M  V30 8474 C 783.139 3.43743 -1.06626 0
M  V30 8475 C 782.747 3.67771 -2.55829 0
M  V30 8476 C 784.491 4.16958 -0.79662 0
M  V30 8477 C 782.398 5.13293 -2.93742 0
M  V30 8478 H 781.328 0.71811 -0.229856 0
M  V30 8479 H 783.979 1.41081 -1.17339 0
M  V30 8480 H 782.361 3.93484 -0.445663 0
M  V30 8481 H 783.535 3.28631 -3.23015 0
M  V30 8482 H 781.85 3.07841 -2.80398 0
M  V30 8483 H 784.447 5.24171 -1.05589 0
M  V30 8484 H 784.79 4.15442 0.267163 0
M  V30 8485 H 785.323 3.73164 -1.37816 0
M  V30 8486 H 782.062 5.19931 -3.9919 0
M  V30 8487 H 781.582 5.53433 -2.3124 0
M  V30 8488 H 783.261 5.81521 -2.83623 0
M  V30 8489 N 783.393 0.737304 1.3929 0
M  V30 8490 C 784.639 0.286681 2.00763 0
M  V30 8491 C 784.972 -1.12388 1.58375 0
M  V30 8492 O 784.247 -1.76661 0.813699 0
M  V30 8493 C 784.53 0.391147 3.57969 0
M  V30 8494 C 784.383 1.84165 4.1037 0
M  V30 8495 C 785.702 -0.225072 4.39524 0
M  V30 8496 H 782.821 0.105642 0.729389 0
M  V30 8497 H 785.463 0.933892 1.65464 0
M  V30 8498 H 783.613 -0.159875 3.88171 0
M  V30 8499 H 785.285 2.44972 3.90879 0
M  V30 8500 H 783.528 2.3622 3.63844 0
M  V30 8501 H 784.199 1.866 5.19504 0
M  V30 8502 H 786.675 0.244677 4.1538 0
M  V30 8503 H 785.551 -0.121646 5.48765 0
M  V30 8504 H 785.812 -1.31141 4.22202 0
M  V30 8505 N 784.871 -1.49948 0.485112 0
M  V30 8506 C 786.096 -2.073 -0.0645059 0
M  V30 8507 C 786.521 -1.345 -1.31497 0
M  V30 8508 O 785.879 -0.39687 -1.76903 0
M  V30 8509 C 785.927 -3.59201 -0.317304 0
M  V30 8510 O 785.031 -3.88085 -1.39514 0
M  V30 8511 H 784.372 -0.663723 0.0191822 0
M  V30 8512 H 786.902 -1.92963 0.680179 0
M  V30 8513 H 786.912 -4.04227 -0.553604 0
M  V30 8514 H 785.587 -4.11602 0.596387 0
M  V30 8515 H 784.164 -3.54885 -1.14504 0
M  V30 8516 N 786.349 -0.21828 -1.56081 0
M  V30 8517 C 787.765 0.137168 -1.59009 0
M  V30 8518 C 787.965 1.59215 -1.23503 0
M  V30 8519 O 787.021 2.33178 -0.968716 0
M  V30 8520 C 788.334 -0.186162 -3.00123 0
M  V30 8521 C 789.882 -0.128135 -3.12738 0
M  V30 8522 C 790.357 -0.425094 -4.56023 0
M  V30 8523 N 791.848 -0.374547 -4.61683 0
M  V30 8524 C 792.583 -0.57786 -5.70481 0
M  V30 8525 N 792.079 -0.842771 -6.87655 0
M  V30 8526 N 793.872 -0.510521 -5.59777 0
M  V30 8527 H 786.023 -1.16746 -1.77437 0
M  V30 8528 H 788.286 -0.467706 -0.824594 0
M  V30 8529 H 787.992 -1.19589 -3.30744 0
M  V30 8530 H 787.866 0.500388 -3.73866 0
M  V30 8531 H 790.253 0.872224 -2.81915 0
M  V30 8532 H 790.334 -0.848112 -2.41331 0
M  V30 8533 H 789.978 -1.42288 -4.87562 0
M  V30 8534 H 789.908 0.316038 -5.25651 0
M  V30 8535 H 792.399 -0.177356 -3.77484 0
M  V30 8536 H 792.712 -0.986095 -7.66483 0
M  V30 8537 H 791.057 -0.879929 -6.89407 0
M  V30 8538 H 794.248 -0.303813 -4.67113 0
M  V30 8539 H 794.421 -0.672378 -6.44502 0
M  V30 8540 O 787.866 1.61292 -0.0819188 0
M  V30 8541 H 788.557 1.86513 0.522732 0
M  V30 END ATOM
M  V30 BEGIN BOND
M  V30 END BOND
M  V30 END CTAB
M  END
$$$$
