drugbank_target|P13945 Beta-3 adrenergic receptor (DB00368; DB00571; DB00866; DB00871; DB00938; DB00960; DB00983; DB01001; DB01064; DB01102; DB01288; DB01363; DB01407; DB01580; DB04846; DB04861; DB05395; DB06190; DB06262; DB08807; DB08808; DB08893; DB11124; DB14895)
 OpenBabel12092119453D

  0  0  0     0  0            999 V3000
M  V30 BEGIN CTAB
M  V30 COUNTS 6195 6287 0 0 0
M  V30 BEGIN ATOM
M  V30 1 H -0.908 1.98254 -0.117106 0
M  V30 2 N 0 1.576 0 0
M  V30 3 C 0.933 2.03868 1.02534 0
M  V30 4 C 1.911 0.928543 1.3348 0
M  V30 5 O 3.095 1.19667 1.45644 0
M  V30 6 C 0.222 2.43627 2.35294 0
M  V30 7 C -0.732 3.65373 2.2001 0
M  V30 8 S 0.101 5.13292 1.52614 0
M  V30 9 C 1.257 5.56322 2.86805 0
M  V30 10 H 1.49 2.90518 0.631377 0
M  V30 11 H -0.977 1.52953 0.210867 0
M  V30 12 H 0.981 2.67203 3.11629 0
M  V30 13 H -0.358 1.57376 2.7183 0
M  V30 14 H -1.165 3.90944 3.18086 0
M  V30 15 H -1.563 3.418 1.51819 0
M  V30 16 H 0.729 5.58782 3.83104 0
M  V30 17 H 1.672 6.56266 2.65933 0
M  V30 18 H 2.08 4.83886 2.90714 0
M  V30 19 N 1.4781 -0.272755 1.55222 0
M  V30 20 C 2.4411 -1.32041 1.87344 0
M  V30 21 C 3.4411 -1.42342 0.74803 0
M  V30 22 O 4.6311 -1.41488 1.0162 0
M  V30 23 C 1.7631 -2.70173 2.07893 0
M  V30 24 H 2.9561 -1.04789 2.80997 0
M  V30 25 H 0.5091 -0.51083 1.47717 0
M  V30 26 H 1.2441 -3.02605 1.16622 0
M  V30 27 H 1.0291 -2.64082 2.89833 0
M  V30 28 H 2.5191 -3.45869 2.34017 0
M  V30 29 N 2.9562 -1.48159 -0.537278 0
M  V30 30 C 4.3672 -1.49429 -1.11928 0
M  V30 31 C 4.7182 -0.26 -1.9447 0
M  V30 32 O 3.8432 0.633489 -2.0692 0
M  V30 33 C 4.4382 -2.70758 -2.03656 0
M  V30 34 C 2.9972 -2.74923 -2.57088 0
M  V30 35 C 2.1442 -2.42835 -1.3389 0
M  V30 36 H 5.0952 -1.55381 -0.322886 0
M  V30 37 H 5.1162 -2.48861 -2.87834 0
M  V30 38 H 4.6282 -3.60575 -1.43553 0
M  V30 39 H 2.7292 -1.89296 -3.20933 0
M  V30 40 H 2.8422 -3.76157 -2.9672 0
M  V30 41 H 1.2062 -1.93836 -1.65226 0
M  V30 42 H 1.9892 -3.34884 -0.755504 0
M  V30 43 N 4.4343 0.785586 -1.36625 0
M  V30 44 C 5.6803 1.5452 -1.32269 0
M  V30 45 C 6.0353 1.92159 0.0962266 0
M  V30 46 O 5.3283 1.60158 1.05167 0
M  V30 47 C 5.5223 2.83007 -2.1827 0
M  V30 48 C 5.3513 2.57925 -3.68382 0
M  V30 49 C 4.1213 2.52752 -4.37544 0
M  V30 50 C 6.3193 2.26861 -4.61561 0
M  V30 51 N 4.3013 2.19608 -5.73276 0
M  V30 52 C 5.6723 2.03738 -5.85569 0
M  V30 53 C 7.7273 2.129 -4.50087 0
M  V30 54 C 6.4303 1.68065 -6.9939 0
M  V30 55 C 8.4563 1.78626 -5.63779 0
M  V30 56 C 7.8183 1.56353 -6.86828 0
M  V30 57 H 3.9173 0.566301 -0.539283 0
M  V30 58 H 6.5013 0.917736 -1.71714 0
M  V30 59 H 4.6723 3.43614 -1.81063 0
M  V30 60 H 6.4043 3.48775 -2.05275 0
M  V30 61 H 3.1593 2.6813 -3.90389 0
M  V30 62 H 3.5833 2.05771 -6.44971 0
M  V30 63 H 8.2253 2.28808 -3.55537 0
M  V30 64 H 5.9433 1.50895 -7.93887 0
M  V30 65 H 9.5293 1.68502 -5.56865 0
M  V30 66 H 8.4093 1.30223 -7.73312 0
M  V30 67 N 5.9124 1.20967 1.01018 0
M  V30 68 C 7.3234 1.02319 1.56165 0
M  V30 69 C 7.6744 -0.418546 1.91684 0
M  V30 70 O 6.7994 -1.30096 1.72928 0
M  V30 71 C 7.3944 1.85109 2.8376 0
M  V30 72 C 5.9534 1.70809 3.35412 0
M  V30 73 C 5.1004 1.82643 2.08655 0
M  V30 74 H 8.0514 1.35065 0.833255 0
M  V30 75 H 8.0724 1.35827 3.55431 0
M  V30 76 H 7.5844 2.90035 2.57878 0
M  V30 77 H 5.6854 0.685464 3.66241 0
M  V30 78 H 5.7984 2.52467 4.07182 0
M  V30 79 H 4.1624 1.25896 2.21409 0
M  V30 80 H 4.9454 2.89066 1.85191 0
M  V30 81 N 7.3905 -1.2043 1.01659 0
M  V30 82 C 8.3405 -2.21076 0.557623 0
M  V30 83 C 9.3245 -1.56176 -0.387029 0
M  V30 84 O 10.5165 -1.7575 -0.209996 0
M  V30 85 C 7.6455 -3.43146 -0.102707 0
M  V30 86 C 6.7315 -4.15213 0.863652 0
M  V30 87 N 7.1225 -4.63662 2.02117 0
M  V30 88 C 5.4205 -4.40716 0.684472 0
M  V30 89 C 6.1215 -5.18868 2.62966 0
M  V30 90 N 5.0975 -5.0893 1.91027 0
M  V30 91 H 8.8995 -2.56201 1.44008 0
M  V30 92 H 6.4135 -1.36366 0.881931 0
M  V30 93 H 8.4105 -4.14475 -0.449054 0
M  V30 94 H 7.0705 -3.09526 -0.981003 0
M  V30 95 H 8.0815 -4.58877 2.40109 0
M  V30 96 H 4.7585 -4.17245 -0.14577 0
M  V30 97 H 6.1485 -5.6673 3.60924 0
M  V30 98 N 8.8686 -0.792821 -1.36206 0
M  V30 99 C 9.7786 -0.194808 -2.3379 0
M  V30 100 C 10.7946 0.654869 -1.61206 0
M  V30 101 O 11.9706 0.569856 -1.9317 0
M  V30 102 C 9.0356 0.657721 -3.40404 0
M  V30 103 C 8.0966 -0.210849 -4.28782 0
M  V30 104 C 7.3296 0.601086 -5.30304 0
M  V30 105 O 7.5526 1.83682 -5.40016 0
M  V30 106 O 6.4866 -0.000808277 -6.019 0
M  V30 107 H 10.3126 -1.00172 -2.86704 0
M  V30 108 H 7.8976 -0.554341 -1.38735 0
M  V30 109 H 9.7796 1.14375 -4.05581 0
M  V30 110 H 8.4546 1.44247 -2.89784 0
M  V30 111 H 7.3616 -0.743714 -3.66633 0
M  V30 112 H 8.6946 -0.959195 -4.82763 0
M  V30 113 N 10.3467 1.47872 -0.545128 0
M  V30 114 C 11.2947 2.31533 0.222512 0
M  V30 115 C 12.2887 1.42177 0.920985 0
M  V30 116 O 13.4947 1.59005 0.843645 0
M  V30 117 H 9.8697 0.746519 0.0906278 0
M  V30 118 H 11.8407 2.94139 -0.50246 0
M  V30 119 C 10.5897 3.2457 1.24699 0
M  V30 120 H 9.9127 3.93283 0.718944 0
M  V30 121 H 11.3527 3.85963 1.75523 0
M  V30 122 C 9.8117 2.47237 2.28856 0
M  V30 123 O 10.3417 2.20808 3.35569 0
M  V30 124 N 8.5477 2.08461 2.02466 0
M  V30 125 H 8.0947 2.30155 1.157 0
M  V30 126 H 8.0527 1.57033 2.72375 0
M  V30 127 N 11.8248 0.280983 1.55075 0
M  V30 128 C 13.0498 -0.340154 2.04592 0
M  V30 129 C 13.4748 -1.48246 1.15779 0
M  V30 130 O 12.8328 -1.80614 0.15761 0
M  V30 131 C 12.8808 -0.793104 3.5177 0
M  V30 132 O 11.9848 -1.89981 3.66034 0
M  V30 133 H 11.3258 -0.0694289 0.66036 0
M  V30 134 H 13.8558 0.416993 2.00306 0
M  V30 135 H 13.8658 -1.08729 3.93245 0
M  V30 136 H 12.5408 0.0426163 4.15878 0
M  V30 137 H 11.1178 -1.60771 3.36463 0
M  V30 138 N 13.3029 -1.57598 0.00835791 0
M  V30 139 C 14.5279 -1.95617 -0.689103 0
M  V30 140 C 14.9529 -0.883753 -1.66046 0
M  V30 141 O 14.3109 0.157352 -1.80616 0
M  V30 142 C 14.3589 -3.32736 -1.38994 0
M  V30 143 O 13.4629 -3.27631 -2.50463 0
M  V30 144 H 12.8039 -0.638379 -0.182668 0
M  V30 145 H 15.3339 -2.045 0.064036 0
M  V30 146 H 15.3439 -3.68494 -1.75147 0
M  V30 147 H 14.0189 -4.1034 -0.677778 0
M  V30 148 H 12.5959 -3.03561 -2.16576 0
M  V30 149 N 14.781 0.264519 -1.55364 0
M  V30 150 C 15.711 1.33121 -1.91836 0
M  V30 151 C 16.692 1.51101 -0.781192 0
M  V30 152 O 17.877 1.64003 -1.04003 0
M  V30 153 C 15.007 2.68921 -2.19769 0
M  V30 154 C 13.961 2.65661 -3.35571 0
M  V30 155 C 13.287 4.05093 -3.49004 0
M  V30 156 C 14.587 2.24187 -4.71739 0
M  V30 157 H 16.281 1.02844 -2.81182 0
M  V30 158 H 13.827 0.493286 -1.35287 0
M  V30 159 H 15.78 3.43663 -2.43872 0
M  V30 160 H 14.504 3.00799 -1.27231 0
M  V30 161 H 13.163 1.93377 -3.1145 0
M  V30 162 H 12.811 4.34206 -2.53917 0
M  V30 163 H 12.511 4.03804 -4.26868 0
M  V30 164 H 14.035 4.81561 -3.75408 0
M  V30 165 H 15.449 2.88654 -4.9533 0
M  V30 166 H 13.846 2.34044 -5.52579 0
M  V30 167 H 14.916 1.19327 -4.69988 0
M  V30 168 N 16.2591 1.48442 0.529413 0
M  V30 169 C 17.2221 1.62524 1.61612 0
M  V30 170 C 18.2221 0.498509 1.52877 0
M  V30 171 O 19.4121 0.76431 1.56537 0
M  V30 172 C 16.5441 1.59597 3.01233 0
M  V30 173 H 17.7371 2.59423 1.50465 0
M  V30 174 H 15.2901 1.37047 0.751514 0
M  V30 175 H 16.0251 0.641781 3.17886 0
M  V30 176 H 15.8101 2.41397 3.08982 0
M  V30 177 H 17.3001 1.72646 3.80241 0
M  V30 178 N 17.7372 -0.778329 1.37039 0
M  V30 179 C 19.1482 -1.35421 1.28523 0
M  V30 180 C 19.4992 -1.96075 -0.0700901 0
M  V30 181 O 18.6242 -1.93352 -0.971801 0
M  V30 182 C 19.2192 -2.46211 2.32735 0
M  V30 183 C 17.7782 -2.99585 2.27873 0
M  V30 184 C 16.9252 -1.72748 2.16918 0
M  V30 185 H 19.8762 -0.5791 1.47757 0
M  V30 186 H 19.8972 -3.2552 1.9702 0
M  V30 187 H 19.4092 -2.02036 3.31365 0
M  V30 188 H 17.5102 -3.48152 1.32745 0
M  V30 189 H 17.6232 -3.55646 3.21018 0
M  V30 190 H 15.9872 -1.95416 1.63354 0
M  V30 191 H 16.7702 -1.30686 3.17452 0
M  V30 192 N 19.2153 -1.21501 -1.00376 0
M  V30 193 C 20.4613 -1.04457 -1.74529 0
M  V30 194 C 20.8163 0.417386 -1.87818 0
M  V30 195 O 20.1093 1.30556 -1.40234 0
M  V30 196 C 20.3033 -1.67673 -3.15627 0
M  V30 197 C 20.1323 -3.19865 -3.16096 0
M  V30 198 C 18.9023 -3.88915 -3.22604 0
M  V30 199 C 21.1003 -4.16936 -3.01112 0
M  V30 200 N 19.0823 -5.28284 -3.12712 0
M  V30 201 C 20.4533 -5.43066 -2.99131 0
M  V30 202 C 22.5083 -4.07968 -2.85423 0
M  V30 203 C 21.2113 -6.6126 -2.83068 0
M  V30 204 C 23.2373 -5.258 -2.70718 0
M  V30 205 C 22.5993 -6.50842 -2.69414 0
M  V30 206 H 18.6983 -0.436584 -0.648782 0
M  V30 207 H 21.2823 -1.53875 -1.19293 0
M  V30 208 H 19.4533 -1.20822 -3.6913 0
M  V30 209 H 21.1853 -1.43824 -3.78281 0
M  V30 210 H 17.9403 -3.39847 -3.2985 0
M  V30 211 H 18.3643 -6.01284 -3.11105 0
M  V30 212 H 23.0063 -3.1209 -2.85236 0
M  V30 213 H 20.7243 -7.57298 -2.82002 0
M  V30 214 H 24.3103 -5.20683 -2.59577 0
M  V30 215 H 23.1903 -7.40485 -2.5817 0
M  V30 216 N 20.6934 1.19889 -1.02296 0
M  V30 217 C 22.1044 1.71124 -0.746568 0
M  V30 218 C 22.4554 1.81939 0.734335 0
M  V30 219 O 21.5804 1.48639 1.57275 0
M  V30 220 C 22.1754 3.10804 -1.34857 0
M  V30 221 C 20.7344 3.59323 -1.1209 0
M  V30 222 C 19.8814 2.3635 -1.45031 0
M  V30 223 H 22.8324 1.04813 -1.19163 0
M  V30 224 H 22.8534 3.73186 -0.742437 0
M  V30 225 H 22.3654 3.029 -2.42638 0
M  V30 226 H 20.4664 3.7255 -0.0610337 0
M  V30 227 H 20.5794 4.4378 -1.80544 0
M  V30 228 H 18.9434 2.39399 -0.869487 0
M  V30 229 H 19.7264 2.31081 -2.53883 0
M  V30 230 N 22.1715 0.800033 1.35784 0
M  V30 231 C 23.4485 0.30088 1.93272 0
M  V30 232 C 23.8285 -1.20857 1.73081 0
M  V30 233 O 23.1765 -2.00502 1.09596 0
M  V30 234 C 23.3865 0.70511 3.41803 0
M  V30 235 C 24.7345 0.690871 4.18942 0
M  V30 236 O 25.7585 0.646244 3.50289 0
M  V30 237 O 24.6175 0.74332 5.41421 0
M  V30 238 H 21.7115 0.0771605 0.823393 0
M  V30 239 H 24.2575 0.88329 1.449 0
M  V30 240 H 23.0295 1.74571 3.50201 0
M  V30 241 H 22.6525 0.0971541 3.97481 0
M  V30 242 N 23.6496 -1.47581 0.552962 0
M  V30 243 C 24.5796 -2.32762 -0.185451 0
M  V30 244 C 25.5606 -1.43527 -0.912905 0
M  V30 245 O 26.7456 -1.72388 -0.894201 0
M  V30 246 C 23.8756 -3.25219 -1.21859 0
M  V30 247 C 22.8296 -4.23661 -0.607864 0
M  V30 248 C 22.1556 -5.05413 -1.74533 0
M  V30 249 C 23.4556 -5.20481 0.435582 0
M  V30 250 H 25.1496 -2.94749 0.525684 0
M  V30 251 H 22.6956 -1.41738 0.254251 0
M  V30 252 H 24.6486 -3.8365 -1.7433 0
M  V30 253 H 23.3726 -2.61279 -1.95961 0
M  V30 254 H 22.0316 -3.66451 -0.104489 0
M  V30 255 H 21.6796 -4.3788 -2.47529 0
M  V30 256 H 21.3796 -5.72059 -1.34249 0
M  V30 257 H 22.9036 -5.66701 -2.27338 0
M  V30 258 H 24.3176 -5.733 -0.00290157 0
M  V30 259 H 22.7146 -5.95305 0.757067 0
M  V30 260 H 23.7846 -4.66217 1.33303 0
M  V30 261 N 25.1277 -0.289203 -1.54924 0
M  V30 262 C 26.5387 0.205791 -1.85562 0
M  V30 263 C 26.8897 1.54351 -1.2112 0
M  V30 264 O 26.0147 2.10435 -0.504601 0
M  V30 265 C 26.6097 0.380177 -3.3666 0
M  V30 266 C 25.1687 0.819395 -3.67373 0
M  V30 267 C 24.3157 -0.079159 -2.77187 0
M  V30 268 H 27.2667 -0.510577 -1.50262 0
M  V30 269 H 27.2877 1.21659 -3.60526 0
M  V30 270 H 26.7997 -0.593589 -3.83534 0
M  V30 271 H 24.9007 1.80413 -3.26009 0
M  V30 272 H 25.0137 0.646957 -4.74712 0
M  V30 273 H 23.3777 0.439565 -2.50878 0
M  V30 274 H 24.1607 -1.04906 -3.26878 0
M  V30 275 N 26.6058 1.57591 -0.0167156 0
M  V30 276 C 27.8338 1.95575 0.675128 0
M  V30 277 C 28.2488 0.892542 1.6637 0
M  V30 278 O 27.6058 -0.126912 1.82058 0
M  V30 279 C 27.6568 3.33608 1.39239 0
M  V30 280 O 27.3778 4.3585 0.443444 0
M  V30 281 C 28.8788 3.86151 2.17721 0
M  V30 282 H 26.0988 0.644423 0.186978 0
M  V30 283 H 28.6428 2.0437 -0.0728 0
M  V30 284 H 26.7978 3.2607 2.09182 0
M  V30 285 H 27.2118 5.158 0.951358 0
M  V30 286 H 28.6858 4.85114 2.63379 0
M  V30 287 H 29.1628 3.19738 3.01105 0
M  V30 288 H 29.7688 3.96918 1.52761 0
M  V30 289 N 28.0839 -0.256276 1.55502 0
M  V30 290 C 29.0139 -1.32102 1.92539 0
M  V30 291 C 29.9949 -1.50684 0.789194 0
M  V30 292 O 31.1799 -1.63449 1.04872 0
M  V30 293 C 28.3099 -2.67752 2.21192 0
M  V30 294 C 27.2639 -2.63878 3.36975 0
M  V30 295 C 26.5899 -4.03236 3.51147 0
M  V30 296 C 27.8899 -2.21682 4.72921 0
M  V30 297 H 29.5839 -1.01351 2.81724 0
M  V30 298 H 27.1299 -0.486105 1.35547 0
M  V30 299 H 29.0829 -3.42365 2.45691 0
M  V30 300 H 27.8069 -3.0012 1.28824 0
M  V30 301 H 26.4659 -1.91722 3.12471 0
M  V30 302 H 26.1139 -4.32854 2.56216 0
M  V30 303 H 25.8139 -4.01535 4.29003 0
M  V30 304 H 27.3379 -4.79563 3.77957 0
M  V30 305 H 28.7519 -2.86023 4.96854 0
M  V30 306 H 27.1489 -2.3111 5.53812 0
M  V30 307 H 28.2189 -1.16833 4.70615 0
M  V30 308 N 29.562 -1.4872 -0.521534 0
M  V30 309 C 30.525 -1.63379 -1.60748 0
M  V30 310 C 31.525 -0.50661 -1.52611 0
M  V30 311 O 32.715 -0.772601 -1.5613 0
M  V30 312 C 29.847 -1.61192 -3.00383 0
M  V30 313 H 31.04 -2.60217 -1.49087 0
M  V30 314 H 28.593 -1.37444 -0.744235 0
M  V30 315 H 29.328 -0.65863 -3.17541 0
M  V30 316 H 29.113 -2.43032 -3.07698 0
M  V30 317 H 30.603 -1.7466 -3.7932 0
M  V30 318 N 31.0401 0.771051 -1.3745 0
M  V30 319 C 32.4511 1.34737 -1.29239 0
M  V30 320 C 32.8021 1.96109 0.0596908 0
M  V30 321 O 31.9271 1.93865 0.961534 0
M  V30 322 C 32.5221 2.44973 -2.34037 0
M  V30 323 C 31.0811 2.98372 -2.29458 0
M  V30 324 C 30.2281 1.71595 -2.17831 0
M  V30 325 H 33.1791 0.571256 -1.48062 0
M  V30 326 H 33.2001 3.24471 -1.98744 0
M  V30 327 H 32.7121 2.00276 -3.32432 0
M  V30 328 H 30.8131 3.47443 -1.34589 0
M  V30 329 H 30.9261 3.53939 -3.229 0
M  V30 330 H 29.2901 1.94547 -1.64388 0
M  V30 331 H 30.0731 1.29001 -3.18141 0
M  V30 332 N 32.5182 1.22032 0.997298 0
M  V30 333 C 33.4662 0.983634 2.10778 0
M  V30 334 C 34.4602 -0.0717564 1.69248 0
M  V30 335 O 35.6662 0.080304 1.79821 0
M  V30 336 H 32.0412 0.300877 0.689186 0
M  V30 337 H 34.0122 1.92606 2.27916 0
M  V30 338 C 32.7612 0.57326 3.42942 0
M  V30 339 H 32.0842 1.37702 3.75338 0
M  V30 340 H 33.5242 0.447031 4.21637 0
M  V30 341 C 31.9832 -0.7167 3.29188 0
M  V30 342 O 32.5132 -1.77027 3.60589 0
M  V30 343 N 30.7192 -0.686167 2.82383 0
M  V30 344 H 30.2662 0.171507 2.57028 0
M  V30 345 H 30.2242 -1.54955 2.73562 0
M  V30 346 N 33.9963 -1.19345 1.0293 0
M  V30 347 C 35.2243 -1.92997 0.745644 0
M  V30 348 C 35.6393 -1.75519 -0.695589 0
M  V30 349 O 34.9963 -1.07737 -1.47306 0
M  V30 350 C 35.0473 -3.44741 1.08792 0
M  V30 351 O 34.7683 -3.61658 2.47256 0
M  V30 352 C 36.2693 -4.35515 0.827129 0
M  V30 353 H 33.4893 -0.613042 0.272801 0
M  V30 354 H 36.0333 -1.51473 1.3739 0
M  V30 355 H 34.1883 -3.84097 0.504832 0
M  V30 356 H 34.6023 -4.55514 2.60015 0
M  V30 357 H 36.0763 -5.40589 1.11658 0
M  V30 358 H 36.5533 -4.38552 -0.238436 0
M  V30 359 H 37.1593 -4.01841 1.39297 0
M  V30 360 N 35.4744 -0.807222 -1.35358 0
M  V30 361 C 36.4374 -0.223665 -2.28106 0
M  V30 362 C 37.4374 0.589354 -1.4961 0
M  V30 363 O 38.6274 0.407745 -1.69361 0
M  V30 364 C 35.7594 0.688149 -3.33882 0
M  V30 365 H 36.9524 -1.04169 -2.81227 0
M  V30 366 H 34.5054 -0.577921 -1.45223 0
M  V30 367 H 35.2404 1.52984 -2.85948 0
M  V30 368 H 35.0254 0.10687 -3.91954 0
M  V30 369 H 36.5154 1.09075 -4.03104 0
M  V30 370 N 36.9525 1.47285 -0.560781 0
M  V30 371 C 37.9005 2.31756 0.197942 0
M  V30 372 C 38.8945 1.43146 0.905854 0
M  V30 373 O 40.1005 1.59891 0.826733 0
M  V30 374 H 36.4755 0.747438 0.0827049 0
M  V30 375 H 38.4465 2.9359 -0.533629 0
M  V30 376 C 37.1955 3.25874 1.21249 0
M  V30 377 H 36.5185 3.94023 0.67719 0
M  V30 378 H 37.9585 3.87803 1.71419 0
M  V30 379 C 36.4175 2.49651 2.26221 0
M  V30 380 O 36.9475 2.24355 3.33208 0
M  V30 381 N 35.1535 2.10597 2.00243 0
M  V30 382 H 34.7005 2.31369 1.13252 0
M  V30 383 H 34.6585 1.59913 2.70694 0
M  V30 384 N 38.4306 0.297415 1.54768 0
M  V30 385 C 39.6586 -0.315623 2.04478 0
M  V30 386 C 40.0736 -1.47792 1.17486 0
M  V30 387 O 39.4306 -1.81404 0.19971 0
M  V30 388 C 39.4816 -0.7753 3.53088 0
M  V30 389 O 39.2026 0.340732 4.36773 0
M  V30 390 C 40.7036 -1.45386 4.18781 0
M  V30 391 H 37.9236 -0.0690887 0.667434 0
M  V30 392 H 40.4676 0.436003 1.99798 0
M  V30 393 H 38.6226 -1.47696 3.58141 0
M  V30 394 H 39.0366 -0.0165035 5.24497 0
M  V30 395 H 40.5106 -1.72669 5.24299 0
M  V30 396 H 40.9876 -2.39275 3.68299 0
M  V30 397 H 41.5936 -0.795475 4.17795 0
M  V30 398 N 39.9087 -1.5758 0.0250728 0
M  V30 399 C 41.1337 -1.96337 -0.668317 0
M  V30 400 C 41.5587 -0.901314 -1.651 0
M  V30 401 O 40.9167 0.138187 -1.80773 0
M  V30 402 C 40.9647 -3.34191 -1.35457 0
M  V30 403 O 40.0687 -3.30269 -2.46974 0
M  V30 404 H 39.4097 -0.640281 -0.175887 0
M  V30 405 H 41.9397 -2.0442 0.0857224 0
M  V30 406 H 41.9497 -3.70331 -1.71228 0
M  V30 407 H 40.6247 -4.11036 -0.634218 0
M  V30 408 H 39.2017 -3.05841 -2.13344 0
M  V30 409 N 41.3868 0.248026 -1.55636 0
M  V30 410 C 42.6348 0.974295 -1.77065 0
M  V30 411 C 42.9558 1.85897 -0.588849 0
M  V30 412 O 42.2258 1.91868 0.395407 0
M  V30 413 H 40.8058 0.362733 -0.653019 0
M  V30 414 H 43.4678 0.266244 -1.93073 0
M  V30 415 H 42.5638 1.59667 -2.68166 0
M  V30 416 N 42.8649 1.48995 0.513639 0
M  V30 417 C 43.7949 1.67636 1.62544 0
M  V30 418 C 44.7759 0.525087 1.61793 0
M  V30 419 O 45.9609 0.759502 1.78732 0
M  V30 420 C 43.0909 1.73114 3.01079 0
M  V30 421 C 42.0449 2.87905 3.16693 0
M  V30 422 C 41.3709 2.78486 4.56453 0
M  V30 423 C 42.6709 4.29005 2.97913 0
M  V30 424 H 44.3649 2.60716 1.47198 0
M  V30 425 H 41.9109 1.25465 0.706714 0
M  V30 426 H 43.8639 1.84742 3.78746 0
M  V30 427 H 42.5879 0.766241 3.17484 0
M  V30 428 H 41.2469 2.75859 2.41448 0
M  V30 429 H 40.8949 1.7993 4.69717 0
M  V30 430 H 40.5949 3.55523 4.67843 0
M  V30 431 H 42.1189 2.92104 5.36197 0
M  V30 432 H 43.5329 4.41798 3.65359 0
M  V30 433 H 41.9299 5.07166 3.20785 0
M  V30 434 H 42.9999 4.44329 1.94165 0
M  V30 435 N 44.343 -0.763751 1.37857 0
M  V30 436 C 45.754 -1.3405 1.29952 0
M  V30 437 C 46.105 -1.96138 -0.0492898 0
M  V30 438 O 45.23 -1.94372 -0.951239 0
M  V30 439 C 45.825 -2.43729 2.35333 0
M  V30 440 C 44.384 -2.97151 2.31037 0
M  V30 441 C 43.531 -1.70438 2.18738 0
M  V30 442 H 46.482 -0.563396 1.48363 0
M  V30 443 H 46.503 -3.23412 2.00462 0
M  V30 444 H 46.015 -1.9851 3.33489 0
M  V30 445 H 44.116 -3.46724 1.3643 0
M  V30 446 H 44.229 -3.52221 3.24772 0
M  V30 447 H 42.593 -1.93673 1.65418 0
M  V30 448 H 43.376 -1.27312 3.18821 0
M  V30 449 N 45.8211 -1.22559 -0.990812 0
M  V30 450 C 47.0691 -1.04933 -1.72724 0
M  V30 451 C 47.3901 0.416158 -1.90508 0
M  V30 452 O 46.6601 1.29918 -1.46622 0
M  V30 453 H 45.2401 -0.385296 -0.639965 0
M  V30 454 H 47.9021 -1.54105 -1.19322 0
M  V30 455 H 46.9981 -1.52886 -2.72089 0
M  V30 456 N 47.2992 1.18797 -1.03562 0
M  V30 457 C 48.5452 1.8893 -0.737113 0
M  V30 458 C 48.8782 1.79837 0.732956 0
M  V30 459 O 48.1532 1.19525 1.5344 0
M  V30 460 C 48.4362 3.39607 -1.19745 0
M  V30 461 C 48.2892 3.57537 -2.72924 0
M  V30 462 C 49.6082 4.33069 -0.783526 0
M  V30 463 H 46.7272 0.686057 -0.269249 0
M  V30 464 H 49.3692 1.39797 -1.28673 0
M  V30 465 H 47.5192 3.81583 -0.729855 0
M  V30 466 H 49.1912 3.24688 -3.27682 0
M  V30 467 H 47.4342 3.00363 -3.12993 0
M  V30 468 H 48.1052 4.63238 -3.00191 0
M  V30 469 H 50.5812 3.98846 -1.18581 0
M  V30 470 H 49.4572 5.3707 -1.13343 0
M  V30 471 H 49.7182 4.40986 0.313681 0
M  V30 472 N 48.7773 0.814389 1.34928 0
M  V30 473 C 50.1883 0.458364 1.80986 0
M  V30 474 C 50.5393 -1.02042 1.67577 0
M  V30 475 O 49.6643 -1.79352 1.21086 0
M  V30 476 C 50.2593 0.825212 3.28597 0
M  V30 477 C 48.8183 0.521677 3.72767 0
M  V30 478 C 47.9653 1.04668 2.56788 0
M  V30 479 H 50.9163 1.00533 1.22795 0
M  V30 480 H 50.9373 0.12571 3.80292 0
M  V30 481 H 50.4493 1.90154 3.38324 0
M  V30 482 H 48.5503 -0.545589 3.68584 0
M  V30 483 H 48.6633 1.05977 4.67232 0
M  V30 484 H 47.0273 0.468622 2.50352 0
M  V30 485 H 47.8103 2.12927 2.6929 0
M  V30 486 N 50.2554 -1.46986 0.568584 0
M  V30 487 C 51.5014 -2.0332 0.0571487 0
M  V30 488 C 51.8564 -1.43384 -1.28291 0
M  V30 489 O 51.1494 -0.584304 -1.82473 0
M  V30 490 C 51.3434 -3.57306 -0.081836 0
M  V30 491 C 51.1724 -4.32174 1.24321 0
M  V30 492 C 49.9424 -4.71633 1.81358 0
M  V30 493 C 52.1404 -4.66598 2.16312 0
M  V30 494 N 50.1224 -5.31191 3.07748 0
M  V30 495 C 51.4934 -5.26578 3.27285 0
M  V30 496 C 53.5484 -4.48527 2.16166 0
M  V30 497 C 52.2514 -5.70395 4.38226 0
M  V30 498 C 54.2774 -4.93351 3.26127 0
M  V30 499 C 53.6394 -5.5339 4.3582 0
M  V30 500 H 49.7384 -0.77943 0.063351 0
M  V30 501 H 52.3224 -1.79323 0.758378 0
M  V30 502 H 50.4934 -3.81046 -0.752207 0
M  V30 503 H 52.2254 -4.00282 -0.59637 0
M  V30 504 H 48.9804 -4.53946 1.35019 0
M  V30 505 H 49.4044 -5.65505 3.72201 0
M  V30 506 H 54.0464 -4.01456 1.32638 0
M  V30 507 H 51.7644 -6.16452 5.22506 0
M  V30 508 H 55.3504 -4.81131 3.27115 0
M  V30 509 H 54.2304 -5.87441 5.19503 0
M  V30 510 N 51.7335 -0.305618 -1.54608 0
M  V30 511 C 52.6435 0.57778 -2.27374 0
M  V30 512 C 53.6595 1.14451 -1.31061 0
M  V30 513 O 54.8355 1.16831 -1.6405 0
M  V30 514 C 51.9005 1.73123 -3.00382 0
M  V30 515 C 50.9615 1.19812 -4.12242 0
M  V30 516 C 50.1945 2.2966 -4.81759 0
M  V30 517 O 50.4175 3.49651 -4.50666 0
M  V30 518 O 49.3515 1.96091 -5.69062 0
M  V30 519 H 53.1775 -0.012624 -3.03697 0
M  V30 520 H 50.7625 -0.0719184 -1.49227 0
M  V30 521 H 52.6445 2.40315 -3.4616 0
M  V30 522 H 51.3195 2.30815 -2.26949 0
M  V30 523 H 50.2265 0.491798 -3.70853 0
M  V30 524 H 51.5595 0.666566 -4.87666 0
M  V30 525 N 53.2116 1.57565 -0.0334293 0
M  V30 526 C 54.1746 2.09393 0.932048 0
M  V30 527 C 55.1746 1.00986 1.25134 0
M  V30 528 O 56.3646 1.27129 1.19096 0
M  V30 529 C 53.4966 2.56338 2.2473 0
M  V30 530 H 54.6896 2.95984 0.483085 0
M  V30 531 H 52.2426 1.54819 0.21468 0
M  V30 532 H 52.9776 1.7309 2.74245 0
M  V30 533 H 52.7626 3.35542 2.02865 0
M  V30 534 H 54.2526 2.96646 2.93923 0
M  V30 535 N 54.6897 -0.239769 1.55765 0
M  V30 536 C 55.6527 -1.28038 1.90103 0
M  V30 537 C 56.6527 -1.40723 0.778055 0
M  V30 538 O 57.8427 -1.39301 1.04599 0
M  V30 539 C 54.9747 -2.65702 2.13577 0
M  V30 540 H 56.1677 -0.988048 2.83157 0
M  V30 541 H 53.7207 -0.479382 1.48767 0
M  V30 542 H 54.4557 -3.00063 1.23015 0
M  V30 543 H 54.2407 -2.57875 2.95369 0
M  V30 544 H 55.7307 -3.40828 2.41301 0
M  V30 545 N 56.1678 -1.49265 -0.50573 0
M  V30 546 C 57.0978 -1.68495 -1.61653 0
M  V30 547 C 58.0788 -0.53366 -1.61512 0
M  V30 548 O 59.2638 -0.76897 -1.78327 0
M  V30 549 C 56.3938 -1.74709 -3.00157 0
M  V30 550 C 55.3478 -2.89581 -3.15162 0
M  V30 551 C 54.6738 -2.80903 -4.5497 0
M  V30 552 C 55.9738 -4.30578 -2.95634 0
M  V30 553 H 57.6678 -2.61493 -1.45814 0
M  V30 554 H 55.2138 -1.25838 -0.70005 0
M  V30 555 H 57.1668 -1.86748 -3.77761 0
M  V30 556 H 55.8908 -0.783067 -3.17074 0
M  V30 557 H 54.5498 -2.77136 -2.39982 0
M  V30 558 H 54.1978 -1.82419 -4.68756 0
M  V30 559 H 53.8978 -3.57999 -4.65951 0
M  V30 560 H 55.4218 -2.94944 -5.34641 0
M  V30 561 H 56.8358 -4.4373 -3.63011 0
M  V30 562 H 55.2328 -5.0886 -3.18091 0
M  V30 563 H 56.3028 -4.45352 -1.91806 0
M  V30 564 N 57.6459 0.756429 -1.3826 0
M  V30 565 C 58.6089 1.85176 -1.35065 0
M  V30 566 C 59.6089 1.58818 -0.251703 0
M  V30 567 O 60.7989 1.66615 -0.508433 0
M  V30 568 C 57.9309 3.22596 -1.10201 0
M  V30 569 H 59.1239 1.89417 -2.3251 0
M  V30 570 H 56.6769 0.95783 -1.23512 0
M  V30 571 H 57.4119 3.24025 -0.133504 0
M  V30 572 H 57.1969 3.43122 -1.89762 0
M  V30 573 H 58.6869 4.02673 -1.10654 0
M  V30 574 N 59.124 1.23083 0.984299 0
M  V30 575 C 60.372 1.05848 1.72165 0
M  V30 576 C 60.693 -0.406049 1.90726 0
M  V30 577 O 59.963 -1.29139 1.47309 0
M  V30 578 H 58.543 0.388685 0.637913 0
M  V30 579 H 61.205 1.54736 1.18503 0
M  V30 580 H 60.301 1.54327 2.71274 0
M  V30 581 N 60.6021 -1.18246 1.0419 0
M  V30 582 C 61.5651 -2.20128 0.638452 0
M  V30 583 C 62.5651 -1.57885 -0.304805 0
M  V30 584 O 63.7551 -1.73967 -0.0900369 0
M  V30 585 C 60.8871 -3.4084 -0.0637751 0
M  V30 586 H 62.0801 -2.57336 1.54007 0
M  V30 587 H 59.6331 -1.32152 0.834598 0
M  V30 588 H 60.3681 -3.09166 -0.979136 0
M  V30 589 H 60.1531 -3.8726 0.614198 0
M  V30 590 H 61.6431 -4.16274 -0.332512 0
M  V30 591 N 62.0802 -0.821533 -1.34494 0
M  V30 592 C 63.0102 -0.257138 -2.3208 0
M  V30 593 C 63.9912 0.625645 -1.58176 0
M  V30 594 O 65.1762 0.552811 -1.86166 0
M  V30 595 C 62.3062 0.582958 -3.42372 0
M  V30 596 C 61.2602 -0.202571 -4.2752 0
M  V30 597 C 60.5862 0.760179 -5.29269 0
M  V30 598 C 61.8862 -1.40998 -5.02908 0
M  V30 599 H 63.5802 -1.07247 -2.79532 0
M  V30 600 H 61.1262 -0.517163 -1.34393 0
M  V30 601 H 63.0792 0.987972 -4.09655 0
M  V30 602 H 61.8032 1.43133 -2.93565 0
M  V30 603 H 60.4622 -0.588936 -3.61838 0
M  V30 604 H 60.1102 1.60447 -4.76724 0
M  V30 605 H 59.8102 0.238809 -5.87115 0
M  V30 606 H 61.3342 1.16308 -5.9942 0
M  V30 607 H 62.7482 -1.07905 -5.63054 0
M  V30 608 H 61.1452 -1.86689 -5.70322 0
M  V30 609 H 62.2152 -2.1889 -4.32684 0
M  V30 610 N 63.5583 1.46682 -0.576371 0
M  V30 611 C 64.4883 2.33028 0.148397 0
M  V30 612 C 65.4693 1.44961 0.889956 0
M  V30 613 O 66.6543 1.73789 0.866662 0
M  V30 614 C 63.7843 3.27117 1.1667 0
M  V30 615 C 62.7383 4.24575 0.540386 0
M  V30 616 C 62.0643 5.08126 1.6647 0
M  V30 617 C 63.3643 5.19722 -0.518331 0
M  V30 618 H 65.0583 2.93875 -0.572509 0
M  V30 619 H 62.6043 1.41315 -0.276768 0
M  V30 620 H 64.5573 3.86374 1.68204 0
M  V30 621 H 63.2813 2.64364 1.9178 0
M  V30 622 H 61.9403 3.66571 0.0461769 0
M  V30 623 H 61.5883 4.41762 2.40531 0
M  V30 624 H 61.2883 5.74122 1.25131 0
M  V30 625 H 62.8123 5.70246 2.18293 0
M  V30 626 H 64.2263 5.73232 -0.0883058 0
M  V30 627 H 62.6233 5.94026 -0.851679 0
M  V30 628 H 63.6933 4.64037 -1.40703 0
M  V30 629 N 65.0364 0.313813 1.54444 0
M  V30 630 C 65.9994 -0.54379 2.22656 0
M  V30 631 C 66.9994 -1.05124 1.21678 0
M  V30 632 O 68.1894 -0.945225 1.46325 0
M  V30 633 C 65.3214 -1.75427 2.92298 0
M  V30 634 H 66.5144 0.0523599 2.99854 0
M  V30 635 H 64.0674 0.0647834 1.56166 0
M  V30 636 H 64.8024 -2.38991 2.19211 0
M  V30 637 H 64.5874 -1.39791 3.66334 0
M  V30 638 H 66.0774 -2.36325 3.44297 0
M  V30 639 N 66.5145 -1.57545 0.0417849 0
M  V30 640 C 67.4445 -2.14009 -0.933929 0
M  V30 641 C 68.4255 -1.05938 -1.33083 0
M  V30 642 O 69.6105 -1.33833 -1.40721 0
M  V30 643 C 66.7405 -2.67747 -2.21199 0
M  V30 644 C 65.6945 -3.80718 -1.95544 0
M  V30 645 C 65.0205 -4.20935 -3.29724 0
M  V30 646 C 66.3205 -5.06258 -1.28452 0
M  V30 647 H 68.0145 -2.95788 -0.463645 0
M  V30 648 H 65.5605 -1.42285 -0.221573 0
M  V30 649 H 67.5135 -3.05886 -2.89848 0
M  V30 650 H 66.2375 -1.83147 -2.70416 0
M  V30 651 H 64.8965 -3.43037 -1.2931 0
M  V30 652 H 64.5445 -3.33298 -3.76724 0
M  V30 653 H 64.2445 -4.9707 -3.13361 0
M  V30 654 H 65.7685 -4.61666 -3.9962 0
M  V30 655 H 67.1825 -5.41903 -1.8712 0
M  V30 656 H 65.5795 -5.87475 -1.22445 0
M  V30 657 H 66.6495 -4.84207 -0.259219 0
M  V30 658 N 67.9926 0.231505 -1.5589 0
M  V30 659 C 68.9556 1.27028 -1.90779 0
M  V30 660 C 69.9556 1.40308 -0.785507 0
M  V30 661 O 71.1456 1.38744 -1.05336 0
M  V30 662 C 68.2776 2.64566 -2.14983 0
M  V30 663 H 69.4706 0.973017 -2.83677 0
M  V30 664 H 67.0236 0.471486 -1.49019 0
M  V30 665 H 67.7586 2.99406 -1.24604 0
M  V30 666 H 67.5436 2.56305 -2.96732 0
M  V30 667 H 69.0336 3.39543 -2.43105 0
M  V30 668 N 69.4707 1.49531 0.497807 0
M  V30 669 C 70.7167 1.59415 1.25358 0
M  V30 670 C 71.0497 0.281422 1.9215 0
M  V30 671 O 70.3247 -0.715249 1.80871 0
M  V30 672 C 70.6077 2.75566 2.3181 0
M  V30 673 C 70.4607 4.16642 1.69498 0
M  V30 674 C 71.7797 2.87347 3.33346 0
M  V30 675 H 68.8987 0.580244 0.454408 0
M  V30 676 H 71.5407 1.81827 0.551262 0
M  V30 677 H 69.6907 2.56587 2.91711 0
M  V30 678 H 71.3627 4.47145 1.13399 0
M  V30 679 H 69.6057 4.22141 0.998978 0
M  V30 680 H 70.2767 4.93792 2.46725 0
M  V30 681 H 72.7527 3.04634 2.83438 0
M  V30 682 H 71.6287 3.70289 4.05188 0
M  V30 683 H 71.8897 1.96834 3.95865 0
M  V30 684 N 70.9488 -0.749086 1.3866 0
M  V30 685 C 71.8788 -1.8764 1.38973 0
M  V30 686 C 72.8598 -1.68178 0.255004 0
M  V30 687 O 74.0448 -1.88704 0.458754 0
M  V30 688 C 71.1748 -3.25222 1.21851 0
M  V30 689 C 70.1288 -3.59295 2.32575 0
M  V30 690 C 69.4548 -4.95663 2.00555 0
M  V30 691 C 70.7548 -3.63709 3.7485 0
M  V30 692 H 72.4488 -1.87635 2.3331 0
M  V30 693 H 69.9948 -0.901329 1.12303 0
M  V30 694 H 71.9478 -4.03746 1.20695 0
M  V30 695 H 70.6718 -3.25719 0.239775 0
M  V30 696 H 69.3308 -2.83093 2.32925 0
M  V30 697 H 68.9788 -4.92724 1.01154 0
M  V30 698 H 68.6788 -5.19429 2.74714 0
M  V30 699 H 70.2028 -5.7656 2.01024 0
M  V30 700 H 71.6168 -4.32338 3.76506 0
M  V30 701 H 70.0138 -3.98986 4.48252 0
M  V30 702 H 71.0838 -2.63834 4.06841 0
M  V30 703 N 72.4269 -1.23603 -0.977757 0
M  V30 704 C 73.3899 -1.02069 -2.05218 0
M  V30 705 C 74.3899 0.0184305 -1.60789 0
M  V30 706 O 75.5799 -0.221569 -1.72785 0
M  V30 707 C 72.7119 -0.544926 -3.36517 0
M  V30 708 H 73.9049 -1.9742 -2.25755 0
M  V30 709 H 71.4579 -1.05684 -1.15155 0
M  V30 710 H 72.1929 0.412241 -3.21669 0
M  V30 711 H 71.9779 -1.2948 -3.70105 0
M  V30 712 H 73.4679 -0.414985 -4.15533 0
M  V30 713 N 73.905 1.17692 -1.04816 0
M  V30 714 C 75.133 1.91786 -0.776254 0
M  V30 715 C 75.548 1.76604 0.667577 0
M  V30 716 O 74.905 1.10067 1.45573 0
M  V30 717 C 74.956 3.42967 -1.14263 0
M  V30 718 O 74.677 3.57678 -2.52978 0
M  V30 719 C 76.178 4.34144 -0.896311 0
M  V30 720 H 73.398 0.608624 -0.282519 0
M  V30 721 H 75.942 1.49268 -1.39783 0
M  V30 722 H 74.097 3.83245 -0.565874 0
M  V30 723 H 74.511 4.51319 -2.67229 0
M  V30 724 H 75.985 5.38744 -1.20244 0
M  V30 725 H 76.462 4.38876 0.168636 0
M  V30 726 H 77.068 3.99574 -1.45672 0
M  V30 727 N 75.3831 0.828654 1.34056 0
M  V30 728 C 76.6291 0.42008 1.98402 0
M  V30 729 C 76.9621 -1.01564 1.65525 0
M  V30 730 O 76.2371 -1.70834 0.929831 0
M  V30 731 C 76.5201 0.62927 3.54559 0
M  V30 732 C 76.3731 2.11152 3.97159 0
M  V30 733 C 77.6921 0.0688756 4.40046 0
M  V30 734 H 74.8111 0.154104 0.720709 0
M  V30 735 H 77.4531 1.04228 1.5886 0
M  V30 736 H 75.6031 0.0996418 3.88372 0
M  V30 737 H 77.2751 2.70522 3.73651 0
M  V30 738 H 75.5181 2.59985 3.47261 0
M  V30 739 H 76.1891 2.20868 5.05887 0
M  V30 740 H 78.6651 0.521458 4.1282 0
M  V30 741 H 77.5411 0.245006 5.48353 0
M  V30 742 H 77.8021 -1.0266 4.30015 0
M  V30 743 N 76.8612 -1.46375 0.584142 0
M  V30 744 C 78.1092 -2.01978 0.0701287 0
M  V30 745 C 78.4302 -1.4579 -1.295 0
M  V30 746 O 77.7002 -0.64314 -1.85042 0
M  V30 747 H 76.2802 -0.746648 0.0229345 0
M  V30 748 H 78.9422 -1.79461 0.760245 0
M  V30 749 H 78.0382 -3.121 0.0022064 0
M  V30 750 N 78.3393 -0.321999 -1.54275 0
M  V30 751 C 79.5873 0.280489 -2.00144 0
M  V30 752 C 79.9083 1.52777 -1.21178 0
M  V30 753 O 79.1783 1.9338 -0.313187 0
M  V30 754 H 77.7583 0.106632 -0.73935 0
M  V30 755 H 80.4203 -0.438184 -1.8991 0
M  V30 756 H 79.5163 0.537972 -3.07428 0
M  V30 757 N 79.8174 1.5752 -0.0501392 0
M  V30 758 C 80.7654 2.12651 0.942459 0
M  V30 759 C 81.7594 1.05807 1.32292 0
M  V30 760 O 82.9654 1.24217 1.3027 0
M  V30 761 H 79.3404 0.679673 0.321789 0
M  V30 762 H 81.3114 2.94951 0.452356 0
M  V30 763 C 80.0604 2.68565 2.20836 0
M  V30 764 H 79.3834 3.50439 1.92439 0
M  V30 765 H 80.8234 3.10761 2.8845 0
M  V30 766 C 79.2824 1.62291 2.95234 0
M  V30 767 O 79.8124 1.03508 3.88135 0
M  V30 768 N 78.0184 1.33836 2.57946 0
M  V30 769 H 77.5654 1.81826 1.82475 0
M  V30 770 H 77.5234 0.629595 3.08032 0
M  V30 771 N 81.2955 -0.223234 1.56011 0
M  V30 772 C 82.2255 -1.27988 1.95298 0
M  V30 773 C 83.2065 -1.48976 0.820979 0
M  V30 774 O 84.3915 -1.61188 1.08315 0
M  V30 775 C 81.5215 -2.63 2.26822 0
M  V30 776 C 80.4755 -2.56671 3.42497 0
M  V30 777 C 79.8015 -3.95697 3.59622 0
M  V30 778 C 81.1015 -2.11601 4.77517 0
M  V30 779 H 82.7955 -0.953525 2.8381 0
M  V30 780 H 80.3415 -0.457244 1.36548 0
M  V30 781 H 82.2945 -3.37077 2.52898 0
M  V30 782 H 81.0185 -2.9732 1.35161 0
M  V30 783 H 79.6775 -1.85051 3.16467 0
M  V30 784 H 79.3255 -4.27322 2.6534 0
M  V30 785 H 79.0255 -3.92345 4.37424 0
M  V30 786 H 80.5495 -4.71438 3.88044 0
M  V30 787 H 81.9635 -2.7542 5.02809 0
M  V30 788 H 80.3605 -2.19311 5.5859 0
M  V30 789 H 81.4305 -1.06824 4.72987 0
M  V30 790 N 82.7736 -1.49793 -0.48987 0
M  V30 791 C 83.7036 -1.70201 -1.59856 0
M  V30 792 C 84.6846 -0.55076 -1.60937 0
M  V30 793 O 85.8696 -0.787841 -1.77501 0
M  V30 794 C 82.9996 -1.77882 -2.98287 0
M  V30 795 C 81.9536 -2.92907 -3.12073 0
M  V30 796 C 81.2796 -2.85712 -4.51965 0
M  V30 797 C 82.5796 -4.3369 -2.91051 0
M  V30 798 H 84.2736 -2.63025 -1.43032 0
M  V30 799 H 81.8196 -1.26574 -0.686664 0
M  V30 800 H 83.7726 -1.90744 -3.75759 0
M  V30 801 H 82.4966 -0.816653 -3.16225 0
M  V30 802 H 81.1556 -2.79665 -2.37029 0
M  V30 803 H 80.8036 -1.8738 -4.66795 0
M  V30 804 H 80.5036 -3.62921 -4.62128 0
M  V30 805 H 82.0276 -3.00598 -5.31482 0
M  V30 806 H 83.4416 -4.47555 -3.58284 0
M  V30 807 H 81.8386 -5.12205 -3.12675 0
M  V30 808 H 82.9086 -4.47362 -1.87071 0
M  V30 809 N 84.2517 0.741722 -1.39055 0
M  V30 810 C 85.4977 1.50336 -1.36113 0
M  V30 811 C 85.8307 1.94148 0.0450796 0
M  V30 812 O 85.1057 1.66301 1.00868 0
M  V30 813 C 85.3887 2.74773 -2.32749 0
M  V30 814 C 85.2417 2.37023 -3.82283 0
M  V30 815 C 86.5607 3.76846 -2.27322 0
M  V30 816 H 83.6797 0.545351 -0.495743 0
M  V30 817 H 86.3217 0.848624 -1.69995 0
M  V30 818 H 84.4717 3.30639 -2.03986 0
M  V30 819 H 86.1437 1.8684 -4.21768 0
M  V30 820 H 84.3867 1.69334 -3.99385 0
M  V30 821 H 85.0577 3.26104 -4.45376 0
M  V30 822 H 87.5337 3.30548 -2.5274 0
M  V30 823 H 86.4097 4.6159 -2.97028 0
M  V30 824 H 86.6707 4.23286 -1.27599 0
M  V30 825 N 85.7298 1.2412 0.971189 0
M  V30 826 C 86.9788 1.07284 1.70801 0
M  V30 827 C 87.2918 -0.388902 1.91695 0
M  V30 828 O 88.4978 -0.677379 2.62914 0
M  V30 829 C 86.9538 1.87145 3.07416 0
M  V30 830 C 86.5618 3.37707 2.94377 0
M  V30 831 C 88.3058 1.78828 3.84995 0
M  V30 832 C 86.2128 4.09925 4.26281 0
M  V30 833 H 85.1428 0.397854 0.64049 0
M  V30 834 H 87.7938 1.4817 1.0825 0
M  V30 835 H 86.1758 1.39071 3.70777 0
M  V30 836 H 87.3498 3.93335 2.4005 0
M  V30 837 H 85.6648 3.46938 2.30267 0
M  V30 838 H 88.2618 2.30089 4.82662 0
M  V30 839 H 88.6048 0.75284 4.09436 0
M  V30 840 H 89.1378 2.24563 3.28354 0
M  V30 841 H 85.8768 5.13813 4.07033 0
M  V30 842 H 85.3968 3.59083 4.80437 0
M  V30 843 H 87.0758 4.1673 4.94919 0
M  V30 844 N 87.2079 -1.17134 1.05439 0
M  V30 845 C 88.4539 -1.87733 0.767077 0
M  V30 846 C 88.7869 -1.8098 -0.704253 0
M  V30 847 O 88.0619 -1.21951 -1.5152 0
M  V30 848 C 88.3449 -3.37659 1.25133 0
M  V30 849 C 88.1979 -3.53149 2.78578 0
M  V30 850 C 89.5169 -4.31768 0.852324 0
M  V30 851 H 86.6359 -0.681687 0.280129 0
M  V30 852 H 89.2779 -1.37732 1.30881 0
M  V30 853 H 87.4279 -3.80373 0.790469 0
M  V30 854 H 89.0999 -3.19434 3.32806 0
M  V30 855 H 87.3429 -2.95345 3.17732 0
M  V30 856 H 88.0139 -4.58403 3.07523 0
M  V30 857 H 90.4899 -3.96909 1.24911 0
M  V30 858 H 89.3659 -5.35199 1.21873 0
M  V30 859 H 89.6269 -4.41429 -0.243485 0
M  V30 860 N 88.686 -0.835752 -1.33615 0
M  V30 861 C 89.649 -0.272 -2.2758 0
M  V30 862 C 90.649 0.557487 -1.50827 0
M  V30 863 O 91.839 0.37173 -1.70188 0
M  V30 864 C 88.971 0.617173 -3.35267 0
M  V30 865 H 90.164 -1.10111 -2.78954 0
M  V30 866 H 87.717 -0.608594 -1.43965 0
M  V30 867 H 88.452 1.46884 -2.89129 0
M  V30 868 H 88.237 0.0237066 -3.92093 0
M  V30 869 H 89.727 1.005 -4.05326 0
M  V30 870 N 90.1641 1.46063 -0.591896 0
M  V30 871 C 91.4131 2.01547 -0.0786637 0
M  V30 872 C 91.7261 1.46796 1.29268 0
M  V30 873 O 92.9321 1.94157 1.89777 0
M  V30 874 C 91.3881 3.59787 -0.0900024 0
M  V30 875 C 90.9961 4.23534 -1.46023 0
M  V30 876 C 92.7401 4.22895 0.368806 0
M  V30 877 C 90.6471 5.73881 -1.4288 0
M  V30 878 H 89.5771 0.753564 -0.0256388 0
M  V30 879 H 92.2281 1.677 -0.744905 0
M  V30 880 H 90.6101 3.90752 0.642586 0
M  V30 881 H 91.7841 4.04167 -2.21328 0
M  V30 882 H 90.0991 3.72558 -1.85982 0
M  V30 883 H 92.6961 5.33116 0.411258 0
M  V30 884 H 93.0391 3.9247 1.38827 0
M  V30 885 H 93.5721 3.9659 -0.31001 0
M  V30 886 H 90.3111 6.0898 -2.42536 0
M  V30 887 H 89.8311 5.95486 -0.718095 0
M  V30 888 H 91.5101 6.36776 -1.14565 0
M  V30 889 N 91.6422 0.330177 1.54103 0
M  V30 890 C 92.6052 -0.520144 2.2322 0
M  V30 891 C 93.6052 -1.03828 1.22786 0
M  V30 892 O 94.7952 -0.929652 1.4732 0
M  V30 893 C 91.9272 -1.72317 2.94142 0
M  V30 894 H 93.1202 0.0841605 2.99782 0
M  V30 895 H 90.6732 0.0813433 1.56088 0
M  V30 896 H 91.4082 -2.36653 2.21734 0
M  V30 897 H 91.1932 -1.35898 3.67796 0
M  V30 898 H 92.6832 -2.3266 3.46784 0
M  V30 899 N 93.1203 -1.57491 0.0584922 0
M  V30 900 C 94.3663 -1.94081 -0.608617 0
M  V30 901 C 94.7213 -0.937438 -1.68017 0
M  V30 902 O 94.0143 0.0423034 -1.91553 0
M  V30 903 C 94.2083 -3.3513 -1.24188 0
M  V30 904 C 94.0373 -4.49095 -0.233187 0
M  V30 905 C 92.8073 -5.04988 0.177439 0
M  V30 906 C 95.0053 -5.1162 0.524306 0
M  V30 907 N 92.9873 -6.02487 1.17823 0
M  V30 908 C 94.3583 -6.04493 1.37796 0
M  V30 909 C 96.4133 -4.94489 0.581822 0
M  V30 910 C 95.1163 -6.82075 2.28399 0
M  V30 911 C 97.1423 -5.72703 1.47531 0
M  V30 912 C 96.5043 -6.65214 2.31667 0
M  V30 913 H 92.6033 -0.75752 -0.194134 0
M  V30 914 H 95.1873 -1.94248 0.132533 0
M  V30 915 H 93.3583 -3.35726 -1.95302 0
M  V30 916 H 95.0903 -3.5899 -1.86838 0
M  V30 917 H 91.8453 -4.73165 -0.203004 0
M  V30 918 H 92.2693 -6.55933 1.67573 0
M  V30 919 H 96.9113 -4.22765 -0.054443 0
M  V30 920 H 94.6293 -7.53085 2.93067 0
M  V30 921 H 98.2153 -5.61472 1.52448 0
M  V30 922 H 97.0953 -7.24679 2.99683 0
M  V30 923 N 94.5984 0.214957 -1.56127 0
M  V30 924 C 95.8264 0.955092 -1.83536 0
M  V30 925 C 96.2414 1.77677 -0.638472 0
M  V30 926 O 95.5984 1.78219 0.392968 0
M  V30 927 C 95.6494 1.86734 -3.09536 0
M  V30 928 O 95.3704 1.07887 -4.24608 0
M  V30 929 C 96.8714 2.72082 -3.4998 0
M  V30 930 H 94.0914 0.279611 -0.609966 0
M  V30 931 H 96.6354 0.228197 -2.03223 0
M  V30 932 H 94.7904 2.5481 -2.91806 0
M  V30 933 H 95.2044 1.69872 -4.9623 0
M  V30 934 H 96.6784 3.31782 -4.41163 0
M  V30 935 H 97.1554 3.44806 -2.7204 0
M  V30 936 H 97.7614 2.09409 -3.70173 0
M  V30 937 N 96.0765 1.50051 0.48192 0
M  V30 938 C 97.4875 1.5348 1.06305 0
M  V30 939 C 97.8385 0.331997 1.93371 0
M  V30 940 O 96.9635 -0.556256 2.09129 0
M  V30 941 C 97.5585 2.7813 1.93466 0
M  V30 942 C 96.1175 2.84275 2.46707 0
M  V30 943 C 95.2645 2.47637 1.24785 0
M  V30 944 H 98.2155 1.56472 0.264995 0
M  V30 945 H 98.2365 2.59372 2.78399 0
M  V30 946 H 97.7485 3.65654 1.30072 0
M  V30 947 H 95.8495 2.01077 3.13686 0
M  V30 948 H 95.9625 3.8691 2.82555 0
M  V30 949 H 94.3265 1.99835 1.57918 0
M  V30 950 H 95.1095 3.37457 0.630694 0
M  V30 951 N 97.5546 -0.734337 1.39446 0
M  V30 952 C 98.9706 -1.03997 1.21065 0
M  V30 953 C 99.1706 -2.01369 0.0727019 0
M  V30 954 O 98.2266 -2.45856 -0.575426 0
M  V30 955 C 99.5396 -1.60163 2.54496 0
M  V30 956 C 101.088 -1.7224 2.61347 0
M  V30 957 C 101.563 -2.31814 3.95002 0
M  V30 958 N 103.054 -2.39223 3.96644 0
M  V30 959 C 103.789 -2.86258 4.96834 0
M  V30 960 N 103.285 -3.33184 6.07421 0
M  V30 961 N 105.078 -2.85473 4.84213 0
M  V30 962 H 97.2286 -0.0885624 2.12215 0
M  V30 963 H 99.4916 -0.10191 0.942506 0
M  V30 964 H 99.1976 -0.960811 3.38321 0
M  V30 965 H 99.0716 -2.5896 2.74262 0
M  V30 966 H 101.459 -2.35443 1.77906 0
M  V30 967 H 101.54 -0.720939 2.4543 0
M  V30 968 H 101.184 -1.69238 4.78875 0
M  V30 969 H 101.114 -3.32638 4.08239 0
M  V30 970 H 103.605 -2.06057 3.16779 0
M  V30 971 H 103.918 -3.67586 6.7978 0
M  V30 972 H 102.263 -3.31191 6.11013 0
M  V30 973 H 105.454 -2.48136 3.96921 0
M  V30 974 H 105.627 -3.21814 5.62441 0
M  V30 975 N 99.0327 -1.24633 -0.964593 0
M  V30 976 C 99.9627 -1.06611 -2.07741 0
M  V30 977 C 100.944 0.0218666 -1.70086 0
M  V30 978 O 102.129 -0.145793 -1.93652 0
M  V30 979 C 99.2587 -0.673444 -3.40708 0
M  V30 980 C 98.2127 -1.71054 -3.92332 0
M  V30 981 C 97.5387 -1.17285 -5.21678 0
M  V30 982 C 98.8387 -3.10718 -4.19824 0
M  V30 983 H 100.533 -1.99693 -2.23076 0
M  V30 984 H 98.0787 -0.96152 -1.07195 0
M  V30 985 H 100.032 -0.534345 -4.17998 0
M  V30 986 H 98.7557 0.293073 -3.25282 0
M  V30 987 H 97.4147 -1.83791 -3.17201 0
M  V30 988 H 97.0627 -0.196847 -5.02615 0
M  V30 989 H 96.7627 -1.86592 -5.57187 0
M  V30 990 H 98.2867 -1.04593 -6.01575 0
M  V30 991 H 99.7007 -3.01192 -4.87808 0
M  V30 992 H 98.0977 -3.77406 -4.66567 0
M  V30 993 H 99.1677 -3.58524 -3.26479 0
M  V30 994 N 100.511 1.16574 -1.06058 0
M  V30 995 C 101.443 2.2045 -0.627239 0
M  V30 996 C 102.456 1.59752 0.313534 0
M  V30 997 O 103.645 1.78192 0.104896 0
M  V30 998 C 100.745 3.3875 0.100974 0
M  V30 999 C 99.9178 4.29008 -0.852687 0
M  V30 1000 C 98.9768 5.25944 -0.164152 0
M  V30 1001 O 98.0028 5.63535 -0.801047 0
M  V30 1002 N 99.2048 5.70075 1.09518 0
M  V30 1003 H 101.97 2.58249 -1.52077 0
M  V30 1004 H 99.5308 1.3156 -0.943594 0
M  V30 1005 H 101.523 4.00638 0.57194 0
M  V30 1006 H 100.093 2.99476 0.89628 0
M  V30 1007 H 99.3128 3.64419 -1.50308 0
M  V30 1008 H 100.601 4.86195 -1.49972 0
M  V30 1009 H 99.9988 5.41624 1.6328 0
M  V30 1010 H 98.5558 6.34067 1.51006 0
M  V30 1011 N 101.989 0.842826 1.3317 0
M  V30 1012 C 103.217 0.454055 2.01856 0
M  V30 1013 C 103.632 -0.94587 1.63397 0
M  V30 1014 O 102.989 -1.61534 0.849302 0
M  V30 1015 C 103.04 0.569715 3.56982 0
M  V30 1016 O 102.761 1.91448 3.94055 0
M  V30 1017 C 104.262 0.178412 4.42941 0
M  V30 1018 H 101.482 0.17979 0.646465 0
M  V30 1019 H 104.026 1.1365 1.70012 0
M  V30 1020 H 102.181 -0.0648587 3.87346 0
M  V30 1021 H 102.595 1.90282 4.88767 0
M  V30 1022 H 104.069 0.310376 5.51127 0
M  V30 1023 H 104.546 -0.880056 4.30293 0
M  V30 1024 H 105.152 0.787579 4.17944 0
M  V30 1025 N 103.467 -1.45747 0.599634 0
M  V30 1026 C 104.4 -2.27547 -0.172552 0
M  V30 1027 C 105.378 -1.36657 -0.881116 0
M  V30 1028 O 106.562 -1.66081 -0.891595 0
M  V30 1029 C 103.689 -3.14829 -1.24903 0
M  V30 1030 C 102.735 -4.21603 -0.644465 0
M  V30 1031 S 103.568 -5.32754 0.541606 0
M  V30 1032 C 104.724 -6.23604 -0.535656 0
M  V30 1033 H 104.957 -2.92691 0.521468 0
M  V30 1034 H 102.49 -1.49473 0.386947 0
M  V30 1035 H 104.448 -3.65675 -1.86527 0
M  V30 1036 H 103.109 -2.48965 -1.91508 0
M  V30 1037 H 102.302 -4.82566 -1.45417 0
M  V30 1038 H 101.904 -3.73857 -0.103534 0
M  V30 1039 H 104.196 -6.62519 -1.41686 0
M  V30 1040 H 105.139 -7.0809 0.0376246 0
M  V30 1041 H 105.547 -5.58103 -0.84741 0
M  V30 1042 N 104.945 -0.338344 -1.53925 0
M  V30 1043 C 106.173 0.261298 -2.05243 0
M  V30 1044 C 106.588 1.44625 -1.21363 0
M  V30 1045 O 105.945 1.80811 -0.247736 0
M  V30 1046 C 105.996 0.681412 -3.5502 0
M  V30 1047 O 105.717 -0.456414 -4.35716 0
M  V30 1048 C 107.218 1.34232 -4.22489 0
M  V30 1049 H 104.438 0.0513685 -0.669031 0
M  V30 1050 H 106.982 -0.488822 -1.98572 0
M  V30 1051 H 105.137 1.38148 -3.61931 0
M  V30 1052 H 105.551 -0.122564 -5.24357 0
M  V30 1053 H 107.025 1.58708 -5.28693 0
M  V30 1054 H 107.502 2.29426 -3.74514 0
M  V30 1055 H 108.108 0.684424 -4.19757 0
M  V30 1056 N 106.423 1.57458 -0.0668435 0
M  V30 1057 C 107.371 2.13639 0.919851 0
M  V30 1058 C 108.365 1.07204 1.31163 0
M  V30 1059 O 109.571 1.25591 1.28945 0
M  V30 1060 H 105.946 0.683048 0.314562 0
M  V30 1061 H 107.917 2.95415 0.421047 0
M  V30 1062 C 106.666 2.70892 2.17975 0
M  V30 1063 H 105.989 3.5246 1.88711 0
M  V30 1064 H 107.429 3.13803 2.85138 0
M  V30 1065 C 105.888 1.65414 2.93496 0
M  V30 1066 O 106.418 1.07619 3.87015 0
M  V30 1067 N 104.624 1.36564 2.56512 0
M  V30 1068 H 104.171 1.83751 1.80536 0
M  V30 1069 H 104.129 0.66223 3.07347 0
M  V30 1070 N 107.901 -0.206675 1.56239 0
M  V30 1071 C 109.147 -0.930218 1.80208 0
M  V30 1072 C 109.48 -1.83387 0.638981 0
M  V30 1073 O 108.755 -1.91119 -0.361066 0
M  V30 1074 C 109.038 -1.75641 3.1436 0
M  V30 1075 C 108.891 -0.878257 4.41142 0
M  V30 1076 C 110.21 -2.73129 3.45092 0
M  V30 1077 H 107.329 -0.336742 0.655571 0
M  V30 1078 H 109.971 -0.198222 1.88963 0
M  V30 1079 H 108.121 -2.38048 3.07027 0
M  V30 1080 H 109.793 -0.269787 4.6051 0
M  V30 1081 H 108.036 -0.184385 4.33408 0
M  V30 1082 H 108.707 -1.49106 5.3148 0
M  V30 1083 H 111.183 -2.20856 3.52649 0
M  V30 1084 H 110.059 -3.28028 4.40101 0
M  V30 1085 H 110.32 -3.51606 2.68003 0
M  V30 1086 N 109.379 -1.50304 -0.473955 0
M  V30 1087 C 110.626 -1.6115 -1.22625 0
M  V30 1088 C 110.954 -0.310517 -1.92005 0
M  V30 1089 O 110.209 0.703419 -1.82621 0
M  V30 1090 C 110.508 -2.73938 -2.29549 0
M  V30 1091 C 110.174 -4.14519 -1.7744 0
M  V30 1092 C 108.836 -4.5277 -1.62949 0
M  V30 1093 C 111.188 -5.02392 -1.3875 0
M  V30 1094 C 108.516 -5.76639 -1.08187 0
M  V30 1095 C 110.868 -6.26805 -0.854309 0
M  V30 1096 C 109.532 -6.63861 -0.696011 0
M  V30 1097 H 108.802 -0.589691 -0.448715 0
M  V30 1098 H 111.449 -1.84228 -0.522705 0
M  V30 1099 H 109.754 -2.44937 -3.05799 0
M  V30 1100 H 111.451 -2.79534 -2.87509 0
M  V30 1101 H 108.041 -3.8434 -1.89685 0
M  V30 1102 H 112.225 -4.73474 -1.4878 0
M  V30 1103 H 107.481 -6.04027 -0.946666 0
M  V30 1104 H 111.655 -6.94258 -0.545843 0
M  V30 1105 H 109.282 -7.59722 -0.26952 0
M  V30 1106 N 110.857 0.726932 -1.39834 0
M  V30 1107 C 112.103 1.48884 -1.377 0
M  V30 1108 C 112.436 1.94185 0.0244852 0
M  V30 1109 O 111.711 1.67361 0.990986 0
M  V30 1110 C 111.994 2.72288 -2.3565 0
M  V30 1111 C 111.847 2.32956 -3.84775 0
M  V30 1112 C 113.166 3.74414 -2.31306 0
M  V30 1113 H 110.285 0.540062 -0.5015 0
M  V30 1114 H 112.927 0.830547 -1.70886 0
M  V30 1115 H 111.077 3.28457 -2.07481 0
M  V30 1116 H 112.749 1.82356 -4.23726 0
M  V30 1117 H 110.992 1.65088 -4.01159 0
M  V30 1118 H 111.663 3.21362 -4.4881 0
M  V30 1119 H 114.139 3.27849 -2.56231 0
M  V30 1120 H 113.015 4.58414 -3.01907 0
M  V30 1121 H 113.276 4.21909 -1.32081 0
M  V30 1122 N 112.336 1.25143 0.95797 0
M  V30 1123 C 113.564 1.12424 1.73691 0
M  V30 1124 C 113.979 -0.322304 1.86029 0
M  V30 1125 O 113.336 -1.22186 1.35561 0
M  V30 1126 C 113.387 1.76933 3.15241 0
M  V30 1127 O 113.108 3.15932 3.03511 0
M  V30 1128 C 114.609 1.6995 4.09429 0
M  V30 1129 H 111.829 0.3923 0.544373 0
M  V30 1130 H 114.373 1.6544 1.20207 0
M  V30 1131 H 112.528 1.27895 3.6568 0
M  V30 1132 H 112.942 3.47598 3.9278 0
M  V30 1133 H 114.416 2.19753 5.06372 0
M  V30 1134 H 114.893 0.662619 4.34173 0
M  V30 1135 H 115.499 2.18461 3.64904 0
M  V30 1136 N 113.814 -1.1601 1.06675 0
M  V30 1137 C 115.039 -1.91068 0.806706 0
M  V30 1138 C 115.464 -1.77112 -0.633485 0
M  V30 1139 O 114.822 -1.09908 -1.44187 0
M  V30 1140 C 114.87 -3.39655 1.21106 0
M  V30 1141 O 113.974 -4.10893 0.352189 0
M  V30 1142 H 113.315 -0.595125 0.294486 0
M  V30 1143 H 115.845 -1.46955 1.42356 0
M  V30 1144 H 115.855 -3.90434 1.18428 0
M  V30 1145 H 114.53 -3.49132 2.26008 0
M  V30 1146 H 113.107 -3.70285 0.440868 0
M  V30 1147 N 115.292 -0.849877 -1.32721 0
M  V30 1148 C 116.222 -0.306308 -2.31482 0
M  V30 1149 C 117.203 0.591952 -1.59468 0
M  V30 1150 O 118.388 0.513199 -1.87296 0
M  V30 1151 C 115.518 0.510204 -3.43532 0
M  V30 1152 C 114.472 -0.293209 -4.26994 0
M  V30 1153 C 113.798 0.647743 -5.30762 0
M  V30 1154 C 115.098 -1.51634 -4.99804 0
M  V30 1155 H 116.792 -1.13153 -2.77195 0
M  V30 1156 H 114.338 -0.545553 -1.33266 0
M  V30 1157 H 116.291 0.900856 -4.11658 0
M  V30 1158 H 115.015 1.36874 -2.96535 0
M  V30 1159 H 113.674 -0.665555 -3.60508 0
M  V30 1160 H 113.322 1.50299 -4.8002 0
M  V30 1161 H 113.022 0.11422 -5.87489 0
M  V30 1162 H 114.546 1.03567 -6.01753 0
M  V30 1163 H 115.96 -1.19824 -5.60638 0
M  V30 1164 H 114.357 -1.98745 -5.66234 0
M  V30 1165 H 115.427 -2.28018 -4.27943 0
M  V30 1166 N 116.77 1.45427 -0.607355 0
M  V30 1167 C 117.733 2.28974 0.101693 0
M  V30 1168 C 118.733 1.39754 0.795329 0
M  V30 1169 O 119.923 1.61878 0.643527 0
M  V30 1170 C 117.055 3.20768 1.15414 0
M  V30 1171 H 118.248 2.93147 -0.632844 0
M  V30 1172 H 115.801 1.51945 -0.366391 0
M  V30 1173 H 116.536 2.61395 1.91945 0
M  V30 1174 H 116.321 3.86489 0.66098 0
M  V30 1175 H 117.811 3.83589 1.65073 0
M  V30 1176 N 118.248 0.346503 1.53744 0
M  V30 1177 C 119.211 -0.496439 2.23759 0
M  V30 1178 C 120.211 -1.0252 1.2388 0
M  V30 1179 O 121.401 -0.913974 1.48297 0
M  V30 1180 C 118.533 -1.69187 2.95954 0
M  V30 1181 H 119.726 0.115952 2.99676 0
M  V30 1182 H 117.279 0.0978939 1.55993 0
M  V30 1183 H 118.014 -2.34288 2.24231 0
M  V30 1184 H 117.799 -1.31989 3.69217 0
M  V30 1185 H 119.289 -2.28969 3.49232 0
M  V30 1186 N 119.726 -1.57421 0.075193 0
M  V30 1187 C 120.689 -2.11791 -0.876203 0
M  V30 1188 C 121.689 -1.04268 -1.22412 0
M  V30 1189 O 122.879 -1.30242 -1.15684 0
M  V30 1190 C 120.011 -2.62207 -2.17854 0
M  V30 1191 H 121.204 -2.9716 -0.40444 0
M  V30 1192 H 118.757 -1.55333 -0.173557 0
M  V30 1193 H 119.492 -1.803 -2.6956 0
M  V30 1194 H 119.277 -3.40802 -1.93897 0
M  V30 1195 H 120.767 -3.04335 -2.85955 0
M  V30 1196 N 121.204 0.198386 -1.56346 0
M  V30 1197 C 122.481 0.944982 -1.71258 0
M  V30 1198 C 122.861 2.0151 -0.629048 0
M  V30 1199 O 122.209 2.25639 0.360473 0
M  V30 1200 C 122.419 1.5344 -3.1346 0
M  V30 1201 C 123.767 2.01778 -3.73591 0
M  V30 1202 O 124.791 1.63288 -3.16568 0
M  V30 1203 O 123.65 2.72594 -4.73661 0
M  V30 1204 H 120.744 0.442939 -0.69838 0
M  V30 1205 H 123.29 0.188342 -1.68652 0
M  V30 1206 H 122.062 0.762869 -3.83792 0
M  V30 1207 H 121.685 2.35596 -3.20282 0
M  V30 1208 N 122.682 1.50554 0.465978 0
M  V30 1209 C 123.612 1.72722 1.57128 0
M  V30 1210 C 124.593 0.576294 1.6004 0
M  V30 1211 O 125.778 0.81598 1.76225 0
M  V30 1212 C 122.908 1.82605 2.95419 0
M  V30 1213 C 121.862 2.97835 3.07373 0
M  V30 1214 C 121.188 2.92867 4.47363 0
M  V30 1215 C 122.488 4.38265 2.84114 0
M  V30 1216 H 124.182 2.65267 1.38829 0
M  V30 1217 H 121.728 1.2765 0.666441 0
M  V30 1218 H 123.681 1.96698 3.72677 0
M  V30 1219 H 122.405 0.866858 3.14886 0
M  V30 1220 H 121.064 2.83401 2.3255 0
M  V30 1221 H 120.712 1.94783 4.63755 0
M  V30 1222 H 120.412 3.70227 4.56296 0
M  V30 1223 H 121.936 3.09015 5.26633 0
M  V30 1224 H 123.35 4.53198 3.51118 0
M  V30 1225 H 121.747 5.17115 3.04487 0
M  V30 1226 H 122.817 4.50281 1.7993 0
M  V30 1227 N 124.16 -0.719506 1.40217 0
M  V30 1228 C 125.406 -1.48152 1.38488 0
M  V30 1229 C 125.739 -1.94195 -0.0141867 0
M  V30 1230 O 125.014 -1.67884 -0.982096 0
M  V30 1231 C 125.297 -2.71035 2.37091 0
M  V30 1232 C 125.15 -2.30912 3.86005 0
M  V30 1233 C 126.469 -3.73182 2.33288 0
M  V30 1234 H 123.588 -0.537395 0.504357 0
M  V30 1235 H 126.23 -0.821472 1.71324 0
M  V30 1236 H 124.38 -3.27352 2.0922 0
M  V30 1237 H 126.052 -1.80107 4.24687 0
M  V30 1238 H 124.295 -1.62958 4.02029 0
M  V30 1239 H 124.966 -3.18978 4.50508 0
M  V30 1240 H 127.442 -3.26485 2.57966 0
M  V30 1241 H 126.318 -4.56806 3.04334 0
M  V30 1242 H 126.579 -4.21202 1.34317 0
M  V30 1243 N 125.638 -1.25649 -0.95132 0
M  V30 1244 C 126.571 -1.00644 -2.04807 0
M  V30 1245 C 127.549 0.0654271 -1.62468 0
M  V30 1246 O 128.733 -0.074911 -1.88351 0
M  V30 1247 C 125.86 -0.522052 -3.34653 0
M  V30 1248 C 124.906 -1.58495 -3.95957 0
M  V30 1249 S 125.739 -3.17108 -4.31512 0
M  V30 1250 C 126.895 -2.70412 -5.64471 0
M  V30 1251 H 127.128 -1.93508 -2.25703 0
M  V30 1252 H 124.661 -1.09216 -1.09139 0
M  V30 1253 H 126.619 -0.24923 -4.09743 0
M  V30 1254 H 125.28 0.386146 -3.11717 0
M  V30 1255 H 124.473 -1.1968 -4.89584 0
M  V30 1256 H 124.075 -1.80862 -3.2736 0
M  V30 1257 H 126.367 -2.14245 -6.42733 0
M  V30 1258 H 127.31 -3.62693 -6.08161 0
M  V30 1259 H 127.718 -2.10302 -5.23864 0
M  V30 1260 N 127.117 1.15442 -1.07289 0
M  V30 1261 C 128.365 1.85845 -0.794096 0
M  V30 1262 C 128.686 1.82692 0.681809 0
M  V30 1263 O 127.956 1.26741 1.49377 0
M  V30 1264 H 126.536 0.688089 -0.290763 0
M  V30 1265 H 129.198 1.39947 -1.3565 0
M  V30 1266 H 128.294 2.91001 -1.12804 0
M  V30 1267 N 128.595 0.856903 1.32268 0
M  V30 1268 C 129.525 0.31858 2.31316 0
M  V30 1269 C 130.506 -0.583487 1.59779 0
M  V30 1270 O 131.691 -0.503259 1.87566 0
M  V30 1271 C 128.821 -0.491979 3.43798 0
M  V30 1272 C 127.775 0.315849 4.26833 0
M  V30 1273 C 127.101 -0.619586 5.31098 0
M  V30 1274 C 128.401 1.54282 4.98993 0
M  V30 1275 H 130.095 1.14621 2.76591 0
M  V30 1276 H 127.641 0.552613 1.32974 0
M  V30 1277 H 129.594 -0.879012 4.1213 0
M  V30 1278 H 128.318 -1.35299 2.97257 0
M  V30 1279 H 126.977 0.684664 3.6015 0
M  V30 1280 H 126.625 -1.47751 4.8081 0
M  V30 1281 H 126.325 -0.0830621 5.87541 0
M  V30 1282 H 127.849 -1.00375 6.02293 0
M  V30 1283 H 129.263 1.22796 5.59995 0
M  V30 1284 H 127.66 2.01745 5.65172 0
M  V30 1285 H 128.73 2.30285 4.26728 0
M  V30 1286 N 130.073 -1.45103 0.615059 0
M  V30 1287 C 131.003 -2.33339 -0.0865619 0
M  V30 1288 C 131.984 -1.4727 -0.851209 0
M  V30 1289 O 133.169 -1.76026 -0.820281 0
M  V30 1290 C 130.299 -3.30095 -1.07956 0
M  V30 1291 C 129.253 -4.25858 -0.427628 0
M  V30 1292 C 128.579 -5.12361 -1.5294 0
M  V30 1293 C 129.879 -5.18165 0.655944 0
M  V30 1294 H 131.573 -2.92254 0.650224 0
M  V30 1295 H 129.119 -1.40532 0.314138 0
M  V30 1296 H 131.072 -3.90698 -1.57901 0
M  V30 1297 H 129.796 -2.69355 -1.84703 0
M  V30 1298 H 128.455 -3.66564 0.0510292 0
M  V30 1299 H 128.103 -4.47984 -2.28734 0
M  V30 1300 H 127.803 -5.77238 -1.09865 0
M  V30 1301 H 129.327 -5.75833 -2.03098 0
M  V30 1302 H 130.741 -5.72796 0.240257 0
M  V30 1303 H 129.138 -5.91559 1.00888 0
M  V30 1304 H 130.208 -4.60144 1.52957 0
M  V30 1305 N 131.551 -0.354651 -1.53558 0
M  V30 1306 C 132.797 0.238797 -2.01389 0
M  V30 1307 C 133.13 1.49309 -1.2418 0
M  V30 1308 O 132.405 1.91638 -0.332457 0
M  V30 1309 C 132.688 0.541771 -3.56001 0
M  V30 1310 C 132.541 -0.725388 -4.43912 0
M  V30 1311 C 133.86 1.34685 -4.18984 0
M  V30 1312 H 130.979 0.0853177 -0.732045 0
M  V30 1313 H 133.621 -0.477384 -1.83905 0
M  V30 1314 H 131.771 1.15189 -3.71031 0
M  V30 1315 H 133.443 -1.36313 -4.407 0
M  V30 1316 H 131.686 -1.34801 -4.12324 0
M  V30 1317 H 132.357 -0.468505 -5.50008 0
M  V30 1318 H 134.833 0.830837 -4.07721 0
M  V30 1319 H 133.709 1.52759 -5.27215 0
M  V30 1320 H 133.97 2.35221 -3.74331 0
M  V30 1321 N 133.029 1.57378 -0.0835403 0
M  V30 1322 C 134.275 1.94217 0.583733 0
M  V30 1323 C 134.608 0.964653 1.68547 0
M  V30 1324 O 133.883 -0.00422258 1.945 0
M  V30 1325 C 134.166 3.41253 1.14972 0
M  V30 1326 C 134.019 4.49768 0.0538277 0
M  V30 1327 C 135.338 3.89352 2.05166 0
M  V30 1328 H 132.457 0.706233 0.210724 0
M  V30 1329 H 135.099 1.89392 -0.1519 0
M  V30 1330 H 133.249 3.45496 1.77665 0
M  V30 1331 H 134.921 4.57641 -0.579851 0
M  V30 1332 H 133.164 4.29432 -0.614068 0
M  V30 1333 H 133.835 5.49817 0.490452 0
M  V30 1334 H 136.311 3.87189 1.52393 0
M  V30 1335 H 135.187 4.92822 2.41698 0
M  V30 1336 H 135.448 3.27973 2.96456 0
M  V30 1337 N 134.507 -0.190092 1.56449 0
M  V30 1338 C 135.918 -0.754312 1.70784 0
M  V30 1339 C 136.269 -1.83631 0.690951 0
M  V30 1340 O 135.394 -2.15868 -0.151604 0
M  V30 1341 C 135.989 -1.37503 3.09642 0
M  V30 1342 C 134.548 -1.88628 3.25725 0
M  V30 1343 C 133.695 -0.758098 2.66736 0
M  V30 1344 H 136.646 0.0350524 1.58661 0
M  V30 1345 H 136.667 -2.2445 3.0725 0
M  V30 1346 H 136.179 -0.587302 3.83631 0
M  V30 1347 H 134.28 -2.70103 2.56661 0
M  V30 1348 H 134.393 -2.04462 4.3328 0
M  V30 1349 H 132.757 -1.17369 2.26046 0
M  V30 1350 H 133.54 0.0174705 3.43296 0
M  V30 1351 N 135.985 -1.50799 -0.457987 0
M  V30 1352 C 137.396 -1.55152 -1.0385 0
M  V30 1353 C 137.747 -0.362719 -1.92818 0
M  V30 1354 O 136.872 0.522915 -2.09987 0
M  V30 1355 C 137.467 -2.81173 -1.89017 0
M  V30 1356 C 136.026 -2.88164 -2.42154 0
M  V30 1357 C 135.173 -2.49591 -1.20829 0
M  V30 1358 H 138.124 -1.56874 -0.240068 0
M  V30 1359 H 138.145 -2.63769 -2.74238 0
M  V30 1360 H 137.657 -3.67677 -1.24238 0
M  V30 1361 H 135.758 -2.06042 -3.10447 0
M  V30 1362 H 135.871 -3.91356 -2.76364 0
M  V30 1363 H 134.235 -2.02322 -1.54719 0
M  V30 1364 H 135.018 -3.38418 -0.576927 0
M  V30 1365 N 137.463 0.71206 -1.40597 0
M  V30 1366 C 138.426 1.80785 -1.40888 0
M  V30 1367 C 139.426 1.57937 -0.302103 0
M  V30 1368 O 140.616 1.64913 -0.561182 0
M  V30 1369 C 137.748 3.18927 -1.20409 0
M  V30 1370 H 138.941 1.81924 -2.38419 0
M  V30 1371 H 136.494 0.91805 -1.26497 0
M  V30 1372 H 137.229 3.23436 -0.236522 0
M  V30 1373 H 137.014 3.36911 -2.00582 0
M  V30 1374 H 138.504 3.98949 -1.23408 0
M  V30 1375 N 138.941 1.26152 0.944643 0
M  V30 1376 C 139.904 1.07474 2.0244 0
M  V30 1377 C 140.904 0.0242064 1.60782 0
M  V30 1378 O 142.094 0.267302 1.72137 0
M  V30 1379 C 139.226 0.633956 3.34953 0
M  V30 1380 H 140.419 2.03336 2.20442 0
M  V30 1381 H 137.972 1.087 1.12312 0
M  V30 1382 H 138.707 -0.326811 3.22649 0
M  V30 1383 H 138.492 1.39247 3.66542 0
M  V30 1384 H 139.982 0.52501 4.14287 0
M  V30 1385 N 140.419 -1.14872 1.07899 0
M  V30 1386 C 141.647 -1.89661 0.82683 0
M  V30 1387 C 142.062 -1.78312 -0.620519 0
M  V30 1388 O 141.419 -1.13888 -1.42604 0
M  V30 1389 C 141.47 -3.39817 1.23316 0
M  V30 1390 O 141.191 -3.50845 2.62372 0
M  V30 1391 C 142.692 -4.31615 1.0111 0
M  V30 1392 H 139.912 -0.60092 0.298557 0
M  V30 1393 H 142.456 -1.4551 1.43691 0
M  V30 1394 H 140.611 -3.8161 0.667286 0
M  V30 1395 H 141.025 -4.44076 2.79101 0
M  V30 1396 H 142.499 -5.35367 1.34486 0
M  V30 1397 H 142.976 -4.39169 -0.0522168 0
M  V30 1398 H 143.582 -3.95572 1.56215 0
M  V30 1399 N 141.898 -0.863906 -1.31812 0
M  V30 1400 C 142.828 -0.330843 -2.31144 0
M  V30 1401 C 143.809 0.575005 -1.60087 0
M  V30 1402 O 144.994 0.493304 -1.8783 0
M  V30 1403 C 142.124 0.47374 -3.44054 0
M  V30 1404 C 141.078 -0.338481 -4.26659 0
M  V30 1405 C 140.404 0.591412 -5.31419 0
M  V30 1406 C 141.704 -1.56926 -4.98168 0
M  V30 1407 H 143.398 -1.16086 -2.75979 0
M  V30 1408 H 140.944 -0.559657 -1.32679 0
M  V30 1409 H 142.897 0.857143 -4.12591 0
M  V30 1410 H 141.621 1.33721 -2.9797 0
M  V30 1411 H 140.28 -0.703754 -3.59782 0
M  V30 1412 H 139.928 1.45199 -4.81587 0
M  V30 1413 H 139.628 0.0519022 -5.87577 0
M  V30 1414 H 141.152 0.97179 -6.02817 0
M  V30 1415 H 142.566 -1.25764 -5.59336 0
M  V30 1416 H 140.963 -2.04739 -5.64094 0
M  V30 1417 H 142.033 -2.32544 -4.25501 0
M  V30 1418 N 143.376 1.44774 -0.622745 0
M  V30 1419 C 144.339 2.29069 0.0774015 0
M  V30 1420 C 145.339 1.4059 0.780461 0
M  V30 1421 O 146.529 1.62551 0.626322 0
M  V30 1422 C 143.661 3.21974 1.12006 0
M  V30 1423 H 144.854 2.92459 -0.663901 0
M  V30 1424 H 142.407 1.51548 -0.382486 0
M  V30 1425 H 143.142 2.63417 1.89162 0
M  V30 1426 H 142.927 3.87168 0.619951 0
M  V30 1427 H 144.417 3.85318 1.60995 0
M  V30 1428 N 144.854 0.36279 1.53368 0
M  V30 1429 C 145.784 -0.476976 2.28576 0
M  V30 1430 C 146.765 -1.08631 1.30894 0
M  V30 1431 O 147.95 -1.10409 1.59761 0
M  V30 1432 C 145.08 -1.61828 3.07293 0
M  V30 1433 C 144.034 -1.13633 4.1264 0
M  V30 1434 C 143.36 -2.36766 4.79423 0
M  V30 1435 C 144.66 -0.223061 5.21823 0
M  V30 1436 H 146.354 0.150474 2.99022 0
M  V30 1437 H 143.9 0.0738103 1.43811 0
M  V30 1438 H 145.853 -2.21237 3.58653 0
M  V30 1439 H 144.577 -2.27292 2.34533 0
M  V30 1440 H 143.236 -0.564945 3.62221 0
M  V30 1441 H 142.884 -3.0068 4.03238 0
M  V30 1442 H 142.584 -2.05192 5.50609 0
M  V30 1443 H 144.108 -2.96865 5.33576 0
M  V30 1444 H 145.522 -0.724545 5.68703 0
M  V30 1445 H 143.919 0.001678 6.001 0
M  V30 1446 H 144.989 0.735553 4.79289 0
M  V30 1447 N 146.332 -1.57332 0.0918853 0
M  V30 1448 C 147.56 -1.98574 -0.581048 0
M  V30 1449 C 147.975 -0.970903 -1.61923 0
M  V30 1450 O 147.332 0.0399054 -1.82456 0
M  V30 1451 C 147.383 -3.39872 -1.23164 0
M  V30 1452 O 147.104 -4.37469 -0.234989 0
M  V30 1453 C 148.605 -3.96099 -1.99049 0
M  V30 1454 H 145.825 -0.65261 -0.156018 0
M  V30 1455 H 148.369 -2.0379 0.170225 0
M  V30 1456 H 146.524 -3.35679 -1.93386 0
M  V30 1457 H 146.938 -5.19751 -0.70418 0
M  V30 1458 H 148.412 -4.97127 -2.39934 0
M  V30 1459 H 148.889 -3.3374 -2.85507 0
M  V30 1460 H 149.495 -4.03755 -1.3365 0
M  V30 1461 N 147.81 0.181792 -1.56548 0
M  V30 1462 C 149.058 0.89832 -1.81038 0
M  V30 1463 C 149.379 1.83232 -0.667164 0
M  V30 1464 O 148.649 1.93372 0.313673 0
M  V30 1465 H 147.229 0.33471 -0.667816 0
M  V30 1466 H 149.891 0.184116 -1.94028 0
M  V30 1467 H 148.987 1.4815 -2.74696 0
M  V30 1468 N 149.288 1.51039 0.449983 0
M  V30 1469 C 150.238 1.67824 1.54335 0
M  V30 1470 C 151.222 0.5324 1.51836 0
M  V30 1471 O 152.414 0.787762 1.58503 0
M  V30 1472 C 149.543 1.7951 2.92628 0
M  V30 1473 C 148.629 2.99838 2.9993 0
M  V30 1474 N 149.02 4.23207 2.77001 0
M  V30 1475 C 147.318 2.98832 3.31082 0
M  V30 1476 C 148.019 5.04361 2.89818 0
M  V30 1477 N 146.995 4.38746 3.2094 0
M  V30 1478 H 150.797 2.60884 1.35339 0
M  V30 1479 H 148.311 1.48513 0.657085 0
M  V30 1480 H 150.308 1.89642 3.7127 0
M  V30 1481 H 148.968 0.876227 3.12654 0
M  V30 1482 H 149.979 4.5236 2.52172 0
M  V30 1483 H 146.656 2.16527 3.56963 0
M  V30 1484 H 148.046 6.12528 2.76151 0
M  V30 1485 N 150.766 -0.704594 1.40972 0
M  V30 1486 C 152.012 -1.46546 1.41053 0
M  V30 1487 C 152.367 -1.92393 0.0159714 0
M  V30 1488 O 151.66 -1.66017 -0.956506 0
M  V30 1489 C 151.854 -2.698 2.34399 0
M  V30 1490 C 151.683 -2.36008 3.82793 0
M  V30 1491 C 150.453 -2.26812 4.51536 0
M  V30 1492 C 152.651 -1.99565 4.74003 0
M  V30 1493 N 150.633 -1.8581 5.85105 0
M  V30 1494 C 152.004 -1.69251 5.96451 0
M  V30 1495 C 154.059 -1.86296 4.61734 0
M  V30 1496 C 152.762 -1.27003 7.07999 0
M  V30 1497 C 154.788 -1.45452 5.73234 0
M  V30 1498 C 154.15 -1.16043 6.94776 0
M  V30 1499 H 150.249 -0.533896 0.571383 0
M  V30 1500 H 152.833 -0.816061 1.76773 0
M  V30 1501 H 151.004 -3.32473 2.00789 0
M  V30 1502 H 152.736 -3.36214 2.25261 0
M  V30 1503 H 149.491 -2.44913 4.05357 0
M  V30 1504 H 149.915 -1.67817 6.55871 0
M  V30 1505 H 154.557 -2.0769 3.68273 0
M  V30 1506 H 152.275 -1.04353 8.01334 0
M  V30 1507 H 155.861 -1.35748 5.65742 0
M  V30 1508 H 154.741 -0.84915 7.79589 0
M  V30 1509 N 152.244 -1.26651 -0.937939 0
M  V30 1510 C 153.655 -1.1125 -1.49934 0
M  V30 1511 C 154.006 0.306077 -1.93798 0
M  V30 1512 O 153.131 1.19792 -1.80219 0
M  V30 1513 C 153.726 -2.01339 -2.72485 0
M  V30 1514 C 152.285 -1.90074 -3.24883 0
M  V30 1515 C 151.432 -1.94498 -1.97651 0
M  V30 1516 H 154.383 -1.39693 -0.753091 0
M  V30 1517 H 154.404 -1.56319 -3.46907 0
M  V30 1518 H 153.916 -3.04577 -2.40529 0
M  V30 1519 H 152.017 -0.897827 -3.61621 0
M  V30 1520 H 152.13 -2.75778 -3.9177 0
M  V30 1521 H 150.494 -1.38591 -2.13693 0
M  V30 1522 H 151.277 -2.99372 -1.68022 0
M  V30 1523 N 153.722 1.14298 -1.08507 0
M  V30 1524 C 154.652 2.21542 -0.737646 0
M  V30 1525 C 155.633 1.67773 0.280377 0
M  V30 1526 O 156.818 1.93616 0.150521 0
M  V30 1527 C 153.948 3.46988 -0.147259 0
M  V30 1528 C 152.902 4.13789 -1.09374 0
M  V30 1529 C 152.228 5.33449 -0.365524 0
M  V30 1530 C 153.528 4.62208 -2.4323 0
M  V30 1531 H 155.222 2.5086 -1.6343 0
M  V30 1532 H 152.768 1.20576 -0.787243 0
M  V30 1533 H 154.721 4.21262 0.107808 0
M  V30 1534 H 153.445 3.17037 0.784538 0
M  V30 1535 H 152.104 3.4147 -1.33393 0
M  V30 1536 H 151.752 4.99759 0.57011 0
M  V30 1537 H 151.452 5.79088 -0.996512 0
M  V30 1538 H 152.976 6.10485 -0.118534 0
M  V30 1539 H 154.39 5.27952 -2.23472 0
M  V30 1540 H 152.787 5.18553 -3.02031 0
M  V30 1541 H 153.857 3.77224 -3.04681 0
M  V30 1542 N 155.201 0.870884 1.31352 0
M  V30 1543 C 156.449 0.48132 1.96285 0
M  V30 1544 C 156.77 -0.969813 1.69173 0
M  V30 1545 O 156.04 -1.67998 1.00764 0
M  V30 1546 H 154.62 0.175002 0.726212 0
M  V30 1547 H 157.282 1.11087 1.60143 0
M  V30 1548 H 156.378 0.639825 3.05471 0
M  V30 1549 N 156.679 -1.44442 0.630414 0
M  V30 1550 C 157.642 -2.29107 -0.0652523 0
M  V30 1551 C 158.642 -1.41002 -0.772995 0
M  V30 1552 O 159.832 -1.62881 -0.617692 0
M  V30 1553 C 156.964 -3.22564 -1.10296 0
M  V30 1554 H 158.157 -2.92103 0.679401 0
M  V30 1555 H 155.71 -1.51343 0.390517 0
M  V30 1556 H 156.445 -2.64416 -1.87762 0
M  V30 1557 H 156.23 -3.87491 -0.59941 0
M  V30 1558 H 157.72 -3.86167 -1.5895 0
M  V30 1559 N 158.157 -0.370918 -1.53173 0
M  V30 1560 C 159.385 0.217704 -2.05751 0
M  V30 1561 C 159.8 1.42018 -1.24404 0
M  V30 1562 O 159.157 1.80245 -0.286033 0
M  V30 1563 C 159.208 0.605954 -3.56385 0
M  V30 1564 O 158.929 -0.548734 -4.3465 0
M  V30 1565 C 160.43 1.2524 -4.25241 0
M  V30 1566 H 157.65 0.0371659 -0.66997 0
M  V30 1567 H 160.194 -0.530832 -1.9749 0
M  V30 1568 H 158.349 1.3044 -3.6478 0
M  V30 1569 H 158.763 -0.23376 -5.23979 0
M  V30 1570 H 160.237 1.47458 -5.3194 0
M  V30 1571 H 160.714 2.2143 -3.79296 0
M  V30 1572 H 161.32 0.595233 -4.21114 0
M  V30 1573 N 159.635 1.57281 -0.100228 0
M  V30 1574 C 160.883 1.94153 0.561157 0
M  V30 1575 C 161.204 0.983157 1.68401 0
M  V30 1576 O 160.474 0.0361132 1.95867 0
M  V30 1577 H 159.054 0.716791 0.210283 0
M  V30 1578 H 161.716 1.94202 -0.164765 0
M  V30 1579 H 160.812 2.96709 0.968008 0
M  V30 1580 N 161.113 -0.173488 1.56642 0
M  V30 1581 C 162.353 -0.896984 1.83667 0
M  V30 1582 C 162.717 -1.79523 0.680842 0
M  V30 1583 O 163.918 -2.55616 0.831488 0
M  V30 1584 C 162.189 -1.67351 3.15798 0
M  V30 1585 S 163.748 -2.44607 3.64298 0
M  V30 1586 H 160.566 -0.300464 0.644393 0
M  V30 1587 H 163.168 -0.158775 1.94854 0
M  V30 1588 H 161.872 -1.00462 3.97914 0
M  V30 1589 H 161.403 -2.45313 3.07546 0
M  V30 1590 H 163.418 -3.69261 3.31452 0
M  V30 1591 N 162.591 -1.51276 -0.441967 0
M  V30 1592 C 163.501 -1.75092 -1.56141 0
M  V30 1593 C 164.517 -0.634963 -1.62001 0
M  V30 1594 O 165.693 -0.916686 -1.79329 0
M  V30 1595 C 162.758 -1.86666 -2.92158 0
M  V30 1596 C 161.819 -3.10506 -2.96453 0
M  V30 1597 C 161.052 -3.21519 -4.25982 0
M  V30 1598 O 161.275 -2.38586 -5.18105 0
M  V30 1599 O 160.209 -4.14465 -4.36466 0
M  V30 1600 H 164.035 -2.70044 -1.38961 0
M  V30 1601 H 161.62 -1.35722 -0.624499 0
M  V30 1602 H 163.502 -1.96292 -3.72891 0
M  V30 1603 H 162.177 -0.949014 -3.09476 0
M  V30 1604 H 161.084 -3.06363 -2.14692 0
M  V30 1605 H 162.417 -4.01945 -2.84079 0
M  V30 1606 N 164.069 0.697108 -1.41344 0
M  V30 1607 C 164.999 1.82353 -1.45841 0
M  V30 1608 C 165.98 1.67115 -0.317247 0
M  V30 1609 O 167.165 1.86871 -0.528474 0
M  V30 1610 C 164.295 3.20476 -1.33838 0
M  V30 1611 C 163.249 3.50415 -2.4575 0
M  V30 1612 C 162.575 4.87878 -2.18813 0
M  V30 1613 C 163.875 3.49546 -3.88091 0
M  V30 1614 H 165.569 1.78846 -2.40113 0
M  V30 1615 H 163.115 0.859028 -1.15571 0
M  V30 1616 H 165.068 3.98988 -1.35596 0
M  V30 1617 H 163.792 3.24604 -0.360498 0
M  V30 1618 H 162.451 2.74253 -2.43271 0
M  V30 1619 H 162.099 4.8863 -1.19371 0
M  V30 1620 H 161.799 5.08875 -2.93803 0
M  V30 1621 H 163.323 5.68702 -2.22284 0
M  V30 1622 H 164.737 4.18066 -3.92293 0
M  V30 1623 H 163.134 3.82075 -4.62751 0
M  V30 1624 H 164.204 2.48552 -4.16353 0
M  V30 1625 N 165.547 1.27147 0.931209 0
M  V30 1626 C 166.793 1.14455 1.68141 0
M  V30 1627 C 167.148 -0.307172 1.89932 0
M  V30 1628 O 166.441 -1.22158 1.47607 0
M  V30 1629 C 166.635 1.8579 3.05314 0
M  V30 1630 C 166.464 3.3775 2.96909 0
M  V30 1631 C 165.234 4.07062 2.99381 0
M  V30 1632 C 167.432 4.33783 2.76291 0
M  V30 1633 N 165.414 5.45618 2.8138 0
M  V30 1634 C 166.785 5.59582 2.6696 0
M  V30 1635 C 168.84 4.23915 2.61152 0
M  V30 1636 C 167.543 6.76639 2.44033 0
M  V30 1637 C 169.569 5.40689 2.39602 0
M  V30 1638 C 168.931 6.65443 2.3101 0
M  V30 1639 H 165.03 0.473667 0.622225 0
M  V30 1640 H 167.614 1.60568 1.10118 0
M  V30 1641 H 165.785 1.42138 3.61457 0
M  V30 1642 H 167.517 1.65634 3.69253 0
M  V30 1643 H 164.272 3.585 3.09475 0
M  V30 1644 H 164.696 6.184 2.75519 0
M  V30 1645 H 169.338 3.28189 2.66555 0
M  V30 1646 H 167.056 7.72451 2.3737 0
M  V30 1647 H 170.642 5.34932 2.28778 0
M  V30 1648 H 169.522 7.54277 2.14558 0
M  V30 1649 N 167.025 -1.13721 1.09112 0
M  V30 1650 C 168.253 -1.88773 0.846899 0
M  V30 1651 C 168.668 -1.7896 -0.601572 0
M  V30 1652 O 168.025 -1.15394 -1.41388 0
M  V30 1653 C 168.076 -3.3849 1.26913 0
M  V30 1654 O 167.797 -3.48043 2.66079 0
M  V30 1655 C 169.298 -4.30518 1.05682 0
M  V30 1656 H 166.518 -0.59772 0.304914 0
M  V30 1657 H 169.062 -1.43977 1.45227 0
M  V30 1658 H 167.217 -3.80881 0.707723 0
M  V30 1659 H 167.631 -4.4109 2.83795 0
M  V30 1660 H 169.105 -5.3391 1.40156 0
M  V30 1661 H 169.582 -4.392 -0.00563416 0
M  V30 1662 H 170.188 -3.93893 1.60402 0
M  V30 1663 N 168.503 -0.877838 -1.30888 0
M  V30 1664 C 169.728 -0.506629 -2.01117 0
M  V30 1665 C 170.153 0.895564 -1.65412 0
M  V30 1666 O 169.511 1.5923 -0.866922 0
M  V30 1667 C 169.559 -0.680223 -3.54126 0
M  V30 1668 O 168.663 0.277033 -4.11468 0
M  V30 1669 H 168.004 -0.200518 -0.633 0
M  V30 1670 H 170.534 -1.18342 -1.66902 0
M  V30 1671 H 170.544 -0.5765 -4.03907 0
M  V30 1672 H 169.219 -1.70261 -3.79452 0
M  V30 1673 H 167.796 0.127606 -3.72682 0
M  V30 1674 N 169.982 1.44106 -0.638065 0
M  V30 1675 C 171.228 2.02277 -0.145546 0
M  V30 1676 C 171.561 1.50125 1.23191 0
M  V30 1677 O 170.836 0.688133 1.8192 0
M  V30 1678 C 171.119 3.59829 -0.139791 0
M  V30 1679 C 170.972 4.22247 -1.55008 0
M  V30 1680 C 172.291 4.36873 0.531966 0
M  V30 1681 H 169.41 0.734992 -0.0543632 0
M  V30 1682 H 172.052 1.71592 -0.815863 0
M  V30 1683 H 170.202 3.86102 0.431007 0
M  V30 1684 H 171.874 4.07057 -2.1703 0
M  V30 1685 H 170.117 3.79476 -2.10191 0
M  V30 1686 H 170.788 5.31284 -1.49804 0
M  V30 1687 H 173.264 4.16074 0.0464781 0
M  V30 1688 H 172.14 5.4657 0.505206 0
M  V30 1689 H 172.401 4.11995 1.60352 0
M  V30 1690 N 171.46 0.379036 1.52974 0
M  V30 1691 C 172.737 -0.263479 1.93817 0
M  V30 1692 C 173.117 -1.65244 1.31368 0
M  V30 1693 O 172.465 -2.23448 0.477856 0
M  V30 1694 C 172.675 -0.300166 3.47707 0
M  V30 1695 C 174.023 -0.534061 4.21228 0
M  V30 1696 O 175.047 -0.38081 3.54159 0
M  V30 1697 O 173.906 -0.833501 5.40106 0
M  V30 1698 H 171 -0.161149 0.811147 0
M  V30 1699 H 173.546 0.432798 1.64088 0
M  V30 1700 H 172.318 0.673138 3.85467 0
M  V30 1701 H 171.941 -1.04179 3.83709 0
M  V30 1702 N 172.938 -1.57226 0.108567 0
M  V30 1703 C 174.184 -1.95121 -0.552761 0
M  V30 1704 C 174.517 -0.991345 -1.66991 0
M  V30 1705 O 173.792 -0.0267211 -1.94482 0
M  V30 1706 C 174.075 -3.43039 -1.09528 0
M  V30 1707 C 173.928 -4.49797 0.0177332 0
M  V30 1708 C 175.247 -3.92567 -1.98945 0
M  V30 1709 H 172.366 -0.709496 -0.199461 0
M  V30 1710 H 175.008 -1.89126 0.182011 0
M  V30 1711 H 173.158 -3.48279 -1.72146 0
M  V30 1712 H 174.83 -4.56661 0.652584 0
M  V30 1713 H 173.073 -4.284 0.682309 0
M  V30 1714 H 173.744 -5.50528 -0.402919 0
M  V30 1715 H 176.22 -3.89565 -1.46214 0
M  V30 1716 H 175.096 -4.96605 -2.33827 0
M  V30 1717 H 175.357 -3.32648 -2.91201 0
M  V30 1718 N 174.416 0.165178 -1.56732 0
M  V30 1719 C 175.346 1.20651 -1.99914 0
M  V30 1720 C 176.327 1.45827 -0.875705 0
M  V30 1721 O 177.512 1.57057 -1.14223 0
M  V30 1722 C 174.642 2.54401 -2.36427 0
M  V30 1723 C 173.596 2.43782 -3.51787 0
M  V30 1724 C 172.922 3.82078 -3.7406 0
M  V30 1725 C 174.222 1.93732 -4.85041 0
M  V30 1726 H 175.916 0.847534 -2.87154 0
M  V30 1727 H 173.462 0.40625 -1.38151 0
M  V30 1728 H 175.415 3.27458 -2.65234 0
M  V30 1729 H 174.139 2.92098 -1.46103 0
M  V30 1730 H 172.798 1.73178 -3.23117 0
M  V30 1731 H 172.446 4.17179 -2.81017 0
M  V30 1732 H 172.146 3.7584 -4.51684 0
M  V30 1733 H 173.67 4.56712 -4.05274 0
M  V30 1734 H 175.084 2.56569 -5.12684 0
M  V30 1735 H 173.481 1.98428 -5.66345 0
M  V30 1736 H 174.551 0.891962 -4.76626 0
M  V30 1737 N 175.894 1.51508 0.433938 0
M  V30 1738 C 177.134 1.66006 1.19253 0
M  V30 1739 C 177.498 0.369868 1.88404 0
M  V30 1740 O 178.699 0.39066 2.65946 0
M  V30 1741 C 176.97 2.83229 2.17981 0
M  V30 1742 S 178.529 3.18075 3.02281 0
M  V30 1743 H 175.347 0.584821 0.404358 0
M  V30 1744 H 177.949 1.89425 0.48357 0
M  V30 1745 H 176.653 3.75407 1.65824 0
M  V30 1746 H 176.184 2.6201 2.93453 0
M  V30 1747 H 178.199 2.64772 4.19655 0
M  V30 1748 N 177.372 -0.689602 1.41712 0
M  V30 1749 C 178.618 -1.45181 1.41599 0
M  V30 1750 C 178.951 -1.94181 0.0270081 0
M  V30 1751 O 178.226 -1.6993 -0.946265 0
M  V30 1752 C 178.509 -2.65945 2.42787 0
M  V30 1753 C 178.362 -2.22672 3.90816 0
M  V30 1754 C 179.681 -3.68149 2.41151 0
M  V30 1755 H 176.8 -0.526576 0.515642 0
M  V30 1756 H 179.442 -0.784947 1.73028 0
M  V30 1757 H 177.592 -3.2284 2.16116 0
M  V30 1758 H 179.264 -1.71058 4.28412 0
M  V30 1759 H 177.507 -1.54394 4.05395 0
M  V30 1760 H 178.178 -3.0935 4.57172 0
M  V30 1761 H 180.654 -3.2094 2.64834 0
M  V30 1762 H 179.53 -4.50248 3.13955 0
M  V30 1763 H 179.791 -4.18259 1.43221 0
M  V30 1764 N 178.85 -1.27639 -0.924453 0
M  V30 1765 C 180.078 -1.16989 -1.70649 0
M  V30 1766 C 180.493 0.272869 -1.86818 0
M  V30 1767 O 179.85 1.18549 -1.38753 0
M  V30 1768 C 179.901 -1.85229 -3.10439 0
M  V30 1769 O 179.622 -3.23868 -2.95028 0
M  V30 1770 C 181.123 -1.80746 -4.04779 0
M  V30 1771 H 178.343 -0.406595 -0.53378 0
M  V30 1772 H 180.887 -1.68569 -1.15778 0
M  V30 1773 H 179.042 -1.37545 -3.6216 0
M  V30 1774 H 179.456 -3.57889 -3.83426 0
M  V30 1775 H 180.93 -2.33101 -5.00368 0
M  V30 1776 H 181.407 -0.777499 -4.32263 0
M  V30 1777 H 182.013 -2.28059 -3.58984 0
M  V30 1778 N 180.328 1.1314 -1.09713 0
M  V30 1779 C 181.291 2.16831 -0.742751 0
M  V30 1780 C 182.291 1.59159 0.229129 0
M  V30 1781 O 183.481 1.74199 0.00693237 0
M  V30 1782 C 180.613 3.40756 -0.0989168 0
M  V30 1783 H 181.806 2.49695 -1.66109 0
M  V30 1784 H 179.359 1.2802 -0.896699 0
M  V30 1785 H 180.094 3.13485 0.830514 0
M  V30 1786 H 179.879 3.83888 -0.798265 0
M  V30 1787 H 181.369 4.17386 0.133524 0
M  V30 1788 N 181.806 0.884767 1.30421 0
M  V30 1789 C 183.031 0.517288 2.00845 0
M  V30 1790 C 183.456 -0.886779 1.65885 0
M  V30 1791 O 182.814 -1.58768 0.875354 0
M  V30 1792 C 182.862 0.698994 3.5376 0
M  V30 1793 O 181.966 -0.255208 4.1161 0
M  V30 1794 H 181.307 0.203872 0.631927 0
M  V30 1795 H 183.837 1.19225 1.66272 0
M  V30 1796 H 183.847 0.597912 4.03595 0
M  V30 1797 H 182.522 1.72271 3.78544 0
M  V30 1798 H 181.099 -0.10784 3.72744 0
M  V30 1799 N 183.284 -1.43765 0.645699 0
M  V30 1800 C 184.533 -2.01116 0.153412 0
M  V30 1801 C 184.846 -1.51493 -1.23731 0
M  V30 1802 O 186.052 -2.01067 -1.8244 0
M  V30 1803 C 184.508 -3.59206 0.223473 0
M  V30 1804 C 184.116 -4.17823 1.61642 0
M  V30 1805 C 185.86 -4.23972 -0.211597 0
M  V30 1806 C 183.767 -5.68183 1.64081 0
M  V30 1807 H 182.697 -0.752093 0.0535891 0
M  V30 1808 H 185.348 -1.6482 0.806633 0
M  V30 1809 H 183.73 -3.92867 -0.497118 0
M  V30 1810 H 184.904 -3.95674 2.36176 0
M  V30 1811 H 183.219 -3.65399 1.99681 0
M  V30 1812 H 185.816 -5.34275 -0.213112 0
M  V30 1813 H 186.159 -3.97352 -1.24165 0
M  V30 1814 H 186.692 -3.95166 0.456988 0
M  V30 1815 H 183.431 -5.99559 2.64971 0
M  V30 1816 H 182.951 -5.9241 0.938611 0
M  V30 1817 H 184.63 -6.32085 1.3812 0
M  V30 1818 N 184.763 -0.387143 -1.52771 0
M  V30 1819 C 185.673 0.456442 -2.30117 0
M  V30 1820 C 186.689 1.07342 -1.36944 0
M  V30 1821 O 187.865 1.07971 -1.70013 0
M  V30 1822 C 184.93 1.56957 -3.09136 0
M  V30 1823 C 183.991 0.977916 -4.18014 0
M  V30 1824 C 183.224 2.038 -4.93256 0
M  V30 1825 O 183.447 3.25271 -4.68567 0
M  V30 1826 O 182.381 1.6565 -5.78657 0
M  V30 1827 H 186.207 -0.17359 -3.03203 0
M  V30 1828 H 183.792 -0.150919 -1.48636 0
M  V30 1829 H 185.674 2.21628 -3.58412 0
M  V30 1830 H 184.349 2.18461 -2.38865 0
M  V30 1831 H 183.256 0.294525 -3.72939 0
M  V30 1832 H 184.589 0.407128 -4.90513 0
M  V30 1833 N 186.241 1.57166 -0.116904 0
M  V30 1834 C 187.469 1.99473 0.549383 0
M  V30 1835 C 187.884 0.996541 1.60357 0
M  V30 1836 O 187.241 -0.0108731 1.82497 0
M  V30 1837 C 187.292 3.41788 1.17741 0
M  V30 1838 O 187.013 4.37788 0.165362 0
M  V30 1839 C 188.514 3.99216 1.92722 0
M  V30 1840 H 185.734 0.655009 0.145616 0
M  V30 1841 H 188.278 2.03494 -0.202625 0
M  V30 1842 H 186.433 3.38713 1.88021 0
M  V30 1843 H 186.847 5.20806 0.621403 0
M  V30 1844 H 188.321 5.00882 2.31995 0
M  V30 1845 H 188.798 3.3824 2.80161 0
M  V30 1846 H 189.404 4.0583 1.27209 0
M  V30 1847 N 187.719 -0.156864 1.56817 0
M  V30 1848 C 188.649 -1.19589 2.00551 0
M  V30 1849 C 189.63 -1.4536 0.883426 0
M  V30 1850 O 190.815 -1.56449 1.15054 0
M  V30 1851 C 187.945 -2.53143 2.37773 0
M  V30 1852 C 186.899 -2.41913 3.53075 0
M  V30 1853 C 186.225 -3.80088 3.76081 0
M  V30 1854 C 187.525 -1.91157 4.86062 0
M  V30 1855 H 189.219 -0.832293 2.87599 0
M  V30 1856 H 186.765 -0.398918 1.38364 0
M  V30 1857 H 188.718 -3.26047 2.66967 0
M  V30 1858 H 187.442 -2.91319 1.4765 0
M  V30 1859 H 186.101 -1.71462 3.24031 0
M  V30 1860 H 185.749 -4.15683 2.83225 0
M  V30 1861 H 185.449 -3.73439 4.53671 0
M  V30 1862 H 186.973 -4.54556 4.0769 0
M  V30 1863 H 188.387 -2.53846 5.14038 0
M  V30 1864 H 186.784 -1.95422 5.67389 0
M  V30 1865 H 187.854 -0.866673 4.77092 0
M  V30 1866 N 189.197 -1.51736 -0.425897 0
M  V30 1867 C 190.437 -1.66636 -1.18371 0
M  V30 1868 C 190.801 -0.379854 -1.88205 0
M  V30 1869 O 192.002 -0.404758 -2.65735 0
M  V30 1870 C 190.273 -2.84382 -2.16476 0
M  V30 1871 S 191.832 -3.19673 -3.0059 0
M  V30 1872 H 188.65 -0.586957 -0.40125 0
M  V30 1873 H 191.252 -1.89679 -0.473518 0
M  V30 1874 H 189.956 -3.76281 -1.63831 0
M  V30 1875 H 189.487 -2.63562 -2.92059 0
M  V30 1876 H 191.502 -2.66994 -4.18245 0
M  V30 1877 N 190.675 0.682077 -1.42076 0
M  V30 1878 C 191.638 1.77756 -1.44691 0
M  V30 1879 C 192.638 1.5726 -0.335535 0
M  V30 1880 O 193.828 1.63686 -0.596037 0
M  V30 1881 C 190.96 3.16301 -1.27146 0
M  V30 1882 H 192.153 1.76826 -2.42224 0
M  V30 1883 H 189.706 0.891012 -1.28416 0
M  V30 1884 H 190.441 3.22862 -0.305075 0
M  V30 1885 H 190.226 3.32581 -2.07683 0
M  V30 1886 H 191.716 3.96241 -1.31843 0
M  V30 1887 N 192.153 1.28127 0.917671 0
M  V30 1888 C 193.083 1.14248 2.03641 0
M  V30 1889 C 194.064 0.0412748 1.7005 0
M  V30 1890 O 195.249 0.217566 1.92977 0
M  V30 1891 C 192.379 0.799431 3.37974 0
M  V30 1892 C 191.333 1.85497 3.85713 0
M  V30 1893 C 190.659 1.36565 5.16966 0
M  V30 1894 C 191.959 3.26085 4.08002 0
M  V30 1895 H 193.653 2.07835 2.15511 0
M  V30 1896 H 191.199 1.00064 1.03553 0
M  V30 1897 H 193.152 0.689114 4.15727 0
M  V30 1898 H 191.876 -0.172145 3.26146 0
M  V30 1899 H 190.535 1.95437 3.10161 0
M  V30 1900 H 190.183 0.383253 5.01538 0
M  V30 1901 H 189.883 2.07143 5.49878 0
M  V30 1902 H 191.407 1.26848 5.97279 0
M  V30 1903 H 192.821 3.19089 4.76293 0
M  V30 1904 H 191.218 3.94462 4.52238 0
M  V30 1905 H 192.288 3.70394 3.12948 0
M  V30 1906 N 193.631 -1.12557 1.10312 0
M  V30 1907 C 194.594 -2.16434 0.75424 0
M  V30 1908 C 195.594 -1.59278 -0.220685 0
M  V30 1909 O 196.784 -1.742 0.00230591 0
M  V30 1910 C 193.916 -3.40699 0.116987 0
M  V30 1911 H 195.109 -2.48811 1.67431 0
M  V30 1912 H 192.662 -1.27542 0.903475 0
M  V30 1913 H 193.397 -3.13921 -0.813877 0
M  V30 1914 H 193.182 -3.83459 0.818613 0
M  V30 1915 H 194.672 -4.17451 -0.111387 0
M  V30 1916 N 195.109 -0.891671 -1.2995 0
M  V30 1917 C 196.355 -0.514261 -1.96171 0
M  V30 1918 C 196.688 0.935506 -1.70182 0
M  V30 1919 O 195.963 1.66204 -1.01028 0
M  V30 1920 C 196.246 -0.797719 -3.51153 0
M  V30 1921 C 196.099 -2.2986 -3.86632 0
M  V30 1922 C 197.418 -0.278749 -4.39216 0
M  V30 1923 H 194.537 -0.188314 -0.712535 0
M  V30 1924 H 197.179 -1.11689 -1.53706 0
M  V30 1925 H 195.329 -0.284826 -3.87455 0
M  V30 1926 H 197.001 -2.88042 -3.60319 0
M  V30 1927 H 195.244 -2.76257 -3.34462 0
M  V30 1928 H 195.915 -2.44753 -4.94773 0
M  V30 1929 H 198.391 -0.717825 -4.09862 0
M  V30 1930 H 197.267 -0.506353 -5.46559 0
M  V30 1931 H 197.528 0.820266 -4.34424 0
M  V30 1932 N 196.587 1.43421 -0.653314 0
M  V30 1933 C 197.864 1.95361 -0.0966581 0
M  V30 1934 C 198.244 1.59461 1.38331 0
M  V30 1935 O 197.592 0.879777 2.10884 0
M  V30 1936 C 197.802 3.47311 -0.342988 0
M  V30 1937 C 199.15 4.23875 -0.24798 0
M  V30 1938 O 200.174 3.55133 -0.275553 0
M  V30 1939 O 199.033 5.4623 -0.171771 0
M  V30 1940 H 196.127 0.826945 0.00956291 0
M  V30 1941 H 198.673 1.5336 -0.726558 0
M  V30 1942 H 197.445 3.66569 -1.36906 0
M  V30 1943 H 197.068 3.9631 0.319975 0
M  V30 1944 N 198.065 0.39524 1.52563 0
M  V30 1945 C 199.481 0.0454682 1.59535 0
M  V30 1946 C 199.681 -1.44056 1.4089 0
M  V30 1947 O 198.737 -2.20579 1.22888 0
M  V30 1948 C 200.05 0.527963 2.96029 0
M  V30 1949 C 201.598 0.484733 3.09224 0
M  V30 1950 C 202.073 0.943512 4.48176 0
M  V30 1951 N 203.564 0.899765 4.54377 0
M  V30 1952 C 204.299 1.22609 5.60138 0
M  V30 1953 N 203.795 1.62319 6.73516 0
M  V30 1954 N 205.588 1.14696 5.50274 0
M  V30 1955 H 197.739 1.36261 1.62931 0
M  V30 1956 H 200.002 0.558887 0.765735 0
M  V30 1957 H 199.708 1.56607 3.14908 0
M  V30 1958 H 199.582 -0.0698056 3.77135 0
M  V30 1959 H 201.969 -0.544298 2.90037 0
M  V30 1960 H 202.05 1.11838 2.30056 0
M  V30 1961 H 201.694 1.9708 4.68104 0
M  V30 1962 H 201.624 0.286817 5.25818 0
M  V30 1963 H 204.115 0.607632 3.72983 0
M  V30 1964 H 204.428 1.85567 7.5019 0
M  V30 1965 H 202.773 1.66211 6.74833 0
M  V30 1966 H 205.964 0.835701 4.6058 0
M  V30 1967 H 206.137 1.40459 6.32594 0
M  V30 1968 N 199.544 -1.57102 0.125237 0
M  V30 1969 C 200.774 -1.99472 -0.538015 0
M  V30 1970 C 201.182 -1.00395 -1.60366 0
M  V30 1971 O 200.525 0.0103875 -1.83697 0
M  V30 1972 C 200.587 -3.38262 -1.21734 0
M  V30 1973 C 200.251 -4.56021 -0.298897 0
M  V30 1974 C 201.248 -5.17817 0.464943 0
M  V30 1975 C 198.933 -5.01869 -0.208149 0
M  V30 1976 C 200.927 -6.23852 1.3072 0
M  V30 1977 C 198.614 -6.07763 0.637736 0
M  V30 1978 C 199.612 -6.68622 1.39403 0
M  V30 1979 O 199.3 -7.7247 2.22586 0
M  V30 1980 H 199.032 -0.659934 -0.146501 0
M  V30 1981 H 201.586 -2.04321 0.210267 0
M  V30 1982 H 199.816 -3.30185 -2.01282 0
M  V30 1983 H 201.505 -3.6488 -1.77813 0
M  V30 1984 H 202.271 -4.83308 0.404741 0
M  V30 1985 H 198.15 -4.54241 -0.786522 0
M  V30 1986 H 201.694 -6.71284 1.898 0
M  V30 1987 H 197.591 -6.41701 0.699309 0
M  V30 1988 H 198.359 -7.89595 2.15596 0
M  V30 1989 N 201.022 0.148545 -1.56898 0
M  V30 1990 C 201.952 1.18524 -2.01182 0
M  V30 1991 C 202.933 1.4489 -0.891123 0
M  V30 1992 O 204.118 1.55836 -1.15882 0
M  V30 1993 C 201.248 2.51879 -2.39112 0
M  V30 1994 C 200.202 2.40038 -3.54353 0
M  V30 1995 C 199.528 3.78089 -3.78091 0
M  V30 1996 C 200.828 1.88577 -4.87069 0
M  V30 1997 H 202.522 0.817029 -2.88036 0
M  V30 1998 H 200.068 0.391575 -1.38574 0
M  V30 1999 H 202.021 3.24627 -2.68692 0
M  V30 2000 H 200.745 2.90532 -1.49193 0
M  V30 2001 H 199.404 1.69742 -3.24936 0
M  V30 2002 H 199.052 4.14175 -2.85426 0
M  V30 2003 H 198.752 3.71028 -4.55645 0
M  V30 2004 H 200.276 4.52387 -4.10095 0
M  V30 2005 H 201.69 2.51117 -5.15377 0
M  V30 2006 H 200.087 1.9241 -5.68417 0
M  V30 2007 H 201.157 0.84136 -4.77545 0
M  V30 2008 N 202.5 1.5196 0.417844 0
M  V30 2009 C 203.463 1.74065 1.49111 0
M  V30 2010 C 204.463 0.610537 1.48758 0
M  V30 2011 O 205.653 0.87832 1.50437 0
M  V30 2012 C 202.785 1.81502 2.88565 0
M  V30 2013 H 203.978 2.69869 1.30807 0
M  V30 2014 H 201.531 1.42244 0.647785 0
M  V30 2015 H 202.266 0.875813 3.1225 0
M  V30 2016 H 202.051 2.63651 2.90225 0
M  V30 2017 H 203.541 2.00376 3.66387 0
M  V30 2018 N 203.978 -0.674533 1.42435 0
M  V30 2019 C 205.224 -1.43671 1.43131 0
M  V30 2020 C 205.557 -1.94142 0.0476021 0
M  V30 2021 O 204.832 -1.70924 -0.928188 0
M  V30 2022 C 205.115 -2.63355 2.45594 0
M  V30 2023 C 204.968 -2.18514 3.93156 0
M  V30 2024 C 206.287 -3.65571 2.45043 0
M  V30 2025 H 203.406 -0.521077 0.521198 0
M  V30 2026 H 206.048 -0.766551 1.7385 0
M  V30 2027 H 204.198 -3.2053 2.19528 0
M  V30 2028 H 205.87 -1.66504 4.30202 0
M  V30 2029 H 204.113 -1.50086 4.07009 0
M  V30 2030 H 204.784 -3.04484 4.60428 0
M  V30 2031 H 207.26 -3.18113 2.68223 0
M  V30 2032 H 206.136 -4.46893 3.18713 0
M  V30 2033 H 206.397 -4.16716 1.47649 0
M  V30 2034 N 205.456 -1.28612 -0.910864 0
M  V30 2035 C 206.684 -1.18792 -1.69399 0
M  V30 2036 C 207.099 0.253039 -1.87097 0
M  V30 2037 O 206.456 1.17071 -1.40003 0
M  V30 2038 C 206.507 -1.88511 -3.08457 0
M  V30 2039 O 206.228 -3.26979 -2.91576 0
M  V30 2040 C 207.729 -1.85029 -4.02839 0
M  V30 2041 H 204.949 -0.412233 -0.529438 0
M  V30 2042 H 207.493 -1.69788 -1.13984 0
M  V30 2043 H 205.648 -1.41379 -3.60681 0
M  V30 2044 H 206.062 -3.61936 -3.79608 0
M  V30 2045 H 207.536 -2.38395 -4.97867 0
M  V30 2046 H 208.013 -0.823303 -4.31414 0
M  V30 2047 H 208.619 -2.31853 -3.56545 0
M  V30 2048 N 206.934 1.1197 -1.10907 0
M  V30 2049 C 207.882 2.19927 -0.757303 0
M  V30 2050 C 208.876 1.67564 0.248747 0
M  V30 2051 O 210.082 1.79672 0.108605 0
M  V30 2052 H 206.457 0.716925 -0.226987 0
M  V30 2053 H 208.428 2.46847 -1.67658 0
M  V30 2054 C 207.177 3.47061 -0.210671 0
M  V30 2055 H 206.5 3.87703 -0.976049 0
M  V30 2056 H 207.94 4.24 -0.0026584 0
M  V30 2057 C 206.399 3.19864 1.05777 0
M  V30 2058 O 206.929 3.40049 2.13845 0
M  V30 2059 N 205.135 2.73636 0.978349 0
M  V30 2060 H 204.682 2.5741 0.0988246 0
M  V30 2061 H 204.64 2.55815 1.82773 0
M  V30 2062 N 208.412 0.89855 1.29475 0
M  V30 2063 C 209.823 0.572537 1.77705 0
M  V30 2064 C 210.174 -0.911778 1.73727 0
M  V30 2065 O 209.299 -1.71288 1.32247 0
M  V30 2066 C 209.894 1.03252 3.22683 0
M  V30 2067 C 208.453 0.757687 3.68695 0
M  V30 2068 C 207.6 1.20787 2.49612 0
M  V30 2069 H 210.551 1.08139 1.16153 0
M  V30 2070 H 210.572 0.367307 3.78723 0
M  V30 2071 H 210.084 2.11285 3.25546 0
M  V30 2072 H 208.185 -0.310079 3.71308 0
M  V30 2073 H 208.298 1.35476 4.59547 0
M  V30 2074 H 206.662 0.626888 2.46865 0
M  V30 2075 H 207.445 2.29622 2.55203 0
M  V30 2076 N 209.89 -1.43072 0.660911 0
M  V30 2077 C 210.82 -2.33497 -0.0122829 0
M  V30 2078 C 211.801 -1.49903 -0.803925 0
M  V30 2079 O 212.986 -1.78546 -0.763864 0
M  V30 2080 C 210.116 -3.33363 -0.973994 0
M  V30 2081 C 209.07 -4.27003 -0.291928 0
M  V30 2082 C 208.396 -5.16967 -1.36562 0
M  V30 2083 C 209.696 -5.15816 0.820462 0
M  V30 2084 H 211.39 -2.90038 0.742873 0
M  V30 2085 H 208.936 -1.39461 0.358688 0
M  V30 2086 H 210.889 -3.95524 -1.45392 0
M  V30 2087 H 209.613 -2.75095 -1.7604 0
M  V30 2088 H 208.272 -3.66217 0.167623 0
M  V30 2089 H 207.92 -4.55034 -2.14366 0
M  V30 2090 H 207.62 -5.80441 -0.914454 0
M  V30 2091 H 209.144 -5.82003 -1.84675 0
M  V30 2092 H 210.558 -5.71742 0.422366 0
M  V30 2093 H 208.955 -5.8805 1.19656 0
M  V30 2094 H 210.025 -4.55045 1.67518 0
M  V30 2095 N 211.368 -0.403325 -1.52352 0
M  V30 2096 C 212.784 -0.0539281 -1.59509 0
M  V30 2097 C 212.984 1.43307 -1.41652 0
M  V30 2098 O 212.04 2.19924 -1.24056 0
M  V30 2099 C 213.353 -0.543654 -2.95745 0
M  V30 2100 C 214.901 -0.501125 -3.08962 0
M  V30 2101 C 215.376 -0.967267 -4.47669 0
M  V30 2102 N 216.867 -0.923849 -4.53893 0
M  V30 2103 C 217.602 -1.25578 -5.5948 0
M  V30 2104 N 217.098 -1.65889 -6.72646 0
M  V30 2105 N 218.891 -1.17613 -5.49658 0
M  V30 2106 H 211.042 -1.37123 -1.62206 0
M  V30 2107 H 213.305 -0.56294 -0.76276 0
M  V30 2108 H 213.011 -1.58275 -3.14073 0
M  V30 2109 H 212.885 0.0498042 -3.77167 0
M  V30 2110 H 215.272 0.528909 -2.90321 0
M  V30 2111 H 215.353 -1.13056 -2.2946 0
M  V30 2112 H 214.997 -1.9956 -4.67053 0
M  V30 2113 H 214.927 -0.314698 -5.25659 0
M  V30 2114 H 217.418 -0.627403 -3.72655 0
M  V30 2115 H 217.731 -1.89543 -7.49195 0
M  V30 2116 H 216.076 -1.69787 -6.73942 0
M  V30 2117 H 219.267 -0.860115 -4.6013 0
M  V30 2118 H 219.44 -1.43812 -6.3184 0
M  V30 2119 N 212.846 1.57033 -0.133567 0
M  V30 2120 C 214.076 1.99754 0.527429 0
M  V30 2121 C 214.484 1.01245 1.59832 0
M  V30 2122 O 213.827 -0.000645496 1.837 0
M  V30 2123 C 213.889 3.38903 1.19939 0
M  V30 2124 C 213.553 4.56174 0.274709 0
M  V30 2125 C 214.55 5.17563 -0.492398 0
M  V30 2126 C 212.235 5.01972 0.18153 0
M  V30 2127 C 214.229 6.2315 -1.34027 0
M  V30 2128 C 211.916 6.07416 -0.669958 0
M  V30 2129 C 212.914 6.67874 -1.42947 0
M  V30 2130 O 212.602 7.71279 -2.2668 0
M  V30 2131 H 212.334 0.660702 0.142999 0
M  V30 2132 H 214.888 2.04207 -0.221099 0
M  V30 2133 H 213.118 3.31248 1.99528 0
M  V30 2134 H 214.807 3.65818 1.75875 0
M  V30 2135 H 215.573 4.83087 -0.430367 0
M  V30 2136 H 211.452 4.54652 0.762422 0
M  V30 2137 H 214.996 6.70268 -1.93357 0
M  V30 2138 H 210.893 6.41321 -0.73333 0
M  V30 2139 H 211.661 7.88441 -2.1978 0
M  V30 2140 N 214.325 -0.140222 1.56975 0
M  V30 2141 C 215.573 -0.850005 1.83356 0
M  V30 2142 C 215.894 -1.81399 0.71551 0
M  V30 2143 O 215.164 -1.94136 -0.262294 0
M  V30 2144 H 213.744 -0.316886 0.676456 0
M  V30 2145 H 216.406 -0.132608 1.94448 0
M  V30 2146 H 215.502 -1.40814 2.78528 0
M  V30 2147 N 215.803 -1.52179 -0.40978 0
M  V30 2148 C 216.766 -1.74853 -1.48186 0
M  V30 2149 C 217.766 -0.618417 -1.48433 0
M  V30 2150 O 218.956 -0.886286 -1.49969 0
M  V30 2151 C 216.088 -1.8303 -2.87598 0
M  V30 2152 H 217.281 -2.70559 -1.29374 0
M  V30 2153 H 214.834 -1.42586 -0.640233 0
M  V30 2154 H 215.569 -0.89236 -3.11781 0
M  V30 2155 H 215.354 -2.65187 -2.88822 0
M  V30 2156 H 216.844 -2.02316 -3.65319 0
M  V30 2157 N 217.281 0.66697 -1.42791 0
M  V30 2158 C 218.211 1.79218 -1.49677 0
M  V30 2159 C 219.192 1.66405 -0.352623 0
M  V30 2160 O 220.377 1.85708 -0.567993 0
M  V30 2161 C 217.507 3.17565 -1.40605 0
M  V30 2162 C 216.461 3.45124 -2.53127 0
M  V30 2163 C 215.787 4.83127 -2.29112 0
M  V30 2164 C 217.087 3.41236 -3.95418 0
M  V30 2165 H 218.781 1.73713 -2.43853 0
M  V30 2166 H 216.327 0.83432 -1.17367 0
M  V30 2167 H 218.28 3.96022 -1.44029 0
M  V30 2168 H 217.004 3.23767 -0.429271 0
M  V30 2169 H 215.663 2.69031 -2.49034 0
M  V30 2170 H 215.311 4.85988 -1.29709 0
M  V30 2171 H 215.011 5.02528 -3.04531 0
M  V30 2172 H 216.535 5.63859 -2.34297 0
M  V30 2173 H 217.949 4.09651 -4.01073 0
M  V30 2174 H 216.346 3.72173 -4.70752 0
M  V30 2175 H 217.416 2.39665 -4.21532 0
M  V30 2176 N 218.759 1.29093 0.90403 0
M  V30 2177 C 220.005 1.16986 1.65656 0
M  V30 2178 C 220.338 -0.278925 1.92186 0
M  V30 2179 O 219.613 -1.2019 1.5292 0
M  V30 2180 C 219.896 1.97908 3.0084 0
M  V30 2181 C 219.749 3.50903 2.81403 0
M  V30 2182 C 221.068 1.80208 4.01513 0
M  V30 2183 H 218.187 0.426346 0.601164 0
M  V30 2184 H 220.829 1.58518 1.04747 0
M  V30 2185 H 218.979 1.62616 3.52829 0
M  V30 2186 H 220.651 3.96153 2.36348 0
M  V30 2187 H 218.894 3.76045 2.1627 0
M  V30 2188 H 219.565 4.02791 3.77443 0
M  V30 2189 H 222.041 2.11025 3.58619 0
M  V30 2190 H 220.917 2.39184 4.94047 0
M  V30 2191 H 221.178 0.756119 4.35586 0
M  V30 2192 N 220.237 -1.11381 1.11499 0
M  V30 2193 C 221.465 -1.86934 0.88675 0
M  V30 2194 C 221.88 -1.80195 -0.563476 0
M  V30 2195 O 221.237 -1.18367 -1.38908 0
M  V30 2196 C 221.288 -3.35722 1.34064 0
M  V30 2197 O 221.009 -3.4232 2.73401 0
M  V30 2198 C 222.51 -4.2818 1.14791 0
M  V30 2199 H 219.73 -0.591117 0.317523 0
M  V30 2200 H 222.274 -1.40865 1.48248 0
M  V30 2201 H 220.429 -3.79294 0.788355 0
M  V30 2202 H 220.843 -4.34971 2.93087 0
M  V30 2203 H 222.317 -5.30817 1.5145 0
M  V30 2204 H 222.794 -4.39113 0.0875279 0
M  V30 2205 H 223.4 -3.90402 1.68721 0
M  V30 2206 N 221.715 -0.905404 -1.28997 0
M  V30 2207 C 222.662 -0.385892 -2.27551 0
M  V30 2208 C 223.632 0.535113 -1.57244 0
M  V30 2209 O 224.817 0.459119 -1.85194 0
M  V30 2210 C 221.957 0.375461 -3.43051 0
M  V30 2211 C 221.07 -0.577092 -4.28128 0
M  V30 2212 C 220.205 0.201879 -5.30816 0
M  V30 2213 C 219.244 -0.744829 -6.07551 0
M  V30 2214 N 218.381 9.42587e-05 -7.021 0
M  V30 2215 H 223.221 -1.23139 -2.71368 0
M  V30 2216 H 220.758 -0.618542 -1.33463 0
M  V30 2217 H 222.716 0.832992 -4.088 0
M  V30 2218 H 221.346 1.18537 -3.00248 0
M  V30 2219 H 220.398 -1.15315 -3.62501 0
M  V30 2220 H 221.71 -1.30152 -4.8152 0
M  V30 2221 H 220.864 0.720351 -6.02408 0
M  V30 2222 H 219.603 0.959413 -4.7817 0
M  V30 2223 H 218.608 -1.27475 -5.34818 0
M  V30 2224 H 219.833 -1.50178 -6.62286 0
M  V30 2225 H 217.779 0.739791 -6.51815 0
M  V30 2226 H 217.696 -0.664321 -7.53076 0
M  V30 2227 H 218.964 0.498644 -7.77903 0
M  V30 2228 N 223.193 1.4272 -0.668489 0
M  V30 2229 C 224.609 1.55992 -0.33745 0
M  V30 2230 C 224.809 1.64933 1.15756 0
M  V30 2231 O 223.865 1.61278 1.94282 0
M  V30 2232 C 225.178 2.81314 -1.06222 0
M  V30 2233 C 226.726 2.95078 -1.04394 0
M  V30 2234 C 227.201 4.23252 -1.74991 0
M  V30 2235 N 228.692 4.3015 -1.71829 0
M  V30 2236 C 229.427 5.28127 -2.23315 0
M  V30 2237 N 228.923 6.32293 -2.83156 0
M  V30 2238 N 230.716 5.19882 -2.13726 0
M  V30 2239 H 222.867 1.3516 -1.63846 0
M  V30 2240 H 225.13 0.650174 -0.689912 0
M  V30 2241 H 224.836 2.80823 -2.11734 0
M  V30 2242 H 224.71 3.72012 -0.62344 0
M  V30 2243 H 227.097 2.951 0.0028244 0
M  V30 2244 H 227.178 2.05627 -1.52155 0
M  V30 2245 H 226.822 4.2399 -2.79633 0
M  V30 2246 H 226.752 5.11626 -1.24685 0
M  V30 2247 H 229.243 3.55499 -1.28175 0
M  V30 2248 H 229.556 7.03398 -3.20079 0
M  V30 2249 H 227.901 6.32873 -2.87223 0
M  V30 2250 H 231.092 4.37423 -1.66669 0
M  V30 2251 H 231.265 5.96077 -2.54158 0
M  V30 2252 N 224.671 0.411399 1.52136 0
M  V30 2253 C 225.911 -0.163143 2.03748 0
M  V30 2254 C 226.275 -1.42187 1.29022 0
M  V30 2255 O 227.476 -2.075 1.70872 0
M  V30 2256 C 225.747 -0.402651 3.55125 0
M  V30 2257 S 227.306 -0.944315 4.28519 0
M  V30 2258 H 224.124 -0.0439833 0.709638 0
M  V30 2259 H 226.726 0.56484 1.87163 0
M  V30 2260 H 225.43 0.520212 4.0709 0
M  V30 2261 H 224.961 -1.15844 3.75957 0
M  V30 2262 H 226.976 -2.22463 4.43536 0
M  V30 2263 N 226.149 -1.5696 0.141893 0
M  V30 2264 C 227.112 -2.15316 -0.785587 0
M  V30 2265 C 228.112 -1.09366 -1.1788 0
M  V30 2266 O 229.302 -1.35031 -1.10056 0
M  V30 2267 C 226.434 -2.71211 -2.06537 0
M  V30 2268 H 227.627 -2.98608 -0.278041 0
M  V30 2269 H 225.18 -1.5593 -0.107519 0
M  V30 2270 H 225.915 -1.91571 -2.6167 0
M  V30 2271 H 225.7 -3.4872 -1.79268 0
M  V30 2272 H 227.19 -3.16189 -2.72789 0
M  V30 2273 N 227.627 0.131896 -1.57047 0
M  V30 2274 C 229.043 0.485031 -1.52051 0
M  V30 2275 C 229.243 1.82563 -0.85281 0
M  V30 2276 O 228.299 2.48817 -0.429694 0
M  V30 2277 C 229.612 0.481409 -2.96821 0
M  V30 2278 C 231.16 0.565868 -3.07842 0
M  V30 2279 C 231.635 0.592762 -4.54148 0
M  V30 2280 N 233.126 0.654564 -4.58552 0
M  V30 2281 C 233.861 0.696608 -5.69153 0
M  V30 2282 N 233.357 0.697078 -6.89284 0
M  V30 2283 N 235.15 0.738639 -5.57226 0
M  V30 2284 H 227.301 -0.746664 -1.98843 0
M  V30 2285 H 229.564 -0.273999 -0.90754 0
M  V30 2286 H 229.27 -0.435731 -3.4899 0
M  V30 2287 H 229.144 1.3139 -3.53577 0
M  V30 2288 H 231.531 1.47343 -2.55684 0
M  V30 2289 H 231.612 -0.29406 -2.54104 0
M  V30 2290 H 231.256 -0.310701 -5.06949 0
M  V30 2291 H 231.186 1.46939 -5.05684 0
M  V30 2292 H 233.677 0.660887 -3.72076 0
M  V30 2293 H 233.99 0.731426 -7.69331 0
M  V30 2294 H 232.335 0.66471 -6.91814 0
M  V30 2295 H 235.526 0.735545 -4.62285 0
M  V30 2296 H 235.699 0.767938 -6.43434 0
M  V30 2297 N 229.106 1.52395 0.401703 0
M  V30 2298 C 230.334 1.70676 1.16949 0
M  V30 2299 C 230.749 0.419503 1.8408 0
M  V30 2300 O 230.106 -0.605061 1.72178 0
M  V30 2301 C 230.157 2.84753 2.22706 0
M  V30 2302 O 229.878 4.08495 1.58314 0
M  V30 2303 C 231.379 3.14608 3.12309 0
M  V30 2304 H 228.599 0.571787 0.351142 0
M  V30 2305 H 231.143 1.98987 0.471652 0
M  V30 2306 H 229.298 2.58941 2.88147 0
M  V30 2307 H 229.712 4.72117 2.28485 0
M  V30 2308 H 231.186 3.97923 3.82572 0
M  V30 2309 H 231.663 2.28464 3.75101 0
M  V30 2310 H 232.269 3.42212 2.52529 0
M  V30 2311 N 230.584 -0.659388 1.43143 0
M  V30 2312 C 231.547 -1.75432 1.47501 0
M  V30 2313 C 232.547 -1.56707 0.360512 0
M  V30 2314 O 233.737 -1.62717 0.622002 0
M  V30 2315 C 230.869 -3.14239 1.32162 0
M  V30 2316 H 232.062 -1.7295 2.45006 0
M  V30 2317 H 229.615 -0.870469 1.29817 0
M  V30 2318 H 230.35 -3.22336 0.356401 0
M  V30 2319 H 230.135 -3.29235 2.12948 0
M  V30 2320 H 231.625 -3.94094 1.3813 0
M  V30 2321 N 232.062 -1.29571 -0.897171 0
M  V30 2322 C 233.308 -1.17863 -1.65034 0
M  V30 2323 C 233.641 0.268729 -1.92332 0
M  V30 2324 O 232.916 1.19378 -1.53555 0
M  V30 2325 C 233.199 -1.995 -2.99786 0
M  V30 2326 C 233.052 -3.5239 -2.79538 0
M  V30 2327 C 234.371 -1.82335 -4.00552 0
M  V30 2328 H 231.49 -0.429528 -0.598895 0
M  V30 2329 H 234.132 -1.59072 -1.03905 0
M  V30 2330 H 232.282 -1.64485 -3.51962 0
M  V30 2331 H 233.954 -3.97401 -2.34244 0
M  V30 2332 H 232.197 -3.77187 -2.14273 0
M  V30 2333 H 232.868 -4.04787 -3.75302 0
M  V30 2334 H 235.344 -2.12924 -3.57495 0
M  V30 2335 H 234.22 -2.41801 -4.92771 0
M  V30 2336 H 234.481 -0.779209 -4.35179 0
M  V30 2337 N 233.54 1.10788 -1.12088 0
M  V30 2338 C 234.786 1.82942 -0.875226 0
M  V30 2339 C 235.119 1.84779 0.597538 0
M  V30 2340 O 234.394 1.30578 1.44152 0
M  V30 2341 C 234.677 3.29789 -1.44606 0
M  V30 2342 C 234.53 3.36307 -2.98693 0
M  V30 2343 C 235.849 4.26064 -1.10261 0
M  V30 2344 H 232.968 0.664195 -0.319397 0
M  V30 2345 H 235.61 1.29867 -1.38689 0
M  V30 2346 H 233.76 3.75118 -1.01089 0
M  V30 2347 H 235.432 2.99487 -3.50864 0
M  V30 2348 H 233.675 2.76318 -3.34411 0
M  V30 2349 H 234.346 4.39694 -3.33726 0
M  V30 2350 H 236.822 3.88951 -1.4784 0
M  V30 2351 H 235.698 5.27183 -1.52869 0
M  V30 2352 H 235.959 4.42098 -0.0142953 0
M  V30 2353 N 235.018 0.912232 1.28515 0
M  V30 2354 C 235.948 0.416403 2.29757 0
M  V30 2355 C 236.929 -0.515194 1.6211 0
M  V30 2356 O 238.114 -0.423253 1.89532 0
M  V30 2357 C 235.244 -0.34572 3.45575 0
M  V30 2358 C 234.198 0.496599 4.25109 0
M  V30 2359 C 233.524 -0.393771 5.33248 0
M  V30 2360 C 234.824 1.75307 4.92001 0
M  V30 2361 H 236.518 1.26249 2.7148 0
M  V30 2362 H 234.064 0.608515 1.30511 0
M  V30 2363 H 236.017 -0.703422 4.15488 0
M  V30 2364 H 234.741 -1.2257 3.02728 0
M  V30 2365 H 233.4 0.8368 3.56922 0
M  V30 2366 H 233.048 -1.27225 4.86644 0
M  V30 2367 H 232.748 0.166209 5.87365 0
M  V30 2368 H 234.272 -0.747389 6.06009 0
M  V30 2369 H 235.686 1.46437 5.54283 0
M  V30 2370 H 234.083 2.25534 5.56106 0
M  V30 2371 H 235.153 2.48176 4.16577 0
M  V30 2372 N 236.496 -1.42363 0.676048 0
M  V30 2373 C 237.742 -2.0182 0.199125 0
M  V30 2374 C 238.075 -1.53339 -1.19168 0
M  V30 2375 O 237.35 -0.736124 -1.80032 0
M  V30 2376 C 237.633 -3.59331 0.235144 0
M  V30 2377 C 237.486 -4.17989 1.66149 0
M  V30 2378 C 238.805 -4.3813 -0.41595 0
M  V30 2379 H 235.924 -0.733293 0.0738311 0
M  V30 2380 H 238.566 -1.69368 0.86107 0
M  V30 2381 H 236.716 -3.87109 -0.328487 0
M  V30 2382 H 238.388 -4.0116 2.27747 0
M  V30 2383 H 236.631 -3.7377 2.20178 0
M  V30 2384 H 237.302 -5.27126 1.63837 0
M  V30 2385 H 239.778 -4.16051 0.0638529 0
M  V30 2386 H 238.654 -5.47717 -0.360115 0
M  V30 2387 H 238.915 -4.16101 -1.49373 0
M  V30 2388 N 237.974 -0.419461 -1.51915 0
M  V30 2389 C 239.22 0.145505 -2.02879 0
M  V30 2390 C 239.575 1.41926 -1.29903 0
M  V30 2391 O 238.868 1.87383 -0.399782 0
M  V30 2392 C 239.062 0.437067 -3.54717 0
M  V30 2393 C 238.891 -0.806877 -4.42402 0
M  V30 2394 C 237.661 -1.33514 -4.87342 0
M  V30 2395 C 239.859 -1.68796 -4.85811 0
M  V30 2396 N 237.841 -2.53349 -5.59185 0
M  V30 2397 C 239.212 -2.73247 -5.56539 0
M  V30 2398 C 241.267 -1.70449 -4.67816 0
M  V30 2399 C 239.97 -3.79276 -6.11181 0
M  V30 2400 C 241.996 -2.75403 -5.23361 0
M  V30 2401 C 241.358 -3.78575 -5.9402 0
M  V30 2402 H 237.457 0.0145424 -0.781865 0
M  V30 2403 H 240.041 -0.576126 -1.85981 0
M  V30 2404 H 238.212 1.12774 -3.71667 0
M  V30 2405 H 239.944 0.99182 -3.92358 0
M  V30 2406 H 236.699 -0.891657 -4.65131 0
M  V30 2407 H 237.123 -3.14066 -5.99743 0
M  V30 2408 H 241.765 -0.920209 -4.12664 0
M  V30 2409 H 239.483 -4.58554 -6.65397 0
M  V30 2410 H 243.069 -2.77603 -5.113 0
M  V30 2411 H 241.949 -4.58453 -6.36231 0
M  V30 2412 N 239.452 1.56882 -0.150215 0
M  V30 2413 C 240.698 1.96518 0.500834 0
M  V30 2414 C 241.031 1.03527 1.64304 0
M  V30 2415 O 240.306 0.0782751 1.94342 0
M  V30 2416 C 240.589 3.45822 1.00395 0
M  V30 2417 C 240.442 4.49591 -0.136983 0
M  V30 2418 C 241.761 3.97704 1.88467 0
M  V30 2419 H 238.88 0.714535 0.18058 0
M  V30 2420 H 241.522 1.88577 -0.232091 0
M  V30 2421 H 239.672 3.5272 1.62851 0
M  V30 2422 H 241.344 4.5477 -0.77343 0
M  V30 2423 H 239.587 4.26441 -0.795652 0
M  V30 2424 H 240.258 5.51402 0.256815 0
M  V30 2425 H 242.734 3.93304 1.35834 0
M  V30 2426 H 241.61 5.0263 2.20578 0
M  V30 2427 H 241.871 3.40252 2.82279 0
M  V30 2428 N 240.93 -0.123565 1.57115 0
M  V30 2429 C 242.176 -0.833386 1.84885 0
M  V30 2430 C 242.509 -1.79742 0.735292 0
M  V30 2431 O 241.784 -1.92764 -0.25925 0
M  V30 2432 C 242.067 -1.5873 3.23228 0
M  V30 2433 C 241.92 -0.643183 4.45178 0
M  V30 2434 C 243.239 -2.54453 3.59085 0
M  V30 2435 H 240.358 -0.301518 0.6725 0
M  V30 2436 H 243 -0.097778 1.89748 0
M  V30 2437 H 241.15 -2.21438 3.19214 0
M  V30 2438 H 242.822 -0.0253015 4.61293 0
M  V30 2439 H 241.065 0.0456139 4.33776 0
M  V30 2440 H 241.736 -1.20724 5.38637 0
M  V30 2441 H 244.212 -2.01853 3.63861 0
M  V30 2442 H 243.088 -3.04238 4.5687 0
M  V30 2443 H 243.349 -3.36906 2.86264 0
M  V30 2444 N 242.408 -1.52605 -0.393616 0
M  V30 2445 C 243.633 -1.71592 -1.16495 0
M  V30 2446 C 244.058 -0.43133 -1.83088 0
M  V30 2447 O 243.416 0.612523 -1.7064 0
M  V30 2448 C 243.464 -2.86318 -2.19213 0
M  V30 2449 O 242.568 -2.52969 -3.257 0
M  V30 2450 H 241.909 -0.570734 -0.33935 0
M  V30 2451 H 244.439 -1.99377 -0.459324 0
M  V30 2452 H 244.449 -3.1168 -2.63286 0
M  V30 2453 H 243.124 -3.79511 -1.7013 0
M  V30 2454 H 241.701 -2.38332 -2.86797 0
M  V30 2455 N 243.887 0.651787 -1.4349 0
M  V30 2456 C 244.85 1.74647 -1.48429 0
M  V30 2457 C 245.85 1.56513 -0.368817 0
M  V30 2458 O 247.04 1.62385 -0.630623 0
M  V30 2459 C 244.172 3.13533 -1.33827 0
M  V30 2460 H 245.365 1.71649 -2.4592 0
M  V30 2461 H 242.918 0.863573 -1.30277 0
M  V30 2462 H 243.653 3.22142 -0.37349 0
M  V30 2463 H 243.438 3.28101 -2.14691 0
M  V30 2464 H 244.928 3.93356 -1.40218 0
M  V30 2465 N 245.365 1.30045 0.890287 0
M  V30 2466 C 246.328 1.15963 1.977 0
M  V30 2467 C 247.328 0.0923777 1.60534 0
M  V30 2468 O 248.518 0.340071 1.70848 0
M  V30 2469 C 245.65 0.775451 3.31963 0
M  V30 2470 H 246.843 2.12502 2.11619 0
M  V30 2471 H 244.396 1.13366 1.07601 0
M  V30 2472 H 245.131 -0.189671 3.23745 0
M  V30 2473 H 244.916 1.54668 3.60306 0
M  V30 2474 H 246.406 0.700251 4.11687 0
M  V30 2475 N 246.843 -1.10192 1.12674 0
M  V30 2476 C 248.089 -1.82475 0.884915 0
M  V30 2477 C 248.422 -1.85093 -0.58773 0
M  V30 2478 O 247.697 -1.3134 -1.43457 0
M  V30 2479 C 247.98 -3.29018 1.46353 0
M  V30 2480 C 247.833 -3.34718 3.00473 0
M  V30 2481 C 249.152 -4.25473 1.12519 0
M  V30 2482 H 246.271 -0.662492 0.322915 0
M  V30 2483 H 248.913 -1.2913 1.39375 0
M  V30 2484 H 247.063 -3.74576 1.03077 0
M  V30 2485 H 248.735 -2.97622 3.52447 0
M  V30 2486 H 246.978 -2.74541 3.35872 0
M  V30 2487 H 247.649 -4.37918 3.36053 0
M  V30 2488 H 250.125 -3.88161 1.499 0
M  V30 2489 H 249.001 -5.26365 1.55663 0
M  V30 2490 H 249.262 -4.42084 0.0377407 0
M  V30 2491 N 248.321 -0.919034 -1.28029 0
M  V30 2492 C 249.546 -0.570357 -1.99403 0
M  V30 2493 C 249.971 0.842486 -1.68178 0
M  V30 2494 O 249.329 1.56391 -0.917141 0
M  V30 2495 C 249.377 -0.792541 -3.51783 0
M  V30 2496 O 248.481 0.145988 -4.12142 0
M  V30 2497 H 247.822 -0.220555 -0.6263 0
M  V30 2498 H 250.352 -1.23592 -1.63053 0
M  V30 2499 H 250.362 -0.704708 -4.01868 0
M  V30 2500 H 249.037 -1.82247 -3.73844 0
M  V30 2501 H 247.614 0.00897528 -3.72899 0
M  V30 2502 N 249.799 1.42003 -0.683588 0
M  V30 2503 C 251.046 2.01413 -0.209514 0
M  V30 2504 C 251.374 1.54088 1.1869 0
M  V30 2505 O 250.629 0.737591 1.81268 0
M  V30 2506 C 250.928 3.56827 -0.202357 0
M  V30 2507 C 250.594 4.23617 -1.54464 0
M  V30 2508 C 249.256 4.41577 -1.91215 0
M  V30 2509 C 251.608 4.61178 -2.42826 0
M  V30 2510 C 248.936 4.9437 -3.15935 0
M  V30 2511 C 251.288 5.15355 -3.66867 0
M  V30 2512 C 249.952 5.31528 -4.03776 0
M  V30 2513 H 249.222 0.737023 -0.0766668 0
M  V30 2514 H 251.869 1.70067 -0.880312 0
M  V30 2515 H 250.174 3.87892 0.551969 0
M  V30 2516 H 251.871 4.00588 0.181793 0
M  V30 2517 H 248.461 4.10004 -1.24877 0
M  V30 2518 H 252.645 4.46968 -2.15717 0
M  V30 2519 H 247.901 5.05076 -3.44541 0
M  V30 2520 H 252.075 5.43402 -4.35531 0
M  V30 2521 H 249.702 5.72199 -5.00492 0
M  V30 2522 N 251.277 0.427512 1.51691 0
M  V30 2523 C 252.24 -0.377132 2.26076 0
M  V30 2524 C 253.24 -0.958089 1.29141 0
M  V30 2525 O 254.43 -0.83408 1.52934 0
M  V30 2526 C 251.562 -1.53262 3.04506 0
M  V30 2527 H 252.755 0.27464 2.9864 0
M  V30 2528 H 250.308 0.180445 1.55255 0
M  V30 2529 H 251.043 -2.22072 2.36335 0
M  V30 2530 H 250.828 -1.12232 3.75694 0
M  V30 2531 H 252.318 -2.10135 3.60878 0
M  V30 2532 N 252.755 -1.56801 0.158532 0
M  V30 2533 C 254.166 -1.83189 -0.360366 0
M  V30 2534 C 254.517 -1.07778 -1.63946 0
M  V30 2535 O 253.642 -0.326718 -2.13919 0
M  V30 2536 C 254.237 -3.32297 -0.660595 0
M  V30 2537 C 252.796 -3.59227 -1.12398 0
M  V30 2538 C 251.943 -2.76877 -0.153097 0
M  V30 2539 H 254.894 -1.54008 0.383031 0
M  V30 2540 H 254.915 -3.4908 -1.51405 0
M  V30 2541 H 254.427 -3.87156 0.270527 0
M  V30 2542 H 252.528 -3.09766 -2.07064 0
M  V30 2543 H 252.641 -4.67632 -1.04197 0
M  V30 2544 H 251.005 -2.46319 -0.647983 0
M  V30 2545 H 251.788 -3.34511 0.77182 0
M  V30 2546 N 254.233 0.115231 -1.57178 0
M  V30 2547 C 255.482 0.820945 -1.84237 0
M  V30 2548 C 255.795 1.80866 -0.744761 0
M  V30 2549 O 257.001 2.56083 -0.901871 0
M  V30 2550 C 255.457 1.51072 -3.26658 0
M  V30 2551 C 255.065 0.563795 -4.44438 0
M  V30 2552 C 256.809 2.20134 -3.62962 0
M  V30 2553 C 254.716 1.25701 -5.77887 0
M  V30 2554 H 253.646 0.310328 -0.687177 0
M  V30 2555 H 256.297 0.0737134 -1.83352 0
M  V30 2556 H 254.679 2.30471 -3.22024 0
M  V30 2557 H 255.853 -0.197247 -4.60378 0
M  V30 2558 H 254.168 -0.0200638 -4.16395 0
M  V30 2559 H 256.765 2.72696 -4.59936 0
M  V30 2560 H 257.108 2.98107 -2.90582 0
M  V30 2561 H 257.641 1.47619 -3.69396 0
M  V30 2562 H 254.38 0.518493 -6.53446 0
M  V30 2563 H 253.9 1.98997 -5.65827 0
M  V30 2564 H 255.579 1.78915 -6.2177 0
M  V30 2565 N 255.711 1.52812 0.385517 0
M  V30 2566 C 256.644 1.72592 1.49289 0
M  V30 2567 C 257.622 0.573819 1.52138 0
M  V30 2568 O 258.806 0.80404 1.70492 0
M  V30 2569 C 255.933 1.78669 2.87741 0
M  V30 2570 C 254.979 3.00455 3.02703 0
M  V30 2571 S 255.812 4.60366 2.73538 0
M  V30 2572 C 256.968 4.69263 4.14177 0
M  V30 2573 H 257.201 2.66248 1.32285 0
M  V30 2574 H 254.734 1.43148 0.578611 0
M  V30 2575 H 256.692 1.82855 3.67524 0
M  V30 2576 H 255.353 0.861 3.02069 0
M  V30 2577 H 254.546 3.01258 4.04054 0
M  V30 2578 H 254.148 2.94278 2.30817 0
M  V30 2579 H 256.44 4.48092 5.08153 0
M  V30 2580 H 257.383 5.71276 4.18388 0
M  V30 2581 H 257.791 3.98072 4.00249 0
M  V30 2582 N 257.189 -0.644168 1.43834 0
M  V30 2583 C 258.414 -1.43642 1.49605 0
M  V30 2584 C 258.839 -1.8773 0.117913 0
M  V30 2585 O 258.197 -1.57938 -0.890239 0
M  V30 2586 C 258.245 -2.6416 2.45463 0
M  V30 2587 O 257.349 -3.63538 1.94714 0
M  V30 2588 H 256.69 -0.430329 0.50568 0
M  V30 2589 H 259.22 -0.787448 1.8884 0
M  V30 2590 H 259.23 -3.11864 2.63068 0
M  V30 2591 H 257.905 -2.31414 3.45572 0
M  V30 2592 H 256.482 -3.2273 1.86814 0
M  V30 2593 N 258.668 -1.30515 -0.883378 0
M  V30 2594 C 259.6 -1.12846 -1.99496 0
M  V30 2595 C 260.613 -0.0712571 -1.62644 0
M  V30 2596 O 261.802 -0.317432 -1.75655 0
M  V30 2597 C 258.902 -0.699123 -3.3161 0
M  V30 2598 C 258.075 -1.83842 -3.96889 0
M  V30 2599 C 257.134 -1.39737 -5.07307 0
M  V30 2600 O 256.16 -2.10485 -5.28852 0
M  V30 2601 N 257.362 -0.277279 -5.79837 0
M  V30 2602 H 260.127 -2.08585 -2.15203 0
M  V30 2603 H 257.688 -1.22672 -1.05656 0
M  V30 2604 H 259.68 -0.387044 -4.02845 0
M  V30 2605 H 258.25 0.166276 -3.12157 0
M  V30 2606 H 257.47 -2.31853 -3.18807 0
M  V30 2607 H 258.758 -2.60187 -4.37241 0
M  V30 2608 H 258.156 0.3122 -5.64838 0
M  V30 2609 H 256.713 -0.0246623 -6.51795 0
M  V30 2610 N 260.146 1.09593 -1.13257 0
M  V30 2611 C 261.392 1.82181 -0.904521 0
M  V30 2612 C 261.747 1.83967 0.563358 0
M  V30 2613 O 261.04 1.29566 1.41149 0
M  V30 2614 C 261.234 3.27802 -1.42411 0
M  V30 2615 C 261.063 3.40201 -2.94097 0
M  V30 2616 C 259.833 3.52104 -3.62424 0
M  V30 2617 C 262.031 3.32875 -3.92044 0
M  V30 2618 N 260.013 3.53169 -5.0214 0
M  V30 2619 C 261.384 3.40789 -5.17941 0
M  V30 2620 C 263.439 3.16531 -3.84334 0
M  V30 2621 C 262.142 3.34042 -6.37031 0
M  V30 2622 C 264.168 3.11109 -5.02956 0
M  V30 2623 C 263.53 3.19614 -6.27715 0
M  V30 2624 H 259.629 0.681015 -0.384373 0
M  V30 2625 H 262.213 1.3099 -1.44048 0
M  V30 2626 H 260.384 3.77466 -0.915086 0
M  V30 2627 H 262.116 3.88393 -1.13722 0
M  V30 2628 H 258.871 3.5548 -3.12939 0
M  V30 2629 H 259.295 3.57291 -5.75041 0
M  V30 2630 H 263.937 3.08827 -2.88766 0
M  V30 2631 H 261.655 3.4051 -7.32857 0
M  V30 2632 H 265.241 2.99601 -4.98729 0
M  V30 2633 H 264.121 3.15432 -7.17964 0
M  V30 2634 N 261.624 0.925811 1.2754 0
M  V30 2635 C 262.87 0.575575 1.95086 0
M  V30 2636 C 263.225 -0.873246 1.71441 0
M  V30 2637 O 262.518 -1.61443 1.03183 0
M  V30 2638 C 262.712 0.835296 3.47502 0
M  V30 2639 C 262.541 2.30781 3.85967 0
M  V30 2640 C 261.311 2.96017 4.09514 0
M  V30 2641 C 263.509 3.28519 3.95702 0
M  V30 2642 N 261.491 4.3344 4.34744 0
M  V30 2643 C 262.862 4.51146 4.25285 0
M  V30 2644 C 264.917 3.23753 3.7827 0
M  V30 2645 C 263.62 5.69606 4.39251 0
M  V30 2646 C 265.646 4.41523 3.9346 0
M  V30 2647 C 265.008 5.62928 4.23428 0
M  V30 2648 H 261.107 0.260711 0.737261 0
M  V30 2649 H 263.691 1.19204 1.53943 0
M  V30 2650 H 261.862 0.248005 3.87607 0
M  V30 2651 H 263.594 0.447878 4.02214 0
M  V30 2652 H 260.349 2.46695 4.04275 0
M  V30 2653 H 260.773 5.04528 4.5142 0
M  V30 2654 H 265.415 2.3096 3.54143 0
M  V30 2655 H 263.133 6.62866 4.62205 0
M  V30 2656 H 266.719 4.39351 3.81394 0
M  V30 2657 H 265.599 6.52538 4.34929 0
M  V30 2658 N 263.102 -1.41638 0.69111 0
M  V30 2659 C 264.518 -1.55435 0.362224 0
M  V30 2660 C 264.718 -1.66754 -1.13117 0
M  V30 2661 O 263.774 -1.64348 -1.91692 0
M  V30 2662 C 265.087 -2.79588 1.10684 0
M  V30 2663 C 266.635 -2.9338 1.09075 0
M  V30 2664 C 267.11 -4.20414 1.81703 0
M  V30 2665 N 268.601 -4.27362 1.7865 0
M  V30 2666 C 269.336 -5.24507 2.31689 0
M  V30 2667 N 268.832 -6.27708 2.93179 0
M  V30 2668 N 270.625 -5.16416 2.2197 0
M  V30 2669 H 262.776 -1.32536 1.65976 0
M  V30 2670 H 265.039 -0.639115 0.700168 0
M  V30 2671 H 264.745 -2.77419 2.16175 0
M  V30 2672 H 264.619 -3.70973 0.682545 0
M  V30 2673 H 267.006 -2.95067 0.0441238 0
M  V30 2674 H 267.087 -2.0318 1.55407 0
M  V30 2675 H 266.731 -4.19488 2.86343 0
M  V30 2676 H 266.661 -5.09578 1.32808 0
M  V30 2677 H 269.152 -3.53415 1.33815 0
M  V30 2678 H 269.465 -6.98217 3.31229 0
M  V30 2679 H 267.81 -6.28223 2.97255 0
M  V30 2680 H 271.001 -4.34716 1.73607 0
M  V30 2681 H 271.174 -5.91958 2.63609 0
M  V30 2682 N 264.58 -0.43555 -1.51462 0
M  V30 2683 C 265.826 0.131709 -2.02372 0
M  V30 2684 C 266.159 1.42516 -1.3192 0
M  V30 2685 O 265.434 1.89606 -0.433573 0
M  V30 2686 C 265.717 0.352301 -3.58373 0
M  V30 2687 C 265.57 -0.959676 -4.39443 0
M  V30 2688 C 266.889 1.12286 -4.25535 0
M  V30 2689 H 264.008 0.0463936 -0.735538 0
M  V30 2690 H 266.65 -0.574197 -1.81116 0
M  V30 2691 H 264.8 0.9536 -3.76615 0
M  V30 2692 H 266.472 -1.59482 -4.32855 0
M  V30 2693 H 264.715 -1.56468 -4.04599 0
M  V30 2694 H 265.386 -0.759394 -5.46752 0
M  V30 2695 H 267.862 0.613545 -4.11552 0
M  V30 2696 H 266.738 1.24598 -5.34571 0
M  V30 2697 H 266.999 2.15048 -3.86273 0
M  V30 2698 N 266.058 1.56714 -0.166846 0
M  V30 2699 C 267.306 1.96358 0.478305 0
M  V30 2700 C 267.627 1.0537 1.6408 0
M  V30 2701 O 266.897 0.119154 1.95537 0
M  V30 2702 H 265.477 0.725065 0.179692 0
M  V30 2703 H 268.139 1.93329 -0.246985 0
M  V30 2704 H 267.235 3.00547 0.841292 0
M  V30 2705 N 267.536 -0.106894 1.57237 0
M  V30 2706 C 268.499 -1.11466 2.0027 0
M  V30 2707 C 269.499 -1.33623 0.894519 0
M  V30 2708 O 270.689 -1.29935 1.16028 0
M  V30 2709 C 267.821 -2.46646 2.35327 0
M  V30 2710 H 269.014 -0.744516 2.90512 0
M  V30 2711 H 266.567 -0.351576 1.52295 0
M  V30 2712 H 267.302 -2.88558 1.48003 0
M  V30 2713 H 267.087 -2.31915 3.16161 0
M  V30 2714 H 268.577 -3.19151 2.69318 0
M  V30 2715 N 269.014 -1.53014 -0.377408 0
M  V30 2716 C 270.291 -1.59215 -1.13622 0
M  V30 2717 C 270.671 -0.392407 -2.07421 0
M  V30 2718 O 270.019 0.618342 -2.19975 0
M  V30 2719 C 270.229 -2.93669 -1.88573 0
M  V30 2720 C 271.577 -3.47822 -2.43526 0
M  V30 2721 O 272.601 -2.9562 -1.98715 0
M  V30 2722 O 271.46 -4.39055 -3.25412 0
M  V30 2723 H 268.554 -0.642625 -0.52054 0
M  V30 2724 H 271.1 -1.65353 -0.381625 0
M  V30 2725 H 269.872 -3.7243 -1.20048 0
M  V30 2726 H 269.495 -2.90968 -2.70968 0
M  V30 2727 N 270.492 0.636531 -1.44174 0
M  V30 2728 C 271.455 1.73063 -1.50273 0
M  V30 2729 C 272.455 1.56113 -0.385397 0
M  V30 2730 O 273.645 1.61707 -0.64781 0
M  V30 2731 C 270.777 3.12096 -1.37145 0
M  V30 2732 H 271.97 1.69031 -2.47727 0
M  V30 2733 H 269.523 0.849706 -1.31186 0
M  V30 2734 H 270.258 3.21728 -0.407636 0
M  V30 2735 H 270.043 3.25805 -2.18159 0
M  V30 2736 H 271.533 3.91846 -1.44382 0
M  V30 2737 N 271.97 1.30982 0.876444 0
M  V30 2738 C 272.88 1.2003 2.01569 0
M  V30 2739 C 273.896 0.11838 1.73597 0
M  V30 2740 O 275.072 0.33495 1.98595 0
M  V30 2741 C 272.137 0.901637 3.34771 0
M  V30 2742 C 271.198 2.06979 3.76109 0
M  V30 2743 C 270.431 1.78529 5.02954 0
M  V30 2744 O 270.654 0.717296 5.65872 0
M  V30 2745 O 269.588 2.64019 5.40905 0
M  V30 2746 H 273.414 2.15753 2.13739 0
M  V30 2747 H 270.999 1.10658 1.00375 0
M  V30 2748 H 272.881 0.750645 4.1466 0
M  V30 2749 H 271.556 -0.0256141 3.2369 0
M  V30 2750 H 270.463 2.27616 2.96887 0
M  V30 2751 H 271.796 2.97907 3.91807 0
M  V30 2752 N 273.449 -1.08991 1.13837 0
M  V30 2753 C 274.412 -2.13925 0.822715 0
M  V30 2754 C 275.412 -1.599 -0.1699 0
M  V30 2755 O 276.602 -1.74104 0.0577251 0
M  V30 2756 C 273.734 -3.40155 0.225318 0
M  V30 2757 H 274.927 -2.43358 1.75262 0
M  V30 2758 H 272.48 -1.24603 0.943594 0
M  V30 2759 H 273.215 -3.16352 -0.713594 0
M  V30 2760 H 273 -3.80661 0.940193 0
M  V30 2761 H 274.49 -4.17594 0.0214784 0
M  V30 2762 N 274.927 -0.932562 -1.27047 0
M  V30 2763 C 275.859 -0.392734 -2.2581 0
M  V30 2764 C 276.872 0.479241 -1.55586 0
M  V30 2765 O 278.061 0.291078 -1.76111 0
M  V30 2766 C 275.161 0.455456 -3.35826 0
M  V30 2767 C 274.334 -0.398355 -4.35582 0
M  V30 2768 C 273.393 0.387985 -5.24768 0
M  V30 2769 O 272.419 -0.206003 -5.68827 0
M  V30 2770 N 273.621 1.68664 -5.55457 0
M  V30 2771 H 276.386 -1.24173 -2.72766 0
M  V30 2772 H 273.947 -0.800511 -1.40725 0
M  V30 2773 H 275.939 0.988692 -3.92437 0
M  V30 2774 H 274.509 1.20522 -2.88432 0
M  V30 2775 H 273.729 -1.11286 -3.78165 0
M  V30 2776 H 275.017 -0.981889 -4.99236 0
M  V30 2777 H 274.415 2.19147 -5.21528 0
M  V30 2778 H 272.972 2.1663 -6.14748 0
M  V30 2779 N 276.405 1.4127 -0.698611 0
M  V30 2780 C 277.821 1.55241 -0.370462 0
M  V30 2781 C 278.021 1.67351 1.12231 0
M  V30 2782 O 277.077 1.65363 1.90818 0
M  V30 2783 C 278.39 2.78997 -1.12165 0
M  V30 2784 C 279.938 2.92797 -1.1063 0
M  V30 2785 C 280.413 4.19445 -1.8393 0
M  V30 2786 N 281.904 4.26409 -1.80914 0
M  V30 2787 C 282.639 5.23271 -2.34467 0
M  V30 2788 N 282.135 6.26145 -2.96504 0
M  V30 2789 N 283.928 5.15232 -2.24706 0
M  V30 2790 H 276.079 1.31654 -1.66676 0
M  V30 2791 H 278.342 0.635393 -0.703548 0
M  V30 2792 H 278.048 2.76268 -2.17644 0
M  V30 2793 H 277.922 3.70606 -0.702209 0
M  V30 2794 H 280.309 2.95039 -0.0597713 0
M  V30 2795 H 280.39 2.02353 -1.56483 0
M  V30 2796 H 280.034 4.17964 -2.88563 0
M  V30 2797 H 279.964 5.08866 -1.35509 0
M  V30 2798 H 282.455 3.527 -1.35687 0
M  V30 2799 H 282.768 6.96451 -3.34927 0
M  V30 2800 H 281.113 6.26638 -3.00583 0
M  V30 2801 H 284.304 4.33789 -1.7591 0
M  V30 2802 H 284.477 5.90552 -2.66745 0
M  V30 2803 N 277.883 0.443576 1.51229 0
M  V30 2804 C 279.123 -0.119889 2.04048 0
M  V30 2805 C 279.487 -1.39418 1.32009 0
M  V30 2806 O 280.688 -2.03829 1.75235 0
M  V30 2807 C 278.959 -0.327233 3.55899 0
M  V30 2808 S 280.518 -0.853208 4.30425 0
M  V30 2809 H 277.336 -0.028921 0.710412 0
M  V30 2810 H 279.938 0.604413 1.85922 0
M  V30 2811 H 278.642 0.606445 4.05895 0
M  V30 2812 H 278.173 -1.07844 3.7833 0
M  V30 2813 H 280.188 -2.13005 4.48155 0
M  V30 2814 N 279.361 -1.56624 0.175154 0
M  V30 2815 C 280.311 -2.14747 -0.766004 0
M  V30 2816 C 281.295 -1.08275 -1.19018 0
M  V30 2817 O 282.487 -1.34388 -1.15191 0
M  V30 2818 C 279.616 -2.79478 -1.99366 0
M  V30 2819 C 278.702 -3.93114 -1.5913 0
M  V30 2820 N 279.093 -4.97752 -0.89872 0
M  V30 2821 C 277.391 -4.04345 -1.88204 0
M  V30 2822 C 278.092 -5.77473 -0.700012 0
M  V30 2823 N 277.068 -5.29207 -1.24263 0
M  V30 2824 H 280.87 -2.93015 -0.22793 0
M  V30 2825 H 278.384 -1.6238 -0.0253843 0
M  V30 2826 H 280.381 -3.19498 -2.67818 0
M  V30 2827 H 279.041 -2.02692 -2.53665 0
M  V30 2828 H 280.052 -5.14903 -0.556347 0
M  V30 2829 H 276.729 -3.38667 -2.44153 0
M  V30 2830 H 278.119 -6.71728 -0.152047 0
M  V30 2831 N 280.839 0.0985539 -1.57292 0
M  V30 2832 C 282.064 0.820196 -1.90493 0
M  V30 2833 C 282.489 1.71658 -0.769094 0
M  V30 2834 O 281.847 1.79133 0.279495 0
M  V30 2835 C 281.895 1.61242 -3.22542 0
M  V30 2836 O 280.999 2.72108 -3.09888 0
M  V30 2837 H 280.34 0.225547 -0.62452 0
M  V30 2838 H 282.87 0.0748159 -2.04463 0
M  V30 2839 H 282.88 1.99737 -3.55766 0
M  V30 2840 H 281.555 0.954535 -4.04798 0
M  V30 2841 H 280.132 2.36667 -2.88172 0
M  V30 2842 N 282.317 1.53212 0.369288 0
M  V30 2843 C 283.265 1.80054 1.47253 0
M  V30 2844 C 284.259 0.669456 1.55611 0
M  V30 2845 O 285.465 0.852328 1.58541 0
M  V30 2846 H 281.84 0.570034 0.490475 0
M  V30 2847 H 283.811 2.72403 1.21817 0
M  V30 2848 C 282.56 2.00403 2.84137 0
M  V30 2849 H 281.883 2.86876 2.78464 0
M  V30 2850 H 283.323 2.23164 3.60519 0
M  V30 2851 C 281.782 0.782081 3.27697 0
M  V30 2852 O 282.312 -0.0310205 4.01688 0
M  V30 2853 N 280.518 0.606573 2.84199 0
M  V30 2854 H 280.065 1.26939 2.24152 0
M  V30 2855 H 280.023 -0.20962 3.137 0
M  V30 2856 N 283.795 -0.628877 1.44509 0
M  V30 2857 C 285.206 -1.21054 1.42137 0
M  V30 2858 C 285.557 -1.95715 0.137881 0
M  V30 2859 O 284.682 -2.02554 -0.761645 0
M  V30 2860 C 285.277 -2.20189 2.57493 0
M  V30 2861 C 283.836 -2.73777 2.58308 0
M  V30 2862 C 282.983 -1.48813 2.33987 0
M  V30 2863 H 285.934 -0.41942 1.53057 0
M  V30 2864 H 285.955 -3.02833 2.30375 0
M  V30 2865 H 285.467 -1.6582 3.50892 0
M  V30 2866 H 283.568 -3.32142 1.68856 0
M  V30 2867 H 283.681 -3.19662 3.56865 0
M  V30 2868 H 282.045 -1.77024 1.83124 0
M  V30 2869 H 282.828 -0.963442 3.29504 0
M  V30 2870 N 285.273 -1.31445 -0.869486 0
M  V30 2871 C 286.689 -1.10113 -1.15531 0
M  V30 2872 C 286.889 0.128087 -2.01092 0
M  V30 2873 O 285.945 0.817276 -2.38908 0
M  V30 2874 C 287.258 -2.37291 -1.84698 0
M  V30 2875 C 288.806 -2.42906 -1.97397 0
M  V30 2876 C 289.281 -3.69967 -2.69979 0
M  V30 2877 N 290.772 -3.70864 -2.77514 0
M  V30 2878 C 291.507 -4.65875 -3.34287 0
M  V30 2879 N 291.003 -5.71242 -3.91988 0
M  V30 2880 N 292.796 -4.53394 -3.3225 0
M  V30 2881 H 284.947 -2.1028 -0.299347 0
M  V30 2882 H 287.21 -0.927683 -0.195214 0
M  V30 2883 H 286.916 -3.27078 -1.29278 0
M  V30 2884 H 286.79 -2.47125 -2.84972 0
M  V30 2885 H 289.177 -1.53588 -2.51982 0
M  V30 2886 H 289.258 -2.37036 -0.961643 0
M  V30 2887 H 288.902 -4.59652 -2.16062 0
M  V30 2888 H 288.832 -3.73103 -3.7162 0
M  V30 2889 H 291.323 -2.94697 -2.36563 0
M  V30 2890 H 291.636 -6.39817 -4.33421 0
M  V30 2891 H 289.981 -5.75015 -3.90362 0
M  V30 2892 H 293.172 -3.70252 -2.8641 0
M  V30 2893 H 293.345 -5.27617 -3.76197 0
M  V30 2894 N 286.751 1.08385 -1.14413 0
M  V30 2895 C 287.991 1.8238 -0.922868 0
M  V30 2896 C 288.355 1.84225 0.540842 0
M  V30 2897 O 289.556 2.53985 0.880058 0
M  V30 2898 C 287.827 3.24048 -1.50757 0
M  V30 2899 S 289.386 4.14917 -1.4279 0
M  V30 2900 H 286.204 0.628524 -0.332384 0
M  V30 2901 H 288.806 1.30278 -1.45766 0
M  V30 2902 H 287.51 3.20288 -2.56601 0
M  V30 2903 H 287.041 3.81224 -0.971178 0
M  V30 2904 H 289.056 4.94473 -0.413582 0
M  V30 2905 N 288.23 0.939286 1.26551 0
M  V30 2906 C 289.47 0.5933 1.956 0
M  V30 2907 C 289.834 -0.851515 1.72085 0
M  V30 2908 O 291.035 -1.30634 2.34921 0
M  V30 2909 C 289.306 0.923996 3.45249 0
M  V30 2910 S 290.865 0.688269 4.33369 0
M  V30 2911 H 287.683 0.218591 0.676564 0
M  V30 2912 H 290.285 1.2102 1.5354 0
M  V30 2913 H 288.989 1.97297 3.59864 0
M  V30 2914 H 288.52 0.296746 3.92279 0
M  V30 2915 H 290.535 -0.448434 4.9417 0
M  V30 2916 N 289.708 -1.40897 0.706093 0
M  V30 2917 C 290.671 -2.29131 0.0562841 0
M  V30 2918 C 291.671 -1.44901 -0.697166 0
M  V30 2919 O 292.861 -1.65926 -0.530484 0
M  V30 2920 C 289.993 -3.27957 -0.93043 0
M  V30 2921 H 291.186 -2.88091 0.833284 0
M  V30 2922 H 288.739 -1.4906 0.470192 0
M  V30 2923 H 289.474 -2.73997 -1.73482 0
M  V30 2924 H 289.259 -3.90124 -0.393166 0
M  V30 2925 H 290.749 -3.94049 -1.38256 0
M  V30 2926 N 291.186 -0.45159 -1.50991 0
M  V30 2927 C 292.433 0.110074 -2.02201 0
M  V30 2928 C 292.761 1.4146 -1.33489 0
M  V30 2929 O 292.016 1.90617 -0.443125 0
M  V30 2930 C 292.315 0.361728 -3.55565 0
M  V30 2931 C 291.981 -0.858717 -4.42648 0
M  V30 2932 C 290.643 -1.19338 -4.66167 0
M  V30 2933 C 292.995 -1.67221 -4.93646 0
M  V30 2934 C 290.323 -2.34195 -5.37931 0
M  V30 2935 C 292.675 -2.8119 -5.6667 0
M  V30 2936 C 291.339 -3.15094 -5.88449 0
M  V30 2937 H 290.609 0.040279 -0.739904 0
M  V30 2938 H 293.256 -0.601696 -1.81802 0
M  V30 2939 H 291.561 1.15554 -3.74372 0
M  V30 2940 H 293.258 0.80996 -3.92735 0
M  V30 2941 H 289.848 -0.58796 -4.24548 0
M  V30 2942 H 294.032 -1.42686 -4.75347 0
M  V30 2943 H 289.288 -2.6076 -5.53005 0
M  V30 2944 H 293.462 -3.44585 -6.05173 0
M  V30 2945 H 291.089 -4.04204 -6.43835 0
M  V30 2946 N 292.664 1.56529 -0.183458 0
M  V30 2947 C 293.627 2.17324 0.728223 0
M  V30 2948 C 294.627 1.12453 1.14939 0
M  V30 2949 O 295.817 1.37902 1.06437 0
M  V30 2950 C 292.949 2.76591 1.99274 0
M  V30 2951 H 294.142 2.99241 0.198772 0
M  V30 2952 H 291.695 1.5616 0.0661391 0
M  V30 2953 H 292.43 1.98441 2.56499 0
M  V30 2954 H 292.215 3.5335 1.69959 0
M  V30 2955 H 293.705 3.23311 2.6431 0
M  V30 2956 N 294.142 -0.090211 1.57342 0
M  V30 2957 C 295.367 -0.810082 1.90925 0
M  V30 2958 C 295.792 -1.71248 0.778187 0
M  V30 2959 O 295.15 -1.79278 -0.269991 0
M  V30 2960 C 295.198 -1.59529 3.23393 0
M  V30 2961 O 294.302 -2.70461 3.11327 0
M  V30 2962 H 293.643 -0.222231 0.625707 0
M  V30 2963 H 296.173 -0.0639716 2.045 0
M  V30 2964 H 296.183 -1.97847 3.5682 0
M  V30 2965 H 294.858 -0.933055 4.05299 0
M  V30 2966 H 293.435 -2.35135 2.89423 0
M  V30 2967 N 295.62 -1.53406 -0.361157 0
M  V30 2968 C 296.568 -1.80832 -1.46296 0
M  V30 2969 C 297.562 -0.677699 -1.55253 0
M  V30 2970 O 298.768 -0.860723 -1.58087 0
M  V30 2971 H 295.143 -0.572627 -0.487445 0
M  V30 2972 H 297.114 -2.73045 -1.20371 0
M  V30 2973 C 295.863 -2.01907 -2.8307 0
M  V30 2974 H 295.186 -2.88349 -2.76938 0
M  V30 2975 H 296.626 -2.25072 -3.59331 0
M  V30 2976 C 295.085 -0.799449 -3.27277 0
M  V30 2977 O 295.615 0.00971761 -4.01699 0
M  V30 2978 N 293.821 -0.621637 -2.83873 0
M  V30 2979 H 293.368 -1.28126 -2.23476 0
M  V30 2980 H 293.326 0.19298 -3.13807 0
M  V30 2981 N 297.098 0.621204 -1.44841 0
M  V30 2982 C 298.031 1.7459 -1.46947 0
M  V30 2983 C 299.009 1.59273 -0.327238 0
M  V30 2984 O 300.193 1.81021 -0.525706 0
M  V30 2985 C 297.32 3.12274 -1.31159 0
M  V30 2986 C 296.366 3.46216 -2.49072 0
M  V30 2987 S 297.199 3.4258 -4.11581 0
M  V30 2988 C 298.355 4.82867 -3.98233 0
M  V30 2989 H 298.588 1.72538 -2.42111 0
M  V30 2990 H 296.121 0.796683 -1.32259 0
M  V30 2991 H 298.079 3.91722 -1.22737 0
M  V30 2992 H 296.74 3.11855 -0.374885 0
M  V30 2993 H 295.933 4.4643 -2.33915 0
M  V30 2994 H 295.535 2.74253 -2.54286 0
M  V30 2995 H 297.827 5.7234 -3.62537 0
M  V30 2996 H 298.77 5.0308 -4.98313 0
M  V30 2997 H 299.178 4.57908 -3.30121 0
M  V30 2998 N 298.576 1.31904 0.862503 0
M  V30 2999 C 299.987 1.19803 1.43193 0
M  V30 3000 C 300.338 -0.192567 1.95253 0
M  V30 3001 O 299.463 -1.09081 1.86896 0
M  V30 3002 C 300.058 2.16883 2.60283 0
M  V30 3003 C 298.617 2.08692 3.13248 0
M  V30 3004 C 297.764 2.05691 1.85975 0
M  V30 3005 H 300.715 1.43846 0.670365 0
M  V30 3006 H 300.736 1.76278 3.37204 0
M  V30 3007 H 300.248 3.18083 2.22363 0
M  V30 3008 H 298.349 1.10713 3.55771 0
M  V30 3009 H 298.462 2.9815 3.75025 0
M  V30 3010 H 296.826 1.50814 2.05249 0
M  V30 3011 H 297.609 3.08659 1.50282 0
M  V30 3012 N 300.054 -1.07777 1.14986 0
M  V30 3013 C 301.284 -1.83752 0.944402 0
M  V30 3014 C 301.692 -1.8218 -0.51058 0
M  V30 3015 O 301.035 -1.22852 -1.36576 0
M  V30 3016 C 301.097 -3.32128 1.37592 0
M  V30 3017 C 300.761 -3.57425 2.84775 0
M  V30 3018 C 301.758 -3.5173 3.8286 0
M  V30 3019 C 299.443 -3.8523 3.2234 0
M  V30 3020 C 301.437 -3.73482 5.16517 0
M  V30 3021 C 299.124 -4.06634 4.56171 0
M  V30 3022 C 300.122 -4.00754 5.53069 0
M  V30 3023 O 299.81 -4.2159 6.84483 0
M  V30 3024 H 299.542 -0.58673 0.335744 0
M  V30 3025 H 302.096 -1.36982 1.53052 0
M  V30 3026 H 300.326 -3.79686 0.733165 0
M  V30 3027 H 302.015 -3.89555 1.14024 0
M  V30 3028 H 302.781 -3.30256 3.55184 0
M  V30 3029 H 298.66 -3.88923 2.47508 0
M  V30 3030 H 302.204 -3.68808 5.92137 0
M  V30 3031 H 298.101 -4.27593 4.83564 0
M  V30 3032 H 298.869 -4.38961 6.90837 0
M  V30 3033 N 301.532 -0.945985 -1.26051 0
M  V30 3034 C 302.778 -0.597002 -1.93814 0
M  V30 3035 C 303.111 0.862484 -1.73997 0
M  V30 3036 O 302.386 1.61769 -1.07986 0
M  V30 3037 C 302.669 -0.945937 -3.47454 0
M  V30 3038 C 302.522 -2.46052 -3.76535 0
M  V30 3039 C 303.841 -0.464785 -4.37639 0
M  V30 3040 H 300.96 -0.218366 -0.703907 0
M  V30 3041 H 303.602 -1.18107 -1.48831 0
M  V30 3042 H 301.752 -0.448902 -3.85898 0
M  V30 3043 H 303.424 -3.03065 -3.47778 0
M  V30 3044 H 301.667 -2.90194 -3.22444 0
M  V30 3045 H 302.338 -2.65517 -4.83947 0
M  V30 3046 H 304.814 -0.891016 -4.06448 0
M  V30 3047 H 303.69 -0.737712 -5.4392 0
M  V30 3048 H 303.951 0.635274 -4.37512 0
M  V30 3049 N 303.011 1.40521 -0.713556 0
M  V30 3050 C 303.941 2.33381 -0.0743864 0
M  V30 3051 C 304.922 1.52784 0.747735 0
M  V30 3052 O 306.107 1.81258 0.697071 0
M  V30 3053 C 303.237 3.36748 0.849598 0
M  V30 3054 C 302.191 4.27793 0.133247 0
M  V30 3055 C 301.517 5.21679 1.17281 0
M  V30 3056 C 302.817 5.12415 -1.01134 0
M  V30 3057 H 304.511 2.87081 -0.850007 0
M  V30 3058 H 302.057 1.38034 -0.410201 0
M  V30 3059 H 304.01 4.00648 1.30612 0
M  V30 3060 H 302.734 2.81439 1.65709 0
M  V30 3061 H 301.393 3.65342 -0.303426 0
M  V30 3062 H 301.041 4.62677 1.9733 0
M  V30 3063 H 300.741 5.83435 0.698397 0
M  V30 3064 H 302.265 5.88456 1.62947 0
M  V30 3065 H 303.679 5.69781 -0.634274 0
M  V30 3066 H 302.076 5.83203 -1.41399 0
M  V30 3067 H 303.146 4.48514 -1.84292 0
M  V30 3068 N 304.489 0.459591 1.5075 0
M  V30 3069 C 305.419 -0.330644 2.31147 0
M  V30 3070 C 306.4 -1.00087 1.37538 0
M  V30 3071 O 307.585 -1.00025 1.66459 0
M  V30 3072 C 304.715 -1.41958 3.16962 0
M  V30 3073 C 303.669 -0.871608 4.19031 0
M  V30 3074 C 302.995 -2.05797 4.9351 0
M  V30 3075 C 304.295 0.109251 5.22186 0
M  V30 3076 H 305.989 0.340336 2.97459 0
M  V30 3077 H 303.535 0.165119 1.4305 0
M  V30 3078 H 305.488 -1.9798 3.71997 0
M  V30 3079 H 304.212 -2.11917 2.48513 0
M  V30 3080 H 302.871 -0.333442 3.6508 0
M  V30 3081 H 302.519 -2.74427 4.21544 0
M  V30 3082 H 302.219 -1.6976 5.62544 0
M  V30 3083 H 303.743 -2.62331 5.51375 0
M  V30 3084 H 305.157 -0.361405 5.7216 0
M  V30 3085 H 303.554 0.383316 5.98875 0
M  V30 3086 H 304.624 1.03887 4.73641 0
M  V30 3087 N 305.967 -1.56429 0.191757 0
M  V30 3088 C 307.192 -2.02309 -0.456706 0
M  V30 3089 C 307.617 -1.07103 -1.5463 0
M  V30 3090 O 306.975 -0.0539677 -1.8122 0
M  V30 3091 C 307.023 -3.46654 -0.993159 0
M  V30 3092 O 306.127 -3.54559 -2.10622 0
M  V30 3093 H 305.468 -0.655303 -0.107114 0
M  V30 3094 H 307.998 -2.02364 0.301653 0
M  V30 3095 H 308.008 -3.86377 -1.31061 0
M  V30 3096 H 306.683 -4.1544 -0.195504 0
M  V30 3097 H 305.26 -3.26708 -1.79767 0
M  V30 3098 N 307.445 0.0818655 -1.57387 0
M  V30 3099 C 308.67 0.799946 -1.91352 0
M  V30 3100 C 309.095 1.70833 -0.787258 0
M  V30 3101 O 308.453 1.79419 0.26048 0
M  V30 3102 C 308.501 1.57812 -3.24234 0
M  V30 3103 O 307.605 2.68806 -3.12757 0
M  V30 3104 H 306.946 0.21891 -0.626877 0
M  V30 3105 H 309.476 0.0531256 -2.04531 0
M  V30 3106 H 309.486 1.95952 -3.57864 0
M  V30 3107 H 308.161 0.911548 -4.05788 0
M  V30 3108 H 306.738 2.33597 -2.90666 0
M  V30 3109 N 308.923 1.53595 0.353017 0
M  V30 3110 C 310.148 1.7462 1.11904 0
M  V30 3111 C 310.573 0.479721 1.8188 0
M  V30 3112 O 309.931 -0.567066 1.72204 0
M  V30 3113 C 309.979 2.92029 2.11545 0
M  V30 3114 O 309.083 2.61516 3.18878 0
M  V30 3115 H 308.424 0.579531 0.324099 0
M  V30 3116 H 310.954 2.00525 0.406301 0
M  V30 3117 H 310.964 3.18551 2.5493 0
M  V30 3118 H 309.639 3.83888 1.60008 0
M  V30 3119 H 308.216 2.45852 2.80377 0
M  V30 3120 N 310.401 -0.613514 1.45168 0
M  V30 3121 C 311.647 -1.37471 1.49096 0
M  V30 3122 C 311.98 -1.93765 0.129901 0
M  V30 3123 O 311.255 -1.74707 -0.854858 0
M  V30 3124 C 311.538 -2.52701 2.56542 0
M  V30 3125 C 311.391 -2.01643 4.0207 0
M  V30 3126 C 312.71 -3.54849 2.60327 0
M  V30 3127 H 309.829 -0.498502 0.54283 0
M  V30 3128 H 312.471 -0.692125 1.76945 0
M  V30 3129 H 310.621 -3.10931 2.32926 0
M  V30 3130 H 312.293 -1.48108 4.36877 0
M  V30 3131 H 310.536 -1.32688 4.13009 0
M  V30 3132 H 311.207 -2.84681 4.72928 0
M  V30 3133 H 313.683 -3.0645 2.81474 0
M  V30 3134 H 312.559 -4.32973 3.37381 0
M  V30 3135 H 312.82 -4.10079 1.6519 0
M  V30 3136 N 311.879 -1.3236 -0.855495 0
M  V30 3137 C 313.104 -1.2601 -1.64731 0
M  V30 3138 C 313.529 0.169068 -1.87339 0
M  V30 3139 O 312.887 1.12016 -1.42556 0
M  V30 3140 C 312.935 -2.02417 -2.98429 0
M  V30 3141 O 312.039 -1.3714 -3.8893 0
M  V30 3142 H 311.38 -0.434325 -0.502253 0
M  V30 3143 H 313.91 -1.74661 -1.06558 0
M  V30 3144 H 313.92 -2.12559 -3.48257 0
M  V30 3145 H 312.595 -3.06343 -2.81295 0
M  V30 3146 H 311.172 -1.3554 -3.47395 0
M  V30 3147 N 313.357 1.07166 -1.15556 0
M  V30 3148 C 314.604 1.79798 -0.931604 0
M  V30 3149 C 314.932 1.8682 0.54115 0
M  V30 3150 O 314.187 1.34942 1.41736 0
M  V30 3151 C 314.486 3.24707 -1.49332 0
M  V30 3152 C 314.152 3.37781 -2.98688 0
M  V30 3153 C 312.814 3.41057 -3.39461 0
M  V30 3154 C 315.166 3.40424 -3.94665 0
M  V30 3155 C 312.494 3.4458 -4.74849 0
M  V30 3156 C 314.846 3.45485 -5.29927 0
M  V30 3157 C 313.51 3.47039 -5.70193 0
M  V30 3158 H 312.78 0.657928 -0.340898 0
M  V30 3159 H 315.427 1.26091 -1.44129 0
M  V30 3160 H 313.732 3.81208 -0.904859 0
M  V30 3161 H 315.429 3.79486 -1.29582 0
M  V30 3162 H 312.019 3.35932 -2.66172 0
M  V30 3163 H 316.203 3.37113 -3.64237 0
M  V30 3164 H 311.459 3.44083 -5.05388 0
M  V30 3165 H 315.633 3.46476 -6.04092 0
M  V30 3166 H 313.26 3.49522 -6.75084 0
M  V30 3167 N 314.835 0.952656 1.25548 0
M  V30 3168 C 316.065 0.622592 1.96996 0
M  V30 3169 C 316.473 -0.809112 1.71026 0
M  V30 3170 O 315.816 -1.55258 0.981861 0
M  V30 3171 C 315.878 0.798946 3.5051 0
M  V30 3172 C 315.542 2.20744 4.00151 0
M  V30 3173 C 316.539 3.18394 4.11001 0
M  V30 3174 C 314.224 2.5311 4.33867 0
M  V30 3175 C 316.218 4.46504 4.54877 0
M  V30 3176 C 313.905 3.8145 4.7743 0
M  V30 3177 C 314.903 4.77959 4.87897 0
M  V30 3178 O 314.591 6.04012 5.30494 0
M  V30 3179 H 314.323 0.232503 0.634758 0
M  V30 3180 H 316.877 1.2789 1.60728 0
M  V30 3181 H 315.107 0.0854903 3.86605 0
M  V30 3182 H 316.796 0.47023 4.03167 0
M  V30 3183 H 317.562 2.94715 3.85186 0
M  V30 3184 H 313.441 1.78719 4.24948 0
M  V30 3185 H 316.985 5.21835 4.62962 0
M  V30 3186 H 312.882 4.04936 5.0269 0
M  V30 3187 H 313.65 6.0736 5.48685 0
M  V30 3188 N 316.313 -1.40141 0.720998 0
M  V30 3189 C 317.243 -2.33339 0.0867621 0
M  V30 3190 C 318.224 -1.53178 -0.739622 0
M  V30 3191 O 319.409 -1.81625 -0.687449 0
M  V30 3192 C 316.539 -3.37194 -0.831728 0
M  V30 3193 C 315.493 -4.27857 -0.110558 0
M  V30 3194 C 314.819 -5.22294 -1.14513 0
M  V30 3195 C 316.119 -5.11872 1.0385 0
M  V30 3196 H 317.813 -2.86626 0.865219 0
M  V30 3197 H 315.359 -1.37814 0.417516 0
M  V30 3198 H 317.312 -4.01335 -1.28485 0
M  V30 3199 H 316.036 -2.82314 -1.64214 0
M  V30 3200 H 314.695 -3.65176 0.322797 0
M  V30 3201 H 314.343 -4.63717 -1.94874 0
M  V30 3202 H 314.043 -5.83797 -0.667446 0
M  V30 3203 H 315.567 -5.89312 -1.59824 0
M  V30 3204 H 316.981 -5.69436 0.664482 0
M  V30 3205 H 315.378 -5.82445 1.4449 0
M  V30 3206 H 316.448 -4.4753 1.86668 0
M  V30 3207 N 317.792 -0.46758 -1.50504 0
M  V30 3208 C 319.203 -0.0116166 -1.86696 0
M  V30 3209 C 319.554 1.39202 -1.38265 0
M  V30 3210 O 318.679 2.0313 -0.746132 0
M  V30 3211 C 319.274 -0.0143044 -3.38797 0
M  V30 3212 C 317.833 0.386175 -3.74414 0
M  V30 3213 C 316.98 -0.401287 -2.74381 0
M  V30 3214 H 319.931 -0.682022 -1.43297 0
M  V30 3215 H 319.952 0.788641 -3.72237 0
M  V30 3216 H 319.464 -1.03602 -3.74016 0
M  V30 3217 H 317.565 1.41237 -3.44794 0
M  V30 3218 H 317.678 0.0899596 -4.79016 0
M  V30 3219 H 316.042 0.144536 -2.5429 0
M  V30 3220 H 316.825 -1.42244 -3.12444 0
M  V30 3221 N 319.27 1.56325 -0.20005 0
M  V30 3222 C 320.2 2.22318 0.713916 0
M  V30 3223 C 321.181 1.18788 1.21752 0
M  V30 3224 O 322.366 1.47309 1.26545 0
M  V30 3225 C 319.496 2.88639 1.93144 0
M  V30 3226 C 318.45 3.98457 1.56255 0
M  V30 3227 C 317.776 4.51967 2.85709 0
M  V30 3228 C 319.076 5.16612 0.768747 0
M  V30 3229 H 320.77 2.98952 0.163755 0
M  V30 3230 H 318.316 1.43792 0.0773219 0
M  V30 3231 H 320.269 3.33491 2.57608 0
M  V30 3232 H 318.993 2.09419 2.50621 0
M  V30 3233 H 317.652 3.54305 0.941471 0
M  V30 3234 H 317.3 3.69503 3.41287 0
M  V30 3235 H 317 5.26071 2.6177 0
M  V30 3236 H 318.524 4.99523 3.51154 0
M  V30 3237 H 319.938 5.57977 1.3166 0
M  V30 3238 H 318.335 5.96812 0.627286 0
M  V30 3239 H 319.405 4.84358 -0.229168 0
M  V30 3240 N 320.748 -0.0735177 1.57428 0
M  V30 3241 C 321.678 -1.0879 2.06608 0
M  V30 3242 C 322.659 -1.40473 0.959237 0
M  V30 3243 O 323.844 -1.5013 1.23185 0
M  V30 3244 C 320.974 -2.40183 2.50857 0
M  V30 3245 C 319.928 -2.22858 3.65402 0
M  V30 3246 C 319.254 -3.59619 3.957 0
M  V30 3247 C 320.554 -1.65123 4.95511 0
M  V30 3248 H 322.248 -0.678673 2.91607 0
M  V30 3249 H 319.794 -0.325013 1.40284 0
M  V30 3250 H 321.747 -3.11437 2.83874 0
M  V30 3251 H 320.471 -2.83083 1.62885 0
M  V30 3252 H 319.13 -1.54045 3.32664 0
M  V30 3253 H 318.778 -4.00086 3.04861 0
M  V30 3254 H 318.478 -3.48866 4.72828 0
M  V30 3255 H 320.002 -4.32306 4.31212 0
M  V30 3256 H 321.416 -2.26241 5.26771 0
M  V30 3257 H 319.813 -1.65071 5.7695 0
M  V30 3258 H 320.883 -0.612559 4.81015 0
M  V30 3259 N 322.226 -1.5378 -0.344866 0
M  V30 3260 C 323.472 -1.71216 -1.08687 0
M  V30 3261 C 323.805 -0.473281 -1.88345 0
M  V30 3262 O 323.08 0.52968 -1.87149 0
M  V30 3263 C 323.363 -2.97486 -2.02914 0
M  V30 3264 C 323.216 -4.31579 -1.26727 0
M  V30 3265 C 324.535 -3.19422 -3.0275 0
M  V30 3266 H 321.654 -0.62301 -0.393735 0
M  V30 3267 H 324.296 -1.8645 -0.365563 0
M  V30 3268 H 322.446 -2.84629 -2.64421 0
M  V30 3269 H 324.118 -4.56284 -0.67845 0
M  V30 3270 H 322.361 -4.30049 -0.569273 0
M  V30 3271 H 323.032 -5.16106 -1.95803 0
M  V30 3272 H 325.508 -3.316 -2.51357 0
M  V30 3273 H 324.384 -4.09169 -3.65885 0
M  V30 3274 H 324.645 -2.35656 -3.74057 0
M  V30 3275 N 323.704 0.605807 -1.45491 0
M  V30 3276 C 324.637 1.73022 -1.48791 0
M  V30 3277 C 325.615 1.58917 -0.344112 0
M  V30 3278 O 326.799 1.80453 -0.544876 0
M  V30 3279 C 323.926 3.10865 -1.34463 0
M  V30 3280 C 322.972 3.43554 -2.5273 0
M  V30 3281 S 323.805 3.38196 -4.15191 0
M  V30 3282 C 324.961 4.78616 -4.03333 0
M  V30 3283 H 325.194 1.69961 -2.43928 0
M  V30 3284 H 322.727 0.782611 -1.33096 0
M  V30 3285 H 324.685 3.90398 -1.26884 0
M  V30 3286 H 323.346 3.1144 -0.40794 0
M  V30 3287 H 322.539 4.43924 -2.38637 0
M  V30 3288 H 322.141 2.71541 -2.5718 0
M  V30 3289 H 324.433 5.68463 -3.68587 0
M  V30 3290 H 325.376 4.97767 -5.03621 0
M  V30 3291 H 325.784 4.54381 -3.34959 0
M  V30 3292 N 325.182 1.32811 0.848464 0
M  V30 3293 C 326.112 1.24882 1.97299 0
M  V30 3294 C 327.093 0.131357 1.69592 0
M  V30 3295 O 328.278 0.319553 1.91553 0
M  V30 3296 C 325.408 0.97746 3.33261 0
M  V30 3297 C 324.362 2.05682 3.75338 0
M  V30 3298 C 323.688 1.63777 5.09 0
M  V30 3299 C 324.988 3.47254 3.90144 0
M  V30 3300 H 326.682 2.18966 2.04191 0
M  V30 3301 H 324.228 1.05413 0.981029 0
M  V30 3302 H 326.181 0.908513 4.1149 0
M  V30 3303 H 324.905 0.000980011 3.266 0
M  V30 3304 H 323.564 2.11603 2.99366 0
M  V30 3305 H 323.212 0.648569 4.98801 0
M  V30 3306 H 322.912 2.36 5.38124 0
M  V30 3307 H 324.436 1.5833 5.89715 0
M  V30 3308 H 325.85 3.43888 4.58709 0
M  V30 3309 H 324.247 4.1788 4.30693 0
M  V30 3310 H 325.317 3.86462 2.92874 0
M  V30 3311 N 326.66 -1.06551 1.16123 0
M  V30 3312 C 327.907 -1.79302 0.941126 0
M  V30 3313 C 328.235 -1.87105 -0.531235 0
M  V30 3314 O 327.49 -1.35692 -1.41018 0
M  V30 3315 C 327.789 -3.23911 1.51052 0
M  V30 3316 C 327.455 -3.36193 3.00475 0
M  V30 3317 C 326.117 -3.39252 3.41265 0
M  V30 3318 C 328.469 -3.38326 3.96465 0
M  V30 3319 C 325.797 -3.42057 4.76669 0
M  V30 3320 C 328.149 -3.4267 5.31752 0
M  V30 3321 C 326.813 -3.4401 5.72026 0
M  V30 3322 H 326.083 -0.656111 0.344382 0
M  V30 3323 H 328.73 -1.25325 1.44796 0
M  V30 3324 H 327.035 -3.80723 0.925063 0
M  V30 3325 H 328.732 -3.78793 1.31593 0
M  V30 3326 H 325.322 -3.34516 2.6795 0
M  V30 3327 H 329.506 -3.35176 3.6602 0
M  V30 3328 H 324.762 -3.41398 5.07206 0
M  V30 3329 H 328.936 -3.43268 6.05921 0
M  V30 3330 H 326.563 -3.45937 6.76928 0
M  V30 3331 N 328.138 -0.959301 -1.25041 0
M  V30 3332 C 329.384 -0.617525 -1.9317 0
M  V30 3333 C 329.717 0.843981 -1.74902 0
M  V30 3334 O 328.992 1.60615 -1.09696 0
M  V30 3335 C 329.275 -0.982736 -3.46431 0
M  V30 3336 C 329.128 -2.50032 -3.73904 0
M  V30 3337 C 330.447 -0.511176 -4.37121 0
M  V30 3338 H 327.566 -0.22582 -0.701552 0
M  V30 3339 H 330.208 -1.19679 -1.4757 0
M  V30 3340 H 328.358 -0.489806 -3.854 0
M  V30 3341 H 330.03 -3.06737 -3.44544 0
M  V30 3342 H 328.273 -2.93598 -3.19348 0
M  V30 3343 H 328.944 -2.70635 -4.81103 0
M  V30 3344 H 331.42 -0.934075 -4.0548 0
M  V30 3345 H 330.296 -0.795361 -5.43107 0
M  V30 3346 H 330.557 0.588834 -4.38161 0
M  V30 3347 N 329.616 1.39756 -0.72842 0
M  V30 3348 C 330.846 2.04651 -0.283117 0
M  V30 3349 C 331.254 1.5502 1.08469 0
M  V30 3350 O 330.597 0.707343 1.69536 0
M  V30 3351 C 330.659 3.58947 -0.199309 0
M  V30 3352 C 330.323 4.31525 -1.5045 0
M  V30 3353 C 331.32 4.5861 -2.44894 0
M  V30 3354 C 329.005 4.70195 -1.76698 0
M  V30 3355 C 330.999 5.23366 -3.63822 0
M  V30 3356 C 328.686 5.3468 -2.95906 0
M  V30 3357 C 329.684 5.61198 -3.89289 0
M  V30 3358 O 329.372 6.24347 -5.06404 0
M  V30 3359 H 329.104 0.664777 -0.122666 0
M  V30 3360 H 331.658 1.79913 -0.990987 0
M  V30 3361 H 329.888 3.82556 0.56461 0
M  V30 3362 H 331.577 4.0534 0.213125 0
M  V30 3363 H 332.343 4.29187 -2.25883 0
M  V30 3364 H 328.222 4.48916 -1.04859 0
M  V30 3365 H 331.766 5.4398 -4.36728 0
M  V30 3366 H 327.663 5.63524 -3.14819 0
M  V30 3367 H 328.431 6.42842 -5.06652 0
M  V30 3368 N 331.094 0.475555 1.50254 0
M  V30 3369 C 332.057 -0.305016 2.27161 0
M  V30 3370 C 333.057 -0.916519 1.32123 0
M  V30 3371 O 334.247 -0.785003 1.5551 0
M  V30 3372 C 331.379 -1.43496 3.09227 0
M  V30 3373 H 332.572 0.369511 2.97615 0
M  V30 3374 H 330.125 0.229747 1.54602 0
M  V30 3375 H 330.86 -2.14441 2.43281 0
M  V30 3376 H 330.645 -1.00223 3.79075 0
M  V30 3377 H 332.135 -1.98548 3.67381 0
M  V30 3378 N 332.573 -1.56217 0.208337 0
M  V30 3379 C 333.989 -1.58919 -0.14729 0
M  V30 3380 C 334.189 -1.22486 -1.59998 0
M  V30 3381 O 333.245 -0.953849 -2.3379 0
M  V30 3382 C 334.558 -3.00236 0.167048 0
M  V30 3383 C 336.106 -3.12813 0.108219 0
M  V30 3384 C 336.581 -4.56284 0.396049 0
M  V30 3385 N 338.072 -4.61912 0.345142 0
M  V30 3386 C 338.807 -5.70837 0.541523 0
M  V30 3387 N 338.303 -6.88178 0.798968 0
M  V30 3388 N 340.096 -5.60091 0.474867 0
M  V30 3389 H 332.247 -1.78177 1.15614 0
M  V30 3390 H 334.51 -0.827555 0.462446 0
M  V30 3391 H 334.216 -3.31499 1.1748 0
M  V30 3392 H 334.09 -3.7354 -0.524184 0
M  V30 3393 H 336.477 -2.81354 -0.890157 0
M  V30 3394 H 336.558 -2.41866 0.832729 0
M  V30 3395 H 336.202 -4.88458 1.3918 0
M  V30 3396 H 336.132 -5.25439 -0.349502 0
M  V30 3397 H 338.623 -3.77589 0.153316 0
M  V30 3398 H 338.936 -7.67095 0.93727 0
M  V30 3399 H 337.281 -6.89953 0.836013 0
M  V30 3400 H 340.472 -4.67297 0.274064 0
M  V30 3401 H 340.645 -6.44917 0.631326 0
M  V30 3402 N 334.051 0.0651679 -1.57465 0
M  V30 3403 C 335.297 0.764193 -1.87851 0
M  V30 3404 C 335.63 1.76889 -0.801495 0
M  V30 3405 O 334.905 1.93594 0.187528 0
M  V30 3406 C 335.188 1.46625 -3.28897 0
M  V30 3407 C 335.041 0.477515 -4.47258 0
M  V30 3408 C 336.36 2.4095 -3.68281 0
M  V30 3409 H 333.479 0.276351 -0.683227 0
M  V30 3410 H 336.121 0.0272868 -1.8998 0
M  V30 3411 H 334.271 2.09438 -3.27212 0
M  V30 3412 H 335.943 -0.145922 -4.61069 0
M  V30 3413 H 334.186 -0.206576 -4.33308 0
M  V30 3414 H 334.857 1.0065 -5.42746 0
M  V30 3415 H 337.333 1.88209 -3.71102 0
M  V30 3416 H 336.209 2.87072 -4.67847 0
M  V30 3417 H 336.47 3.26049 -2.98571 0
M  V30 3418 N 335.529 1.53961 0.336706 0
M  V30 3419 C 336.776 1.71536 1.07618 0
M  V30 3420 C 337.104 0.482125 1.8843 0
M  V30 3421 O 336.359 -0.536142 1.88213 0
M  V30 3422 C 336.658 2.93493 2.03953 0
M  V30 3423 C 336.324 4.28811 1.39399 0
M  V30 3424 C 334.986 4.65602 1.21523 0
M  V30 3425 C 337.338 5.12844 0.929541 0
M  V30 3426 C 334.666 5.84037 0.558312 0
M  V30 3427 C 337.018 6.31951 0.286505 0
M  V30 3428 C 335.682 6.67432 0.0954869 0
M  V30 3429 H 334.952 0.627696 0.393801 0
M  V30 3430 H 337.599 1.88186 0.354715 0
M  V30 3431 H 335.904 2.71475 2.82504 0
M  V30 3432 H 337.601 3.04285 2.61174 0
M  V30 3433 H 334.191 3.99858 1.54311 0
M  V30 3434 H 338.375 4.84947 1.05548 0
M  V30 3435 H 333.631 6.10097 0.398995 0
M  V30 3436 H 337.805 6.96352 -0.0814376 0
M  V30 3437 H 335.432 7.59063 -0.415579 0
M  V30 3438 N 337.007 -0.598083 1.45811 0
M  V30 3439 C 338.253 -1.35882 1.50545 0
M  V30 3440 C 338.586 -1.93616 0.150445 0
M  V30 3441 O 337.861 -1.75604 -0.83628 0
M  V30 3442 C 338.144 -2.49966 2.59208 0
M  V30 3443 C 337.997 -1.97367 4.04186 0
M  V30 3444 C 339.316 -3.52068 2.64076 0
M  V30 3445 H 336.435 -0.492717 0.548087 0
M  V30 3446 H 339.077 -0.673319 1.77669 0
M  V30 3447 H 337.227 -3.08443 2.3621 0
M  V30 3448 H 338.899 -1.43466 4.38423 0
M  V30 3449 H 337.142 -1.283 4.14393 0
M  V30 3450 H 337.813 -2.79649 4.75921 0
M  V30 3451 H 340.289 -3.03448 2.84708 0
M  V30 3452 H 339.165 -4.2937 3.41954 0
M  V30 3453 H 339.426 -4.08304 1.69531 0
M  V30 3454 N 338.485 -1.33259 -0.841409 0
M  V30 3455 C 339.731 -1.24757 -1.59886 0
M  V30 3456 C 340.064 0.186913 -1.93298 0
M  V30 3457 O 339.339 1.12757 -1.5848 0
M  V30 3458 C 339.622 -2.12036 -2.91055 0
M  V30 3459 C 339.475 -3.63929 -2.6434 0
M  V30 3460 C 340.794 -1.9916 -3.92458 0
M  V30 3461 H 337.913 -0.454542 -0.580138 0
M  V30 3462 H 340.555 -1.63335 -0.970647 0
M  V30 3463 H 338.705 -1.79265 -3.44669 0
M  V30 3464 H 340.377 -4.06978 -2.17178 0
M  V30 3465 H 338.62 -3.85935 -1.98082 0
M  V30 3466 H 339.291 -4.20341 -3.57796 0
M  V30 3467 H 341.767 -2.27895 -3.48143 0
M  V30 3468 H 340.643 -2.62484 -4.82072 0
M  V30 3469 H 340.904 -0.963082 -4.31482 0
M  V30 3470 N 339.963 1.05934 -1.16686 0
M  V30 3471 C 340.926 2.11669 -0.879144 0
M  V30 3472 C 341.926 1.60294 0.127445 0
M  V30 3473 O 343.116 1.7389 -0.103865 0
M  V30 3474 C 340.248 3.39438 -0.315425 0
M  V30 3475 H 341.441 2.38626 -1.81653 0
M  V30 3476 H 338.994 1.22058 -0.976299 0
M  V30 3477 H 339.729 3.18132 0.629468 0
M  V30 3478 H 339.514 3.78034 -1.04079 0
M  V30 3479 H 341.004 4.17391 -0.132189 0
M  V30 3480 N 341.441 0.965919 1.2453 0
M  V30 3481 C 342.669 0.644385 1.96609 0
M  V30 3482 C 343.084 -0.785823 1.71669 0
M  V30 3483 O 342.441 -1.52703 0.999399 0
M  V30 3484 C 342.492 0.907375 3.49927 0
M  V30 3485 O 342.213 2.28136 3.74013 0
M  V30 3486 C 343.714 0.599784 4.39224 0
M  V30 3487 H 340.934 0.240588 0.626385 0
M  V30 3488 H 343.478 1.29337 1.58405 0
M  V30 3489 H 341.633 0.304631 3.862 0
M  V30 3490 H 342.047 2.36002 4.68405 0
M  V30 3491 H 343.521 0.834263 5.45659 0
M  V30 3492 H 343.998 -0.465921 4.36722 0
M  V30 3493 H 344.604 1.18235 4.08535 0
M  V30 3494 N 342.919 -1.39368 0.735821 0
M  V30 3495 C 344.335 -1.54204 0.411492 0
M  V30 3496 C 344.535 -1.70268 -1.07755 0
M  V30 3497 O 343.591 -1.70364 -1.86366 0
M  V30 3498 C 344.904 -2.75925 1.19523 0
M  V30 3499 C 346.452 -2.89761 1.18354 0
M  V30 3500 C 346.927 -4.14421 1.94986 0
M  V30 3501 N 348.418 -4.21462 1.92156 0
M  V30 3502 C 349.153 -5.16871 2.48258 0
M  V30 3503 N 348.649 -6.18063 3.13001 0
M  V30 3504 N 350.442 -5.09093 2.38287 0
M  V30 3505 H 342.593 -1.27189 1.70108 0
M  V30 3506 H 344.856 -0.616517 0.720147 0
M  V30 3507 H 344.562 -2.70401 2.24892 0
M  V30 3508 H 344.436 -3.68614 0.800222 0
M  V30 3509 H 346.823 -2.94777 0.137975 0
M  V30 3510 H 346.904 -1.98133 1.61793 0
M  V30 3511 H 346.548 -4.10166 2.99543 0
M  V30 3512 H 346.478 -5.05095 1.48953 0
M  V30 3513 H 348.969 -3.48979 1.44991 0
M  V30 3514 H 349.282 -6.87326 3.53275 0
M  V30 3515 H 347.627 -6.18448 3.17091 0
M  V30 3516 H 350.818 -4.28973 1.8735 0
M  V30 3517 H 350.991 -5.83272 2.82308 0
M  V30 3518 N 344.397 -0.483516 -1.5 0
M  V30 3519 C 345.329 0.340634 -2.26655 0
M  V30 3520 C 346.342 0.946152 -1.32483 0
M  V30 3521 O 347.531 0.832453 -1.579 0
M  V30 3522 C 344.631 1.4929 -3.04246 0
M  V30 3523 C 343.804 0.997903 -4.25865 0
M  V30 3524 C 342.863 2.02569 -4.85646 0
M  V30 3525 O 341.889 1.60128 -5.46212 0
M  V30 3526 N 343.091 3.3548 -4.73744 0
M  V30 3527 H 345.856 -0.316577 -2.98023 0
M  V30 3528 H 343.417 -0.315024 -1.58806 0
M  V30 3529 H 345.409 2.17766 -3.41116 0
M  V30 3530 H 343.979 2.05458 -2.35597 0
M  V30 3531 H 343.199 0.138617 -3.93956 0
M  V30 3532 H 344.487 0.645305 -5.04691 0
M  V30 3533 H 343.885 3.72661 -4.25605 0
M  V30 3534 H 342.442 3.99718 -5.14848 0
M  V30 3535 N 345.875 1.56104 -0.216619 0
M  V30 3536 C 346.805 2.23063 0.690296 0
M  V30 3537 C 347.786 1.20072 1.20485 0
M  V30 3538 O 348.971 1.48643 1.24976 0
M  V30 3539 C 346.101 2.90672 1.90072 0
M  V30 3540 C 345.055 4.00092 1.5202 0
M  V30 3541 C 344.381 4.54972 2.80899 0
M  V30 3542 C 345.681 5.17398 0.71391 0
M  V30 3543 H 347.375 2.99109 0.132038 0
M  V30 3544 H 344.921 1.43866 0.0620664 0
M  V30 3545 H 346.874 3.36204 2.54057 0
M  V30 3546 H 345.598 2.12066 2.48386 0
M  V30 3547 H 344.257 3.55283 0.903839 0
M  V30 3548 H 343.905 3.73102 3.37348 0
M  V30 3549 H 343.605 5.28817 2.56176 0
M  V30 3550 H 345.129 5.0322 3.45836 0
M  V30 3551 H 346.543 5.59342 1.25735 0
M  V30 3552 H 344.94 5.97444 0.563951 0
M  V30 3553 H 346.01 4.84088 -0.280527 0
M  V30 3554 N 347.353 -0.0568162 1.57498 0
M  V30 3555 C 348.769 -0.411933 1.54192 0
M  V30 3556 C 348.969 -1.78287 0.938942 0
M  V30 3557 O 348.025 -2.46483 0.547919 0
M  V30 3558 C 349.338 -0.339244 2.9878 0
M  V30 3559 C 350.886 -0.418348 3.10192 0
M  V30 3560 C 351.361 -0.375407 4.56459 0
M  V30 3561 N 352.852 -0.435038 4.61153 0
M  V30 3562 C 353.587 -0.424265 5.71828 0
M  V30 3563 N 353.083 -0.367418 6.91825 0
M  V30 3564 N 354.876 -0.471938 5.60115 0
M  V30 3565 H 347.027 0.840684 1.95055 0
M  V30 3566 H 349.29 0.316987 0.893433 0
M  V30 3567 H 348.996 0.601742 3.46514 0
M  V30 3568 H 348.87 -1.14371 3.59443 0
M  V30 3569 H 351.257 -1.34976 2.62422 0
M  V30 3570 H 351.338 0.414962 2.52412 0
M  V30 3571 H 350.982 0.552219 5.04889 0
M  V30 3572 H 350.912 -1.22645 5.12119 0
M  V30 3573 H 353.403 -0.482612 3.74806 0
M  V30 3574 H 353.716 -0.363535 7.71944 0
M  V30 3575 H 352.061 -0.333879 6.94198 0
M  V30 3576 H 355.252 -0.514145 4.65268 0
M  V30 3577 H 355.425 -0.460073 6.46365 0
M  V30 3578 N 348.832 -1.54138 -0.328536 0
M  V30 3579 C 349.762 -1.86167 -1.40939 0
M  V30 3580 C 350.743 -0.718044 -1.54202 0
M  V30 3581 O 351.928 -0.971328 -1.68163 0
M  V30 3582 C 349.058 -2.08461 -2.77779 0
M  V30 3583 C 348.012 -3.24299 -2.7931 0
M  V30 3584 C 347.338 -3.31955 -4.19178 0
M  V30 3585 C 348.638 -4.62065 -2.43502 0
M  V30 3586 H 350.332 -2.76689 -1.14383 0
M  V30 3587 H 347.878 -1.33132 -0.548806 0
M  V30 3588 H 349.831 -2.29453 -3.53454 0
M  V30 3589 H 348.555 -1.14684 -3.05802 0
M  V30 3590 H 347.214 -3.03187 -2.0609 0
M  V30 3591 H 346.862 -2.35745 -4.44335 0
M  V30 3592 H 346.562 -4.09805 -4.2111 0
M  V30 3593 H 348.086 -3.55175 -4.96672 0
M  V30 3594 H 349.5 -4.8297 -3.08889 0
M  V30 3595 H 347.897 -5.42429 -2.56693 0
M  V30 3596 H 348.967 -4.64652 -1.38659 0
M  V30 3597 N 350.31 0.590341 -1.46126 0
M  V30 3598 C 351.24 1.71032 -1.58966 0
M  V30 3599 C 352.221 1.64302 -0.440335 0
M  V30 3600 O 353.406 1.82436 -0.665634 0
M  V30 3601 C 350.536 3.09665 -1.57241 0
M  V30 3602 C 349.49 3.31221 -2.71066 0
M  V30 3603 C 348.816 4.70303 -2.54399 0
M  V30 3604 C 350.116 3.19796 -4.1295 0
M  V30 3605 H 351.81 1.60543 -2.52718 0
M  V30 3606 H 349.356 0.770933 -1.21625 0
M  V30 3607 H 351.309 3.87831 -1.64819 0
M  V30 3608 H 350.033 3.21036 -0.600289 0
M  V30 3609 H 348.692 2.55452 -2.62944 0
M  V30 3610 H 348.34 4.78429 -1.55288 0
M  V30 3611 H 348.04 4.85679 -3.30741 0
M  V30 3612 H 349.564 5.50647 -2.63857 0
M  V30 3613 H 350.978 3.87815 -4.22223 0
M  V30 3614 H 349.375 3.46696 -4.89818 0
M  V30 3615 H 350.445 2.16983 -4.33643 0
M  V30 3616 N 351.788 1.33704 0.83433 0
M  V30 3617 C 353.204 1.13137 1.12571 0
M  V30 3618 C 353.404 -0.0747261 2.01361 0
M  V30 3619 O 352.46 -0.753647 2.4099 0
M  V30 3620 C 353.773 2.42105 1.78342 0
M  V30 3621 C 355.321 2.48054 1.90888 0
M  V30 3622 C 355.796 3.76995 2.60075 0
M  V30 3623 N 357.287 3.78092 2.67584 0
M  V30 3624 C 358.022 4.74574 3.21818 0
M  V30 3625 N 357.518 5.81434 3.76705 0
M  V30 3626 N 359.311 4.62044 3.20112 0
M  V30 3627 H 351.462 2.11 0.243489 0
M  V30 3628 H 353.725 0.932532 0.17055 0
M  V30 3629 H 353.431 3.30391 1.20561 0
M  V30 3630 H 353.305 2.54594 2.7832 0
M  V30 3631 H 355.692 1.60215 2.47821 0
M  V30 3632 H 355.773 2.39502 0.898459 0
M  V30 3633 H 355.417 4.65219 2.03799 0
M  V30 3634 H 355.347 3.82825 3.61597 0
M  V30 3635 H 357.838 3.00865 2.28667 0
M  V30 3636 H 358.151 6.51084 4.16305 0
M  V30 3637 H 356.496 5.85163 3.7498 0
M  V30 3638 H 359.687 3.77716 2.76493 0
M  V30 3639 H 359.86 5.37406 3.62076 0
M  V30 3640 N 353.266 -1.05314 1.17247 0
M  V30 3641 C 354.514 -1.77941 0.958194 0
M  V30 3642 C 354.835 -1.88089 -0.514556 0
M  V30 3643 O 354.105 -1.39676 -1.37359 0
M  V30 3644 H 352.685 -0.659116 0.351533 0
M  V30 3645 H 355.347 -1.27166 1.47699 0
M  V30 3646 H 354.443 -2.79663 1.38546 0
M  V30 3647 N 354.744 -0.972509 -1.24016 0
M  V30 3648 C 355.654 -0.5143 -2.28893 0
M  V30 3649 C 356.67 0.427078 -1.68677 0
M  V30 3650 O 357.846 0.298939 -1.99169 0
M  V30 3651 C 354.911 0.183598 -3.46214 0
M  V30 3652 C 353.972 -0.798202 -4.21814 0
M  V30 3653 C 353.205 -0.133514 -5.33533 0
M  V30 3654 O 353.428 1.07714 -5.60137 0
M  V30 3655 O 352.362 -0.828103 -5.96176 0
M  V30 3656 H 356.188 -1.38629 -2.70214 0
M  V30 3657 H 353.773 -0.739769 -1.29799 0
M  V30 3658 H 355.655 0.575433 -4.17453 0
M  V30 3659 H 354.33 1.03048 -3.0686 0
M  V30 3660 H 353.237 -1.24059 -3.52931 0
M  V30 3661 H 354.57 -1.61364 -4.64997 0
M  V30 3662 N 356.222 1.38976 -0.743202 0
M  V30 3663 C 357.152 2.33171 -0.123873 0
M  V30 3664 C 358.133 1.54336 0.71516 0
M  V30 3665 O 359.318 1.82696 0.658467 0
M  V30 3666 C 356.448 3.38474 0.777978 0
M  V30 3667 C 355.402 4.27979 0.0424758 0
M  V30 3668 C 354.728 5.2405 1.06189 0
M  V30 3669 C 356.028 5.10155 -1.1198 0
M  V30 3670 H 357.722 2.85213 -0.910709 0
M  V30 3671 H 355.268 1.37133 -0.439388 0
M  V30 3672 H 357.221 4.03328 1.22084 0
M  V30 3673 H 355.945 2.84891 1.59702 0
M  V30 3674 H 354.604 3.64616 -0.380853 0
M  V30 3675 H 354.252 4.66758 1.87472 0
M  V30 3676 H 353.952 5.84785 0.574485 0
M  V30 3677 H 355.476 5.9178 1.50428 0
M  V30 3678 H 356.89 5.68307 -0.75499 0
M  V30 3679 H 355.287 5.80073 -1.53738 0
M  V30 3680 H 356.357 4.44504 -1.93764 0
M  V30 3681 N 357.7 0.491464 1.49741 0
M  V30 3682 C 358.948 -0.0563141 2.02022 0
M  V30 3683 C 359.269 -1.38363 1.37407 0
M  V30 3684 O 358.539 -1.88702 0.526166 0
M  V30 3685 H 357.119 -0.0238014 0.746621 0
M  V30 3686 H 359.781 0.646533 1.83864 0
M  V30 3687 H 358.877 -0.192967 3.11503 0
M  V30 3688 N 359.178 -1.55987 0.224894 0
M  V30 3689 C 360.594 -1.59066 -0.130426 0
M  V30 3690 C 360.794 -1.24176 -1.5869 0
M  V30 3691 O 359.85 -0.978592 -2.32766 0
M  V30 3692 C 361.163 -3.00042 0.198883 0
M  V30 3693 C 362.711 -3.1268 0.141391 0
M  V30 3694 C 363.186 -4.55839 0.444422 0
M  V30 3695 N 364.677 -4.6152 0.394115 0
M  V30 3696 C 365.412 -5.70231 0.602038 0
M  V30 3697 N 364.908 -6.87291 0.871914 0
M  V30 3698 N 366.701 -5.59555 0.534245 0
M  V30 3699 H 358.852 -1.76941 1.17497 0
M  V30 3700 H 361.115 -0.822604 0.471197 0
M  V30 3701 H 360.821 -3.30234 1.2099 0
M  V30 3702 H 360.695 -3.74075 -0.484535 0
M  V30 3703 H 363.082 -2.82283 -0.860265 0
M  V30 3704 H 363.163 -2.40969 0.858335 0
M  V30 3705 H 362.807 -4.86954 1.44353 0
M  V30 3706 H 362.737 -5.2578 -0.293752 0
M  V30 3707 H 365.228 -3.77405 0.193356 0
M  V30 3708 H 365.541 -7.66058 1.01858 0
M  V30 3709 H 363.886 -6.89028 0.909145 0
M  V30 3710 H 367.077 -4.6698 0.323612 0
M  V30 3711 H 367.25 -6.44211 0.699693 0
M  V30 3712 N 360.656 0.0484629 -1.57525 0
M  V30 3713 C 361.903 0.743125 -1.88372 0
M  V30 3714 C 362.231 1.76383 -0.819715 0
M  V30 3715 O 361.486 1.94855 0.181659 0
M  V30 3716 C 361.785 1.46632 -3.25935 0
M  V30 3717 C 361.451 0.583427 -4.4711 0
M  V30 3718 C 360.113 0.340191 -4.79996 0
M  V30 3719 C 362.465 -0.0273345 -5.21193 0
M  V30 3720 C 359.793 -0.522903 -5.84365 0
M  V30 3721 C 362.145 -0.878017 -6.26477 0
M  V30 3722 C 360.809 -1.1309 -6.5785 0
M  V30 3723 H 360.079 0.271929 -0.689301 0
M  V30 3724 H 362.726 0.00336166 -1.915 0
M  V30 3725 H 361.031 2.2789 -3.18706 0
M  V30 3726 H 362.728 2.00902 -3.47044 0
M  V30 3727 H 359.318 0.783151 -4.21384 0
M  V30 3728 H 363.502 0.147654 -4.9608 0
M  V30 3729 H 358.758 -0.727335 -6.07058 0
M  V30 3730 H 362.932 -1.35789 -6.83033 0
M  V30 3731 H 360.559 -1.80144 -7.38547 0
M  V30 3732 N 362.134 1.5431 0.320358 0
M  V30 3733 C 363.545 1.63872 0.894594 0
M  V30 3734 C 363.896 0.534847 1.88769 0
M  V30 3735 O 363.021 -0.331732 2.13842 0
M  V30 3736 C 363.616 2.97049 1.62934 0
M  V30 3737 C 362.175 3.08796 2.15226 0
M  V30 3738 C 361.322 2.59456 0.978671 0
M  V30 3739 H 364.273 1.58398 0.0978544 0
M  V30 3740 H 364.294 2.87388 2.49376 0
M  V30 3741 H 363.806 3.7737 0.906302 0
M  V30 3742 H 361.907 2.33156 2.90636 0
M  V30 3743 H 362.02 4.14649 2.40006 0
M  V30 3744 H 360.384 2.1543 1.35875 0
M  V30 3745 H 361.167 3.42237 0.269895 0
M  V30 3746 N 363.613 -0.582584 1.46437 0
M  V30 3747 C 365.024 -1.1647 1.45916 0
M  V30 3748 C 365.375 -1.95177 0.200077 0
M  V30 3749 O 364.5 -2.04874 -0.696819 0
M  V30 3750 C 365.095 -2.11885 2.64367 0
M  V30 3751 C 363.654 -2.65421 2.66887 0
M  V30 3752 C 362.801 -1.41294 2.38603 0
M  V30 3753 H 365.752 -0.370514 1.54314 0
M  V30 3754 H 365.773 -2.9535 2.39892 0
M  V30 3755 H 365.285 -1.54573 3.5599 0
M  V30 3756 H 363.386 -3.26602 1.79338 0
M  V30 3757 H 363.499 -3.08147 3.66854 0
M  V30 3758 H 361.863 -1.71109 1.88663 0
M  V30 3759 H 362.646 -0.858125 3.32402 0
M  V30 3760 N 365.091 -1.34144 -0.827227 0
M  V30 3761 C 366.001 -1.27428 -1.96975 0
M  V30 3762 C 367.017 -0.182728 -1.73038 0
M  V30 3763 O 368.193 -0.408426 -1.97215 0
M  V30 3764 C 365.258 -1.02526 -3.31194 0
M  V30 3765 C 364.319 -2.20796 -3.68168 0
M  V30 3766 C 363.552 -1.97073 -4.95982 0
M  V30 3767 O 363.775 -0.926822 -5.6282 0
M  V30 3768 O 362.709 -2.83912 -5.30733 0
M  V30 3769 H 366.535 -2.23537 -2.05584 0
M  V30 3770 H 364.12 -1.14307 -0.961989 0
M  V30 3771 H 366.002 -0.904026 -4.11589 0
M  V30 3772 H 364.677 -0.0945389 -3.23562 0
M  V30 3773 H 363.584 -2.38477 -2.88235 0
M  V30 3774 H 364.917 -3.12243 -3.8048 0
M  V30 3775 N 366.569 1.04691 -1.17803 0
M  V30 3776 C 367.479 2.16057 -0.914151 0
M  V30 3777 C 368.495 1.73589 0.119503 0
M  V30 3778 O 369.671 2.01308 -0.0609468 0
M  V30 3779 C 366.736 3.4394 -0.436603 0
M  V30 3780 C 365.797 4.00825 -1.53746 0
M  V30 3781 C 365.03 5.22604 -1.0826 0
M  V30 3782 O 365.253 5.70367 0.0612244 0
M  V30 3783 O 364.187 5.7186 -1.87775 0
M  V30 3784 H 368.013 2.41169 -1.84584 0
M  V30 3785 H 365.598 1.1453 -0.959334 0
M  V30 3786 H 367.48 4.21024 -0.178057 0
M  V30 3787 H 366.155 3.20316 0.466869 0
M  V30 3788 H 365.062 3.25158 -1.84995 0
M  V30 3789 H 366.395 4.28778 -2.41683 0
M  V30 3790 N 368.047 0.979072 1.23499 0
M  V30 3791 C 369.272 0.664845 1.96455 0
M  V30 3792 C 369.697 -0.761287 1.72006 0
M  V30 3793 O 369.055 -1.51837 0.990713 0
M  V30 3794 C 369.103 0.959479 3.47601 0
M  V30 3795 O 368.207 0.0508168 4.12369 0
M  V30 3796 H 367.548 0.250185 0.615064 0
M  V30 3797 H 370.078 1.31231 1.5697 0
M  V30 3798 H 370.088 0.895642 3.98048 0
M  V30 3799 H 368.763 1.99876 3.64723 0
M  V30 3800 H 367.34 0.16895 3.72517 0
M  V30 3801 N 369.525 -1.3858 0.750561 0
M  V30 3802 C 370.936 -1.82927 0.373438 0
M  V30 3803 C 371.287 -1.62634 -1.09748 0
M  V30 3804 O 370.412 -1.12588 -1.84805 0
M  V30 3805 C 371.007 -3.32088 0.671029 0
M  V30 3806 C 369.566 -3.74795 0.34722 0
M  V30 3807 C 368.713 -2.61391 0.92575 0
M  V30 3808 H 371.664 -1.27351 0.946958 0
M  V30 3809 H 371.685 -3.80465 -0.0518269 0
M  V30 3810 H 371.197 -3.46826 1.74164 0
M  V30 3811 H 369.298 -3.65638 -0.716933 0
M  V30 3812 H 369.411 -4.71667 0.840656 0
M  V30 3813 H 367.775 -2.52265 0.351327 0
M  V30 3814 H 368.558 -2.78929 2.00133 0
M  V30 3815 N 371.003 -0.499398 -1.49478 0
M  V30 3816 C 372.414 -0.051215 -1.8663 0
M  V30 3817 C 372.765 1.36238 -1.41186 0
M  V30 3818 O 371.89 2.01502 -0.789051 0
M  V30 3819 C 372.485 -0.0861651 -3.3869 0
M  V30 3820 C 371.044 0.30667 -3.75149 0
M  V30 3821 C 370.191 -0.459397 -2.73468 0
M  V30 3822 H 373.142 -0.712264 -1.41818 0
M  V30 3823 H 373.163 0.709507 -3.73826 0
M  V30 3824 H 372.675 -1.11512 -3.71735 0
M  V30 3825 H 370.776 1.33892 -3.47712 0
M  V30 3826 H 370.889 -0.0116669 -4.79099 0
M  V30 3827 H 369.253 0.0905645 -2.54539 0
M  V30 3828 H 370.036 -1.4884 -3.09357 0
M  V30 3829 N 372.481 1.55866 -0.233164 0
M  V30 3830 C 373.444 2.1953 0.658715 0
M  V30 3831 C 374.444 1.16053 1.11303 0
M  V30 3832 O 375.634 1.41218 1.01996 0
M  V30 3833 C 372.766 2.82791 1.90373 0
M  V30 3834 H 373.959 2.99721 0.10347 0
M  V30 3835 H 371.512 1.56291 0.0164245 0
M  V30 3836 H 372.247 2.06501 2.50056 0
M  V30 3837 H 372.032 3.58578 1.58632 0
M  V30 3838 H 373.522 3.31556 2.53891 0
M  V30 3839 N 373.959 -0.0401083 1.57549 0
M  V30 3840 C 375.37 -0.588097 1.77196 0
M  V30 3841 C 375.721 -1.76209 0.862832 0
M  V30 3842 O 374.846 -2.16331 0.0548389 0
M  V30 3843 C 375.441 -1.07363 3.21339 0
M  V30 3844 C 374 -1.56723 3.42221 0
M  V30 3845 C 373.147 -0.50041 2.72747 0
M  V30 3846 H 376.098 0.186119 1.57605 0
M  V30 3847 H 376.119 -1.94143 3.27244 0
M  V30 3848 H 375.631 -0.218975 3.87482 0
M  V30 3849 H 373.732 -2.4441 2.81237 0
M  V30 3850 H 373.845 -1.62234 4.50796 0
M  V30 3851 H 372.209 -0.952894 2.36203 0
M  V30 3852 H 372.992 0.344599 3.41566 0
M  V30 3853 N 375.437 -1.54477 -0.31217 0
M  V30 3854 C 376.662 -1.77526 -1.07235 0
M  V30 3855 C 377.087 -0.527775 -1.80544 0
M  V30 3856 O 376.445 0.52121 -1.73646 0
M  V30 3857 C 376.493 -2.97535 -2.03728 0
M  V30 3858 O 375.597 -2.69878 -3.11833 0
M  V30 3859 H 374.938 -0.58792 -0.30862 0
M  V30 3860 H 377.468 -2.01532 -0.352993 0
M  V30 3861 H 377.478 -3.25198 -2.46395 0
M  V30 3862 H 376.153 -3.87996 -1.49774 0
M  V30 3863 H 374.73 -2.53199 -2.7376 0
M  V30 3864 N 376.915 0.57481 -1.46744 0
M  V30 3865 C 378.331 0.898981 -1.31873 0
M  V30 3866 C 378.531 1.99313 -0.29605 0
M  V30 3867 O 377.587 2.50728 0.298621 0
M  V30 3868 C 378.9 1.30886 -2.7072 0
M  V30 3869 C 380.448 1.42127 -2.78871 0
M  V30 3870 C 380.923 1.86478 -4.18318 0
M  V30 3871 N 382.414 1.93658 -4.20774 0
M  V30 3872 C 383.149 2.29267 -5.2557 0
M  V30 3873 N 382.645 2.63612 -6.40688 0
M  V30 3874 N 384.438 2.29889 -5.1294 0
M  V30 3875 H 376.589 -0.147839 -2.11885 0
M  V30 3876 H 378.852 -0.00347013 -0.947994 0
M  V30 3877 H 378.558 0.578853 -3.46904 0
M  V30 3878 H 378.432 2.26874 -3.01343 0
M  V30 3879 H 380.819 2.14213 -2.0297 0
M  V30 3880 H 380.9 0.443705 -2.51922 0
M  V30 3881 H 380.544 1.14968 -4.94717 0
M  V30 3882 H 380.474 2.85207 -4.42679 0
M  V30 3883 H 382.965 1.69574 -3.37718 0
M  V30 3884 H 383.278 2.89759 -7.16421 0
M  V30 3885 H 381.623 2.61232 -6.44036 0
M  V30 3886 H 384.814 2.02485 -4.22039 0
M  V30 3887 H 384.987 2.57312 -5.94722 0
M  V30 3888 N 378.394 1.34581 0.820102 0
M  V30 3889 C 379.619 1.30333 1.61332 0
M  V30 3890 C 380.044 -0.119339 1.87721 0
M  V30 3891 O 379.402 -1.08197 1.45475 0
M  V30 3892 C 379.45 2.10258 2.92957 0
M  V30 3893 O 378.554 1.47404 3.85157 0
M  V30 3894 H 377.895 0.447488 0.490561 0
M  V30 3895 H 380.425 1.77425 1.01889 0
M  V30 3896 H 380.435 2.21718 3.42498 0
M  V30 3897 H 379.11 3.13693 2.73074 0
M  V30 3898 H 377.687 1.44703 3.43679 0
M  V30 3899 N 379.872 -1.04064 1.18357 0
M  V30 3900 C 380.802 -2.14001 0.934113 0
M  V30 3901 C 381.783 -1.69616 -0.128186 0
M  V30 3902 O 382.968 -1.94185 0.0244093 0
M  V30 3903 C 380.098 -3.44253 0.459066 0
M  V30 3904 C 379.052 -4.02261 1.46185 0
M  V30 3905 C 378.378 -5.27992 0.844322 0
M  V30 3906 C 379.678 -4.38432 2.83856 0
M  V30 3907 H 381.372 -2.35127 1.85352 0
M  V30 3908 H 378.918 -1.12998 0.892604 0
M  V30 3909 H 380.871 -4.20522 0.271907 0
M  V30 3910 H 379.595 -3.22813 -0.495912 0
M  V30 3911 H 378.254 -3.28074 1.63595 0
M  V30 3912 H 377.902 -5.02862 -0.117845 0
M  V30 3913 H 377.602 -5.67765 1.51384 0
M  V30 3914 H 379.126 -6.06938 0.667693 0
M  V30 3915 H 380.54 -5.05688 2.70098 0
M  V30 3916 H 378.937 -4.89254 3.47491 0
M  V30 3917 H 380.007 -3.4826 3.37406 0
M  V30 3918 N 381.35 -0.985608 -1.22978 0
M  V30 3919 C 382.313 -0.535071 -2.22867 0
M  V30 3920 C 383.313 0.378123 -1.56291 0
M  V30 3921 O 384.503 0.171092 -1.73358 0
M  V30 3922 C 381.635 0.222702 -3.40172 0
M  V30 3923 H 382.828 -1.41835 -2.6424 0
M  V30 3924 H 380.381 -0.772042 -1.35901 0
M  V30 3925 H 381.116 1.12229 -3.04262 0
M  V30 3926 H 380.901 -0.43288 -3.89703 0
M  V30 3927 H 382.391 0.526335 -4.1427 0
M  V30 3928 N 382.828 1.3818 -0.7579 0
M  V30 3929 C 384.239 1.82726 -0.383134 0
M  V30 3930 C 384.59 1.63214 1.08884 0
M  V30 3931 O 383.715 1.13566 1.84205 0
M  V30 3932 C 384.31 3.31728 -0.688631 0
M  V30 3933 C 382.869 3.74606 -0.367091 0
M  V30 3934 C 382.016 2.60896 -0.939599 0
M  V30 3935 H 384.967 1.26847 -0.953699 0
M  V30 3936 H 384.988 3.80487 0.0316492 0
M  V30 3937 H 384.5 3.45898 -1.76001 0
M  V30 3938 H 382.601 3.66013 0.697532 0
M  V30 3939 H 382.714 4.71215 -0.865658 0
M  V30 3940 H 381.078 2.52075 -0.3647 0
M  V30 3941 H 381.861 2.77864 -2.0161 0
M  V30 3942 N 384.306 0.507319 1.49211 0
M  V30 3943 C 385.269 -0.256763 2.27757 0
M  V30 3944 C 386.269 -0.888287 1.34038 0
M  V30 3945 O 387.459 -0.751841 1.5714 0
M  V30 3946 C 384.591 -1.36905 3.12202 0
M  V30 3947 H 385.784 0.432557 2.96764 0
M  V30 3948 H 383.337 0.262488 1.5408 0
M  V30 3949 H 384.072 -2.09233 2.47775 0
M  V30 3950 H 383.857 -0.921599 3.81115 0
M  V30 3951 H 385.347 -1.9071 3.7151 0
M  V30 3952 N 385.784 -1.5574 0.241426 0
M  V30 3953 C 387.195 -1.84842 -0.262755 0
M  V30 3954 C 387.546 -1.16317 -1.58003 0
M  V30 3955 O 386.671 -0.439653 -2.11887 0
M  V30 3956 C 387.266 -3.35332 -0.483523 0
M  V30 3957 C 385.825 -3.6468 -0.931977 0
M  V30 3958 C 384.972 -2.77299 -0.0061151 0
M  V30 3959 H 387.923 -1.51761 0.464129 0
M  V30 3960 H 387.944 -3.56615 -1.32688 0
M  V30 3961 H 387.456 -3.85178 0.47537 0
M  V30 3962 H 385.557 -3.20307 -1.90353 0
M  V30 3963 H 385.67 -4.72498 -0.792628 0
M  V30 3964 H 384.034 -2.49408 -0.516503 0
M  V30 3965 H 384.817 -3.2995 0.948052 0
M  V30 3966 N 387.262 0.0317525 -1.57568 0
M  V30 3967 C 388.508 0.724175 -1.8943 0
M  V30 3968 C 388.841 1.75149 -0.838836 0
M  V30 3969 O 388.116 1.93948 0.146422 0
M  V30 3970 C 388.399 1.39615 -3.31933 0
M  V30 3971 C 388.252 0.382537 -4.4817 0
M  V30 3972 C 389.571 2.33084 -3.73309 0
M  V30 3973 H 386.69 0.261797 -0.688935 0
M  V30 3974 H 389.332 -0.013017 -1.89996 0
M  V30 3975 H 387.482 2.02451 -3.31581 0
M  V30 3976 H 389.154 -0.243689 -4.60656 0
M  V30 3977 H 387.397 -0.29844 -4.32772 0
M  V30 3978 H 388.068 0.891145 -5.44759 0
M  V30 3979 H 390.544 1.80295 -3.7501 0
M  V30 3980 H 389.42 2.77084 -4.73831 0
M  V30 3981 H 389.681 3.19643 -3.05419 0
M  V30 3982 N 388.74 1.54641 0.303973 0
M  V30 3983 C 389.988 1.73437 1.0375 0
M  V30 3984 C 390.309 0.521449 1.87899 0
M  V30 3985 O 389.579 -0.46432 1.90318 0
M  V30 3986 H 388.159 0.639518 0.386039 0
M  V30 3987 H 390.821 1.91988 0.335675 0
M  V30 3988 H 389.917 2.62235 1.69231 0
M  V30 3989 N 390.218 -0.567019 1.47046 0
M  V30 3990 C 391.446 -1.35027 1.56765 0
M  V30 3991 C 391.861 -1.8758 0.214316 0
M  V30 3992 O 391.218 -1.64471 -0.790919 0
M  V30 3993 C 391.269 -2.52698 2.58507 0
M  V30 3994 O 390.99 -2.0232 3.88585 0
M  V30 3995 C 392.491 -3.45043 2.78316 0
M  V30 3996 H 389.711 -0.41195 0.529658 0
M  V30 3997 H 392.255 -0.687832 1.92585 0
M  V30 3998 H 390.41 -3.149 2.25648 0
M  V30 3999 H 390.824 -2.79068 4.44096 0
M  V30 4000 H 392.298 -4.2405 3.53391 0
M  V30 4001 H 392.775 -3.97971 1.85784 0
M  V30 4002 H 393.381 -2.88665 3.12334 0
M  V30 4003 N 391.696 -1.35014 -0.812953 0
M  V30 4004 C 392.936 -1.29289 -1.58315 0
M  V30 4005 C 393.3 0.132727 -1.91541 0
M  V30 4006 O 394.501 0.314269 -2.66957 0
M  V30 4007 C 392.772 -2.1681 -2.84127 0
M  V30 4008 S 394.331 -2.28538 -3.74588 0
M  V30 4009 H 391.149 -0.459569 -0.542511 0
M  V30 4010 H 393.751 -1.70336 -0.959467 0
M  V30 4011 H 392.455 -3.19379 -2.57731 0
M  V30 4012 H 391.986 -1.76697 -3.51485 0
M  V30 4013 H 394.001 -1.4655 -4.74065 0
M  V30 4014 N 393.175 1.03435 -1.18907 0
M  V30 4015 C 394.138 2.09756 -0.923844 0
M  V30 4016 C 395.138 1.60528 0.093416 0
M  V30 4017 O 396.328 1.73631 -0.140727 0
M  V30 4018 C 393.46 3.38692 -0.387354 0
M  V30 4019 H 394.653 2.34719 -1.86674 0
M  V30 4020 H 392.206 1.19959 -1.00197 0
M  V30 4021 H 392.941 3.19396 0.561845 0
M  V30 4022 H 392.726 3.75742 -1.12074 0
M  V30 4023 H 394.216 4.17016 -0.220694 0
M  V30 4024 N 394.653 0.992116 1.22453 0
M  V30 4025 C 396.064 0.702776 1.72968 0
M  V30 4026 C 396.415 -0.780399 1.80012 0
M  V30 4027 O 395.54 -1.61007 1.44589 0
M  V30 4028 C 396.135 1.26903 3.14135 0
M  V30 4029 C 394.694 1.02909 3.62059 0
M  V30 4030 C 393.841 1.38969 2.39964 0
M  V30 4031 H 396.792 1.16457 1.07812 0
M  V30 4032 H 396.813 0.647223 3.74955 0
M  V30 4033 H 396.325 2.34851 3.08977 0
M  V30 4034 H 394.426 -0.0337979 3.72585 0
M  V30 4035 H 394.539 1.69191 4.48231 0
M  V30 4036 H 392.903 0.808279 2.41535 0
M  V30 4037 H 393.686 2.4792 2.37467 0
M  V30 4038 N 396.131 -1.37776 0.765217 0
M  V30 4039 C 397.542 -1.82521 0.392819 0
M  V30 4040 C 397.893 -1.63789 -1.08017 0
M  V30 4041 O 397.018 -1.14542 -1.83601 0
M  V30 4042 C 397.613 -3.31358 0.706214 0
M  V30 4043 C 396.172 -3.74406 0.386952 0
M  V30 4044 C 395.319 -2.60394 0.953422 0
M  V30 4045 H 398.27 -1.2634 0.960412 0
M  V30 4046 H 398.291 -3.80498 -0.0114706 0
M  V30 4047 H 397.803 -3.44959 1.77833 0
M  V30 4048 H 395.904 -3.66377 -0.678112 0
M  V30 4049 H 396.017 -4.70749 0.890636 0
M  V30 4050 H 394.381 -2.51878 0.378064 0
M  V30 4051 H 395.164 -2.76791 2.03081 0
M  V30 4052 N 397.609 -0.515225 -1.4894 0
M  V30 4053 C 398.519 0.259774 -2.33157 0
M  V30 4054 C 399.535 0.953501 -1.45548 0
M  V30 4055 O 400.711 0.931735 -1.78552 0
M  V30 4056 C 397.776 1.30193 -3.21326 0
M  V30 4057 C 396.837 0.620129 -4.24797 0
M  V30 4058 C 396.07 1.61263 -5.08753 0
M  V30 4059 O 396.293 2.84389 -4.94448 0
M  V30 4060 O 395.227 1.16013 -5.90614 0
M  V30 4061 H 399.053 -0.429932 -3.00641 0
M  V30 4062 H 396.638 -0.276346 -1.46822 0
M  V30 4063 H 398.52 1.90455 -3.75905 0
M  V30 4064 H 397.195 1.97431 -2.56521 0
M  V30 4065 H 396.102 -0.0226019 -3.74093 0
M  V30 4066 H 397.435 -0.0100493 -4.92199 0
M  V30 4067 N 399.087 1.5561 -0.249682 0
M  V30 4068 C 400.335 1.98618 0.373548 0
M  V30 4069 C 400.656 1.13919 1.58264 0
M  V30 4070 O 399.926 0.222637 1.94631 0
M  V30 4071 H 398.506 0.733571 0.141006 0
M  V30 4072 H 401.168 1.91748 -0.349117 0
M  V30 4073 H 400.264 3.04584 0.680796 0
M  V30 4074 N 400.565 -0.0233959 1.57583 0
M  V30 4075 C 401.811 -0.714119 1.89811 0
M  V30 4076 C 402.144 -1.74702 0.848113 0
M  V30 4077 O 401.419 -1.94023 -0.136135 0
M  V30 4078 C 401.702 -1.37853 3.32669 0
M  V30 4079 C 401.555 -0.358764 4.48367 0
M  V30 4080 C 402.874 -2.31101 3.7454 0
M  V30 4081 H 399.993 -0.25814 0.690314 0
M  V30 4082 H 402.635 0.0230927 1.89986 0
M  V30 4083 H 400.785 -2.00689 3.3265 0
M  V30 4084 H 402.457 0.268115 4.6052 0
M  V30 4085 H 400.7 0.321387 4.32608 0
M  V30 4086 H 401.371 -0.862242 5.45224 0
M  V30 4087 H 403.847 -1.78304 3.75961 0
M  V30 4088 H 402.723 -2.74567 4.75294 0
M  V30 4089 H 402.984 -3.18018 3.0711 0
M  V30 4090 N 402.043 -1.548 -0.295768 0
M  V30 4091 C 403.454 -1.65274 -0.868411 0
M  V30 4092 C 403.805 -0.56481 -1.87894 0
M  V30 4093 O 402.93 0.29767 -2.14343 0
M  V30 4094 C 403.525 -2.99603 -1.58188 0
M  V30 4095 C 402.084 -3.12181 -2.10286 0
M  V30 4096 C 401.231 -2.6098 -0.93727 0
M  V30 4097 H 404.182 -1.58534 -0.0726422 0
M  V30 4098 H 404.203 -2.91319 -2.44772 0
M  V30 4099 H 403.715 -3.78764 -0.846151 0
M  V30 4100 H 401.816 -2.3775 -2.8689 0
M  V30 4101 H 401.929 -4.18415 -2.33379 0
M  V30 4102 H 400.293 -2.17564 -1.32431 0
M  V30 4103 H 401.076 -3.42623 -0.215414 0
M  V30 4104 N 403.521 0.559213 -1.47345 0
M  V30 4105 C 404.484 1.64854 -1.59235 0
M  V30 4106 C 405.484 1.53851 -0.467607 0
M  V30 4107 O 406.674 1.58045 -0.732617 0
M  V30 4108 C 403.806 3.04388 -1.53496 0
M  V30 4109 H 404.999 1.55662 -2.56339 0
M  V30 4110 H 402.552 0.778973 -1.35505 0
M  V30 4111 H 403.287 3.19115 -0.577604 0
M  V30 4112 H 403.072 3.13783 -2.35123 0
M  V30 4113 H 404.562 3.83642 -1.6495 0
M  V30 4114 N 404.999 1.35443 0.805782 0
M  V30 4115 C 406.239 1.30127 1.57627 0
M  V30 4116 C 406.603 -0.122567 1.91608 0
M  V30 4117 O 407.804 -0.300107 2.67119 0
M  V30 4118 C 406.075 2.18314 2.82973 0
M  V30 4119 S 407.634 2.30521 3.7337 0
M  V30 4120 H 404.452 0.462439 0.540066 0
M  V30 4121 H 407.054 1.70843 0.95042 0
M  V30 4122 H 405.758 3.20741 2.56034 0
M  V30 4123 H 405.289 1.78558 3.50543 0
M  V30 4124 H 407.304 1.49062 4.73281 0
M  V30 4125 N 406.477 -1.02803 1.19454 0
M  V30 4126 C 407.725 -1.75869 0.995722 0
M  V30 4127 C 408.046 -1.89138 -0.474543 0
M  V30 4128 O 407.316 -1.42558 -1.34366 0
M  V30 4129 H 405.896 -0.651511 0.365435 0
M  V30 4130 H 408.558 -1.24004 1.50363 0
M  V30 4131 H 407.654 -2.76661 1.44447 0
M  V30 4132 N 407.956 -0.998596 -1.21925 0
M  V30 4133 C 409.372 -0.710303 -1.42923 0
M  V30 4134 C 409.572 0.716933 -1.88314 0
M  V30 4135 O 408.628 1.48712 -2.04062 0
M  V30 4136 C 409.941 -1.72072 -2.466 0
M  V30 4137 C 411.489 -1.73681 -2.60392 0
M  V30 4138 C 411.964 -2.73601 -3.67296 0
M  V30 4139 N 413.455 -2.7223 -3.7476 0
M  V30 4140 C 414.19 -3.46206 -4.57087 0
M  V30 4141 N 413.686 -4.29802 -5.43362 0
M  V30 4142 N 415.479 -3.34886 -4.51451 0
M  V30 4143 H 407.63 -1.92028 -0.9077 0
M  V30 4144 H 409.893 -0.828487 -0.460775 0
M  V30 4145 H 409.599 -2.74231 -2.20206 0
M  V30 4146 H 409.473 -1.51818 -3.45299 0
M  V30 4147 H 411.86 -0.722173 -2.86127 0
M  V30 4148 H 411.941 -1.98005 -1.61949 0
M  V30 4149 H 411.585 -3.75217 -3.42307 0
M  V30 4150 H 411.515 -2.46545 -4.65321 0
M  V30 4151 H 414.006 -2.11576 -3.1312 0
M  V30 4152 H 414.319 -4.83061 -6.03218 0
M  V30 4153 H 412.664 -4.33887 -5.42925 0
M  V30 4154 H 415.855 -2.69015 -3.83078 0
M  V30 4155 H 416.028 -3.92796 -5.15379 0
M  V30 4156 N 409.434 1.37368 -0.772513 0
M  V30 4157 C 410.85 1.53059 -0.452231 0
M  V30 4158 C 411.05 1.73065 1.03203 0
M  V30 4159 O 410.106 1.75245 1.81784 0
M  V30 4160 C 411.419 2.72659 -1.26797 0
M  V30 4161 C 412.967 2.86521 -1.25995 0
M  V30 4162 C 413.442 4.09105 -2.05905 0
M  V30 4163 N 414.933 4.16219 -2.03263 0
M  V30 4164 C 415.668 5.10107 -2.61875 0
M  V30 4165 N 415.164 6.09547 -3.29278 0
M  V30 4166 N 416.957 5.02596 -2.51701 0
M  V30 4167 H 409.108 1.22634 -1.7342 0
M  V30 4168 H 411.371 0.597206 -0.736239 0
M  V30 4169 H 411.077 2.64343 -2.31982 0
M  V30 4170 H 410.951 3.66363 -0.897672 0
M  V30 4171 H 413.338 2.94308 -0.216081 0
M  V30 4172 H 413.419 1.93774 -1.66989 0
M  V30 4173 H 413.063 4.0208 -3.10313 0
M  V30 4174 H 412.993 5.00968 -1.62292 0
M  V30 4175 H 415.484 3.45012 -1.54192 0
M  V30 4176 H 415.797 6.77718 -3.71374 0
M  V30 4177 H 414.142 6.09824 -3.33377 0
M  V30 4178 H 417.333 4.23855 -1.98657 0
M  V30 4179 H 417.506 5.75582 -2.97673 0
M  V30 4180 N 410.912 0.523116 1.48665 0
M  V30 4181 C 412.323 0.0808997 1.86525 0
M  V30 4182 C 412.674 -1.33975 1.43336 0
M  V30 4183 O 411.799 -2.00221 0.821009 0
M  V30 4184 C 412.394 0.140037 3.3851 0
M  V30 4185 C 410.953 -0.246948 3.75589 0
M  V30 4186 C 410.1 0.502845 2.72703 0
M  V30 4187 H 413.051 0.734736 1.40667 0
M  V30 4188 H 413.072 -0.649945 3.74908 0
M  V30 4189 H 412.584 1.17412 3.69914 0
M  V30 4190 H 410.685 -1.28343 3.49798 0
M  V30 4191 H 410.798 0.0878859 4.79019 0
M  V30 4192 H 409.162 -0.0500581 2.54651 0
M  V30 4193 H 409.945 1.53743 3.0695 0
M  V30 4194 N 412.39 -1.55475 0.257931 0
M  V30 4195 C 413.353 -2.20551 -0.623706 0
M  V30 4196 C 414.353 -1.17809 -1.09443 0
M  V30 4197 O 415.543 -1.42823 -0.997362 0
M  V30 4198 C 412.675 -2.85784 -1.8585 0
M  V30 4199 H 413.868 -2.99848 -0.0557743 0
M  V30 4200 H 411.421 -1.56298 0.0084422 0
M  V30 4201 H 412.156 -2.10453 -2.46739 0
M  V30 4202 H 411.941 -3.61057 -1.52907 0
M  V30 4203 H 413.431 -3.35553 -2.48584 0
M  V30 4204 N 413.868 0.0150385 -1.57593 0
M  V30 4205 C 415.284 0.370907 -1.5523 0
M  V30 4206 C 415.484 1.75735 -0.985882 0
M  V30 4207 O 414.54 2.44944 -0.613077 0
M  V30 4208 C 415.853 0.259908 -2.99575 0
M  V30 4209 C 417.401 0.335959 -3.11192 0
M  V30 4210 C 417.876 0.254253 -4.57294 0
M  V30 4211 N 419.367 0.312618 -4.62144 0
M  V30 4212 C 420.102 0.272505 -5.72752 0
M  V30 4213 N 419.598 0.183864 -6.92556 0
M  V30 4214 N 421.391 0.323267 -5.6117 0
M  V30 4215 H 413.542 -0.892104 -1.92757 0
M  V30 4216 H 415.805 -0.340563 -0.884715 0
M  V30 4217 H 415.511 -0.693403 -3.44797 0
M  V30 4218 H 415.385 1.048 -3.62349 0
M  V30 4219 H 417.772 1.27971 -2.65909 0
M  V30 4220 H 417.853 -0.481739 -2.51223 0
M  V30 4221 H 417.497 -0.685887 -5.03247 0
M  V30 4222 H 417.427 1.09024 -5.15191 0
M  V30 4223 H 419.918 0.38307 -3.75953 0
M  V30 4224 H 420.231 0.15874 -7.72637 0
M  V30 4225 H 418.576 0.149708 -6.94839 0
M  V30 4226 H 421.767 0.390607 -4.66467 0
M  V30 4227 H 421.94 0.288539 -6.47357 0
M  V30 4228 N 415.346 1.54954 0.287554 0
M  V30 4229 C 416.276 1.89839 1.35954 0
M  V30 4230 C 417.257 0.758675 1.52244 0
M  V30 4231 O 418.442 1.01557 1.65529 0
M  V30 4232 C 415.572 2.15753 2.72154 0
M  V30 4233 C 414.526 3.3159 2.70614 0
M  V30 4234 C 413.852 3.42952 4.10229 0
M  V30 4235 C 415.152 4.68359 2.31165 0
M  V30 4236 H 416.846 2.79625 1.07007 0
M  V30 4237 H 414.392 1.3454 0.513316 0
M  V30 4238 H 416.345 2.38743 3.47246 0
M  V30 4239 H 415.069 1.22752 3.02654 0
M  V30 4240 H 413.728 3.08545 1.97979 0
M  V30 4241 H 413.376 2.47443 4.37928 0
M  V30 4242 H 413.076 4.20826 4.10097 0
M  V30 4243 H 414.6 3.68218 4.87081 0
M  V30 4244 H 416.014 4.9099 2.95976 0
M  V30 4245 H 414.411 5.49044 2.42221 0
M  V30 4246 H 415.481 4.68165 1.26291 0
M  V30 4247 N 416.824 -0.551391 1.4764 0
M  V30 4248 C 417.754 -1.66757 1.63445 0
M  V30 4249 C 418.735 -1.63077 0.483742 0
M  V30 4250 O 419.92 -1.80607 0.71377 0
M  V30 4251 C 417.05 -3.05387 1.65396 0
M  V30 4252 C 416.004 -3.23918 2.79752 0
M  V30 4253 C 415.33 -4.63393 2.66779 0
M  V30 4254 C 416.63 -3.08735 4.21284 0
M  V30 4255 H 418.324 -1.53786 2.56886 0
M  V30 4256 H 415.87 -0.738415 1.23626 0
M  V30 4257 H 417.823 -3.83325 1.75043 0
M  V30 4258 H 416.547 -3.19332 0.685195 0
M  V30 4259 H 415.206 -2.48391 2.69625 0
M  V30 4260 H 414.854 -4.74144 1.67918 0
M  V30 4261 H 414.554 -4.7674 3.43501 0
M  V30 4262 H 416.078 -5.43458 2.78364 0
M  V30 4263 H 417.492 -3.76484 4.32357 0
M  V30 4264 H 415.889 -3.33588 4.98838 0
M  V30 4265 H 416.959 -2.0541 4.39243 0
M  V30 4266 N 418.302 -1.35869 -0.798587 0
M  V30 4267 C 419.713 -1.26498 -1.37314 0
M  V30 4268 C 420.064 0.0991899 -1.95949 0
M  V30 4269 O 419.189 1.0004 -1.91888 0
M  V30 4270 C 419.784 -2.29054 -2.49639 0
M  V30 4271 C 418.343 -2.234 -3.02935 0
M  V30 4272 C 417.49 -2.14329 -1.75949 0
M  V30 4273 H 420.441 -1.46881 -0.600971 0
M  V30 4274 H 420.462 -1.92166 -3.28409 0
M  V30 4275 H 419.974 -3.2833 -2.06933 0
M  V30 4276 H 418.075 -1.27562 -3.50084 0
M  V30 4277 H 418.188 -3.15703 -3.60372 0
M  V30 4278 H 416.552 -1.60435 -1.9782 0
M  V30 4279 H 417.335 -3.15477 -1.35384 0
M  V30 4280 N 419.78 1.02168 -1.19998 0
M  V30 4281 C 420.71 2.12488 -0.96804 0
M  V30 4282 C 421.691 1.69799 0.101185 0
M  V30 4283 O 422.876 1.94121 -0.0552993 0
M  V30 4284 C 420.006 3.43479 -0.513776 0
M  V30 4285 C 418.96 3.99884 -1.52566 0
M  V30 4286 C 418.286 5.26582 -0.928214 0
M  V30 4287 C 419.586 4.33861 -2.90795 0
M  V30 4288 H 421.28 2.32149 -1.89069 0
M  V30 4289 H 418.826 1.11564 -0.910468 0
M  V30 4290 H 420.779 4.20036 -0.338774 0
M  V30 4291 H 419.503 3.23561 0.444493 0
M  V30 4292 H 418.162 3.25429 -1.68794 0
M  V30 4293 H 417.81 5.02986 0.0378289 0
M  V30 4294 H 417.51 5.65284 -1.60397 0
M  V30 4295 H 419.034 6.05799 -0.764167 0
M  V30 4296 H 420.448 5.01327 -2.78109 0
M  V30 4297 H 418.845 4.83664 -3.55231 0
M  V30 4298 H 419.915 3.42848 -3.42904 0
M  V30 4299 N 421.258 1.00505 1.21394 0
M  V30 4300 C 422.674 0.717873 1.42544 0
M  V30 4301 C 422.874 -0.706936 1.88692 0
M  V30 4302 O 421.93 -1.47627 2.04847 0
M  V30 4303 C 423.243 1.73377 2.45684 0
M  V30 4304 C 424.791 1.75059 2.59467 0
M  V30 4305 C 425.266 2.75545 3.6584 0
M  V30 4306 N 426.757 2.74213 3.73311 0
M  V30 4307 C 427.492 3.48626 4.55245 0
M  V30 4308 N 426.988 4.32678 5.41075 0
M  V30 4309 N 428.781 3.37276 4.49668 0
M  V30 4310 H 420.932 1.92506 0.897503 0
M  V30 4311 H 423.195 0.830919 0.456375 0
M  V30 4312 H 422.901 2.75395 2.18748 0
M  V30 4313 H 422.775 1.53647 3.44489 0
M  V30 4314 H 425.162 0.737337 2.8574 0
M  V30 4315 H 425.243 1.98861 1.60897 0
M  V30 4316 H 424.887 3.77028 3.40313 0
M  V30 4317 H 424.817 2.49009 4.64007 0
M  V30 4318 H 427.308 2.13234 3.11993 0
M  V30 4319 H 427.621 4.86253 6.00648 0
M  V30 4320 H 425.966 4.3676 5.40616 0
M  V30 4321 H 429.157 2.71043 3.81646 0
M  V30 4322 H 429.33 3.95524 5.13288 0
M  V30 4323 N 422.737 -1.36956 0.779787 0
M  V30 4324 C 423.647 -2.33965 0.172491 0
M  V30 4325 C 424.663 -1.60574 -0.670222 0
M  V30 4326 O 425.839 -1.92617 -0.588263 0
M  V30 4327 C 422.904 -3.39761 -0.690173 0
M  V30 4328 C 421.965 -4.28964 0.169924 0
M  V30 4329 C 421.198 -5.29707 -0.651662 0
M  V30 4330 O 421.421 -5.38238 -1.88827 0
M  V30 4331 O 420.355 -6.01873 -0.0566264 0
M  V30 4332 H 424.181 -2.87647 0.974321 0
M  V30 4333 H 421.766 -1.39258 0.541078 0
M  V30 4334 H 423.648 -4.04471 -1.1824 0
M  V30 4335 H 422.323 -2.88394 -1.47006 0
M  V30 4336 H 421.23 -3.67326 0.708696 0
M  V30 4337 H 422.563 -4.83656 0.913085 0
M  V30 4338 N 424.215 -0.530993 -1.48385 0
M  V30 4339 C 425.165 0.251092 -2.26613 0
M  V30 4340 C 426.149 0.908977 -1.32765 0
M  V30 4341 O 427.341 0.811616 -1.57295 0
M  V30 4342 C 424.47 1.29677 -3.17866 0
M  V30 4343 C 423.556 0.643627 -4.19188 0
M  V30 4344 N 423.947 -0.271223 -5.05072 0
M  V30 4345 C 422.245 0.900711 -4.3681 0
M  V30 4346 C 422.946 -0.648109 -5.78078 0
M  V30 4347 N 421.922 -0.00895987 -5.43599 0
M  V30 4348 H 425.724 -0.452702 -2.90393 0
M  V30 4349 H 423.238 -0.349091 -1.58604 0
M  V30 4350 H 425.235 1.87079 -3.72568 0
M  V30 4351 H 423.895 2.00193 -2.55642 0
M  V30 4352 H 424.906 -0.643883 -5.13882 0
M  V30 4353 H 421.583 1.59636 -3.85775 0
M  V30 4354 H 422.973 -1.39833 -6.57188 0
M  V30 4355 N 425.693 1.55336 -0.266172 0
M  V30 4356 C 427.109 1.59356 0.0882065 0
M  V30 4357 C 427.309 1.2834 1.55342 0
M  V30 4358 O 426.365 1.03996 2.30089 0
M  V30 4359 C 427.678 2.99409 -0.278364 0
M  V30 4360 C 429.226 3.12196 -0.224243 0
M  V30 4361 C 429.701 4.545 -0.565123 0
M  V30 4362 N 431.192 4.60313 -0.51634 0
M  V30 4363 C 431.927 5.68434 -0.753013 0
M  V30 4364 N 431.423 6.84738 -1.05383 0
M  V30 4365 N 433.216 5.57942 -0.682414 0
M  V30 4366 H 425.367 1.73764 -1.22147 0
M  V30 4367 H 427.63 0.809822 -0.492841 0
M  V30 4368 H 427.336 3.2691 -1.29703 0
M  V30 4369 H 427.21 3.75228 0.385186 0
M  V30 4370 H 429.597 2.84464 0.78512 0
M  V30 4371 H 429.678 2.38609 -0.921922 0
M  V30 4372 H 429.322 4.82956 -1.57213 0
M  V30 4373 H 429.252 5.26374 0.154248 0
M  V30 4374 H 431.743 3.7676 -0.29335 0
M  V30 4375 H 432.056 7.63088 -1.22133 0
M  V30 4376 H 430.401 6.86375 -1.09151 0
M  V30 4377 H 433.592 4.65958 -0.44731 0
M  V30 4378 H 433.765 6.4213 -0.870248 0
M  V30 4379 N 427.171 -0.0066808 1.57599 0
M  V30 4380 C 428.134 -0.985035 2.06953 0
M  V30 4381 C 429.134 -1.27663 0.977687 0
M  V30 4382 O 430.324 -1.22293 1.24057 0
M  V30 4383 C 427.456 -2.3118 2.50536 0
M  V30 4384 H 428.649 -0.558255 2.94658 0
M  V30 4385 H 426.202 -0.254011 1.54222 0
M  V30 4386 H 426.937 -2.78561 1.66054 0
M  V30 4387 H 426.722 -2.11338 3.3027 0
M  V30 4388 H 428.212 -3.01377 2.8907 0
M  V30 4389 N 428.649 -1.55105 -0.279332 0
M  V30 4390 C 429.579 -1.90557 -1.34945 0
M  V30 4391 C 430.56 -0.766738 -1.51839 0
M  V30 4392 O 431.745 -1.02434 -1.64988 0
M  V30 4393 C 428.875 -2.17193 -2.71006 0
M  V30 4394 C 427.829 -3.33021 -2.68851 0
M  V30 4395 C 427.155 -3.45123 -4.08405 0
M  V30 4396 C 428.455 -4.69578 -2.28678 0
M  V30 4397 H 430.149 -2.80188 -1.05522 0
M  V30 4398 H 427.695 -1.34811 -0.506173 0
M  V30 4399 H 429.648 -2.40581 -3.45975 0
M  V30 4400 H 428.372 -1.24355 -3.01999 0
M  V30 4401 H 427.031 -3.0959 -1.9634 0
M  V30 4402 H 426.679 -2.49762 -4.3661 0
M  V30 4403 H 426.379 -4.22995 -4.07859 0
M  V30 4404 H 427.903 -3.70796 -4.85121 0
M  V30 4405 H 429.317 -4.92553 -2.93368 0
M  V30 4406 H 427.714 -5.5032 -2.39306 0
M  V30 4407 H 428.784 -4.68828 -1.23807 0
M  V30 4408 N 430.127 0.543554 -1.4793 0
M  V30 4409 C 431.367 1.31072 -1.56843 0
M  V30 4410 C 431.731 1.90604 -0.231124 0
M  V30 4411 O 432.932 2.68091 -0.195165 0
M  V30 4412 C 431.203 2.38106 -2.66533 0
M  V30 4413 S 432.762 3.24729 -2.95122 0
M  V30 4414 H 429.58 0.446035 -0.553691 0
M  V30 4415 H 432.182 0.620777 -1.85382 0
M  V30 4416 H 430.886 1.92828 -3.62278 0
M  V30 4417 H 430.417 3.11824 -2.39852 0
M  V30 4418 H 432.432 4.37891 -2.3338 0
M  V30 4419 N 431.605 1.3629 0.791371 0
M  V30 4420 C 432.833 1.33562 1.58016 0
M  V30 4421 C 433.248 -0.0835616 1.88615 0
M  V30 4422 O 432.605 -1.0399 1.49974 0
M  V30 4423 C 432.656 2.15517 2.90232 0
M  V30 4424 O 432.377 3.51902 2.60953 0
M  V30 4425 C 433.878 2.20546 3.84544 0
M  V30 4426 H 431.098 0.458226 0.490173 0
M  V30 4427 H 433.642 1.79361 0.982345 0
M  V30 4428 H 431.797 1.73278 3.46487 0
M  V30 4429 H 432.211 3.94644 3.4548 0
M  V30 4430 H 433.685 2.82252 4.74382 0
M  V30 4431 H 434.162 1.20838 4.2225 0
M  V30 4432 H 434.768 2.63013 3.34222 0
M  V30 4433 N 433.083 -1.0153 1.20538 0
M  V30 4434 C 434.013 -2.11972 0.979295 0
M  V30 4435 C 434.994 -1.6985 -0.0921787 0
M  V30 4436 O 436.179 -1.94089 0.0655932 0
M  V30 4437 C 433.309 -3.43201 0.531984 0
M  V30 4438 C 432.263 -3.9907 1.54685 0
M  V30 4439 C 431.589 -5.26082 0.956127 0
M  V30 4440 C 432.889 -4.32313 2.93092 0
M  V30 4441 H 434.583 -2.31143 1.90298 0
M  V30 4442 H 432.129 -1.11079 0.916372 0
M  V30 4443 H 434.082 -4.1985 0.361044 0
M  V30 4444 H 432.806 -3.23792 -0.427327 0
M  V30 4445 H 431.465 -3.2453 1.70517 0
M  V30 4446 H 431.113 -5.02999 -0.0111538 0
M  V30 4447 H 430.813 -5.64426 1.63393 0
M  V30 4448 H 432.337 -6.05386 0.796284 0
M  V30 4449 H 433.751 -4.99845 2.80763 0
M  V30 4450 H 432.148 -4.81774 3.57791 0
M  V30 4451 H 433.218 -3.41025 3.44717 0
M  V30 4452 N 434.561 -1.01147 -1.20859 0
M  V30 4453 C 435.809 -0.696486 -1.89719 0
M  V30 4454 C 436.13 0.775788 -1.78904 0
M  V30 4455 O 435.4 1.55759 -1.18811 0
M  V30 4456 H 433.98 -0.254628 -0.702263 0
M  V30 4457 H 436.642 -1.28197 -1.46804 0
M  V30 4458 H 435.738 -0.975357 -2.96468 0
M  V30 4459 N 436.039 1.36541 -0.78704 0
M  V30 4460 C 436.969 2.32659 -0.197992 0
M  V30 4461 C 437.95 1.56533 0.665697 0
M  V30 4462 O 439.135 1.84698 0.60001 0
M  V30 4463 C 436.265 3.40778 0.669901 0
M  V30 4464 C 435.219 4.27897 -0.0937039 0
M  V30 4465 C 434.545 5.27163 0.894629 0
M  V30 4466 C 435.845 5.06334 -1.28154 0
M  V30 4467 H 437.539 2.82171 -1.00099 0
M  V30 4468 H 435.085 1.35665 -0.482793 0
M  V30 4469 H 437.038 4.07008 1.09191 0
M  V30 4470 H 435.762 2.89827 1.50558 0
M  V30 4471 H 434.421 3.6322 -0.49666 0
M  V30 4472 H 434.069 4.72486 1.72527 0
M  V30 4473 H 433.769 5.86317 0.388149 0
M  V30 4474 H 435.293 5.96266 1.31525 0
M  V30 4475 H 436.707 5.65617 -0.93541 0
M  V30 4476 H 435.104 5.74888 -1.72115 0
M  V30 4477 H 436.174 4.38114 -2.07807 0
M  V30 4478 N 437.518 0.538854 1.48102 0
M  V30 4479 C 438.767 0.0059532 2.01699 0
M  V30 4480 C 439.08 -1.34476 1.42041 0
M  V30 4481 O 440.286 -1.96653 1.87189 0
M  V30 4482 C 438.742 -0.0397627 3.59878 0
M  V30 4483 C 438.35 1.30659 4.28523 0
M  V30 4484 C 440.094 -0.521024 4.2129 0
M  V30 4485 C 438.001 1.22098 5.78659 0
M  V30 4486 H 436.931 -0.00154456 0.753998 0
M  V30 4487 H 439.582 0.683963 1.70277 0
M  V30 4488 H 437.964 -0.783037 3.88181 0
M  V30 4489 H 439.138 2.06613 4.11883 0
M  V30 4490 H 437.453 1.7243 3.79021 0
M  V30 4491 H 440.05 -0.603184 5.31287 0
M  V30 4492 H 440.393 -1.52885 3.8721 0
M  V30 4493 H 440.926 0.166834 3.9745 0
M  V30 4494 H 437.665 2.20424 6.17328 0
M  V30 4495 H 437.185 0.50295 5.97688 0
M  V30 4496 H 438.864 0.915345 6.40492 0
M  V30 4497 N 438.996 -1.55193 0.274407 0
M  V30 4498 C 439.929 -2.18606 -0.654712 0
M  V30 4499 C 440.907 -1.14677 -1.15273 0
M  V30 4500 O 442.091 -1.43198 -1.22583 0
M  V30 4501 C 439.218 -2.80875 -1.89281 0
M  V30 4502 C 438.264 -3.981 -1.53032 0
M  V30 4503 S 439.097 -5.32025 -0.609107 0
M  V30 4504 C 440.253 -5.97761 -1.85559 0
M  V30 4505 H 440.486 -2.97074 -0.115894 0
M  V30 4506 H 438.019 -1.54288 0.05867 0
M  V30 4507 H 439.977 -3.17381 -2.60345 0
M  V30 4508 H 438.638 -2.02302 -2.40277 0
M  V30 4509 H 437.831 -4.40356 -2.45158 0
M  V30 4510 H 437.433 -3.63013 -0.899874 0
M  V30 4511 H 439.725 -6.16951 -2.7996 0
M  V30 4512 H 440.668 -6.92545 -1.47605 0
M  V30 4513 H 441.076 -5.27113 -2.02021 0
M  V30 4514 N 440.474 -0.00167713 -1.576 0
M  V30 4515 C 441.722 0.681471 -1.90264 0
M  V30 4516 C 442.043 1.7422 -0.875924 0
M  V30 4517 O 441.313 1.95709 0.0864412 0
M  V30 4518 H 439.893 0.254696 -0.702239 0
M  V30 4519 H 442.555 -0.0429996 -1.94853 0
M  V30 4520 H 441.651 1.15166 -2.90075 0
M  V30 4521 N 441.952 1.55251 0.271103 0
M  V30 4522 C 443.18 1.79974 1.02064 0
M  V30 4523 C 443.595 0.574003 1.79863 0
M  V30 4524 O 442.952 -0.456962 1.76686 0
M  V30 4525 C 443.003 3.02603 1.97772 0
M  V30 4526 O 442.724 4.20443 1.23124 0
M  V30 4527 C 444.225 3.39944 2.84522 0
M  V30 4528 H 441.445 0.599489 0.301419 0
M  V30 4529 H 443.989 2.02268 0.301313 0
M  V30 4530 H 442.144 2.8243 2.65165 0
M  V30 4531 H 442.558 4.89783 1.87651 0
M  V30 4532 H 444.032 4.28915 3.47471 0
M  V30 4533 H 444.509 2.59432 3.54389 0
M  V30 4534 H 445.115 3.62383 2.22618 0
M  V30 4535 N 443.43 -0.535701 1.48216 0
M  V30 4536 C 444.677 -1.29183 1.55942 0
M  V30 4537 C 445.005 -1.93125 0.230857 0
M  V30 4538 O 444.26 -1.79556 -0.778331 0
M  V30 4539 C 444.559 -2.4068 2.64212 0
M  V30 4540 C 444.225 -1.94428 4.06827 0
M  V30 4541 C 442.887 -1.81532 4.45645 0
M  V30 4542 C 445.239 -1.59405 4.96225 0
M  V30 4543 C 442.567 -1.31939 5.71672 0
M  V30 4544 C 444.919 -1.11276 6.22736 0
M  V30 4545 C 443.583 -0.969924 6.60416 0
M  V30 4546 H 442.853 -0.472715 0.570632 0
M  V30 4547 H 445.5 -0.598437 1.81909 0
M  V30 4548 H 443.805 -3.15666 2.32083 0
M  V30 4549 H 445.502 -2.98822 2.67407 0
M  V30 4550 H 442.092 -2.05415 3.76168 0
M  V30 4551 H 446.276 -1.68231 4.66917 0
M  V30 4552 H 441.532 -1.19562 5.99596 0
M  V30 4553 H 445.706 -0.832453 6.91407 0
M  V30 4554 H 443.333 -0.583436 7.57958 0
M  V30 4555 N 444.908 -1.36708 -0.784132 0
M  V30 4556 C 446.136 -1.34398 -1.57305 0
M  V30 4557 C 446.551 0.0735577 -1.88657 0
M  V30 4558 O 445.908 1.03193 -1.50524 0
M  V30 4559 C 445.959 -2.17053 -2.89085 0
M  V30 4560 O 445.68 -3.53281 -2.59083 0
M  V30 4561 C 447.181 -2.22583 -3.83369 0
M  V30 4562 H 444.401 -0.460819 -0.487736 0
M  V30 4563 H 446.945 -1.79879 -0.972819 0
M  V30 4564 H 445.1 -1.75113 -3.45564 0
M  V30 4565 H 445.514 -3.9647 -3.43383 0
M  V30 4566 H 446.988 -2.84763 -4.72878 0
M  V30 4567 H 447.465 -1.23075 -4.21603 0
M  V30 4568 H 448.071 -2.64781 -3.32823 0
M  V30 4569 N 446.386 1.0089 -1.21074 0
M  V30 4570 C 447.316 2.1145 -0.990523 0
M  V30 4571 C 448.297 1.69897 0.0831699 0
M  V30 4572 O 449.482 1.94052 -0.0758853 0
M  V30 4573 C 446.612 3.42914 -0.550177 0
M  V30 4574 C 445.566 3.98244 -1.56799 0
M  V30 4575 C 444.892 5.25568 -0.984013 0
M  V30 4576 C 446.192 4.30752 -2.95381 0
M  V30 4577 H 447.886 2.3013 -1.91521 0
M  V30 4578 H 445.432 1.10592 -0.92225 0
M  V30 4579 H 447.385 4.19653 -0.383305 0
M  V30 4580 H 446.109 3.24014 0.41015 0
M  V30 4581 H 444.768 3.23621 -1.72236 0
M  V30 4582 H 444.416 5.02998 -0.0155216 0
M  V30 4583 H 444.116 5.63551 -1.66384 0
M  V30 4584 H 445.64 6.04955 -0.828378 0
M  V30 4585 H 447.054 4.98349 -2.8341 0
M  V30 4586 H 445.451 4.79869 -3.60341 0
M  V30 4587 H 446.521 3.39192 -3.46521 0
M  V30 4588 N 447.864 1.01787 1.20321 0
M  V30 4589 C 449.104 0.716493 1.91431 0
M  V30 4590 C 449.468 -0.740352 1.77152 0
M  V30 4591 O 450.669 -1.1543 2.42754 0
M  V30 4592 C 448.94 1.14169 3.38674 0
M  V30 4593 S 450.499 0.962482 4.28114 0
M  V30 4594 H 447.317 0.261175 0.661293 0
M  V30 4595 H 449.919 1.30539 1.45533 0
M  V30 4596 H 448.623 2.19784 3.46588 0
M  V30 4597 H 448.154 0.545621 3.89598 0
M  V30 4598 H 450.169 -0.133253 4.96021 0
M  V30 4599 N 449.342 -1.36122 0.79427 0
M  V30 4600 C 450.588 -1.99846 0.378542 0
M  V30 4601 C 450.943 -1.61898 -1.03955 0
M  V30 4602 O 450.236 -0.866013 -1.70912 0
M  V30 4603 C 450.43 -3.5409 0.48527 0
M  V30 4604 C 450.259 -4.0702 1.91219 0
M  V30 4605 C 449.029 -4.36944 2.53787 0
M  V30 4606 C 451.227 -4.26435 2.87502 0
M  V30 4607 N 449.209 -4.75727 3.88017 0
M  V30 4608 C 450.58 -4.68077 4.06576 0
M  V30 4609 C 452.635 -4.08616 2.84495 0
M  V30 4610 C 451.338 -4.93765 5.23057 0
M  V30 4611 C 453.364 -4.35453 4.00169 0
M  V30 4612 C 452.726 -4.77355 5.17988 0
M  V30 4613 H 448.825 -0.759549 0.186034 0
M  V30 4614 H 451.409 -1.65043 1.0329 0
M  V30 4615 H 449.58 -3.88151 -0.139023 0
M  V30 4616 H 451.312 -4.04675 0.0453192 0
M  V30 4617 H 448.067 -4.26822 2.05231 0
M  V30 4618 H 448.491 -4.99396 4.57092 0
M  V30 4619 H 453.133 -3.75373 1.94564 0
M  V30 4620 H 450.851 -5.25887 6.1357 0
M  V30 4621 H 454.437 -4.2323 3.99208 0
M  V30 4622 H 453.317 -4.97718 6.06008 0
M  V30 4623 N 450.82 -0.546701 -1.47814 0
M  V30 4624 C 451.75 0.195317 -2.32682 0
M  V30 4625 C 452.731 0.918981 -1.43139 0
M  V30 4626 O 453.916 0.901501 -1.72008 0
M  V30 4627 C 451.046 1.23237 -3.247 0
M  V30 4628 C 450 0.625818 -4.234 0
M  V30 4629 C 449.326 1.76674 -5.04669 0
M  V30 4630 C 450.626 -0.413515 -5.2066 0
M  V30 4631 H 452.32 -0.513184 -2.94969 0
M  V30 4632 H 449.866 -0.248241 -1.41844 0
M  V30 4633 H 451.819 1.75955 -3.82907 0
M  V30 4634 H 450.543 1.97067 -2.60446 0
M  V30 4635 H 449.202 0.120023 -3.66403 0
M  V30 4636 H 448.85 2.49383 -4.36826 0
M  V30 4637 H 448.55 1.36673 -5.71484 0
M  V30 4638 H 450.074 2.29738 -5.65732 0
M  V30 4639 H 451.488 0.0272042 -5.73294 0
M  V30 4640 H 449.885 -0.731825 -5.95621 0
M  V30 4641 H 450.955 -1.31325 -4.66778 0
M  V30 4642 N 452.299 1.55045 -0.282633 0
M  V30 4643 C 453.71 1.85473 0.213655 0
M  V30 4644 C 454.061 1.20465 1.54863 0
M  V30 4645 O 453.186 0.495676 2.10647 0
M  V30 4646 C 453.781 3.36496 0.394445 0
M  V30 4647 C 452.34 3.67022 0.834961 0
M  V30 4648 C 451.487 2.77218 -0.0674081 0
M  V30 4649 H 454.438 1.50478 -0.504202 0
M  V30 4650 H 454.459 3.60007 1.23186 0
M  V30 4651 H 453.971 3.83782 -0.577326 0
M  V30 4652 H 452.072 3.25241 1.81794 0
M  V30 4653 H 452.185 4.74433 0.667075 0
M  V30 4654 H 450.549 2.5069 0.450196 0
M  V30 4655 H 451.332 3.2732 -1.0352 0
M  V30 4656 N 453.777 0.010035 1.57597 0
M  V30 4657 C 455.024 -0.6727 1.91 0
M  V30 4658 C 455.352 -1.73219 0.884614 0
M  V30 4659 O 454.607 -1.95395 -0.109215 0
M  V30 4660 C 454.906 -1.34434 3.31153 0
M  V30 4661 C 454.572 -0.417083 4.48967 0
M  V30 4662 C 453.234 -0.161809 4.80928 0
M  V30 4663 C 455.586 0.220753 5.20732 0
M  V30 4664 C 452.914 0.739426 5.82022 0
M  V30 4665 C 455.266 1.10993 6.22787 0
M  V30 4666 C 453.93 1.37428 6.532 0
M  V30 4667 H 453.2 -0.246158 0.698918 0
M  V30 4668 H 455.847 0.0677145 1.9138 0
M  V30 4669 H 454.152 -2.15905 3.26944 0
M  V30 4670 H 455.849 -1.87883 3.54261 0
M  V30 4671 H 452.439 -0.626217 4.24001 0
M  V30 4672 H 456.623 0.0365643 4.96287 0
M  V30 4673 H 451.879 0.952139 6.03941 0
M  V30 4674 H 456.053 1.61046 6.77523 0
M  V30 4675 H 453.68 2.0743 7.31353 0
M  V30 4676 N 455.255 -1.55392 -0.262866 0
M  V30 4677 C 456.502 -1.76476 -0.993109 0
M  V30 4678 C 456.83 -0.571479 -1.85915 0
M  V30 4679 O 456.085 0.445733 -1.90556 0
M  V30 4680 C 456.384 -3.02889 -1.89718 0
M  V30 4681 C 456.05 -4.34974 -1.18781 0
M  V30 4682 C 454.712 -4.7087 -0.991699 0
M  V30 4683 C 457.064 -5.16695 -0.683798 0
M  V30 4684 C 454.392 -5.86036 -0.279024 0
M  V30 4685 C 456.744 -6.32598 0.0153327 0
M  V30 4686 C 455.408 -6.67127 0.223062 0
M  V30 4687 H 454.678 -0.64577 -0.363404 0
M  V30 4688 H 457.325 -1.89664 -0.264525 0
M  V30 4689 H 455.63 -2.84644 -2.6923 0
M  V30 4690 H 457.327 -3.16399 -2.46359 0
M  V30 4691 H 453.917 -4.06765 -1.35058 0
M  V30 4692 H 458.101 -4.8943 -0.8229 0
M  V30 4693 H 453.357 -6.11306 -0.107456 0
M  V30 4694 H 457.531 -6.95171 0.413584 0
M  V30 4695 H 455.158 -7.56216 0.777265 0
M  V30 4696 N 456.733 0.527833 -1.48498 0
M  V30 4697 C 457.663 1.64136 -1.66077 0
M  V30 4698 C 458.644 1.62286 -0.509625 0
M  V30 4699 O 459.829 1.79449 -0.742413 0
M  V30 4700 C 456.959 3.02717 -1.70234 0
M  V30 4701 C 455.913 3.19426 -2.8487 0
M  V30 4702 C 455.239 4.5909 -2.74118 0
M  V30 4703 C 456.539 3.01993 -4.26142 0
M  V30 4704 H 458.233 1.4968 -2.593 0
M  V30 4705 H 455.779 0.718654 -1.24785 0
M  V30 4706 H 457.732 3.80491 -1.8112 0
M  V30 4707 H 456.456 3.18201 -0.735911 0
M  V30 4708 H 455.115 2.4407 -2.73542 0
M  V30 4709 H 454.763 4.71413 -1.7544 0
M  V30 4710 H 454.463 4.71214 -3.51042 0
M  V30 4711 H 455.987 5.3896 -2.86974 0
M  V30 4712 H 457.401 3.69558 -4.38292 0
M  V30 4713 H 455.798 3.2561 -5.04082 0
M  V30 4714 H 456.868 1.98396 -4.42456 0
M  V30 4715 N 458.211 1.37122 0.776871 0
M  V30 4716 C 459.174 1.32301 1.8716 0
M  V30 4717 C 460.174 0.228099 1.59174 0
M  V30 4718 O 461.364 0.483642 1.67352 0
M  V30 4719 C 458.496 1.054 3.24197 0
M  V30 4720 H 459.689 2.29673 1.92848 0
M  V30 4721 H 457.242 1.22077 0.97606 0
M  V30 4722 H 457.977 0.0853872 3.24188 0
M  V30 4723 H 457.762 1.84648 3.45901 0
M  V30 4724 H 459.252 1.04664 4.04271 0
M  V30 4725 N 459.689 -1.00246 1.21608 0
M  V30 4726 C 460.637 -2.11193 0.97469 0
M  V30 4727 C 461.631 -1.69216 -0.0789303 0
M  V30 4728 O 462.837 -1.79853 0.0726806 0
M  V30 4729 H 459.212 -0.690455 0.297953 0
M  V30 4730 H 461.183 -2.2873 1.91638 0
M  V30 4731 C 459.932 -3.43182 0.558717 0
M  V30 4732 H 459.255 -3.75918 1.3611 0
M  V30 4733 H 460.695 -4.21823 0.429154 0
M  V30 4734 C 459.154 -3.28882 -0.730648 0
M  V30 4735 O 459.684 -3.59835 -1.78554 0
M  V30 4736 N 457.89 -2.8209 -0.698131 0
M  V30 4737 H 457.437 -2.57099 0.16061 0
M  V30 4738 H 457.395 -2.72903 -1.56113 0
M  V30 4739 N 461.167 -1.02423 -1.1978 0
M  V30 4740 C 462.413 -0.719051 -1.89625 0
M  V30 4741 C 462.746 0.750083 -1.7913 0
M  V30 4742 O 462.021 1.54574 -1.18056 0
M  V30 4743 C 462.304 -1.16499 -3.40735 0
M  V30 4744 C 462.157 -2.695 -3.60125 0
M  V30 4745 C 463.476 -0.742166 -4.33797 0
M  V30 4746 H 460.595 -0.26269 -0.688595 0
M  V30 4747 H 463.237 -1.27333 -1.41018 0
M  V30 4748 H 461.387 -0.69341 -3.82262 0
M  V30 4749 H 463.059 -3.24569 -3.278 0
M  V30 4750 H 461.302 -3.10113 -3.03336 0
M  V30 4751 H 461.973 -2.95757 -4.66081 0
M  V30 4752 H 464.449 -1.1477 -3.99959 0
M  V30 4753 H 463.325 -1.08213 -5.38127 0
M  V30 4754 H 463.586 0.355747 -4.40666 0
M  V30 4755 N 462.645 1.35699 -0.801477 0
M  V30 4756 C 463.575 2.32436 -0.222658 0
M  V30 4757 C 464.556 1.5723 0.649057 0
M  V30 4758 O 465.741 1.85324 0.580387 0
M  V30 4759 C 462.871 3.41469 0.633719 0
M  V30 4760 C 461.825 4.27774 -0.139083 0
M  V30 4761 C 461.151 5.28082 0.838666 0
M  V30 4762 C 462.451 5.04946 -1.33517 0
M  V30 4763 H 464.145 2.81094 -1.03086 0
M  V30 4764 H 461.691 1.35146 -0.497155 0
M  V30 4765 H 463.644 4.08143 1.04868 0
M  V30 4766 H 462.368 2.91408 1.47475 0
M  V30 4767 H 461.027 3.62673 -0.535156 0
M  V30 4768 H 460.675 4.7429 1.67506 0
M  V30 4769 H 460.375 5.86695 0.32594 0
M  V30 4770 H 461.899 5.97628 1.25194 0
M  V30 4771 H 463.313 5.64593 -0.995349 0
M  V30 4772 H 461.71 5.7303 -1.78202 0
M  V30 4773 H 462.78 4.35886 -2.12442 0
M  V30 4774 N 464.123 0.554532 1.47522 0
M  V30 4775 C 465.539 0.214107 1.58157 0
M  V30 4776 C 465.739 -1.28331 1.55349 0
M  V30 4777 O 464.795 -2.06329 1.45549 0
M  V30 4778 C 466.108 0.838391 2.88776 0
M  V30 4779 C 467.656 0.809374 3.02354 0
M  V30 4780 C 468.131 1.41268 4.35669 0
M  V30 4781 N 469.622 1.37574 4.42298 0
M  V30 4782 C 470.357 1.8122 5.4401 0
M  V30 4783 N 469.853 2.3271 6.52547 0
M  V30 4784 N 471.646 1.72307 5.35039 0
M  V30 4785 H 463.797 1.52744 1.4759 0
M  V30 4786 H 466.06 0.636812 0.702264 0
M  V30 4787 H 465.766 1.89065 2.96559 0
M  V30 4788 H 465.64 0.329847 3.75755 0
M  V30 4789 H 468.027 -0.234187 2.94169 0
M  V30 4790 H 468.108 1.35565 2.16924 0
M  V30 4791 H 467.752 2.45529 4.4461 0
M  V30 4792 H 467.682 0.841871 5.19827 0
M  V30 4793 H 470.173 0.999081 3.64454 0
M  V30 4794 H 470.486 2.63944 7.26329 0
M  V30 4795 H 468.831 2.36719 6.53444 0
M  V30 4796 H 472.022 1.3186 4.49144 0
M  V30 4797 H 472.195 2.06641 6.14169 0
M  V30 4798 N 465.601 -1.54893 0.290851 0
M  V30 4799 C 466.564 -2.21824 -0.576784 0
M  V30 4800 C 467.564 -1.20104 -1.06919 0
M  V30 4801 O 468.754 -1.44906 -0.966843 0
M  V30 4802 C 465.886 -2.89662 -1.79747 0
M  V30 4803 H 467.079 -2.99899 0.00784051 0
M  V30 4804 H 464.632 -1.56245 0.0415934 0
M  V30 4805 H 465.367 -2.15639 -2.42219 0
M  V30 4806 H 465.152 -3.64219 -1.45214 0
M  V30 4807 H 466.642 -3.4075 -2.4141 0
M  V30 4808 N 467.08 -0.0183926 -1.57589 0
M  V30 4809 C 468.01 0.965596 -2.12599 0
M  V30 4810 C 468.991 1.34641 -1.0395 0
M  V30 4811 O 470.176 1.42693 -1.31729 0
M  V30 4812 C 467.306 2.25149 -2.64434 0
M  V30 4813 C 466.26 2.01175 -3.77773 0
M  V30 4814 C 465.586 3.35937 -4.15994 0
M  V30 4815 C 466.886 1.35953 -5.04296 0
M  V30 4816 H 468.58 0.507504 -2.95067 0
M  V30 4817 H 466.126 0.242671 -1.41941 0
M  V30 4818 H 468.079 2.94357 -3.01549 0
M  V30 4819 H 466.803 2.73105 -1.79112 0
M  V30 4820 H 465.462 1.34388 -3.4108 0
M  V30 4821 H 465.11 3.81631 -3.27669 0
M  V30 4822 H 464.81 3.20705 -4.92364 0
M  V30 4823 H 466.334 4.0643 -4.55683 0
M  V30 4824 H 467.748 1.95144 -5.39065 0
M  V30 4825 H 466.145 1.31152 -5.85593 0
M  V30 4826 H 467.215 0.331071 -4.83768 0
M  V30 4827 N 468.558 1.5553 0.254621 0
M  V30 4828 C 469.806 1.7665 0.981793 0
M  V30 4829 C 470.127 0.580963 1.86145 0
M  V30 4830 O 469.397 -0.403537 1.91699 0
M  V30 4831 H 467.977 0.651475 0.365498 0
M  V30 4832 H 470.639 1.92958 0.274426 0
M  V30 4833 H 469.735 2.67486 1.60802 0
M  V30 4834 N 470.036 -0.519951 1.48776 0
M  V30 4835 C 471.284 -1.2727 1.56993 0
M  V30 4836 C 471.605 -1.9339 0.25004 0
M  V30 4837 O 470.875 -1.81822 -0.729216 0
M  V30 4838 H 469.455 -0.472732 0.578389 0
M  V30 4839 H 472.117 -0.604234 1.85297 0
M  V30 4840 H 471.213 -2.04669 2.3562 0
M  V30 4841 N 471.514 -1.37532 -0.769588 0
M  V30 4842 C 472.925 -1.29382 -1.346 0
M  V30 4843 C 473.276 0.0576039 -1.96115 0
M  V30 4844 O 472.401 0.95947 -1.93967 0
M  V30 4845 C 472.996 -2.34298 -2.44724 0
M  V30 4846 C 471.555 -2.29776 -2.98128 0
M  V30 4847 C 470.702 -2.18013 -1.71364 0
M  V30 4848 H 473.653 -1.48123 -0.56968 0
M  V30 4849 H 473.674 -1.99089 -3.24259 0
M  V30 4850 H 473.186 -3.32645 -1.99922 0
M  V30 4851 H 471.287 -1.34959 -3.47299 0
M  V30 4852 H 471.4 -3.23276 -3.53595 0
M  V30 4853 H 469.764 -1.64595 -1.94372 0
M  V30 4854 H 470.547 -3.18278 -1.28662 0
M  V30 4855 N 472.992 0.995999 -1.22138 0
M  V30 4856 C 474.217 1.77601 -1.0711 0
M  V30 4857 C 474.642 1.84339 0.374264 0
M  V30 4858 O 474 1.29359 1.27028 0
M  V30 4859 C 474.048 3.18897 -1.68336 0
M  V30 4860 O 473.152 4.01663 -0.934928 0
M  V30 4861 H 472.493 0.547011 -0.376397 0
M  V30 4862 H 475.023 1.25137 -1.6187 0
M  V30 4863 H 475.033 3.69539 -1.72931 0
M  V30 4864 H 473.708 3.13308 -2.73516 0
M  V30 4865 H 472.285 3.60204 -0.964751 0
M  V30 4866 N 474.47 1.03057 1.19235 0
M  V30 4867 C 475.4 0.633497 2.24742 0
M  V30 4868 C 476.381 -0.358335 1.66283 0
M  V30 4869 O 477.566 -0.240676 1.92703 0
M  V30 4870 C 474.696 -0.0147648 3.47297 0
M  V30 4871 C 473.65 0.899527 4.18441 0
M  V30 4872 C 472.976 0.116281 5.34574 0
M  V30 4873 C 474.276 2.21404 4.73051 0
M  V30 4874 H 475.97 1.5155 2.58211 0
M  V30 4875 H 473.516 0.73014 1.24117 0
M  V30 4876 H 475.469 -0.304202 4.20301 0
M  V30 4877 H 474.193 -0.931577 3.13032 0
M  V30 4878 H 472.852 1.17319 3.47321 0
M  V30 4879 H 472.5 -0.802619 4.96555 0
M  V30 4880 H 472.2 0.725293 5.83107 0
M  V30 4881 H 473.724 -0.166376 6.10373 0
M  V30 4882 H 475.138 1.98601 5.37802 0
M  V30 4883 H 473.535 2.77512 5.32078 0
M  V30 4884 H 474.605 2.86752 3.91026 0
M  V30 4885 N 475.948 -1.35272 0.808662 0
M  V30 4886 C 477.194 -1.99003 0.390581 0
M  V30 4887 C 477.527 -1.63999 -1.0401 0
M  V30 4888 O 476.802 -0.904368 -1.72196 0
M  V30 4889 C 477.085 -3.55454 0.576566 0
M  V30 4890 C 476.938 -4.00249 2.05233 0
M  V30 4891 C 478.257 -4.401 0.00354277 0
M  V30 4892 H 475.376 -0.722917 0.143388 0
M  V30 4893 H 478.018 -1.6039 1.01858 0
M  V30 4894 H 476.168 -3.88477 0.0419766 0
M  V30 4895 H 477.84 -3.77626 2.64946 0
M  V30 4896 H 476.083 -3.51082 2.54801 0
M  V30 4897 H 476.754 -5.0911 2.13333 0
M  V30 4898 H 479.23 -4.13548 0.460117 0
M  V30 4899 H 478.106 -5.48656 0.163575 0
M  V30 4900 H 478.367 -4.28444 -1.09032 0
M  V30 4901 N 477.426 -0.562348 -1.47226 0
M  V30 4902 C 478.837 -0.130325 -1.86245 0
M  V30 4903 C 479.188 1.30128 -1.46838 0
M  V30 4904 O 478.313 1.97974 -0.873805 0
M  V30 4905 C 478.908 -0.229738 -3.3802 0
M  V30 4906 C 477.467 0.14728 -3.76112 0
M  V30 4907 C 476.614 -0.574971 -2.71274 0
M  V30 4908 H 479.565 -0.771773 -1.3867 0
M  V30 4909 H 479.586 0.550316 -3.76499 0
M  V30 4910 H 479.098 -1.27178 -3.66671 0
M  V30 4911 H 477.199 1.19023 -3.53078 0
M  V30 4912 H 477.312 -0.214858 -4.78618 0
M  V30 4913 H 475.676 -0.0174756 -2.54694 0
M  V30 4914 H 476.459 -1.61827 -3.02766 0
M  V30 4915 N 478.904 1.54736 -0.299062 0
M  V30 4916 C 480.152 1.99706 0.31017 0
M  V30 4917 C 480.473 1.18896 1.54559 0
M  V30 4918 O 479.743 0.284445 1.93824 0
M  V30 4919 H 478.323 0.737686 0.117596 0
M  V30 4920 H 480.985 1.9054 -0.409943 0
M  V30 4921 H 480.081 3.06596 0.58355 0
M  V30 4922 N 480.382 0.0267497 1.57577 0
M  V30 4923 C 481.793 -0.512413 1.79531 0
M  V30 4924 C 482.144 -1.72391 0.936791 0
M  V30 4925 O 481.269 -2.15903 0.146543 0
M  V30 4926 C 481.864 -0.936378 3.25603 0
M  V30 4927 C 480.423 -1.42067 3.4856 0
M  V30 4928 C 479.57 -0.384278 2.74624 0
M  V30 4929 H 482.521 0.252797 1.56674 0
M  V30 4930 H 482.542 -1.80088 3.35184 0
M  V30 4931 H 482.054 -0.0544332 3.88062 0
M  V30 4932 H 480.155 -2.32262 2.9135 0
M  V30 4933 H 480.268 -1.42968 4.57271 0
M  V30 4934 H 478.632 -0.851855 2.40032 0
M  V30 4935 H 479.415 0.489159 3.39797 0
M  V30 4936 N 481.861 -1.55662 -0.24637 0
M  V30 4937 C 482.824 -1.89558 -1.28842 0
M  V30 4938 C 483.824 -0.772082 -1.41052 0
M  V30 4939 O 485.014 -1.04007 -1.39743 0
M  V30 4940 C 482.146 -2.12449 -2.66605 0
M  V30 4941 H 483.339 -2.82735 -1.00004 0
M  V30 4942 H 480.892 -1.48562 -0.485684 0
M  V30 4943 H 481.627 -1.21742 -3.00582 0
M  V30 4944 H 481.412 -2.94273 -2.59125 0
M  V30 4945 H 482.902 -2.39854 -3.41847 0
M  V30 4946 N 483.339 0.512053 -1.4905 0
M  V30 4947 C 484.586 1.26686 -1.57978 0
M  V30 4948 C 484.914 1.92733 -0.261553 0
M  V30 4949 O 484.169 1.80772 0.749667 0
M  V30 4950 C 484.468 2.36446 -2.68008 0
M  V30 4951 C 484.134 1.87932 -4.09869 0
M  V30 4952 C 482.796 1.74419 -4.48477 0
M  V30 4953 C 485.148 1.5149 -4.98698 0
M  V30 4954 C 482.476 1.22827 -5.73699 0
M  V30 4955 C 484.828 1.01355 -6.24428 0
M  V30 4956 C 483.492 0.864735 -6.61875 0
M  V30 4957 H 482.762 0.463577 -0.578081 0
M  V30 4958 H 485.409 0.569421 -1.82838 0
M  V30 4959 H 483.714 3.11933 -2.37076 0
M  V30 4960 H 485.411 2.9453 -2.72127 0
M  V30 4961 H 482.001 1.99405 -3.79389 0
M  V30 4962 H 486.185 1.60782 -4.69535 0
M  V30 4963 H 481.441 1.10008 -6.01422 0
M  V30 4964 H 485.615 0.722351 -6.92644 0
M  V30 4965 H 483.242 0.462777 -7.5879 0
M  V30 4966 N 484.817 1.37938 0.762283 0
M  V30 4967 C 485.747 1.37176 1.88958 0
M  V30 4968 C 486.728 0.238945 1.68413 0
M  V30 4969 O 487.913 0.440726 1.89133 0
M  V30 4970 C 485.043 1.18742 3.2637 0
M  V30 4971 C 483.997 2.29136 3.61498 0
M  V30 4972 C 483.323 1.95816 4.97554 0
M  V30 4973 C 484.623 3.71363 3.6727 0
M  V30 4974 H 486.317 2.31509 1.89853 0
M  V30 4975 H 483.863 1.11438 0.912005 0
M  V30 4976 H 485.816 1.16837 4.04879 0
M  V30 4977 H 484.54 0.208683 3.25933 0
M  V30 4978 H 483.199 2.30213 2.85303 0
M  V30 4979 H 482.847 0.964475 4.93667 0
M  V30 4980 H 482.547 2.69745 5.22026 0
M  V30 4981 H 484.071 1.95513 5.78452 0
M  V30 4982 H 485.485 3.72364 4.35911 0
M  V30 4983 H 483.882 4.44425 4.03245 0
M  V30 4984 H 484.952 4.04305 2.67704 0
M  V30 4985 N 486.295 -0.989507 1.22664 0
M  V30 4986 C 487.258 -2.06183 1.00106 0
M  V30 4987 C 488.258 -1.60765 -0.0337726 0
M  V30 4988 O 489.448 -1.72989 0.205072 0
M  V30 4989 C 486.58 -3.37021 0.51279 0
M  V30 4990 H 487.773 -2.27629 1.95256 0
M  V30 4991 H 485.326 -1.16158 1.0458 0
M  V30 4992 H 486.061 -3.21261 -0.442917 0
M  V30 4993 H 485.846 -3.71323 1.25942 0
M  V30 4994 H 487.336 -4.1591 0.375315 0
M  V30 4995 N 487.773 -1.03688 -1.18687 0
M  V30 4996 C 488.703 -0.645407 -2.24403 0
M  V30 4997 C 489.684 0.349511 -1.66471 0
M  V30 4998 O 490.869 0.230453 -1.92828 0
M  V30 4999 C 487.999 -0.00365337 -3.473 0
M  V30 5000 C 486.953 -0.921705 -4.17958 0
M  V30 5001 C 486.279 -0.144629 -5.34504 0
M  V30 5002 C 487.579 -2.23909 -4.71871 0
M  V30 5003 H 489.273 -1.52917 -2.57404 0
M  V30 5004 H 486.819 -0.736711 -1.23728 0
M  V30 5005 H 488.772 0.281908 -4.20456 0
M  V30 5006 H 487.496 0.914963 -3.13522 0
M  V30 5007 H 486.155 -1.19159 -3.46694 0
M  V30 5008 H 485.803 0.776274 -4.96974 0
M  V30 5009 H 485.503 -0.756206 -5.82714 0
M  V30 5010 H 487.027 0.134004 -6.10453 0
M  V30 5011 H 488.441 -2.0145 -5.36741 0
M  V30 5012 H 486.838 -2.8033 -5.30599 0
M  V30 5013 H 487.908 -2.88822 -3.895 0
M  V30 5014 N 489.251 1.34841 -0.815825 0
M  V30 5015 C 490.199 2.31549 -0.220888 0
M  V30 5016 C 491.193 1.5707 0.634457 0
M  V30 5017 O 492.399 1.72125 0.526589 0
M  V30 5018 H 488.774 0.750153 -0.0526782 0
M  V30 5019 H 490.745 2.7926 -1.05149 0
M  V30 5020 C 489.494 3.42335 0.608427 0
M  V30 5021 H 488.817 3.9978 -0.0404121 0
M  V30 5022 H 490.257 4.12258 0.990931 0
M  V30 5023 C 488.716 2.86173 1.77782 0
M  V30 5024 O 489.246 2.80474 2.87571 0
M  V30 5025 N 487.452 2.43093 1.59229 0
M  V30 5026 H 486.999 2.47928 0.699237 0
M  V30 5027 H 486.957 2.05866 2.37627 0
M  V30 5028 N 490.729 0.570148 1.46925 0
M  V30 5029 C 491.975 0.0593124 2.03314 0
M  V30 5030 C 492.33 -1.28139 1.43521 0
M  V30 5031 O 491.623 -1.82411 0.586245 0
M  V30 5032 C 491.817 -0.0780336 3.57315 0
M  V30 5033 C 491.646 1.2478 4.32042 0
M  V30 5034 C 490.416 1.81859 4.7144 0
M  V30 5035 C 492.614 2.16808 4.66368 0
M  V30 5036 N 490.596 3.08313 5.30864 0
M  V30 5037 C 491.967 3.27845 5.2623 0
M  V30 5038 C 494.022 2.16643 4.48297 0
M  V30 5039 C 492.725 4.38832 5.69929 0
M  V30 5040 C 494.751 3.26652 4.93004 0
M  V30 5041 C 494.113 4.36408 5.52926 0
M  V30 5042 H 490.212 0.0641804 0.779362 0
M  V30 5043 H 492.796 0.760285 1.79242 0
M  V30 5044 H 490.967 -0.748151 3.81126 0
M  V30 5045 H 492.699 -0.59211 4.00345 0
M  V30 5046 H 489.454 1.35502 4.53802 0
M  V30 5047 H 489.878 3.72802 5.65108 0
M  V30 5048 H 494.52 1.33065 4.01315 0
M  V30 5049 H 492.238 5.23162 6.15896 0
M  V30 5050 H 495.824 3.27627 4.80782 0
M  V30 5051 H 494.704 5.20127 5.86888 0
M  V30 5052 N 492.207 -1.54576 0.307264 0
M  V30 5053 C 493.137 -2.26708 -0.55907 0
M  V30 5054 C 494.118 -1.26893 -1.1328 0
M  V30 5055 O 495.303 -1.55677 -1.16097 0
M  V30 5056 C 492.433 -3.01259 -1.72801 0
M  V30 5057 C 491.387 -4.08275 -1.28435 0
M  V30 5058 C 490.713 -4.70575 -2.53895 0
M  V30 5059 C 492.013 -5.2068 -0.411038 0
M  V30 5060 H 493.707 -2.9937 0.042576 0
M  V30 5061 H 491.253 -1.43983 0.0219173 0
M  V30 5062 H 493.206 -3.50444 -2.34023 0
M  V30 5063 H 491.93 -2.26187 -2.356 0
M  V30 5064 H 490.589 -3.59949 -0.695161 0
M  V30 5065 H 490.237 -3.92136 -3.15021 0
M  V30 5066 H 489.937 -5.42854 -2.24908 0
M  V30 5067 H 491.461 -5.22527 -3.15908 0
M  V30 5068 H 492.875 -5.65721 -0.929097 0
M  V30 5069 H 491.272 -5.99716 -0.214664 0
M  V30 5070 H 492.342 -4.81629 0.562287 0
M  V30 5071 N 493.685 -0.035106 -1.57561 0
M  V30 5072 C 494.933 0.64096 -1.91667 0
M  V30 5073 C 495.254 1.72323 -0.912681 0
M  V30 5074 O 494.524 1.95849 0.0449089 0
M  V30 5075 H 493.104 0.239743 -0.707483 0
M  V30 5076 H 495.766 -0.084321 -1.94718 0
M  V30 5077 H 494.862 1.08987 -2.92452 0
M  V30 5078 N 495.163 1.55791 0.238111 0
M  V30 5079 C 496.393 1.81834 0.980809 0
M  V30 5080 C 496.801 0.609741 1.79106 0
M  V30 5081 O 496.144 -0.431073 1.78571 0
M  V30 5082 C 496.206 3.01363 1.96011 0
M  V30 5083 C 495.87 4.37037 1.33597 0
M  V30 5084 C 496.867 5.14692 0.734063 0
M  V30 5085 C 494.552 4.83743 1.3527 0
M  V30 5086 C 496.546 6.37206 0.157208 0
M  V30 5087 C 494.233 6.06204 0.77199 0
M  V30 5088 C 495.231 6.82775 0.175282 0
M  V30 5089 O 494.919 8.02922 -0.396432 0
M  V30 5090 H 494.651 0.6088 0.293834 0
M  V30 5091 H 497.205 2.03702 0.263552 0
M  V30 5092 H 495.435 2.75273 2.71591 0
M  V30 5093 H 497.124 3.14422 2.56697 0
M  V30 5094 H 497.89 4.79722 0.713582 0
M  V30 5095 H 493.769 4.24129 1.80653 0
M  V30 5096 H 497.313 6.96915 -0.30917 0
M  V30 5097 H 493.21 6.4065 0.789828 0
M  V30 5098 H 493.978 8.17989 -0.289145 0
M  V30 5099 N 496.642 -0.504142 1.49319 0
M  V30 5100 C 497.605 -1.5883 1.65244 0
M  V30 5101 C 498.605 -1.52009 0.524386 0
M  V30 5102 O 499.795 -1.55218 0.79077 0
M  V30 5103 C 496.927 -2.98481 1.64687 0
M  V30 5104 H 498.12 -1.4604 2.61939 0
M  V30 5105 H 495.673 -0.728144 1.38303 0
M  V30 5106 H 496.408 -3.16751 0.695644 0
M  V30 5107 H 496.193 -3.0484 2.46607 0
M  V30 5108 H 497.683 -3.77256 1.79075 0
M  V30 5109 N 498.12 -1.38341 -0.754957 0
M  V30 5110 C 499.068 -1.35573 -1.89005 0
M  V30 5111 C 500.062 -0.241824 -1.67665 0
M  V30 5112 O 501.268 -0.410785 -1.7525 0
M  V30 5113 H 497.643 -0.422898 -0.621821 0
M  V30 5114 H 499.614 -2.31359 -1.88455 0
M  V30 5115 C 498.363 -1.19631 -3.26471 0
M  V30 5116 H 497.686 -2.04605 -3.43477 0
M  V30 5117 H 499.126 -1.21748 -4.06144 0
M  V30 5118 C 497.585 0.0968705 -3.36761 0
M  V30 5119 O 498.115 1.07439 -3.87066 0
M  V30 5120 N 496.321 0.153242 -2.90196 0
M  V30 5121 H 495.868 -0.642908 -2.49448 0
M  V30 5122 H 495.826 1.01807 -2.9746 0
M  V30 5123 N 499.598 0.982988 -1.23187 0
M  V30 5124 C 500.823 1.76455 -1.08988 0
M  V30 5125 C 501.248 1.84726 0.354691 0
M  V30 5126 O 500.606 1.30699 1.25649 0
M  V30 5127 C 500.654 3.17094 -1.71708 0
M  V30 5128 O 499.758 4.00648 -0.977477 0
M  V30 5129 H 499.099 0.542988 -0.382177 0
M  V30 5130 H 501.629 1.23413 -1.63188 0
M  V30 5131 H 501.639 3.67684 -1.76841 0
M  V30 5132 H 500.314 3.10389 -2.76823 0
M  V30 5133 H 498.891 3.59161 -1.0029 0
M  V30 5134 N 501.076 1.04316 1.18135 0
M  V30 5135 C 502.039 0.640794 2.2006 0
M  V30 5136 C 503.039 -0.303124 1.57917 0
M  V30 5137 O 504.229 -0.0881855 1.73977 0
M  V30 5138 C 501.361 -0.060148 3.40847 0
M  V30 5139 H 502.554 1.54281 2.57172 0
M  V30 5140 H 500.107 0.836004 1.32063 0
M  V30 5141 H 500.842 -0.975845 3.0927 0
M  V30 5142 H 500.627 0.618319 3.87194 0
M  V30 5143 H 502.117 -0.328082 4.16309 0
M  V30 5144 N 502.554 -1.34406 0.822964 0
M  V30 5145 C 503.801 -1.98284 0.411057 0
M  V30 5146 C 504.129 -1.65245 -1.02588 0
M  V30 5147 O 503.384 -0.91619 -1.72929 0
M  V30 5148 C 503.683 -3.52981 0.560268 0
M  V30 5149 C 503.349 -4.05931 1.96293 0
M  V30 5150 C 502.011 -4.20103 2.34664 0
M  V30 5151 C 504.363 -4.34412 2.87985 0
M  V30 5152 C 501.691 -4.60082 3.64062 0
M  V30 5153 C 504.043 -4.75838 4.16847 0
M  V30 5154 C 502.707 -4.88215 4.55195 0
M  V30 5155 H 501.977 -0.725573 0.150416 0
M  V30 5156 H 504.624 -1.60349 1.04692 0
M  V30 5157 H 502.929 -3.91477 -0.158982 0
M  V30 5158 H 504.626 -4.00385 0.222087 0
M  V30 5159 H 501.216 -3.95363 1.65487 0
M  V30 5160 H 505.4 -4.23001 2.59584 0
M  V30 5161 H 500.656 -4.67856 3.93599 0
M  V30 5162 H 504.83 -4.96834 4.87984 0
M  V30 5163 H 502.457 -5.18952 5.55512 0
M  V30 5164 N 504.032 -0.577932 -1.46621 0
M  V30 5165 C 504.98 0.170882 -2.31971 0
M  V30 5166 C 505.974 0.889086 -1.44193 0
M  V30 5167 O 507.18 0.808017 -1.60845 0
M  V30 5168 H 503.555 0.0739763 -0.748353 0
M  V30 5169 H 505.526 -0.567856 -2.92947 0
M  V30 5170 C 504.275 1.17438 -3.27267 0
M  V30 5171 H 503.598 0.63116 -3.94787 0
M  V30 5172 H 505.038 1.66882 -3.89778 0
M  V30 5173 C 503.497 2.23292 -2.52274 0
M  V30 5174 O 504.027 3.30567 -2.28229 0
M  V30 5175 N 502.233 1.97772 -2.12919 0
M  V30 5176 H 501.78 1.10545 -2.32675 0
M  V30 5177 H 501.738 2.68809 -1.63062 0
M  V30 5178 N 505.51 1.54411 -0.315457 0
M  V30 5179 C 506.921 1.85885 0.174265 0
M  V30 5180 C 507.272 1.23723 1.52273 0
M  V30 5181 O 506.397 0.540246 2.09548 0
M  V30 5182 C 506.992 3.37257 0.322981 0
M  V30 5183 C 505.551 3.68711 0.756922 0
M  V30 5184 C 504.698 2.77013 -0.126195 0
M  V30 5185 H 507.649 1.49374 -0.536007 0
M  V30 5186 H 507.67 3.62539 1.15522 0
M  V30 5187 H 507.182 3.82471 -0.658602 0
M  V30 5188 H 505.283 3.29024 1.74854 0
M  V30 5189 H 505.396 4.75741 0.566291 0
M  V30 5190 H 503.76 2.51588 0.39692 0
M  V30 5191 H 504.543 3.25051 -1.1044 0
M  V30 5192 N 506.988 0.0434614 1.5754 0
M  V30 5193 C 507.918 -0.931651 2.14109 0
M  V30 5194 C 508.899 -1.32971 1.06079 0
M  V30 5195 O 510.084 -1.40579 1.33982 0
M  V30 5196 C 507.214 -2.20914 2.67982 0
M  V30 5197 C 506.168 -1.95139 3.80926 0
M  V30 5198 C 505.494 -3.29276 4.21285 0
M  V30 5199 C 506.794 -1.27913 5.06395 0
M  V30 5200 H 508.488 -0.460497 2.95837 0
M  V30 5201 H 506.034 -0.220058 1.42309 0
M  V30 5202 H 507.987 -2.89522 3.06194 0
M  V30 5203 H 506.711 -2.70221 1.83434 0
M  V30 5204 H 505.37 -1.28945 3.43175 0
M  V30 5205 H 505.018 -3.76369 3.33699 0
M  V30 5206 H 504.718 -3.12831 4.97404 0
M  V30 5207 H 506.242 -3.99129 4.62091 0
M  V30 5208 H 507.656 -1.86544 5.42102 0
M  V30 5209 H 506.053 -1.2182 5.87605 0
M  V30 5210 H 507.123 -0.254066 4.84234 0
M  V30 5211 N 508.466 -1.55915 -0.229846 0
M  V30 5212 C 509.715 -1.77742 -0.953455 0
M  V30 5213 C 510.028 -0.610524 -1.85828 0
M  V30 5214 O 511.234 -0.712219 -2.61992 0
M  V30 5215 C 509.69 -3.14738 -1.74551 0
M  V30 5216 C 509.298 -4.39126 -0.887242 0
M  V30 5217 C 511.042 -3.45895 -2.46084 0
M  V30 5218 C 508.949 -5.67149 -1.67617 0
M  V30 5219 H 507.879 -0.662648 -0.359741 0
M  V30 5220 H 510.53 -1.82322 -0.207576 0
M  V30 5221 H 508.912 -3.04311 -2.53399 0
M  V30 5222 H 510.086 -4.60588 -0.139892 0
M  V30 5223 H 508.401 -4.15427 -0.284443 0
M  V30 5224 H 510.998 -4.38767 -3.05594 0
M  V30 5225 H 511.341 -2.68007 -3.18556 0
M  V30 5226 H 511.874 -3.57614 -1.74233 0
M  V30 5227 H 508.613 -6.47906 -0.994881 0
M  V30 5228 H 508.133 -5.49763 -2.39836 0
M  V30 5229 H 509.812 -6.07025 -2.23898 0
M  V30 5230 N 509.944 0.496216 -1.49584 0
M  V30 5231 C 511.174 1.27209 -1.62793 0
M  V30 5232 C 511.582 1.86799 -0.300476 0
M  V30 5233 O 510.925 1.68802 0.724674 0
M  V30 5234 C 510.987 2.43812 -2.64189 0
M  V30 5235 C 510.651 2.05055 -4.08414 0
M  V30 5236 C 511.648 1.58752 -4.9507 0
M  V30 5237 C 509.333 2.14543 -4.54177 0
M  V30 5238 C 511.327 1.22448 -6.25528 0
M  V30 5239 C 509.014 1.77851 -5.84647 0
M  V30 5240 C 510.012 1.31878 -6.70147 0
M  V30 5241 O 509.7 0.956834 -7.98185 0
M  V30 5242 H 509.432 0.391848 -0.550846 0
M  V30 5243 H 511.986 0.601712 -1.96389 0
M  V30 5244 H 510.216 3.13941 -2.25783 0
M  V30 5245 H 511.905 3.05829 -2.66877 0
M  V30 5246 H 512.671 1.50863 -4.60939 0
M  V30 5247 H 508.55 2.49277 -3.87791 0
M  V30 5248 H 512.094 0.864933 -6.92217 0
M  V30 5249 H 507.991 1.8539 -6.18305 0
M  V30 5250 H 508.759 1.08789 -8.11238 0
M  V30 5251 N 511.423 1.38739 0.74761 0
M  V30 5252 C 512.663 1.36695 1.51966 0
M  V30 5253 C 513.027 -0.0411889 1.91956 0
M  V30 5254 O 514.228 -0.186543 2.68152 0
M  V30 5255 C 512.499 2.30119 2.73459 0
M  V30 5256 S 514.058 2.4615 3.63257 0
M  V30 5257 H 510.876 0.484929 0.519966 0
M  V30 5258 H 513.478 1.7472 0.877104 0
M  V30 5259 H 512.182 3.31312 2.422 0
M  V30 5260 H 511.713 1.93265 3.42655 0
M  V30 5261 H 513.728 1.69001 4.66533 0
M  V30 5262 N 512.901 -0.976442 1.23707 0
M  V30 5263 C 514.317 -1.24341 1.00058 0
M  V30 5264 C 514.517 -1.99315 -0.295932 0
M  V30 5265 O 513.573 -2.3123 -1.01435 0
M  V30 5266 C 514.886 -2.03909 2.21001 0
M  V30 5267 C 516.434 -2.17034 2.25534 0
M  V30 5268 C 516.909 -2.99994 3.46075 0
M  V30 5269 N 518.4 -3.07578 3.46338 0
M  V30 5270 C 519.135 -3.72104 4.36264 0
M  V30 5271 N 518.631 -4.3842 5.36432 0
M  V30 5272 N 520.424 -3.69029 4.23998 0
M  V30 5273 H 512.575 -0.47428 2.07037 0
M  V30 5274 H 514.838 -0.272167 0.908091 0
M  V30 5275 H 514.544 -1.56198 3.15111 0
M  V30 5276 H 514.418 -3.04654 2.22409 0
M  V30 5277 H 516.805 -2.63951 1.31961 0
M  V30 5278 H 516.886 -1.15664 2.28156 0
M  V30 5279 H 516.53 -2.53772 4.39957 0
M  V30 5280 H 516.46 -4.01541 3.40694 0
M  V30 5281 H 518.951 -2.60397 2.73865 0
M  V30 5282 H 519.264 -4.85447 6.013 0
M  V30 5283 H 517.609 -4.37116 5.40328 0
M  V30 5284 H 520.8 -3.16392 3.44984 0
M  V30 5285 H 520.973 -4.19034 4.94282 0
M  V30 5286 N 514.379 -1.04941 -1.1758 0
M  V30 5287 C 515.604 -0.778253 -1.92245 0
M  V30 5288 C 516.029 0.659707 -1.76152 0
M  V30 5289 O 515.387 1.45803 -1.07755 0
M  V30 5290 C 515.435 -1.16051 -3.41416 0
M  V30 5291 O 514.539 -0.291153 -4.11371 0
M  V30 5292 H 513.88 -0.285619 -0.599431 0
M  V30 5293 H 516.41 -1.40159 -1.49052 0
M  V30 5294 H 516.42 -1.12619 -3.92149 0
M  V30 5295 H 515.095 -2.208 -3.52449 0
M  V30 5296 H 513.672 -0.385851 -3.70898 0
M  V30 5297 N 515.857 1.33968 -0.830081 0
M  V30 5298 C 517.268 1.80439 -0.479455 0
M  V30 5299 C 517.619 1.68756 1.00079 0
M  V30 5300 O 516.744 1.23171 1.77927 0
M  V30 5301 C 517.339 3.27611 -0.863505 0
M  V30 5302 C 515.898 3.72133 -0.565145 0
M  V30 5303 C 515.045 2.55549 -1.07657 0
M  V30 5304 H 517.996 1.21614 -1.0196 0
M  V30 5305 H 518.017 3.8012 -0.170083 0
M  V30 5306 H 517.529 3.36082 -1.94089 0
M  V30 5307 H 515.63 3.69196 0.502536 0
M  V30 5308 H 515.743 4.65963 -1.11422 0
M  V30 5309 H 514.107 2.49788 -0.497807 0
M  V30 5310 H 514.89 2.66786 -2.16055 0
M  V30 5311 N 517.335 0.585699 1.46312 0
M  V30 5312 C 518.612 0.00542031 1.95599 0
M  V30 5313 C 518.992 -1.45619 1.52834 0
M  V30 5314 O 518.34 -2.14759 0.780446 0
M  V30 5315 C 518.55 0.180601 3.48532 0
M  V30 5316 C 519.898 0.049979 4.24571 0
M  V30 5317 O 520.922 0.109589 3.56031 0
M  V30 5318 O 519.781 -0.0832226 5.46437 0
M  V30 5319 H 516.875 -0.0481281 0.825598 0
M  V30 5320 H 519.421 0.654227 1.56582 0
M  V30 5321 H 518.193 1.19657 3.72556 0
M  V30 5322 H 517.816 -0.504498 3.94386 0
M  V30 5323 N 518.813 -1.54241 0.323641 0
M  V30 5324 C 520.06 -2.0057 -0.27891 0
M  V30 5325 C 520.388 -1.21181 -1.52136 0
M  V30 5326 O 519.643 -0.282043 -1.93657 0
M  V30 5327 C 519.942 -3.5129 -0.658031 0
M  V30 5328 C 519.608 -4.48281 0.485252 0
M  V30 5329 C 518.27 -4.74519 0.799055 0
M  V30 5330 C 520.622 -5.05909 1.25322 0
M  V30 5331 C 517.95 -5.55643 1.88354 0
M  V30 5332 C 520.302 -5.88215 2.32779 0
M  V30 5333 C 518.966 -6.12755 2.64741 0
M  V30 5334 H 518.236 -0.733938 -0.10206 0
M  V30 5335 H 520.883 -1.862 0.447435 0
M  V30 5336 H 519.188 -3.63388 -1.4648 0
M  V30 5337 H 520.885 -3.84578 -1.1358 0
M  V30 5338 H 517.475 -4.27979 0.230593 0
M  V30 5339 H 521.659 -4.8562 1.02404 0
M  V30 5340 H 516.915 -5.72888 2.13564 0
M  V30 5341 H 521.089 -6.31888 2.92729 0
M  V30 5342 H 518.716 -6.75404 3.48904 0
M  V30 5343 N 520.291 -0.0518155 -1.57515 0
M  V30 5344 C 521.707 0.304735 -1.56664 0
M  V30 5345 C 521.907 1.71395 -1.05953 0
M  V30 5346 O 520.963 2.42123 -0.716414 0
M  V30 5347 C 522.276 0.132614 -3.00407 0
M  V30 5348 C 523.824 0.20367 -3.12337 0
M  V30 5349 C 524.299 0.0600706 -4.57961 0
M  V30 5350 N 525.79 0.116326 -4.63054 0
M  V30 5351 C 526.525 0.0293363 -5.73392 0
M  V30 5352 N 526.021 -0.110038 -6.92713 0
M  V30 5353 N 527.814 0.0849651 -5.62036 0
M  V30 5354 H 519.965 -0.973056 -1.888 0
M  V30 5355 H 522.228 -0.377781 -0.869474 0
M  V30 5356 H 521.934 -0.839019 -3.41546 0
M  V30 5357 H 521.808 0.893376 -3.66468 0
M  V30 5358 H 524.195 1.16578 -2.71097 0
M  V30 5359 H 524.276 -0.587857 -2.48954 0
M  V30 5360 H 523.92 -0.898715 -4.99886 0
M  V30 5361 H 523.85 0.87075 -5.19351 0
M  V30 5362 H 526.341 0.22327 -3.7724 0
M  V30 5363 H 526.654 -0.169104 -7.72615 0
M  V30 5364 H 524.999 -0.145132 -6.94848 0
M  V30 5365 H 528.19 0.192411 -4.67704 0
M  V30 5366 H 528.363 0.0137131 -6.47999 0
M  V30 5367 N 521.769 1.56035 0.221574 0
M  V30 5368 C 522.994 1.83476 0.967026 0
M  V30 5369 C 523.419 0.632139 1.7716 0
M  V30 5370 O 522.777 -0.419082 1.7639 0
M  V30 5371 C 522.825 3.08907 1.86034 0
M  V30 5372 O 521.929 2.876 2.95567 0
M  V30 5373 H 521.27 0.604913 0.273817 0
M  V30 5374 H 523.8 2.03247 0.234893 0
M  V30 5375 H 523.81 3.3901 2.27016 0
M  V30 5376 H 522.485 3.96068 1.26898 0
M  V30 5377 H 521.062 2.6873 2.58532 0
M  V30 5378 N 523.247 -0.488276 1.49845 0
M  V30 5379 C 524.21 -1.57069 1.66919 0
M  V30 5380 C 525.21 -1.51445 0.540479 0
M  V30 5381 O 526.4 -1.5437 0.807188 0
M  V30 5382 C 523.532 -2.96718 1.67844 0
M  V30 5383 H 524.725 -1.43254 2.63474 0
M  V30 5384 H 522.278 -0.713435 1.39068 0
M  V30 5385 H 523.013 -3.15996 0.7292 0
M  V30 5386 H 522.798 -3.02208 2.49826 0
M  V30 5387 H 524.288 -3.75335 1.83066 0
M  V30 5388 N 524.725 -1.39134 -0.740242 0
M  V30 5389 C 525.972 -1.36071 -1.49969 0
M  V30 5390 C 526.3 0.0450245 -1.94448 0
M  V30 5391 O 525.555 1.02482 -1.66721 0
M  V30 5392 C 525.854 -2.27457 -2.75678 0
M  V30 5393 C 525.52 -3.75185 -2.50094 0
M  V30 5394 C 524.182 -4.15439 -2.42825 0
M  V30 5395 C 526.534 -4.68643 -2.28086 0
M  V30 5396 C 523.862 -5.4722 -2.11584 0
M  V30 5397 C 526.214 -6.00695 -1.98363 0
M  V30 5398 C 524.878 -6.40018 -1.8956 0
M  V30 5399 H 524.148 -0.497921 -0.548777 0
M  V30 5400 H 526.795 -1.71599 -0.85007 0
M  V30 5401 H 525.1 -1.8503 -3.45356 0
M  V30 5402 H 526.797 -2.22384 -3.33686 0
M  V30 5403 H 523.387 -3.43279 -2.56627 0
M  V30 5404 H 527.571 -4.3838 -2.32672 0
M  V30 5405 H 522.827 -5.76615 -2.03287 0
M  V30 5406 H 527.001 -6.72644 -1.80341 0
M  V30 5407 H 524.628 -7.42051 -1.65117 0
M  V30 5408 N 526.204 0.969867 -1.24223 0
M  V30 5409 C 527.62 1.23809 -1.00716 0
M  V30 5410 C 527.82 1.99469 0.285358 0
M  V30 5411 O 526.876 2.31764 1.00207 0
M  V30 5412 C 528.189 2.02734 -2.2208 0
M  V30 5413 C 529.737 2.15834 -2.26681 0
M  V30 5414 C 530.212 2.98154 -3.47661 0
M  V30 5415 N 531.703 3.05737 -3.47964 0
M  V30 5416 C 532.438 3.69785 -4.38231 0
M  V30 5417 N 531.934 4.35569 -5.3875 0
M  V30 5418 N 533.727 3.66775 -4.25949 0
M  V30 5419 H 525.878 0.463294 -2.07286 0
M  V30 5420 H 528.141 0.267348 -0.909521 0
M  V30 5421 H 527.847 1.54524 -3.15935 0
M  V30 5422 H 527.721 3.0347 -2.24021 0
M  V30 5423 H 530.108 2.63248 -1.33359 0
M  V30 5424 H 530.189 1.14453 -2.28767 0
M  V30 5425 H 529.833 2.51435 -4.41297 0
M  V30 5426 H 529.763 3.99729 -3.42818 0
M  V30 5427 H 532.254 2.58941 -2.75242 0
M  V30 5428 H 532.567 4.82251 -6.03866 0
M  V30 5429 H 530.912 4.34244 -5.42639 0
M  V30 5430 H 534.103 3.14558 -3.46657 0
M  V30 5431 H 534.276 4.16407 -4.96497 0
M  V30 5432 N 527.682 1.05563 1.17022 0
M  V30 5433 C 529.098 0.777684 1.39371 0
M  V30 5434 C 529.298 -0.626269 1.91521 0
M  V30 5435 O 528.354 -1.38806 2.10924 0
M  V30 5436 C 529.667 1.83642 2.3811 0
M  V30 5437 C 531.215 1.85907 2.51809 0
M  V30 5438 C 531.69 2.90813 3.53824 0
M  V30 5439 N 533.181 2.898 3.61345 0
M  V30 5440 C 533.916 3.6762 4.40049 0
M  V30 5441 N 533.412 4.55237 5.22237 0
M  V30 5442 N 535.205 3.56044 4.34959 0
M  V30 5443 H 527.356 1.9614 0.815047 0
M  V30 5444 H 529.619 0.849527 0.420722 0
M  V30 5445 H 529.325 2.84425 2.06871 0
M  V30 5446 H 529.199 1.6812 3.37662 0
M  V30 5447 H 531.586 0.857865 2.82356 0
M  V30 5448 H 531.667 2.05506 1.52318 0
M  V30 5449 H 531.311 3.91122 3.24015 0
M  V30 5450 H 531.241 2.68465 4.53028 0
M  V30 5451 H 533.732 2.26274 3.02669 0
M  V30 5452 H 534.045 5.11291 5.79484 0
M  V30 5453 H 532.39 4.59296 5.21605 0
M  V30 5454 H 535.581 2.86986 3.69806 0
M  V30 5455 H 535.754 4.16938 4.96051 0
M  V30 5456 N 529.16 -1.33526 0.837174 0
M  V30 5457 C 530.09 -2.31764 0.284206 0
M  V30 5458 C 531.071 -1.58896 -0.607142 0
M  V30 5459 O 532.256 -1.86798 -0.531047 0
M  V30 5460 C 529.386 -3.43029 -0.542962 0
M  V30 5461 C 528.34 -4.27255 0.252451 0
M  V30 5462 C 527.666 -5.3012 -0.69836 0
M  V30 5463 C 528.966 -5.01229 1.46858 0
M  V30 5464 H 530.66 -2.78262 1.10502 0
M  V30 5465 H 528.206 -1.3378 0.532812 0
M  V30 5466 H 530.159 -4.1078 -0.940096 0
M  V30 5467 H 528.883 -2.95216 -1.39697 0
M  V30 5468 H 527.542 -3.61127 0.631124 0
M  V30 5469 H 527.19 -4.78564 -1.54872 0
M  V30 5470 H 526.89 -5.87353 -0.170274 0
M  V30 5471 H 528.414 -6.00737 -1.09305 0
M  V30 5472 H 529.828 -5.61756 1.14469 0
M  V30 5473 H 528.225 -5.68104 1.93333 0
M  V30 5474 H 529.295 -4.301 2.23924 0
M  V30 5475 N 530.638 -0.59345 -1.46 0
M  V30 5476 C 531.568 0.121192 -2.33185 0
M  V30 5477 C 532.549 0.872977 -1.4599 0
M  V30 5478 O 533.734 0.846321 -1.74789 0
M  V30 5479 C 530.864 1.12844 -3.28456 0
M  V30 5480 C 529.818 0.4908 -4.25177 0
M  V30 5481 C 529.144 1.60529 -5.10034 0
M  V30 5482 C 530.444 -0.578949 -5.19081 0
M  V30 5483 H 532.138 -0.606767 -2.93187 0
M  V30 5484 H 529.684 -0.293242 -1.40983 0
M  V30 5485 H 531.637 1.63684 -3.88311 0
M  V30 5486 H 530.361 1.88681 -2.66584 0
M  V30 5487 H 529.02 0.00339328 -3.666 0
M  V30 5488 H 528.668 2.35359 -4.44539 0
M  V30 5489 H 528.368 1.18422 -5.75543 0
M  V30 5490 H 529.892 2.11623 -5.72755 0
M  V30 5491 H 531.306 -0.155199 -5.7309 0
M  V30 5492 H 529.703 -0.920947 -5.92991 0
M  V30 5493 H 530.773 -1.46109 -4.62364 0
M  V30 5494 N 532.116 1.54067 -0.331816 0
M  V30 5495 C 533.356 2.02625 0.26876 0
M  V30 5496 C 533.72 1.21462 1.48697 0
M  V30 5497 O 534.921 1.59863 2.16096 0
M  V30 5498 C 533.192 3.52554 0.586577 0
M  V30 5499 S 534.751 4.23035 1.16563 0
M  V30 5500 H 531.569 0.706395 0.0807862 0
M  V30 5501 H 534.171 1.89844 -0.466856 0
M  V30 5502 H 532.875 4.09242 -0.308046 0
M  V30 5503 H 532.406 3.69432 1.35217 0
M  V30 5504 H 534.421 4.31382 2.45203 0
M  V30 5505 N 533.594 0.0601682 1.57485 0
M  V30 5506 C 535.01 -0.296422 1.56823 0
M  V30 5507 C 535.21 -1.70831 1.0686 0
M  V30 5508 O 534.266 -2.4174 0.729245 0
M  V30 5509 C 535.579 -0.116681 3.00474 0
M  V30 5510 C 537.127 -0.187103 3.1244 0
M  V30 5511 C 537.602 -0.035783 4.57986 0
M  V30 5512 N 539.093 -0.0917676 4.63109 0
M  V30 5513 C 539.828 0.00107251 5.734 0
M  V30 5514 N 539.324 0.146773 6.92645 0
M  V30 5515 N 541.117 -0.0551577 5.62073 0
M  V30 5516 H 533.268 0.983055 1.88281 0
M  V30 5517 H 535.531 0.382386 0.867459 0
M  V30 5518 H 535.237 0.85712 3.41096 0
M  V30 5519 H 535.111 -0.873929 3.66936 0
M  V30 5520 H 537.498 -1.15138 2.71712 0
M  V30 5521 H 537.579 0.601052 2.48638 0
M  V30 5522 H 537.223 0.925212 4.99402 0
M  V30 5523 H 537.153 -0.843196 5.19806 0
M  V30 5524 H 539.644 -0.203261 3.77353 0
M  V30 5525 H 539.957 0.210076 7.72514 0
M  V30 5526 H 538.302 0.181979 6.94762 0
M  V30 5527 H 541.493 -0.167605 4.678 0
M  V30 5528 H 541.666 0.020652 6.47997 0
M  V30 5529 N 535.072 -1.5615 -0.213296 0
M  V30 5530 C 536.312 -1.81325 -0.943435 0
M  V30 5531 C 536.676 -0.634934 -1.81198 0
M  V30 5532 O 537.877 -0.766166 -2.5765 0
M  V30 5533 C 536.148 -3.11437 -1.75334 0
M  V30 5534 S 537.707 -3.57955 -2.53799 0
M  V30 5535 H 534.525 -0.636538 -0.316766 0
M  V30 5536 H 537.127 -1.94387 -0.208313 0
M  V30 5537 H 535.831 -3.95228 -1.10556 0
M  V30 5538 H 535.362 -3.01204 -2.53061 0
M  V30 5539 H 537.377 -3.21947 -3.77577 0
M  V30 5540 N 536.55 0.480323 -1.50102 0
M  V30 5541 C 537.798 1.23063 -1.60312 0
M  V30 5542 C 538.119 1.92659 -0.301226 0
M  V30 5543 O 537.389 1.83691 0.680753 0
M  V30 5544 H 535.969 0.457231 -0.590719 0
M  V30 5545 H 538.631 0.554893 -1.86834 0
M  V30 5546 H 537.727 1.9835 -2.40964 0
M  V30 5547 N 538.028 1.39524 0.732853 0
M  V30 5548 C 539.444 1.21176 1.03868 0
M  V30 5549 C 539.644 0.0748448 2.01361 0
M  V30 5550 O 538.7 -0.57281 2.45917 0
M  V30 5551 C 540.013 2.54667 1.59892 0
M  V30 5552 C 541.561 2.6153 1.71962 0
M  V30 5553 C 542.036 3.95248 2.31394 0
M  V30 5554 N 543.527 3.96899 2.38801 0
M  V30 5555 C 544.262 4.97138 2.85729 0
M  V30 5556 N 543.758 6.07775 3.32537 0
M  V30 5557 N 545.551 4.84516 2.84957 0
M  V30 5558 H 537.702 2.12225 0.086304 0
M  V30 5559 H 539.965 0.942614 0.100907 0
M  V30 5560 H 539.671 3.38423 0.95721 0
M  V30 5561 H 539.545 2.74538 2.58668 0
M  V30 5562 H 541.932 1.78156 2.35254 0
M  V30 5563 H 542.013 2.45507 0.718327 0
M  V30 5564 H 541.657 4.79054 1.68729 0
M  V30 5565 H 541.587 4.08593 3.32204 0
M  V30 5566 H 544.078 3.16998 2.05719 0
M  V30 5567 H 544.391 6.8017 3.66862 0
M  V30 5568 H 542.736 6.11366 3.30541 0
M  V30 5569 H 545.927 3.97185 2.47713 0
M  V30 5570 H 546.1 5.62783 3.21215 0
M  V30 5571 N 539.506 -0.963266 1.24736 0
M  V30 5572 C 540.922 -1.23273 1.01371 0
M  V30 5573 C 541.122 -1.99618 -0.274776 0
M  V30 5574 O 540.178 -2.32293 -0.989769 0
M  V30 5575 C 541.491 -2.01554 2.23152 0
M  V30 5576 C 543.039 -2.14629 2.27823 0
M  V30 5577 C 543.514 -2.96307 3.49237 0
M  V30 5578 N 545.005 -3.03887 3.49581 0
M  V30 5579 C 545.74 -3.67456 4.40186 0
M  V30 5580 N 545.236 -4.32706 5.41052 0
M  V30 5581 N 547.029 -3.64511 4.27888 0
M  V30 5582 H 539.18 -0.452294 2.07528 0
M  V30 5583 H 541.443 -0.262521 0.910926 0
M  V30 5584 H 541.149 -1.52847 3.1675 0
M  V30 5585 H 541.023 -3.02278 2.25628 0
M  V30 5586 H 543.41 -2.62537 1.34753 0
M  V30 5587 H 543.491 -1.13238 2.2937 0
M  V30 5588 H 543.135 -2.49091 4.42624 0
M  V30 5589 H 543.065 -3.97905 3.44933 0
M  V30 5590 H 545.556 -2.57477 2.76611 0
M  V30 5591 H 545.869 -4.79042 6.06415 0
M  V30 5592 H 544.214 -4.31361 5.44934 0
M  V30 5593 H 547.405 -3.12715 3.4832 0
M  V30 5594 H 547.578 -4.13768 4.98698 0
M  V30 5595 N 540.985 -1.06182 -1.16461 0
M  V30 5596 C 541.915 -0.692861 -2.22984 0
M  V30 5597 C 542.896 0.314122 -1.67174 0
M  V30 5598 O 544.081 0.189499 -1.93273 0
M  V30 5599 C 541.211 -0.07732 -3.47214 0
M  V30 5600 C 540.165 -1.01015 -4.15909 0
M  V30 5601 C 539.491 -0.257973 -5.34077 0
M  V30 5602 C 540.791 -2.33868 -4.67015 0
M  V30 5603 H 542.485 -1.58343 -2.54102 0
M  V30 5604 H 540.031 -0.76279 -1.22137 0
M  V30 5605 H 541.984 0.19266 -4.20959 0
M  V30 5606 H 540.708 0.848254 -3.15392 0
M  V30 5607 H 539.367 -1.26486 -3.44088 0
M  V30 5608 H 539.015 0.670684 -4.98509 0
M  V30 5609 H 538.715 -0.879638 -5.80979 0
M  V30 5610 H 540.239 0.00448788 -6.106 0
M  V30 5611 H 541.653 -2.1279 -5.32347 0
M  V30 5612 H 540.05 -2.91522 -5.24533 0
M  V30 5613 H 541.12 -2.97019 -3.83286 0
M  V30 5614 N 542.463 1.3308 -0.844243 0
M  V30 5615 C 543.874 1.7992 -0.498566 0
M  V30 5616 C 544.225 1.69808 0.982834 0
M  V30 5617 O 543.35 1.25051 1.7661 0
M  V30 5618 C 543.945 3.26677 -0.898204 0
M  V30 5619 C 542.504 3.71513 -0.604583 0
M  V30 5620 C 541.651 2.54393 -1.10362 0
M  V30 5621 H 544.602 1.20526 -1.03244 0
M  V30 5622 H 544.623 3.79918 -0.21039 0
M  V30 5623 H 544.135 3.34004 -1.97643 0
M  V30 5624 H 542.236 3.69708 0.46335 0
M  V30 5625 H 542.349 4.64755 -1.16358 0
M  V30 5626 H 540.713 2.49246 -0.524273 0
M  V30 5627 H 541.496 2.6448 -2.18873 0
M  V30 5628 N 543.941 0.601185 1.45683 0
M  V30 5629 C 545.352 0.179659 1.85834 0
M  V30 5630 C 545.703 -1.26189 1.50236 0
M  V30 5631 O 544.828 -1.95587 0.925987 0
M  V30 5632 C 545.423 0.319277 3.37292 0
M  V30 5633 C 543.982 -0.0475092 3.7637 0
M  V30 5634 C 543.129 0.646692 2.69654 0
M  V30 5635 H 546.08 0.808268 1.36575 0
M  V30 5636 H 546.101 -0.4503 3.77826 0
M  V30 5637 H 545.613 1.36855 3.6317 0
M  V30 5638 H 543.714 -1.0962 3.5611 0
M  V30 5639 H 543.827 0.34168 4.7788 0
M  V30 5640 H 542.191 0.0849971 2.54558 0
M  V30 5641 H 542.974 1.69797 2.98369 0
M  V30 5642 N 545.419 -1.53889 0.339982 0
M  V30 5643 C 546.329 -2.28604 -0.526988 0
M  V30 5644 C 547.345 -1.33578 -1.11503 0
M  V30 5645 O 548.521 -1.66612 -1.13148 0
M  V30 5646 C 545.586 -3.04164 -1.66389 0
M  V30 5647 C 544.647 -4.14809 -1.10599 0
M  V30 5648 C 543.88 -4.86756 -2.18871 0
M  V30 5649 O 544.103 -4.58343 -3.39526 0
M  V30 5650 O 543.037 -5.73289 -1.83366 0
M  V30 5651 H 546.863 -3.03594 0.0802707 0
M  V30 5652 H 544.448 -1.4903 0.105141 0
M  V30 5653 H 546.33 -3.51427 -2.32544 0
M  V30 5654 H 545.005 -2.32035 -2.25703 0
M  V30 5655 H 543.912 -3.71857 -0.409067 0
M  V30 5656 H 545.245 -4.89029 -0.557771 0
M  V30 5657 N 546.897 -0.0685191 -1.57451 0
M  V30 5658 C 548.308 0.464634 -1.80826 0
M  V30 5659 C 548.659 1.69847 -0.982169 0
M  V30 5660 O 547.784 2.15439 -0.203734 0
M  V30 5661 C 548.379 0.849721 -3.27971 0
M  V30 5662 C 546.938 1.32776 -3.52204 0
M  V30 5663 C 546.085 0.311332 -2.75547 0
M  V30 5664 H 549.036 -0.294248 -1.55948 0
M  V30 5665 H 549.057 1.71138 -3.39841 0
M  V30 5666 H 548.569 -0.0484736 -3.8807 0
M  V30 5667 H 546.67 2.24456 -2.97406 0
M  V30 5668 H 546.783 1.30794 -4.60901 0
M  V30 5669 H 545.147 0.787915 -2.42206 0
M  V30 5670 H 545.93 -0.579078 -3.38381 0
M  V30 5671 N 548.375 1.56261 0.205012 0
M  V30 5672 C 549.615 1.81823 0.933806 0
M  V30 5673 C 549.979 0.644534 1.80858 0
M  V30 5674 O 551.18 0.779819 2.5724 0
M  V30 5675 C 549.451 3.12362 1.7368 0
M  V30 5676 S 551.01 3.59296 2.51897 0
M  V30 5677 H 547.828 0.638209 0.313386 0
M  V30 5678 H 550.43 1.94495 0.198001 0
M  V30 5679 H 549.134 3.95809 1.08459 0
M  V30 5680 H 548.665 3.02542 2.5146 0
M  V30 5681 H 550.68 3.23945 3.75864 0
M  V30 5682 N 549.853 -0.472356 1.50355 0
M  V30 5683 C 550.816 -1.5529 1.68576 0
M  V30 5684 C 551.816 -1.50863 0.556511 0
M  V30 5685 O 553.006 -1.53505 0.823516 0
M  V30 5686 C 550.138 -2.94921 1.70981 0
M  V30 5687 H 551.331 -1.40451 2.64978 0
M  V30 5688 H 548.884 -0.698645 1.39816 0
M  V30 5689 H 549.619 -3.15204 0.762675 0
M  V30 5690 H 549.404 -2.99541 2.53017 0
M  V30 5691 H 550.894 -3.73372 1.87037 0
M  V30 5692 N 551.331 -1.39911 -0.725443 0
M  V30 5693 C 552.294 -1.39156 -1.82121 0
M  V30 5694 C 553.294 -0.287018 -1.58218 0
M  V30 5695 O 554.484 -0.545421 -1.65441 0
M  V30 5696 C 551.616 -1.1736 -3.20062 0
M  V30 5697 H 552.809 -2.36672 -1.84191 0
M  V30 5698 H 550.362 -1.25615 -0.930079 0
M  V30 5699 H 551.097 -0.205648 -3.23647 0
M  V30 5700 H 550.882 -1.97358 -3.3881 0
M  V30 5701 H 552.372 -1.19596 -4.00108 0
M  V30 5702 N 552.809 0.956637 -1.25245 0
M  V30 5703 C 553.772 2.03457 -1.05537 0
M  V30 5704 C 554.772 1.60798 -0.00886317 0
M  V30 5705 O 555.962 1.72384 -0.250865 0
M  V30 5706 C 553.094 3.35543 -0.601965 0
M  V30 5707 H 554.287 2.22372 -2.01223 0
M  V30 5708 H 551.84 1.13344 -1.07623 0
M  V30 5709 H 552.575 3.22323 0.357584 0
M  V30 5710 H 552.36 3.67854 -1.35743 0
M  V30 5711 H 553.85 4.14769 -0.485454 0
M  V30 5712 N 554.287 1.06798 1.15896 0
M  V30 5713 C 555.703 0.792423 1.38538 0
M  V30 5714 C 555.903 -0.60592 1.92174 0
M  V30 5715 O 554.959 -1.36561 2.12385 0
M  V30 5716 C 556.272 1.86157 2.36149 0
M  V30 5717 C 557.82 1.88567 2.49823 0
M  V30 5718 C 558.295 2.9455 3.5072 0
M  V30 5719 N 559.786 2.93616 3.58251 0
M  V30 5720 C 560.521 3.72267 4.36125 0
M  V30 5721 N 560.017 4.60751 5.17379 0
M  V30 5722 N 561.81 3.60637 4.31158 0
M  V30 5723 H 553.961 1.96993 0.794198 0
M  V30 5724 H 556.224 0.853942 0.411688 0
M  V30 5725 H 555.93 2.86603 2.03843 0
M  V30 5726 H 555.804 1.71692 3.3586 0
M  V30 5727 H 558.191 0.887765 2.8143 0
M  V30 5728 H 558.272 2.0711 1.5013 0
M  V30 5729 H 557.916 3.94537 3.19849 0
M  V30 5730 H 557.846 2.73255 4.50155 0
M  V30 5731 H 560.337 2.29472 3.00252 0
M  V30 5732 H 560.65 5.17408 5.74028 0
M  V30 5733 H 558.995 4.64803 5.16704 0
M  V30 5734 H 562.186 2.90892 3.66742 0
M  V30 5735 H 562.359 4.22176 4.91601 0
M  V30 5736 N 555.766 -1.3263 0.851289 0
M  V30 5737 C 557.177 -1.79653 0.5081 0
M  V30 5738 C 557.528 -1.70327 -0.973815 0
M  V30 5739 O 556.653 -1.25986 -1.75944 0
M  V30 5740 C 557.248 -3.26196 0.915515 0
M  V30 5741 C 555.807 -3.71187 0.624277 0
M  V30 5742 C 554.954 -2.53804 1.11709 0
M  V30 5743 H 557.905 -1.19976 1.03882 0
M  V30 5744 H 557.926 -3.79801 0.230535 0
M  V30 5745 H 557.438 -3.32952 1.99411 0
M  V30 5746 H 555.539 -3.69948 -0.443737 0
M  V30 5747 H 555.652 -4.64132 1.18821 0
M  V30 5748 H 554.016 -2.48964 0.537484 0
M  V30 5749 H 554.799 -2.63315 2.20272 0
M  V30 5750 N 557.244 -0.608902 -1.45362 0
M  V30 5751 C 558.207 0.0992563 -2.28985 0
M  V30 5752 C 559.207 0.793841 -1.39838 0
M  V30 5753 O 560.397 0.641804 -1.61946 0
M  V30 5754 C 557.529 1.15073 -3.20891 0
M  V30 5755 H 558.722 -0.635964 -2.93079 0
M  V30 5756 H 556.275 -0.368007 -1.51906 0
M  V30 5757 H 557.01 1.91667 -2.616 0
M  V30 5758 H 556.795 0.656867 -3.86559 0
M  V30 5759 H 558.285 1.64665 -3.83765 0
M  V30 5760 N 558.722 1.53707 -0.348139 0
M  V30 5761 C 559.652 2.28111 0.498766 0
M  V30 5762 C 560.633 1.29851 1.09876 0
M  V30 5763 O 561.818 1.587 1.11928 0
M  V30 5764 C 558.948 3.05735 1.64753 0
M  V30 5765 C 557.902 4.11537 1.17565 0
M  V30 5766 C 557.228 4.77142 2.4133 0
M  V30 5767 C 558.528 5.21587 0.272844 0
M  V30 5768 H 560.222 2.99152 -0.121934 0
M  V30 5769 H 557.768 1.43875 -0.0600842 0
M  V30 5770 H 559.721 3.56526 2.24649 0
M  V30 5771 H 558.445 2.32354 2.2952 0
M  V30 5772 H 557.104 3.61665 0.599483 0
M  V30 5773 H 556.752 4.0035 3.04514 0
M  V30 5774 H 556.452 5.48626 2.10436 0
M  V30 5775 H 557.976 5.30719 3.01943 0
M  V30 5776 H 559.39 5.67986 0.778779 0
M  V30 5777 H 557.787 6.00074 0.0555849 0
M  V30 5778 H 558.857 4.79969 -0.689785 0
M  V30 5779 N 560.2 0.0768682 1.57412 0
M  V30 5780 C 561.447 -0.591085 1.93681 0
M  V30 5781 C 561.775 -1.69311 0.957286 0
M  V30 5782 O 561.03 -1.95682 -0.0262428 0
M  V30 5783 C 561.329 -1.20268 3.36557 0
M  V30 5784 C 560.995 -0.226286 4.50332 0
M  V30 5785 C 559.657 0.0423142 4.81181 0
M  V30 5786 C 562.009 0.441415 5.19327 0
M  V30 5787 C 559.337 0.985616 5.78362 0
M  V30 5788 C 561.689 1.37307 6.17519 0
M  V30 5789 C 560.353 1.65009 6.46783 0
M  V30 5790 H 559.623 -0.216293 0.70873 0
M  V30 5791 H 562.27 0.148824 1.90921 0
M  V30 5792 H 560.575 -2.01844 3.35807 0
M  V30 5793 H 562.272 -1.72688 3.61911 0
M  V30 5794 H 558.862 -0.445821 4.26275 0
M  V30 5795 H 563.046 0.247023 4.95685 0
M  V30 5796 H 558.302 1.20743 5.99359 0
M  V30 5797 H 562.476 1.89637 6.70083 0
M  V30 5798 H 560.103 2.38263 7.21897 0
M  V30 5799 N 561.678 -1.56367 -0.196722 0
M  V30 5800 C 563.089 -1.70462 -0.761545 0
M  V30 5801 C 563.44 -0.683161 -1.83922 0
M  V30 5802 O 562.565 0.160753 -2.15802 0
M  V30 5803 C 563.16 -3.09057 -1.38814 0
M  V30 5804 C 561.719 -3.24922 -1.90007 0
M  V30 5805 C 560.866 -2.66412 -0.769399 0
M  V30 5806 H 563.817 -1.58675 0.0283263 0
M  V30 5807 H 563.838 -3.06296 -2.2575 0
M  V30 5808 H 563.35 -3.83378 -0.603559 0
M  V30 5809 H 561.451 -2.55514 -2.71189 0
M  V30 5810 H 561.564 -4.3241 -2.06297 0
M  V30 5811 H 559.928 -2.25546 -1.18326 0
M  V30 5812 H 560.711 -3.433 0.00291773 0
M  V30 5813 N 563.156 0.464375 -1.50603 0
M  V30 5814 C 564.381 1.24372 -1.65971 0
M  V30 5815 C 564.806 1.84901 -0.345453 0
M  V30 5816 O 564.164 1.67596 0.691457 0
M  V30 5817 C 564.212 2.32331 -2.7578 0
M  V30 5818 O 563.316 3.37146 -2.375 0
M  V30 5819 H 562.657 0.365604 -0.554283 0
M  V30 5820 H 565.187 0.55183 -1.97018 0
M  V30 5821 H 565.197 2.77539 -2.99059 0
M  V30 5822 H 563.872 1.87648 -3.71162 0
M  V30 5823 H 562.449 2.97602 -2.24694 0
M  V30 5824 N 564.634 1.40294 0.718013 0
M  V30 5825 C 565.882 1.38167 1.47494 0
M  V30 5826 C 566.203 -0.01607 1.94993 0
M  V30 5827 O 565.473 -0.970396 1.70177 0
M  V30 5828 H 564.053 0.508505 0.547203 0
M  V30 5829 H 566.715 1.75324 0.851322 0
M  V30 5830 H 565.811 2.05503 2.34894 0
M  V30 5831 N 566.112 -0.949982 1.2575 0
M  V30 5832 C 567.358 -1.69766 1.10938 0
M  V30 5833 C 567.691 -1.91056 -0.348028 0
M  V30 5834 O 566.966 -1.48488 -1.25625 0
M  V30 5835 C 567.249 -3.07779 1.86933 0
M  V30 5836 C 567.102 -2.9387 3.4053 0
M  V30 5837 C 568.421 -4.07749 1.65616 0
M  V30 5838 H 565.54 -0.616144 0.404396 0
M  V30 5839 H 568.182 -1.10394 1.54639 0
M  V30 5840 H 566.332 -3.58462 1.4979 0
M  V30 5841 H 568.004 -2.50476 3.87375 0
M  V30 5842 H 566.247 -2.29686 3.68004 0
M  V30 5843 H 566.918 -3.91719 3.88922 0
M  V30 5844 H 569.394 -3.65994 1.97959 0
M  V30 5845 H 568.27 -5.02348 2.21218 0
M  V30 5846 H 568.531 -4.38029 0.598595 0
M  V30 5847 N 567.59 -1.07411 -1.15328 0
M  V30 5848 C 569.001 -0.820261 -1.67716 0
M  V30 5849 C 569.352 0.654539 -1.8496 0
M  V30 5850 O 568.477 1.50664 -1.55337 0
M  V30 5851 C 569.072 -1.48242 -3.04647 0
M  V30 5852 C 567.631 -1.27606 -3.5411 0
M  V30 5853 C 566.778 -1.5517 -2.29821 0
M  V30 5854 H 569.729 -1.23608 -0.995332 0
M  V30 5855 H 569.75 -0.903984 -3.69606 0
M  V30 5856 H 569.262 -2.55578 -2.92064 0
M  V30 5857 H 567.363 -0.222948 -3.71932 0
M  V30 5858 H 567.476 -1.99667 -4.35511 0
M  V30 5859 H 565.84 -0.972747 -2.35393 0
M  V30 5860 H 566.623 -2.63689 -2.19824 0
M  V30 5861 N 569.068 1.32177 -0.85831 0
M  V30 5862 C 570.031 2.27086 -0.310588 0
M  V30 5863 C 571.031 1.51751 0.531806 0
M  V30 5864 O 572.221 1.70794 0.34279 0
M  V30 5865 C 569.353 3.36266 0.560179 0
M  V30 5866 H 570.546 2.77045 -1.1483 0
M  V30 5867 H 568.099 1.42911 -0.632942 0
M  V30 5868 H 568.834 2.9158 1.41956 0
M  V30 5869 H 568.619 3.92077 -0.0428473 0
M  V30 5870 H 570.109 4.06974 0.936056 0
M  V30 5871 N 570.547 0.616602 1.45037 0
M  V30 5872 C 571.51 -0.0871112 2.29034 0
M  V30 5873 C 572.51 -0.786414 1.40258 0
M  V30 5874 O 573.7 -0.633207 1.62284 0
M  V30 5875 C 570.832 -1.13369 3.21497 0
M  V30 5876 H 572.025 0.651497 2.92738 0
M  V30 5877 H 569.578 0.376058 1.51709 0
M  V30 5878 H 570.313 -1.90277 2.62612 0
M  V30 5879 H 570.098 -0.636358 3.86902 0
M  V30 5880 H 571.588 -1.62627 3.84633 0
M  V30 5881 N 572.025 -1.5352 0.356285 0
M  V30 5882 C 573.441 -1.59599 0.00485267 0
M  V30 5883 C 573.641 -1.37179 -1.47595 0
M  V30 5884 O 572.697 -1.17234 -2.23635 0
M  V30 5885 C 574.01 -2.97277 0.452454 0
M  V30 5886 C 575.558 -3.10357 0.405881 0
M  V30 5887 C 576.033 -4.50432 0.829148 0
M  V30 5888 N 577.524 -4.5652 0.783838 0
M  V30 5889 C 578.259 -5.63077 1.08315 0
M  V30 5890 N 577.755 -6.77429 1.45126 0
M  V30 5891 N 579.548 -5.53014 1.00655 0
M  V30 5892 H 571.699 -1.66346 1.32071 0
M  V30 5893 H 573.962 -0.77971 0.539218 0
M  V30 5894 H 573.668 -3.18792 1.48542 0
M  V30 5895 H 573.542 -3.76836 -0.165762 0
M  V30 5896 H 575.929 -2.88558 -0.617934 0
M  V30 5897 H 576.01 -2.32828 1.05947 0
M  V30 5898 H 575.654 -4.72968 1.85103 0
M  V30 5899 H 575.584 -5.26378 0.152906 0
M  V30 5900 H 578.075 -3.74408 0.512513 0
M  V30 5901 H 578.388 -7.54669 1.66415 0
M  V30 5902 H 576.733 -6.78844 1.48983 0
M  V30 5903 H 579.924 -4.62557 0.718215 0
M  V30 5904 H 580.097 -6.35964 1.24315 0
M  V30 5905 N 573.503 -0.0852151 -1.57369 0
M  V30 5906 C 574.728 0.592872 -1.98746 0
M  V30 5907 C 575.153 1.61538 -0.963689 0
M  V30 5908 O 574.511 1.81168 0.069071 0
M  V30 5909 C 574.559 1.22599 -3.39119 0
M  V30 5910 O 573.663 2.34185 -3.39457 0
M  V30 5911 H 573.004 0.151314 -0.646529 0
M  V30 5912 H 575.534 -0.163703 -2.03944 0
M  V30 5913 H 575.544 1.56965 -3.76598 0
M  V30 5914 H 574.219 0.476831 -4.13158 0
M  V30 5915 H 572.796 2.01512 -3.13763 0
M  V30 5916 N 574.981 1.5647 0.188427 0
M  V30 5917 C 576.206 1.85486 0.927891 0
M  V30 5918 C 576.631 0.669575 1.75779 0
M  V30 5919 O 575.989 -0.381573 1.77239 0
M  V30 5920 C 576.037 3.12784 1.7944 0
M  V30 5921 O 575.141 2.93805 2.894 0
M  V30 5922 H 574.482 0.610585 0.260925 0
M  V30 5923 H 577.012 2.037 0.191729 0
M  V30 5924 H 577.022 3.43749 2.19774 0
M  V30 5925 H 575.697 3.98671 1.18468 0
M  V30 5926 H 574.274 2.74153 2.52774 0
M  V30 5927 N 576.459 -0.456382 1.50847 0
M  V30 5928 C 577.87 -1.03685 1.55262 0
M  V30 5929 C 578.221 -1.92779 0.364771 0
M  V30 5930 O 577.346 -2.10043 -0.52068 0
M  V30 5931 C 577.941 -1.88718 2.81374 0
M  V30 5932 C 576.5 -2.41847 2.88422 0
M  V30 5933 C 575.647 -1.20564 2.49719 0
M  V30 5934 H 578.598 -0.238399 1.56899 0
M  V30 5935 H 578.619 -2.73957 2.6406 0
M  V30 5936 H 578.131 -1.23847 3.67809 0
M  V30 5937 H 576.232 -3.10228 2.06372 0
M  V30 5938 H 576.345 -2.75947 3.9165 0
M  V30 5939 H 574.709 -1.54504 2.02486 0
M  V30 5940 H 575.492 -0.573326 3.38479 0
M  V30 5941 N 577.937 -1.40673 -0.710563 0
M  V30 5942 C 578.9 -1.4108 -1.80635 0
M  V30 5943 C 579.9 -0.303783 -1.57904 0
M  V30 5944 O 581.09 -0.562937 -1.64853 0
M  V30 5945 C 578.222 -1.20748 -3.18799 0
M  V30 5946 H 579.415 -2.38612 -1.81671 0
M  V30 5947 H 576.968 -1.26595 -0.916704 0
M  V30 5948 H 577.703 -0.239964 -3.23411 0
M  V30 5949 H 577.488 -2.00941 -3.36698 0
M  V30 5950 H 578.978 -1.23833 -3.98817 0
M  V30 5951 N 579.415 0.9433 -1.26252 0
M  V30 5952 C 580.347 2.04542 -1.03417 0
M  V30 5953 C 581.36 1.62799 0.0046911 0
M  V30 5954 O 582.549 1.76944 -0.235146 0
M  V30 5955 C 579.649 3.34511 -0.543671 0
M  V30 5956 C 578.822 4.05033 -1.65128 0
M  V30 5957 C 577.881 5.13273 -1.1592 0
M  V30 5958 O 576.907 5.38095 -1.85586 0
M  V30 5959 N 578.109 5.805 -0.00649279 0
M  V30 5960 H 580.874 2.24699 -1.98319 0
M  V30 5961 H 578.435 1.11264 -1.1761 0
M  V30 5962 H 580.427 4.04212 -0.198703 0
M  V30 5963 H 578.997 3.11042 0.311711 0
M  V30 5964 H 578.217 3.29275 -2.16729 0
M  V30 5965 H 579.505 4.48903 -2.39508 0
M  V30 5966 H 578.903 5.62767 0.575347 0
M  V30 5967 H 577.46 6.51201 0.279416 0
M  V30 5968 N 580.893 1.08022 1.14757 0
M  V30 5969 C 582.304 0.829144 1.67279 0
M  V30 5970 C 582.655 -0.644721 1.85305 0
M  V30 5971 O 581.78 -1.49838 1.56133 0
M  V30 5972 C 582.375 1.49855 3.03857 0
M  V30 5973 C 580.934 1.29482 3.53428 0
M  V30 5974 C 580.081 1.56386 2.28995 0
M  V30 5975 H 583.032 1.24134 0.988762 0
M  V30 5976 H 583.053 0.923572 3.69121 0
M  V30 5977 H 582.565 2.57123 2.90705 0
M  V30 5978 H 580.666 0.242669 3.71809 0
M  V30 5979 H 580.779 2.01974 4.34446 0
M  V30 5980 H 579.143 0.985217 2.34874 0
M  V30 5981 H 579.926 2.64851 2.18423 0
M  V30 5982 N 582.371 -1.3172 0.865308 0
M  V30 5983 C 583.787 -1.4958 0.556596 0
M  V30 5984 C 583.987 -1.79763 -0.910353 0
M  V30 5985 O 583.043 -1.87351 -1.6928 0
M  V30 5986 C 584.356 -2.63277 1.45279 0
M  V30 5987 C 585.904 -2.77161 1.45433 0
M  V30 5988 C 586.379 -3.93949 2.33598 0
M  V30 5989 N 587.87 -4.01228 2.31453 0
M  V30 5990 C 588.605 -4.90855 2.96393 0
M  V30 5991 N 588.101 -5.85416 3.70486 0
M  V30 5992 N 589.894 -4.84063 2.85726 0
M  V30 5993 H 582.045 -1.10396 1.81456 0
M  V30 5994 H 584.308 -0.54507 0.775631 0
M  V30 5995 H 584.014 -2.47734 2.49641 0
M  V30 5996 H 583.888 -3.59309 1.14792 0
M  V30 5997 H 586.275 -2.9212 0.41831 0
M  V30 5998 H 586.356 -1.8181 1.79941 0
M  V30 5999 H 586 -3.79748 3.37274 0
M  V30 6000 H 585.93 -4.88598 1.96417 0
M  V30 6001 H 588.421 -3.3357 1.77593 0
M  V30 6002 H 588.734 -6.50525 4.17178 0
M  V30 6003 H 587.079 -5.85409 3.74594 0
M  V30 6004 H 590.27 -4.09163 2.27384 0
M  V30 6005 H 590.443 -5.53708 3.36617 0
M  V30 6006 N 583.85 -0.624285 -1.44708 0
M  V30 6007 C 584.779 0.0717025 -2.3339 0
M  V30 6008 C 585.76 0.841814 -1.47809 0
M  V30 6009 O 586.946 0.809056 -1.76544 0
M  V30 6010 C 584.076 1.05852 -3.30776 0
M  V30 6011 C 583.029 0.400503 -4.26122 0
M  V30 6012 C 582.356 1.49674 -5.13324 0
M  V30 6013 C 583.656 -0.688924 -5.17737 0
M  V30 6014 H 585.35 -0.668819 -2.91834 0
M  V30 6015 H 582.896 -0.32308 -1.40329 0
M  V30 6016 H 584.849 1.5541 -3.91696 0
M  V30 6017 H 583.572 1.82984 -2.70526 0
M  V30 6018 H 582.231 -0.0743687 -3.66525 0
M  V30 6019 H 581.88 2.25877 -4.49431 0
M  V30 6020 H 581.58 1.06188 -5.77926 0
M  V30 6021 H 583.104 1.99427 -5.77115 0
M  V30 6022 H 584.518 -0.276724 -5.72632 0
M  V30 6023 H 582.915 -1.04652 -5.90904 0
M  V30 6024 H 583.985 -1.55884 -4.5916 0
M  V30 6025 N 585.328 1.53329 -0.364422 0
M  V30 6026 C 586.568 2.0315 0.22572 0
M  V30 6027 C 586.932 1.24589 1.46087 0
M  V30 6028 O 588.133 1.64411 2.12656 0
M  V30 6029 C 586.404 3.53718 0.511663 0
M  V30 6030 S 587.963 4.25412 1.07564 0
M  V30 6031 H 584.781 0.70795 0.0657843 0
M  V30 6032 H 587.383 1.88811 -0.507019 0
M  V30 6033 H 586.087 4.08497 -0.394784 0
M  V30 6034 H 585.618 3.72217 1.27351 0
M  V30 6035 H 587.633 4.36486 2.35997 0
M  V30 6036 N 586.806 0.0935595 1.57322 0
M  V30 6037 C 587.738 -0.895923 2.10964 0
M  V30 6038 C 588.751 -1.24705 1.04654 0
M  V30 6039 O 589.94 -1.20044 1.32105 0
M  V30 6040 C 587.04 -2.20546 2.57318 0
M  V30 6041 C 586.213 -2.0299 3.87445 0
M  V30 6042 C 585.272 -3.17443 4.19662 0
M  V30 6043 O 584.298 -2.91474 4.88909 0
M  V30 6044 N 585.5 -4.43168 3.74943 0
M  V30 6045 H 588.265 -0.437788 2.96485 0
M  V30 6046 H 585.826 -0.0915863 1.61641 0
M  V30 6047 H 587.818 -2.9606 2.75917 0
M  V30 6048 H 586.388 -2.57789 1.76816 0
M  V30 6049 H 585.608 -1.11815 3.78009 0
M  V30 6050 H 586.896 -1.88535 4.7258 0
M  V30 6051 H 586.294 -4.67149 3.19043 0
M  V30 6052 H 584.851 -5.15637 3.987 0
M  V30 6053 N 588.284 -1.56567 -0.180126 0
M  V30 6054 C 589.7 -1.50488 -0.531559 0
M  V30 6055 C 589.9 -0.796267 -1.851 0
M  V30 6056 O 588.956 -0.352978 -2.50021 0
M  V30 6057 C 590.269 -2.95201 -0.572456 0
M  V30 6058 C 591.817 -3.05957 -0.660264 0
M  V30 6059 C 592.292 -4.5211 -0.732135 0
M  V30 6060 N 593.783 -4.56322 -0.795262 0
M  V30 6061 C 594.518 -5.66742 -0.871296 0
M  V30 6062 N 594.014 -6.86815 -0.908708 0
M  V30 6063 N 595.807 -5.54691 -0.909639 0
M  V30 6064 H 587.958 -2.01045 0.685165 0
M  V30 6065 H 590.221 -0.915536 0.245962 0
M  V30 6066 H 589.927 -3.50165 0.328208 0
M  V30 6067 H 589.801 -3.49369 -1.422 0
M  V30 6068 H 592.188 -2.51032 -1.55136 0
M  V30 6069 H 592.269 -2.54888 0.215783 0
M  V30 6070 H 591.913 -5.07664 0.154664 0
M  V30 6071 H 591.843 -5.00926 -1.6242 0
M  V30 6072 H 594.334 -3.69868 -0.77499 0
M  V30 6073 H 594.647 -7.66718 -0.967654 0
M  V30 6074 H 592.992 -6.89443 -0.877132 0
M  V30 6075 H 596.183 -4.59804 -0.877353 0
M  V30 6076 H 596.356 -6.40768 -0.965434 0
M  V30 6077 N 589.762 0.448376 -1.51087 0
M  V30 6078 C 590.692 1.55102 -1.74544 0
M  V30 6079 C 591.673 1.59357 -0.594932 0
M  V30 6080 O 592.858 1.75261 -0.836491 0
M  V30 6081 C 589.988 2.93268 -1.86041 0
M  V30 6082 C 588.942 3.03877 -3.01402 0
M  V30 6083 C 588.268 4.43914 -2.98068 0
M  V30 6084 C 589.568 2.7898 -4.41551 0
M  V30 6085 H 591.262 1.35724 -2.66869 0
M  V30 6086 H 588.808 0.651498 -1.28419 0
M  V30 6087 H 590.761 3.70356 -2.01034 0
M  V30 6088 H 589.485 3.13853 -0.903548 0
M  V30 6089 H 588.144 2.29227 -2.86096 0
M  V30 6090 H 587.792 4.6145 -2.00182 0
M  V30 6091 H 587.492 4.51944 -3.75527 0
M  V30 6092 H 589.016 5.22991 -3.1514 0
M  V30 6093 H 590.43 3.45805 -4.57265 0
M  V30 6094 H 588.827 2.98431 -5.20633 0
M  V30 6095 H 589.897 1.74663 -4.5235 0
M  V30 6096 N 591.24 1.41047 0.703093 0
M  V30 6097 C 592.517 1.30493 1.45708 0
M  V30 6098 C 592.897 -0.0709892 2.10981 0
M  V30 6099 O 592.245 -1.08471 2.01113 0
M  V30 6100 C 592.455 2.45287 2.48265 0
M  V30 6101 C 593.803 2.86104 3.13735 0
M  V30 6102 O 594.827 2.44971 2.58587 0
M  V30 6103 O 593.686 3.57206 4.13601 0
M  V30 6104 H 590.78 0.513144 0.648546 0
M  V30 6105 H 593.326 1.52995 0.734208 0
M  V30 6106 H 592.098 3.37135 1.98635 0
M  V30 6107 H 591.721 2.24622 3.28071 0
M  V30 6108 N 592.718 -0.936591 1.26751 0
M  V30 6109 C 593.966 -1.67998 1.12343 0
M  V30 6110 C 594.287 -1.92137 -0.332938 0
M  V30 6111 O 593.557 -1.52132 -1.23421 0
M  V30 6112 H 592.137 -0.622609 0.412756 0
M  V30 6113 H 594.799 -1.12509 1.59147 0
M  V30 6114 H 593.895 -2.65185 1.64571 0
M  V30 6115 N 594.196 -1.08629 -1.14182 0
M  V30 6116 C 595.159 -0.722027 -2.1753 0
M  V30 6117 C 596.159 0.244305 -1.58933 0
M  V30 6118 O 597.349 0.0235545 -1.74184 0
M  V30 6119 C 594.481 -0.0663966 -3.40835 0
M  V30 6120 H 595.674 -1.63719 -2.51269 0
M  V30 6121 H 593.227 -0.884442 -1.28869 0
M  V30 6122 H 593.962 0.860389 -3.12678 0
M  V30 6123 H 593.747 -0.761598 -3.84632 0
M  V30 6124 H 595.237 0.173346 -4.1724 0
M  V30 6125 N 595.674 1.31259 -0.872281 0
M  V30 6126 C 596.899 2.0133 -0.498099 0
M  V30 6127 C 597.324 1.65031 0.902568 0
M  V30 6128 O 596.682 0.860164 1.59596 0
M  V30 6129 C 596.73 3.54411 -0.665205 0
M  V30 6130 O 595.834 4.11347 0.294473 0
M  V30 6131 H 595.175 0.633844 -0.197832 0
M  V30 6132 H 597.705 1.67402 -1.17633 0
M  V30 6133 H 597.715 4.04147 -0.559373 0
M  V30 6134 H 596.39 3.80171 -1.68651 0
M  V30 6135 H 594.967 3.72624 0.143403 0
M  V30 6136 N 597.152 0.631951 1.44375 0
M  V30 6137 C 598.398 0.145491 2.02879 0
M  V30 6138 C 598.753 -1.21936 1.48827 0
M  V30 6139 O 598.046 -1.7976 0.663085 0
M  V30 6140 C 598.24 0.0735861 3.57324 0
M  V30 6141 C 598.069 1.42992 4.2636 0
M  V30 6142 C 596.839 2.01691 4.63302 0
M  V30 6143 C 599.037 2.36393 4.56752 0
M  V30 6144 N 597.019 3.30551 5.17309 0
M  V30 6145 C 598.39 3.49869 5.11851 0
M  V30 6146 C 600.445 2.35462 4.38705 0
M  V30 6147 C 599.148 4.6261 5.50803 0
M  V30 6148 C 601.174 3.47268 4.78706 0
M  V30 6149 C 600.536 4.59467 5.33919 0
M  V30 6150 H 596.635 0.0971781 0.775938 0
M  V30 6151 H 599.219 0.835624 1.75856 0
M  V30 6152 H 597.39 -0.585829 3.83957 0
M  V30 6153 H 599.122 -0.421777 4.02496 0
M  V30 6154 H 595.877 1.54627 4.47647 0
M  V30 6155 H 596.301 3.96435 5.48788 0
M  V30 6156 H 600.943 1.49966 3.9531 0
M  V30 6157 H 598.661 5.48813 5.93152 0
M  V30 6158 H 602.247 3.47724 4.66454 0
M  V30 6159 H 601.127 5.44551 5.64299 0
M  V30 6160 N 598.631 -1.53133 0.372548 0
M  V30 6161 C 599.879 -2.00958 -0.214534 0
M  V30 6162 C 600.2 -1.26135 -1.48711 0
M  V30 6163 O 599.47 -0.376597 -1.92246 0
M  V30 6164 H 598.05 -0.742456 -0.0822664 0
M  V30 6165 H 600.712 -1.88367 0.500385 0
M  V30 6166 H 599.808 -3.09031 -0.436605 0
M  V30 6167 N 600.109 -0.101901 -1.5727 0
M  V30 6168 C 601.355 0.561027 -1.94885 0
M  V30 6169 C 601.688 1.6741 -0.984258 0
M  V30 6170 O 600.963 1.94491 -0.0184767 0
M  V30 6171 C 601.246 1.10982 -3.42571 0
M  V30 6172 C 601.099 0.00133418 -4.498 0
M  V30 6173 C 602.418 2.00608 -3.9172 0
M  V30 6174 H 599.537 0.202467 -0.708644 0
M  V30 6175 H 602.179 -0.173992 -1.89202 0
M  V30 6176 H 600.329 1.73621 -3.47546 0
M  V30 6177 H 602.001 -0.63322 -4.56933 0
M  V30 6178 H 600.244 -0.664143 -4.28686 0
M  V30 6179 H 600.915 0.426253 -5.50352 0
M  V30 6180 H 603.391 1.47864 -3.88941 0
M  V30 6181 H 602.267 2.3593 -4.95609 0
M  V30 6182 H 602.528 2.92608 -3.3141 0
M  V30 6183 N 601.587 1.56661 0.17182 0
M  V30 6184 C 602.812 1.86459 0.908165 0
M  V30 6185 C 603.237 0.688181 1.75059 0
M  V30 6186 O 602.595 -0.362753 1.77634 0
M  V30 6187 C 602.643 3.14669 1.76112 0
M  V30 6188 O 601.747 2.96858 2.86268 0
M  V30 6189 H 601.088 0.613318 0.254434 0
M  V30 6190 H 603.618 2.03892 0.170113 0
M  V30 6191 H 603.628 3.46061 2.16115 0
M  V30 6192 H 602.303 3.99905 1.14233 0
M  V30 6193 H 600.88 2.76819 2.49852 0
M  V30 6194 O 603.104 -0.316804 1.58362 0
M  V30 6195 H 603.795 -0.964883 1.67957 0
M  V30 END ATOM
M  V30 BEGIN BOND
M  V30 END BOND
M  V30 END CTAB
M  END
$$$$
