drugbank_target|P13716 Delta-aminolevulinic acid dehydratase (DB00855; DB02068; DB02239; DB02260; DB02272; DB02878; DB04560; DB04781)
 OpenBabel12092119233D

  0  0  0     0  0            999 V3000
M  V30 BEGIN CTAB
M  V30 COUNTS 5092 5152 0 0 0
M  V30 BEGIN ATOM
M  V30 1 H -0.908 1.98254 -0.117106 0
M  V30 2 N 0 1.576 0 0
M  V30 3 C 0.933 2.03868 1.02534 0
M  V30 4 C 1.911 0.928543 1.3348 0
M  V30 5 O 3.095 1.19667 1.45644 0
M  V30 6 C 0.222 2.43627 2.35294 0
M  V30 7 C -0.732 3.65373 2.2001 0
M  V30 8 S 0.101 5.13292 1.52614 0
M  V30 9 C 1.257 5.56322 2.86805 0
M  V30 10 H 1.49 2.90518 0.631377 0
M  V30 11 H -0.977 1.52953 0.210867 0
M  V30 12 H 0.981 2.67203 3.11629 0
M  V30 13 H -0.358 1.57376 2.7183 0
M  V30 14 H -1.165 3.90944 3.18086 0
M  V30 15 H -1.563 3.418 1.51819 0
M  V30 16 H 0.729 5.58782 3.83104 0
M  V30 17 H 1.672 6.56266 2.65933 0
M  V30 18 H 2.08 4.83886 2.90714 0
M  V30 19 N 1.4781 -0.272755 1.55222 0
M  V30 20 C 2.4101 -1.35946 1.8453 0
M  V30 21 C 3.4231 -1.45525 0.729818 0
M  V30 22 O 4.6121 -1.47337 1.00767 0
M  V30 23 C 1.7121 -2.74069 1.99347 0
M  V30 24 C 0.8851 -2.87079 3.30007 0
M  V30 25 C -0.0559 -4.05879 3.34886 0
M  V30 26 O -1.0299 -3.96626 4.08261 0
M  V30 27 N 0.1721 -5.17857 2.62307 0
M  V30 28 H 2.9371 -1.11149 2.78327 0
M  V30 29 H 0.4981 -0.462869 1.55142 0
M  V30 30 H 2.4901 -3.51838 1.99981 0
M  V30 31 H 1.0601 -2.91688 1.12415 0
M  V30 32 H 0.2801 -1.96193 3.41909 0
M  V30 33 H 1.5681 -2.92701 4.16177 0
M  V30 34 H 0.9661 -5.28261 2.02377 0
M  V30 35 H -0.4769 -5.93855 2.68663 0
M  V30 36 N 2.9562 -1.48159 -0.537278 0
M  V30 37 C 4.3672 -1.49429 -1.11928 0
M  V30 38 C 4.7182 -0.26 -1.9447 0
M  V30 39 O 3.8432 0.633489 -2.0692 0
M  V30 40 C 4.4382 -2.70758 -2.03656 0
M  V30 41 C 2.9972 -2.74923 -2.57088 0
M  V30 42 C 2.1442 -2.42835 -1.3389 0
M  V30 43 H 5.0952 -1.55381 -0.322886 0
M  V30 44 H 5.1162 -2.48861 -2.87834 0
M  V30 45 H 4.6282 -3.60575 -1.43553 0
M  V30 46 H 2.7292 -1.89296 -3.20933 0
M  V30 47 H 2.8422 -3.76157 -2.9672 0
M  V30 48 H 1.2062 -1.93836 -1.65226 0
M  V30 49 H 1.9892 -3.34884 -0.755504 0
M  V30 50 N 4.4343 0.785586 -1.36625 0
M  V30 51 C 5.3663 1.90711 -1.2713 0
M  V30 52 C 6.3793 1.61688 -0.189986 0
M  V30 53 O 7.5683 1.72864 -0.445014 0
M  V30 54 C 4.6683 3.25611 -0.939713 0
M  V30 55 C 3.8413 3.82385 -2.12369 0
M  V30 56 C 2.9003 4.95732 -1.76456 0
M  V30 57 O 1.9263 5.12047 -2.48589 0
M  V30 58 N 3.1283 5.76258 -0.700492 0
M  V30 59 H 5.8933 1.99376 -2.23762 0
M  V30 60 H 3.4543 0.964041 -1.30069 0
M  V30 61 H 5.4463 3.98937 -0.680554 0
M  V30 62 H 4.0163 3.12538 -0.0624074 0
M  V30 63 H 3.2363 3.01001 -2.54543 0
M  V30 64 H 4.5243 4.17047 -2.9146 0
M  V30 65 H 3.9223 5.65609 -0.101624 0
M  V30 66 H 2.4793 6.4987 -0.501165 0
M  V30 67 N 5.9124 1.20967 1.01018 0
M  V30 68 C 7.1374 1.0503 1.78839 0
M  V30 69 C 7.5624 -0.395752 1.8389 0
M  V30 70 O 6.9204 -1.28529 1.27867 0
M  V30 71 C 6.9684 1.64602 3.2084 0
M  V30 72 O 6.0724 0.887988 4.02726 0
M  V30 73 H 5.4134 0.369987 0.551367 0
M  V30 74 H 7.9434 1.60399 1.27018 0
M  V30 75 H 7.9534 1.68607 3.71532 0
M  V30 76 H 6.6284 2.69841 3.16479 0
M  V30 77 H 5.2054 0.922648 3.61305 0
M  V30 78 N 7.3905 -1.2043 1.01659 0
M  V30 79 C 8.6365 -1.90079 0.706963 0
M  V30 80 C 8.9695 -1.78648 -0.761474 0
M  V30 81 O 8.2445 -1.17069 -1.55323 0
M  V30 82 C 8.5275 -3.41469 1.14327 0
M  V30 83 C 8.3805 -3.61833 2.67201 0
M  V30 84 C 9.6995 -4.34261 0.714529 0
M  V30 85 H 6.8185 -0.690254 0.2583 0
M  V30 86 H 9.4605 -1.41826 1.26433 0
M  V30 87 H 7.6105 -3.82696 0.669056 0
M  V30 88 H 9.2825 -3.2986 3.22475 0
M  V30 89 H 7.5255 -3.05304 3.08175 0
M  V30 90 H 8.1965 -4.67955 2.92783 0
M  V30 91 H 10.6725 -4.00682 1.12221 0
M  V30 92 H 9.5485 -5.38806 1.04784 0
M  V30 93 H 9.8095 -4.40431 -0.383799 0
M  V30 94 N 8.8686 -0.792821 -1.36206 0
M  V30 95 C 9.7986 -0.207853 -2.32573 0
M  V30 96 C 10.7796 0.659055 -1.56813 0
M  V30 97 O 11.9646 0.592176 -1.84951 0
M  V30 98 C 9.0946 0.655449 -3.41059 0
M  V30 99 C 8.0486 -0.111842 -4.27854 0
M  V30 100 C 7.3746 0.872274 -5.27537 0
M  V30 101 C 8.6746 -1.30299 -5.05786 0
M  V30 102 H 10.3686 -1.01294 -2.81744 0
M  V30 103 H 7.9146 -0.48854 -1.3546 0
M  V30 104 H 9.8676 1.07464 -4.07467 0
M  V30 105 H 8.5916 1.49328 -2.90463 0
M  V30 106 H 7.2506 -0.512053 -3.63006 0
M  V30 107 H 6.8986 1.70523 -4.73214 0
M  V30 108 H 6.5986 0.363291 -5.86476 0
M  V30 109 H 8.1226 1.28996 -5.96818 0
M  V30 110 H 9.5366 -0.959379 -5.65216 0
M  V30 111 H 7.9336 -1.7455 -5.74154 0
M  V30 112 H 9.0036 -2.09663 -4.37229 0
M  V30 113 N 10.3467 1.47872 -0.545128 0
M  V30 114 C 11.2967 2.26842 0.229456 0
M  V30 115 C 12.2807 1.33626 0.896267 0
M  V30 116 O 13.4727 1.58063 0.79657 0
M  V30 117 C 10.6017 3.19089 1.26638 0
M  V30 118 C 9.6877 4.19783 0.603598 0
M  V30 119 N 10.0787 5.0479 -0.319405 0
M  V30 120 C 8.3767 4.3765 0.858989 0
M  V30 121 C 9.0777 5.77433 -0.703241 0
M  V30 122 N 8.0537 5.43566 -0.0608309 0
M  V30 123 H 11.8557 2.89947 -0.480391 0
M  V30 124 H 9.3697 1.58263 -0.364209 0
M  V30 125 H 11.3667 3.74337 1.83515 0
M  V30 126 H 10.0267 2.5754 1.97745 0
M  V30 127 H 11.0377 5.13244 -0.692889 0
M  V30 128 H 7.7147 3.87281 1.55948 0
M  V30 129 H 9.1047 6.55824 -1.46098 0
M  V30 130 N 11.8248 0.280983 1.55075 0
M  V30 131 C 13.0498 -0.340154 2.04592 0
M  V30 132 C 13.4748 -1.48246 1.15779 0
M  V30 133 O 12.8328 -1.80614 0.15761 0
M  V30 134 C 12.8808 -0.793104 3.5177 0
M  V30 135 O 11.9848 -1.89981 3.66034 0
M  V30 136 H 11.3258 -0.0694289 0.66036 0
M  V30 137 H 13.8558 0.416993 2.00306 0
M  V30 138 H 13.8658 -1.08729 3.93245 0
M  V30 139 H 12.5408 0.0426163 4.15878 0
M  V30 140 H 11.1178 -1.60771 3.36463 0
M  V30 141 N 13.3029 -1.57598 0.00835791 0
M  V30 142 C 14.5509 -1.90551 -0.6734 0
M  V30 143 C 14.8719 -0.883301 -1.73847 0
M  V30 144 O 14.1419 0.0781442 -1.95744 0
M  V30 145 H 12.7219 -0.703312 -0.251717 0
M  V30 146 H 15.3839 -1.94833 0.0512592 0
M  V30 147 H 14.4799 -2.9056 -1.13935 0
M  V30 148 N 14.781 0.264519 -1.55364 0
M  V30 149 C 16.011 1.01153 -1.80143 0
M  V30 150 C 16.419 1.80115 -0.579253 0
M  V30 151 O 15.762 1.77813 0.46132 0
M  V30 152 C 15.824 2.01098 -2.97993 0
M  V30 153 C 15.488 1.40995 -4.34706 0
M  V30 154 C 16.485 0.821316 -5.13372 0
M  V30 155 C 14.17 1.43461 -4.81378 0
M  V30 156 C 16.164 0.265339 -6.36847 0
M  V30 157 C 13.851 0.874771 -6.04807 0
M  V30 158 C 14.849 0.291146 -6.82379 0
M  V30 159 O 14.537 -0.260093 -8.03479 0
M  V30 160 H 14.269 0.304125 -0.603725 0
M  V30 161 H 16.823 0.298089 -2.03225 0
M  V30 162 H 15.053 2.76224 -2.70623 0
M  V30 163 H 16.742 2.61997 -3.1002 0
M  V30 164 H 17.508 0.794903 -4.78442 0
M  V30 165 H 13.387 1.87826 -4.21002 0
M  V30 166 H 16.931 -0.190837 -6.97339 0
M  V30 167 H 12.828 0.898452 -6.39217 0
M  V30 168 H 13.596 -0.150265 -8.18362 0
M  V30 169 N 16.2591 1.48442 0.529413 0
M  V30 170 C 17.5061 1.56488 1.28521 0
M  V30 171 C 17.8341 0.239042 1.93025 0
M  V30 172 O 17.0891 -0.770713 1.79885 0
M  V30 173 C 17.3881 2.6523 2.39558 0
M  V30 174 C 17.0541 4.07648 1.92702 0
M  V30 175 C 15.7161 4.46411 1.79641 0
M  V30 176 C 18.0681 4.96896 1.573 0
M  V30 177 C 15.3961 5.72226 1.29514 0
M  V30 178 C 17.7481 6.23202 1.08636 0
M  V30 179 C 16.4121 6.60821 0.941919 0
M  V30 180 H 15.6821 0.572631 0.470292 0
M  V30 181 H 18.3291 1.82161 0.59072 0
M  V30 182 H 16.6341 2.33419 3.14679 0
M  V30 183 H 18.3311 2.68671 2.97686 0
M  V30 184 H 14.9211 3.77036 2.03819 0
M  V30 185 H 19.1051 4.67626 1.66251 0
M  V30 186 H 14.3611 6.00097 1.17019 0
M  V30 187 H 18.5351 6.91753 0.803136 0
M  V30 188 H 16.1621 7.58198 0.5513 0
M  V30 189 N 17.7372 -0.778329 1.37039 0
M  V30 190 C 18.6872 -1.88142 1.28789 0
M  V30 191 C 19.6712 -1.59923 0.177063 0
M  V30 192 O 20.8632 -1.72165 0.410873 0
M  V30 193 C 17.9922 -3.25518 1.09055 0
M  V30 194 C 17.0782 -3.5971 2.24654 0
M  V30 195 N 17.4692 -3.65131 3.50018 0
M  V30 196 C 15.7672 -3.89837 2.16663 0
M  V30 197 C 16.4682 -3.95882 4.26207 0
M  V30 198 N 15.4442 -4.11441 3.55271 0
M  V30 199 H 19.2462 -1.90575 2.23737 0
M  V30 200 H 16.7602 -0.974435 1.29917 0
M  V30 201 H 18.7572 -4.04423 1.0123 0
M  V30 202 H 17.4172 -3.24353 0.15018 0
M  V30 203 H 18.4282 -3.475 3.84011 0
M  V30 204 H 15.1052 -3.96533 1.30645 0
M  V30 205 H 16.4952 -4.06907 5.34674 0
M  V30 206 N 19.2153 -1.21501 -1.00376 0
M  V30 207 C 20.6263 -1.03146 -1.55621 0
M  V30 208 C 20.9773 0.408375 -1.91903 0
M  V30 209 O 20.1023 1.29177 -1.73616 0
M  V30 210 C 20.6973 -1.86612 -2.82775 0
M  V30 211 C 19.2563 -1.72586 -3.34501 0
M  V30 212 C 18.4033 -1.83747 -2.07683 0
M  V30 213 H 21.3543 -1.35505 -0.826081 0
M  V30 214 H 21.3753 -1.3771 -3.54706 0
M  V30 215 H 20.8873 -2.91399 -2.56336 0
M  V30 216 H 18.9883 -0.704877 -3.65872 0
M  V30 217 H 19.1013 -2.54623 -4.05837 0
M  V30 218 H 17.4653 -1.27069 -2.20739 0
M  V30 219 H 18.2483 -2.90044 -1.83655 0
M  V30 220 N 20.6934 1.19889 -1.02296 0
M  V30 221 C 21.6234 2.25141 -0.619174 0
M  V30 222 C 22.6044 1.66051 0.368915 0
M  V30 223 O 23.7894 1.92546 0.252941 0
M  V30 224 C 20.9194 3.4728 0.0368783 0
M  V30 225 C 19.8734 4.19005 -0.872865 0
M  V30 226 C 19.1994 5.34637 -0.0822402 0
M  V30 227 C 20.4994 4.74452 -2.18387 0
M  V30 228 H 22.1934 2.59171 -1.49903 0
M  V30 229 H 19.7394 1.24579 -0.722222 0
M  V30 230 H 21.6924 4.20098 0.330958 0
M  V30 231 H 20.4164 3.12433 0.95149 0
M  V30 232 H 19.0754 3.48061 -1.15105 0
M  V30 233 H 18.7234 4.96034 0.83422 0
M  V30 234 H 18.4234 5.83557 -0.688149 0
M  V30 235 H 19.9474 6.10255 0.205238 0
M  V30 236 H 21.3614 5.39055 -1.95172 0
M  V30 237 H 19.7584 5.33834 -2.74119 0
M  V30 238 H 20.8284 3.92844 -2.84257 0
M  V30 239 N 22.1715 0.800033 1.35784 0
M  V30 240 C 23.1015 0.220184 2.3246 0
M  V30 241 C 24.0825 -0.65073 1.57161 0
M  V30 242 O 25.2675 -0.582359 1.85263 0
M  V30 243 C 22.3975 -0.637353 3.41402 0
M  V30 244 C 21.3515 0.134531 4.27789 0
M  V30 245 C 20.6775 -0.844285 5.27992 0
M  V30 246 C 21.9775 1.32979 5.05088 0
M  V30 247 H 23.6715 1.02787 2.81203 0
M  V30 248 H 21.2175 0.495717 1.35199 0
M  V30 249 H 23.1705 -1.05302 4.08031 0
M  V30 250 H 21.8945 -1.47785 2.91251 0
M  V30 251 H 20.5535 0.531296 3.6273 0
M  V30 252 H 20.2015 -1.68011 4.74111 0
M  V30 253 H 19.9015 -0.332184 5.8666 0
M  V30 254 H 21.4255 -1.2583 5.97494 0
M  V30 255 H 22.8395 0.98934 5.64699 0
M  V30 256 H 21.2365 1.77593 5.7322 0
M  V30 257 H 22.3065 2.11978 4.36111 0
M  V30 258 N 23.6496 -1.47581 0.552962 0
M  V30 259 C 25.0656 -1.5818 0.212424 0
M  V30 260 C 25.2656 -1.55213 -1.28496 0
M  V30 261 O 24.3216 -1.45329 -2.06484 0
M  V30 262 C 25.6346 -2.88865 0.835318 0
M  V30 263 C 27.1826 -3.0244 0.806156 0
M  V30 264 C 27.6576 -4.35819 1.40804 0
M  V30 265 N 29.1486 -4.42444 1.37103 0
M  V30 266 C 29.8836 -5.44202 1.80641 0
M  V30 267 N 29.3796 -6.52795 2.32015 0
M  V30 268 N 31.1726 -5.35222 1.71738 0
M  V30 269 H 23.3236 -1.47753 1.52587 0
M  V30 270 H 25.5866 -0.702941 0.636064 0
M  V30 271 H 25.2926 -2.9676 1.88749 0
M  V30 272 H 25.1666 -3.7579 0.325848 0
M  V30 273 H 27.5536 -2.94144 -0.237317 0
M  V30 274 H 27.6346 -2.17068 1.35334 0
M  V30 275 H 27.2786 -4.44871 2.45056 0
M  V30 276 H 27.2086 -5.19916 0.836338 0
M  V30 277 H 29.6996 -3.6456 0.995202 0
M  V30 278 H 30.0126 -7.26609 2.63171 0
M  V30 279 H 28.3576 -6.53696 2.36023 0
M  V30 280 H 31.5486 -4.49284 1.31382 0
M  V30 281 H 31.7216 -6.14389 2.05987 0
M  V30 282 N 25.1277 -0.289203 -1.54924 0
M  V30 283 C 26.0907 0.579144 -2.21762 0
M  V30 284 C 27.0907 1.07047 -1.1999 0
M  V30 285 O 28.2807 0.968384 -1.44803 0
M  V30 286 C 25.4127 1.80055 -2.8947 0
M  V30 287 H 26.6057 -0.00464908 -2.999 0
M  V30 288 H 24.1587 -0.0399306 -1.56249 0
M  V30 289 H 24.8937 2.42449 -2.15381 0
M  V30 290 H 24.6787 1.45602 -3.64064 0
M  V30 291 H 26.1687 2.41773 -3.40493 0
M  V30 292 N 26.6058 1.57591 -0.0167156 0
M  V30 293 C 27.8518 1.92399 0.659861 0
M  V30 294 C 28.2068 0.892561 1.70444 0
M  V30 295 O 27.4998 -0.0930755 1.91374 0
M  V30 296 C 27.6938 3.3172 1.33029 0
M  V30 297 C 27.5228 4.48319 0.352174 0
M  V30 298 C 26.2928 5.05281 -0.0434883 0
M  V30 299 C 28.4908 5.12831 -0.388474 0
M  V30 300 N 26.4728 6.05399 -1.01807 0
M  V30 301 C 27.8438 6.07934 -1.2172 0
M  V30 302 C 29.8988 4.95858 -0.450513 0
M  V30 303 C 28.6018 6.87891 -2.10235 0
M  V30 304 C 30.6278 5.76413 -1.32295 0
M  V30 305 C 29.9898 6.71123 -2.13948 0
M  V30 306 H 26.0888 0.752106 0.21415 0
M  V30 307 H 28.6728 1.94532 -0.0809846 0
M  V30 308 H 26.8438 3.3043 2.04134 0
M  V30 309 H 28.5758 3.5391 1.9629 0
M  V30 310 H 25.3308 4.7246 0.328384 0
M  V30 311 H 25.7548 6.60145 -1.50123 0
M  V30 312 H 30.3968 4.22472 0.166512 0
M  V30 313 H 28.1148 7.60591 -2.72997 0
M  V30 314 H 31.7008 5.65317 -1.37508 0
M  V30 315 H 30.5808 7.3237 -2.80364 0
M  V30 316 N 28.0839 -0.256276 1.55502 0
M  V30 317 C 29.0159 -1.33981 1.85962 0
M  V30 318 C 30.0289 -1.44743 0.745212 0
M  V30 319 O 31.2179 -1.4626 1.02324 0
M  V30 320 C 28.3179 -2.7194 2.02242 0
M  V30 321 C 27.4909 -2.83562 3.33033 0
M  V30 322 C 26.5499 -4.02304 3.39172 0
M  V30 323 O 25.5759 -3.92273 4.12444 0
M  V30 324 N 26.7779 -5.15045 2.67784 0
M  V30 325 H 29.5429 -1.08191 2.7949 0
M  V30 326 H 27.1039 -0.446388 1.55624 0
M  V30 327 H 29.0959 -3.49697 2.03701 0
M  V30 328 H 27.6659 -2.90479 1.15502 0
M  V30 329 H 26.8859 -1.92555 3.43971 0
M  V30 330 H 28.1739 -2.88271 4.19258 0
M  V30 331 H 27.5719 -5.26085 2.07968 0
M  V30 332 H 26.1289 -5.90972 2.74947 0
M  V30 333 N 29.562 -1.4872 -0.521534 0
M  V30 334 C 30.79 -1.60843 -1.30142 0
M  V30 335 C 31.205 -0.271897 -1.86832 0
M  V30 336 O 30.562 0.739969 -1.66825 0
M  V30 337 C 30.613 -2.66155 -2.4463 0
M  V30 338 O 30.334 -3.94623 -1.90275 0
M  V30 339 C 31.835 -2.88795 -3.36322 0
M  V30 340 H 29.055 -0.542075 -0.395468 0
M  V30 341 H 31.599 -1.94609 -0.628285 0
M  V30 342 H 29.754 -2.35224 -3.07812 0
M  V30 343 H 30.168 -4.52468 -2.65279 0
M  V30 344 H 31.642 -3.66264 -4.12983 0
M  V30 345 H 32.119 -1.97934 -3.9207 0
M  V30 346 H 32.725 -3.21063 -2.78924 0
M  V30 347 N 31.0401 0.771051 -1.3745 0
M  V30 348 C 32.0031 1.86598 -1.33093 0
M  V30 349 C 33.0031 1.59076 -0.234845 0
M  V30 350 O 34.1931 1.67145 -0.490732 0
M  V30 351 C 31.3251 3.23747 -1.06773 0
M  V30 352 H 32.5181 1.91873 -2.30488 0
M  V30 353 H 30.0711 0.970876 -1.2249 0
M  V30 354 H 30.8061 3.24148 -0.099129 0
M  V30 355 H 30.5911 3.45115 -1.86112 0
M  V30 356 H 32.0811 4.03824 -1.06377 0
M  V30 357 N 32.5182 1.22032 0.997298 0
M  V30 358 C 33.7462 1.06841 1.7718 0
M  V30 359 C 34.1612 -0.381325 1.84909 0
M  V30 360 O 33.5182 -1.26437 1.31605 0
M  V30 361 C 33.5692 1.66814 3.20711 0
M  V30 362 O 33.2902 3.06116 3.13408 0
M  V30 363 C 34.7912 1.56838 4.14628 0
M  V30 364 H 32.0112 0.374782 0.556578 0
M  V30 365 H 34.5552 1.61532 1.2541 0
M  V30 366 H 32.7102 1.16196 3.69564 0
M  V30 367 H 33.1242 3.34926 4.0364 0
M  V30 368 H 34.5982 2.03532 5.13107 0
M  V30 369 H 35.0752 0.524155 4.36061 0
M  V30 370 H 35.6812 2.06741 3.7167 0
M  V30 371 N 33.9963 -1.19345 1.0293 0
M  V30 372 C 35.2243 -1.92997 0.745644 0
M  V30 373 C 35.6393 -1.75519 -0.695589 0
M  V30 374 O 34.9963 -1.07737 -1.47306 0
M  V30 375 C 35.0473 -3.44741 1.08792 0
M  V30 376 O 34.7683 -3.61658 2.47256 0
M  V30 377 C 36.2693 -4.35515 0.827129 0
M  V30 378 H 33.4893 -0.613042 0.272801 0
M  V30 379 H 36.0333 -1.51473 1.3739 0
M  V30 380 H 34.1883 -3.84097 0.504832 0
M  V30 381 H 34.6023 -4.55514 2.60015 0
M  V30 382 H 36.0763 -5.40589 1.11658 0
M  V30 383 H 36.5533 -4.38552 -0.238436 0
M  V30 384 H 37.1593 -4.01841 1.39297 0
M  V30 385 N 35.4744 -0.807222 -1.35358 0
M  V30 386 C 36.7024 -0.400377 -2.02989 0
M  V30 387 C 37.1174 0.988859 -1.60832 0
M  V30 388 O 36.4744 1.63729 -0.806175 0
M  V30 389 C 36.5254 -0.474867 -3.58368 0
M  V30 390 O 36.2464 -1.80933 -3.98992 0
M  V30 391 C 37.7474 -0.0609112 -4.43258 0
M  V30 392 H 34.9674 -0.162587 -0.651004 0
M  V30 393 H 37.5114 -1.09102 -1.72965 0
M  V30 394 H 35.6664 0.167534 -3.87038 0
M  V30 395 H 36.0804 -1.77256 -4.9364 0
M  V30 396 H 37.5544 -0.164145 -5.51756 0
M  V30 397 H 38.0314 0.993831 -4.27808 0
M  V30 398 H 38.6374 -0.676492 -4.19885 0
M  V30 399 N 36.9525 1.47285 -0.560781 0
M  V30 400 C 37.8825 2.32857 0.173105 0
M  V30 401 C 38.8635 1.44009 0.905281 0
M  V30 402 O 40.0485 1.7286 0.885046 0
M  V30 403 C 37.1785 3.25861 1.20133 0
M  V30 404 C 36.1325 4.23978 0.585388 0
M  V30 405 C 35.4585 5.06332 1.7185 0
M  V30 406 C 36.7585 5.20242 -0.463178 0
M  V30 407 H 38.4525 2.94466 -0.541307 0
M  V30 408 H 35.9985 1.41601 -0.261764 0
M  V30 409 H 37.9515 3.84569 1.72293 0
M  V30 410 H 36.6755 2.62315 1.94573 0
M  V30 411 H 35.3345 3.66501 0.085054 0
M  V30 412 H 34.9825 4.39186 2.45203 0
M  V30 413 H 34.6825 5.72762 1.31213 0
M  V30 414 H 36.2065 5.67899 2.24329 0
M  V30 415 H 37.6205 5.73293 -0.027502 0
M  V30 416 H 36.0175 5.94896 -0.788627 0
M  V30 417 H 37.0875 4.65504 -1.35773 0
M  V30 418 N 38.4306 0.297415 1.54768 0
M  V30 419 C 39.3786 -0.596051 2.24833 0
M  V30 420 C 40.3726 -1.13992 1.25308 0
M  V30 421 O 41.5786 -1.09098 1.4317 0
M  V30 422 H 37.9536 -0.210814 0.721846 0
M  V30 423 H 39.9246 0.0174667 2.98395 0
M  V30 424 C 38.6736 -1.75818 2.99972 0
M  V30 425 H 37.9966 -1.3489 3.76357 0
M  V30 426 H 39.4366 -2.35949 3.52284 0
M  V30 427 C 37.8956 -2.66014 2.06732 0
M  V30 428 O 38.4256 -3.67009 1.63302 0
M  V30 429 N 36.6316 -2.33669 1.72763 0
M  V30 430 H 36.1786 -1.51586 2.08277 0
M  V30 431 H 36.1366 -2.94285 1.10652 0
M  V30 432 N 39.9087 -1.5758 0.0250728 0
M  V30 433 C 40.8717 -2.08896 -0.943139 0
M  V30 434 C 41.8717 -1.00321 -1.25668 0
M  V30 435 O 43.0617 -1.26495 -1.19769 0
M  V30 436 C 40.1937 -2.55143 -2.26086 0
M  V30 437 H 41.3867 -2.95723 -0.498775 0
M  V30 438 H 38.9397 -1.54703 -0.222888 0
M  V30 439 H 39.6747 -1.71633 -2.75159 0
M  V30 440 H 39.4597 -3.34461 -2.04641 0
M  V30 441 H 40.9497 -2.95083 -2.95492 0
M  V30 442 N 41.3868 0.248026 -1.55636 0
M  V30 443 C 42.6118 0.998028 -1.81808 0
M  V30 444 C 43.0368 1.78207 -0.601979 0
M  V30 445 O 42.3948 1.75653 0.448961 0
M  V30 446 C 42.4428 1.9125 -3.05705 0
M  V30 447 O 41.5468 3.00406 -2.82542 0
M  V30 448 H 40.8878 0.284045 -0.600179 0
M  V30 449 H 43.4178 0.269357 -2.02819 0
M  V30 450 H 43.4278 2.32737 -3.35108 0
M  V30 451 H 42.1028 1.33602 -3.93857 0
M  V30 452 H 40.6798 2.63056 -2.64303 0
M  V30 453 N 42.8649 1.48995 0.513639 0
M  V30 454 C 43.8129 1.65199 1.63744 0
M  V30 455 C 44.8069 0.51809 1.61283 0
M  V30 456 O 46.0129 0.697335 1.65943 0
M  V30 457 H 42.3879 0.52069 0.542574 0
M  V30 458 H 44.3589 2.59552 1.47226 0
M  V30 459 C 43.1079 1.72409 3.01945 0
M  V30 460 H 42.4309 2.59029 3.04539 0
M  V30 461 H 43.8709 1.87785 3.80148 0
M  V30 462 C 42.3299 0.46618 3.33659 0
M  V30 463 O 42.8599 -0.413744 3.99564 0
M  V30 464 N 41.0659 0.332931 2.88687 0
M  V30 465 H 40.6129 1.04996 2.35231 0
M  V30 466 H 40.5709 -0.507665 3.10274 0
M  V30 467 N 44.343 -0.763751 1.37857 0
M  V30 468 C 45.273 -1.89103 1.36975 0
M  V30 469 C 46.254 -1.68439 0.237152 0
M  V30 470 O 47.439 -1.8918 0.438713 0
M  V30 471 C 44.569 -3.26496 1.18395 0
M  V30 472 C 43.523 -3.61741 2.28751 0
M  V30 473 C 42.849 -4.97762 1.95286 0
M  V30 474 C 44.149 -3.67665 3.70972 0
M  V30 475 H 45.843 -1.90099 2.31307 0
M  V30 476 H 43.389 -0.91319 1.11341 0
M  V30 477 H 45.342 -4.05003 1.16406 0
M  V30 478 H 44.066 -3.25955 0.205215 0
M  V30 479 H 42.725 -2.85547 2.29909 0
M  V30 480 H 42.373 -4.93769 0.959221 0
M  V30 481 H 42.073 -5.22313 2.69189 0
M  V30 482 H 43.597 -5.7866 1.94898 0
M  V30 483 H 45.011 -4.36307 3.719 0
M  V30 484 H 43.408 -4.03718 4.43995 0
M  V30 485 H 44.478 -2.68134 4.0402 0
M  V30 486 N 45.8211 -1.22559 -0.990812 0
M  V30 487 C 47.0701 -1.04553 -1.72486 0
M  V30 488 C 47.3831 0.419349 -1.91052 0
M  V30 489 O 48.5891 0.719121 -2.61803 0
M  V30 490 C 47.0451 -1.82231 -3.10355 0
M  V30 491 C 46.6531 -3.32981 -2.99713 0
M  V30 492 C 48.3971 -1.7268 -3.87791 0
M  V30 493 C 46.3041 -4.03091 -4.32748 0
M  V30 494 H 45.2341 -0.387614 -0.646739 0
M  V30 495 H 47.8851 -1.46429 -1.10593 0
M  V30 496 H 46.2671 -1.33155 -3.72942 0
M  V30 497 H 47.4411 -3.89466 -2.46278 0
M  V30 498 H 45.7561 -3.43231 -2.35758 0
M  V30 499 H 48.3531 -2.22381 -4.86262 0
M  V30 500 H 48.6961 -0.687607 -4.10582 0
M  V30 501 H 49.2291 -2.1931 -3.31885 0
M  V30 502 H 45.9681 -5.07273 -4.15156 0
M  V30 503 H 45.4881 -3.51394 -4.86089 0
M  V30 504 H 47.1671 -4.08804 -5.01486 0
M  V30 505 N 47.2992 1.18797 -1.03562 0
M  V30 506 C 48.5292 1.92319 -0.754773 0
M  V30 507 C 48.9372 1.7612 0.691248 0
M  V30 508 O 48.2802 1.08491 1.48241 0
M  V30 509 C 48.3422 3.44284 -1.03484 0
M  V30 510 C 48.0062 3.84258 -2.47376 0
M  V30 511 C 49.0032 3.88459 -3.45537 0
M  V30 512 C 46.6882 4.15701 -2.81954 0
M  V30 513 C 48.6822 4.23545 -4.76328 0
M  V30 514 C 46.3692 4.50458 -4.12954 0
M  V30 515 C 47.3672 4.54356 -5.09951 0
M  V30 516 O 47.0552 4.88305 -6.38603 0
M  V30 517 H 46.7872 0.617527 -0.275021 0
M  V30 518 H 49.3412 1.51683 -1.38497 0
M  V30 519 H 47.5712 3.85135 -0.347513 0
M  V30 520 H 49.2602 3.99049 -0.7426 0
M  V30 521 H 50.0262 3.6431 -3.20162 0
M  V30 522 H 45.9052 4.11847 -2.0713 0
M  V30 523 H 49.4492 4.26502 -5.52035 0
M  V30 524 H 45.3462 4.74067 -4.38099 0
M  V30 525 H 46.1142 5.06227 -6.43177 0
M  V30 526 N 48.7773 0.814389 1.34928 0
M  V30 527 C 50.1883 0.458364 1.80986 0
M  V30 528 C 50.5393 -1.02042 1.67577 0
M  V30 529 O 49.6643 -1.79352 1.21086 0
M  V30 530 C 50.2593 0.825212 3.28597 0
M  V30 531 C 48.8183 0.521677 3.72767 0
M  V30 532 C 47.9653 1.04668 2.56788 0
M  V30 533 H 50.9163 1.00533 1.22795 0
M  V30 534 H 50.9373 0.12571 3.80292 0
M  V30 535 H 50.4493 1.90154 3.38324 0
M  V30 536 H 48.5503 -0.545589 3.68584 0
M  V30 537 H 48.6633 1.05977 4.67232 0
M  V30 538 H 47.0273 0.468622 2.50352 0
M  V30 539 H 47.8103 2.12927 2.6929 0
M  V30 540 N 50.2554 -1.46986 0.568584 0
M  V30 541 C 51.5044 -2.01646 0.0465894 0
M  V30 542 C 51.8174 -1.44721 -1.31587 0
M  V30 543 O 53.0234 -1.91113 -1.92842 0
M  V30 544 C 51.4794 -3.59885 0.032752 0
M  V30 545 C 51.0874 -4.25804 1.39266 0
M  V30 546 C 52.8314 -4.22255 -0.436038 0
M  V30 547 C 50.7384 -5.76081 1.33732 0
M  V30 548 H 49.6684 -0.753876 0.013647 0
M  V30 549 H 52.3194 -1.68864 0.718131 0
M  V30 550 H 50.7014 -3.8968 -0.704669 0
M  V30 551 H 51.8754 -4.07637 2.1487 0
M  V30 552 H 50.1904 -3.7547 1.80032 0
M  V30 553 H 52.7874 -5.32394 -0.49602 0
M  V30 554 H 53.1304 -3.90212 -1.45053 0
M  V30 555 H 53.6634 -3.97033 0.246877 0
M  V30 556 H 50.4024 -6.12761 2.32817 0
M  V30 557 H 49.9224 -5.96553 0.623267 0
M  V30 558 H 51.6014 -6.38518 1.0442 0
M  V30 559 N 51.7335 -0.305618 -1.54608 0
M  V30 560 C 52.9805 0.302298 -2.00231 0
M  V30 561 C 53.3085 1.5354 -1.19398 0
M  V30 562 O 52.5635 1.93973 -0.259423 0
M  V30 563 C 52.8625 0.698983 -3.50498 0
M  V30 564 C 52.5285 -0.432903 -4.48817 0
M  V30 565 C 51.1905 -0.743622 -4.75419 0
M  V30 566 C 53.5425 -1.19409 -5.07337 0
M  V30 567 C 50.8705 -1.81857 -5.57804 0
M  V30 568 C 53.2225 -2.25899 -5.90891 0
M  V30 569 C 51.8865 -2.57572 -6.15803 0
M  V30 570 H 51.1565 0.110619 -0.732697 0
M  V30 571 H 53.8035 -0.425674 -1.86709 0
M  V30 572 H 52.1085 1.50711 -3.61654 0
M  V30 573 H 53.8055 1.1806 -3.83227 0
M  V30 574 H 50.3955 -0.18063 -4.28219 0
M  V30 575 H 54.5795 -0.967295 -4.86782 0
M  V30 576 H 49.8355 -2.06864 -5.75341 0
M  V30 577 H 54.0095 -2.85335 -6.35261 0
M  V30 578 H 51.6365 -3.40998 -6.7943 0
M  V30 579 N 53.2116 1.57565 -0.0334293 0
M  V30 580 C 54.4576 1.92262 0.645226 0
M  V30 581 C 54.7906 0.910543 1.71531 0
M  V30 582 O 54.0656 -0.066099 1.94388 0
M  V30 583 C 54.3486 3.37422 1.2577 0
M  V30 584 C 54.2016 4.49369 0.196891 0
M  V30 585 C 55.5206 3.82628 2.17449 0
M  V30 586 H 52.6396 0.699171 0.233085 0
M  V30 587 H 55.2816 1.89779 -0.0915694 0
M  V30 588 H 53.4316 3.39669 1.88566 0
M  V30 589 H 55.1036 4.59254 -0.433962 0
M  V30 590 H 53.3466 4.31168 -0.477137 0
M  V30 591 H 54.0176 5.47978 0.665124 0
M  V30 592 H 56.4936 3.82145 1.64634 0
M  V30 593 H 55.3696 4.84883 2.57254 0
M  V30 594 H 55.6306 3.18376 3.0674 0
M  V30 595 N 54.6897 -0.239769 1.55765 0
M  V30 596 C 55.9177 -0.98417 1.81994 0
M  V30 597 C 56.3327 -1.7867 0.610124 0
M  V30 598 O 55.6897 -1.77571 -0.421271 0
M  V30 599 C 55.7407 -1.91635 3.06526 0
M  V30 600 O 55.4617 -1.14629 4.22838 0
M  V30 601 C 56.9627 -2.77616 3.45607 0
M  V30 602 H 54.1827 -0.28928 0.605441 0
M  V30 603 H 56.7267 -0.260499 2.02834 0
M  V30 604 H 54.8817 -2.5942 2.87715 0
M  V30 605 H 55.2957 -1.77745 4.93464 0
M  V30 606 H 56.7697 -3.38759 4.35828 0
M  V30 607 H 57.2467 -3.4909 2.6652 0
M  V30 608 H 57.8527 -2.15271 3.66795 0
M  V30 609 N 56.1678 -1.49265 -0.50573 0
M  V30 610 C 57.4448 -1.49012 -1.26707 0
M  V30 611 C 57.8248 -0.215205 -2.1 0
M  V30 612 O 57.1728 0.802547 -2.13943 0
M  V30 613 C 57.3828 -2.7663 -2.12783 0
M  V30 614 C 58.7308 -3.25932 -2.72127 0
M  V30 615 O 59.7548 -2.77715 -2.23054 0
M  V30 616 O 58.6138 -4.09897 -3.61451 0
M  V30 617 H 55.7078 -0.596197 -0.57313 0
M  V30 618 H 58.2538 -1.61524 -0.52039 0
M  V30 619 H 57.0258 -3.60916 -1.5118 0
M  V30 620 H 56.6488 -2.66956 -2.94653 0
M  V30 621 N 57.6459 0.756429 -1.3826 0
M  V30 622 C 58.8919 1.51772 -1.34511 0
M  V30 623 C 59.2249 1.94089 0.0656691 0
M  V30 624 O 58.4999 1.65221 1.02626 0
M  V30 625 C 58.7829 2.77226 -2.29821 0
M  V30 626 C 58.6359 2.41065 -3.79747 0
M  V30 627 C 59.9549 3.79236 -2.23312 0
M  V30 628 H 57.0739 0.550578 -0.489931 0
M  V30 629 H 59.7159 0.866607 -1.69086 0
M  V30 630 H 57.8659 3.32784 -2.00467 0
M  V30 631 H 59.5379 1.91303 -4.19763 0
M  V30 632 H 57.7809 1.7356 -3.97567 0
M  V30 633 H 58.4519 3.3081 -4.41892 0
M  V30 634 H 60.9279 3.3321 -2.49219 0
M  V30 635 H 59.8039 4.64714 -2.92116 0
M  V30 636 H 60.0649 4.24615 -1.23102 0
M  V30 637 N 59.124 1.23083 0.984299 0
M  V30 638 C 60.535 1.05609 1.5396 0
M  V30 639 C 60.886 -0.377793 1.92528 0
M  V30 640 O 60.011 -1.26398 1.75649 0
M  V30 641 C 60.606 1.91087 2.7977 0
M  V30 642 C 59.165 1.77885 3.31713 0
M  V30 643 C 58.312 1.87028 2.04733 0
M  V30 644 H 61.263 1.36802 0.804419 0
M  V30 645 H 61.284 1.43336 3.5247 0
M  V30 646 H 60.796 2.9544 2.51668 0
M  V30 647 H 58.897 0.762995 3.64704 0
M  V30 648 H 59.01 2.61047 4.01735 0
M  V30 649 H 57.374 1.30565 2.18689 0
M  V30 650 H 58.157 2.92929 1.79017 0
M  V30 651 N 60.6021 -1.18246 1.0419 0
M  V30 652 C 61.8791 -1.84121 0.660208 0
M  V30 653 C 62.2591 -1.92778 -0.860221 0
M  V30 654 O 61.6071 -1.45464 -1.76217 0
M  V30 655 C 61.8171 -3.22355 1.33747 0
M  V30 656 C 63.1651 -3.98376 1.46906 0
M  V30 657 O 64.1891 -3.31799 1.29568 0
M  V30 658 O 63.0481 -5.17665 1.75171 0
M  V30 659 H 60.1421 -0.794036 0.231161 0
M  V30 660 H 62.6881 -1.25628 1.14087 0
M  V30 661 H 61.4601 -3.10964 2.37522 0
M  V30 662 H 61.0831 -3.88506 0.845515 0
M  V30 663 N 62.0802 -0.821533 -1.34494 0
M  V30 664 C 63.3572 -0.33159 -1.92769 0
M  V30 665 C 63.7372 1.18088 -1.74981 0
M  V30 666 O 63.0852 1.98733 -1.12772 0
M  V30 667 C 63.2952 -0.759398 -3.40638 0
M  V30 668 C 64.6432 -0.757433 -4.1779 0
M  V30 669 O 65.6672 -0.70189 -3.49216 0
M  V30 670 O 64.5262 -0.829361 -5.4017 0
M  V30 671 H 61.6202 -0.0902502 -0.822061 0
M  V30 672 H 64.1662 -0.906231 -1.43477 0
M  V30 673 H 62.9382 -1.8012 -3.47379 0
M  V30 674 H 62.5612 -0.160378 -3.97276 0
M  V30 675 N 63.5583 1.46682 -0.576371 0
M  V30 676 C 64.8073 2.01619 -0.0572825 0
M  V30 677 C 65.1203 1.45417 1.30818 0
M  V30 678 O 66.3263 1.92133 1.91825 0
M  V30 679 C 64.7823 3.59863 -0.0518371 0
M  V30 680 C 64.3903 4.25059 -1.41523 0
M  V30 681 C 66.1343 4.2248 0.413639 0
M  V30 682 C 64.0413 5.75364 -1.36785 0
M  V30 683 H 62.9713 0.753794 -0.0176448 0
M  V30 684 H 65.6223 1.68481 -0.727076 0
M  V30 685 H 64.0043 3.90048 0.683994 0
M  V30 686 H 65.1783 4.06491 -2.17029 0
M  V30 687 H 63.4933 3.7451 -1.8202 0
M  V30 688 H 66.0903 5.3265 0.467779 0
M  V30 689 H 66.4333 3.90976 1.42982 0
M  V30 690 H 66.9663 3.96897 -0.267929 0
M  V30 691 H 63.7053 6.11518 -2.36063 0
M  V30 692 H 63.2253 5.96214 -0.654895 0
M  V30 693 H 64.9043 6.37955 -1.07805 0
M  V30 694 N 65.0364 0.313813 1.54444 0
M  V30 695 C 65.9684 -0.590425 2.21465 0
M  V30 696 C 66.9814 -1.08753 1.21147 0
M  V30 697 O 68.1704 -1.00278 1.4767 0
M  V30 698 C 65.2704 -1.82179 2.85769 0
M  V30 699 C 64.4434 -1.46502 4.12136 0
M  V30 700 C 63.5024 -2.55288 4.60124 0
M  V30 701 O 62.5284 -2.19842 5.25032 0
M  V30 702 N 63.7304 -3.86053 4.33525 0
M  V30 703 H 66.4954 -0.0166033 2.99695 0
M  V30 704 H 64.0564 0.136578 1.61323 0
M  V30 705 H 66.0484 -2.54328 3.14801 0
M  V30 706 H 64.6184 -2.30369 2.11303 0
M  V30 707 H 63.8384 -0.575595 3.89975 0
M  V30 708 H 65.1264 -1.20221 4.94393 0
M  V30 709 H 64.5244 -4.17654 3.81552 0
M  V30 710 H 63.0814 -4.54461 4.67235 0
M  V30 711 N 66.5145 -1.57545 0.0417849 0
M  V30 712 C 67.9255 -1.80011 -0.495259 0
M  V30 713 C 68.2765 -0.953199 -1.71489 0
M  V30 714 O 67.4015 -0.167138 -2.15754 0
M  V30 715 C 67.9965 -3.26482 -0.905265 0
M  V30 716 C 66.5555 -3.499 -1.38734 0
M  V30 717 C 65.7025 -2.74979 -0.358056 0
M  V30 718 H 68.6535 -1.56425 0.267736 0
M  V30 719 H 68.6745 -3.36887 -1.76882 0
M  V30 720 H 68.1865 -3.88096 -0.017401 0
M  V30 721 H 66.2875 -2.93553 -2.29471 0
M  V30 722 H 66.4005 -4.58615 -1.38598 0
M  V30 723 H 64.7645 -2.40834 -0.828912 0
M  V30 724 H 65.5475 -3.39315 0.521561 0
M  V30 725 N 67.9926 0.231505 -1.5589 0
M  V30 726 C 69.2416 0.955346 -1.7764 0
M  V30 727 C 69.5546 1.85893 -0.608546 0
M  V30 728 O 70.7606 2.62067 -0.70943 0
M  V30 729 C 69.2166 1.74886 -3.14552 0
M  V30 730 C 68.8246 0.891915 -4.39032 0
M  V30 731 C 70.5686 2.46452 -3.45633 0
M  V30 732 C 68.4756 1.68221 -5.66971 0
M  V30 733 H 67.4056 0.360446 -0.662265 0
M  V30 734 H 70.0566 0.209516 -1.823 0
M  V30 735 H 68.4386 2.53723 -3.04041 0
M  V30 736 H 69.6126 0.144793 -4.60572 0
M  V30 737 H 67.9276 0.288863 -4.15397 0
M  V30 738 H 70.5246 3.06061 -4.38441 0
M  V30 739 H 70.8676 3.18841 -2.67668 0
M  V30 740 H 71.4006 1.74613 -3.57428 0
M  V30 741 H 68.1396 1.00178 -6.478 0
M  V30 742 H 67.6596 2.4042 -5.49507 0
M  V30 743 H 69.3386 2.24544 -6.06786 0
M  V30 744 N 69.4707 1.49531 0.497807 0
M  V30 745 C 70.6987 1.62893 1.27567 0
M  V30 746 C 71.1137 0.301585 1.86376 0
M  V30 747 O 70.4707 -0.713335 1.67982 0
M  V30 748 C 70.5217 2.70013 2.40364 0
M  V30 749 O 70.2427 3.976 1.83972 0
M  V30 750 C 71.7437 2.94109 3.31685 0
M  V30 751 H 68.9637 0.548298 0.386794 0
M  V30 752 H 71.5077 1.95584 0.597245 0
M  V30 753 H 69.6627 2.40092 3.04031 0
M  V30 754 H 70.0767 4.56631 2.58047 0
M  V30 755 H 71.5507 3.72788 4.07104 0
M  V30 756 H 72.0277 2.04147 3.88871 0
M  V30 757 H 72.6337 3.2546 2.73781 0
M  V30 758 N 70.9488 -0.749086 1.3866 0
M  V30 759 C 72.1738 -1.54344 1.38538 0
M  V30 760 C 72.5988 -1.88088 -0.0216655 0
M  V30 761 O 71.9568 -1.50899 -1.00494 0
M  V30 762 C 72.0048 -2.8164 2.25192 0
M  V30 763 O 71.1088 -3.7698 1.67212 0
M  V30 764 H 70.4498 -0.466654 0.472367 0
M  V30 765 H 72.9798 -0.925355 1.82478 0
M  V30 766 H 72.9898 -3.30519 2.3921 0
M  V30 767 H 71.6648 -2.56411 3.27454 0
M  V30 768 H 70.2418 -3.35699 1.6236 0
M  V30 769 N 72.4269 -1.23603 -0.977757 0
M  V30 770 C 73.3569 -1.04401 -2.0886 0
M  V30 771 C 74.3379 0.0399052 -1.70053 0
M  V30 772 O 75.5229 -0.125246 -1.93796 0
M  V30 773 C 72.6529 -0.637269 -3.41403 0
M  V30 774 C 71.6069 -1.66883 -3.94124 0
M  V30 775 C 70.9329 -1.11745 -5.22893 0
M  V30 776 C 72.2329 -3.06247 -4.23096 0
M  V30 777 H 73.9269 -1.97316 -2.25182 0
M  V30 778 H 71.4729 -0.950096 -1.08209 0
M  V30 779 H 73.4259 -0.48998 -4.18542 0
M  V30 780 H 72.1499 0.327557 -3.24953 0
M  V30 781 H 70.8089 -1.80416 -3.19133 0
M  V30 782 H 70.4569 -0.143527 -5.02795 0
M  V30 783 H 70.1569 -1.80672 -5.59134 0
M  V30 784 H 71.6809 -0.982067 -6.02651 0
M  V30 785 H 73.0949 -2.96001 -4.90975 0
M  V30 786 H 71.4919 -3.72436 -4.70544 0
M  V30 787 H 72.5619 -3.55041 -3.30263 0
M  V30 788 N 73.905 1.17692 -1.04816 0
M  V30 789 C 75.316 1.69501 -0.782698 0
M  V30 790 C 75.667 1.83456 0.695577 0
M  V30 791 O 74.792 1.51942 1.54086 0
M  V30 792 C 75.387 3.07874 -1.41419 0
M  V30 793 C 73.946 3.56864 -1.19686 0
M  V30 794 C 73.093 2.3322 -1.50012 0
M  V30 795 H 76.044 1.02262 -1.2136 0
M  V30 796 H 76.065 3.71528 -0.821428 0
M  V30 797 H 75.577 2.97685 -2.49009 0
M  V30 798 H 73.678 3.72337 -0.140043 0
M  V30 799 H 73.791 4.39851 -1.89916 0
M  V30 800 H 72.155 2.37501 -0.920071 0
M  V30 801 H 72.938 2.25644 -2.58727 0
M  V30 802 N 75.3831 0.828654 1.34056 0
M  V30 803 C 76.6311 0.41863 1.97717 0
M  V30 804 C 76.9521 -1.02314 1.66002 0
M  V30 805 O 76.2221 -1.71119 0.953683 0
M  V30 806 H 74.8021 0.151809 0.731412 0
M  V30 807 H 77.4641 1.05936 1.63596 0
M  V30 808 H 76.5601 0.542318 3.07352 0
M  V30 809 N 76.8612 -1.46375 0.584142 0
M  V30 810 C 78.1072 -2.02678 0.0703716 0
M  V30 811 C 78.4402 -1.4545 -1.28678 0
M  V30 812 O 77.7152 -0.62014 -1.84349 0
M  V30 813 C 77.9982 -3.60099 0.00614674 0
M  V30 814 C 77.8512 -4.27709 1.3923 0
M  V30 815 C 79.1702 -4.34598 -0.693742 0
M  V30 816 H 76.2892 -0.736504 0.027047 0
M  V30 817 H 78.9312 -1.74501 0.751615 0
M  V30 818 H 77.0812 -3.84236 -0.574009 0
M  V30 819 H 78.7532 -4.14832 2.01773 0
M  V30 820 H 76.9962 -3.87016 1.95962 0
M  V30 821 H 77.6672 -5.36478 1.29982 0
M  V30 822 H 80.1432 -4.15615 -0.200869 0
M  V30 823 H 79.0192 -5.44318 -0.707714 0
M  V30 824 H 79.2802 -4.05759 -1.75533 0
M  V30 825 N 78.3393 -0.321999 -1.54275 0
M  V30 826 C 79.3023 0.531975 -2.22941 0
M  V30 827 C 80.3023 1.04478 -1.22234 0
M  V30 828 O 81.4923 0.937452 -1.46825 0
M  V30 829 C 78.6243 1.73874 -2.93224 0
M  V30 830 H 79.8173 -0.0682612 -2.99822 0
M  V30 831 H 77.3703 -0.0730644 -1.56129 0
M  V30 832 H 78.1053 2.37825 -2.20476 0
M  V30 833 H 77.8903 1.37847 -3.6707 0
M  V30 834 H 79.3803 2.34496 -3.45545 0
M  V30 835 N 79.8174 1.5752 -0.0501392 0
M  V30 836 C 81.2334 1.56631 0.306402 0
M  V30 837 C 81.4334 1.0577 1.71508 0
M  V30 838 O 80.4894 0.713837 2.422 0
M  V30 839 C 81.8024 3.00393 0.135811 0
M  V30 840 C 83.3504 3.12315 0.206993 0
M  V30 841 C 83.8254 4.57954 0.064944 0
M  V30 842 N 85.3164 4.63041 0.121254 0
M  V30 843 C 86.0514 5.73389 0.0354381 0
M  V30 844 N 85.5474 6.92724 -0.102666 0
M  V30 845 N 87.3404 5.62026 0.090946 0
M  V30 846 H 79.4914 1.88903 -0.971046 0
M  V30 847 H 81.7544 0.869876 -0.376855 0
M  V30 848 H 81.4604 3.41635 -0.835384 0
M  V30 849 H 81.3344 3.66373 0.897275 0
M  V30 850 H 83.7214 2.70973 1.16866 0
M  V30 851 H 83.8024 2.49016 -0.585208 0
M  V30 852 H 83.4464 4.99981 -0.893394 0
M  V30 853 H 83.3764 5.19258 0.876277 0
M  V30 854 H 85.8674 3.77216 0.227284 0
M  V30 855 H 86.1804 7.72633 -0.160882 0
M  V30 856 H 84.5254 6.94864 -0.137737 0
M  V30 857 H 87.7164 4.67684 0.197388 0
M  V30 858 H 87.8894 6.47997 0.0206089 0
M  V30 859 N 81.2955 -0.223234 1.56011 0
M  V30 860 C 82.5255 -0.963413 1.82762 0
M  V30 861 C 82.9335 -1.78516 0.626804 0
M  V30 862 O 82.2765 -1.78974 -0.414014 0
M  V30 863 C 82.3385 -1.93126 3.0322 0
M  V30 864 C 82.0025 -1.2942 4.38291 0
M  V30 865 C 82.9995 -0.684916 5.15369 0
M  V30 866 C 80.6845 -1.30647 4.85012 0
M  V30 867 C 82.6785 -0.0963971 6.37327 0
M  V30 868 C 80.3655 -0.71411 6.06913 0
M  V30 869 C 81.3635 -0.110123 6.82911 0
M  V30 870 O 81.0515 0.47303 8.02507 0
M  V30 871 H 80.7835 -0.288011 0.611576 0
M  V30 872 H 83.3375 -0.244103 2.03944 0
M  V30 873 H 81.5675 -2.68952 2.77852 0
M  V30 874 H 83.2565 -2.53685 3.16857 0
M  V30 875 H 84.0225 -0.667774 4.80381 0
M  V30 876 H 79.9015 -1.76598 4.25833 0
M  V30 877 H 83.4455 0.375657 6.96588 0
M  V30 878 H 79.3425 -0.728659 6.41374 0
M  V30 879 H 80.1105 0.367186 8.17676 0
M  V30 880 N 82.7736 -1.49793 -0.48987 0
M  V30 881 C 84.0216 -1.59525 -1.24081 0
M  V30 882 C 84.3426 -0.288953 -1.92847 0
M  V30 883 O 83.6126 0.692436 -1.83254 0
M  V30 884 H 82.1926 -0.587796 -0.460983 0
M  V30 885 H 84.8546 -1.86477 -0.566778 0
M  V30 886 H 83.9506 -2.39696 -1.99881 0
M  V30 887 N 84.2517 0.741722 -1.39055 0
M  V30 888 C 85.4977 1.50336 -1.36113 0
M  V30 889 C 85.8307 1.94148 0.0450796 0
M  V30 890 O 85.1057 1.66301 1.00868 0
M  V30 891 C 85.3887 2.74773 -2.32749 0
M  V30 892 C 85.2417 2.37023 -3.82283 0
M  V30 893 C 86.5607 3.76846 -2.27322 0
M  V30 894 H 83.6797 0.545351 -0.495743 0
M  V30 895 H 86.3217 0.848624 -1.69995 0
M  V30 896 H 84.4717 3.30639 -2.03986 0
M  V30 897 H 86.1437 1.8684 -4.21768 0
M  V30 898 H 84.3867 1.69334 -3.99385 0
M  V30 899 H 85.0577 3.26104 -4.45376 0
M  V30 900 H 87.5337 3.30548 -2.5274 0
M  V30 901 H 86.4097 4.6159 -2.97028 0
M  V30 902 H 86.6707 4.23286 -1.27599 0
M  V30 903 N 85.7298 1.2412 0.971189 0
M  V30 904 C 86.6768 1.0305 2.06517 0
M  V30 905 C 87.6468 -0.0550666 1.66009 0
M  V30 906 O 88.8318 0.0988688 1.90544 0
M  V30 907 C 85.9718 0.637653 3.39158 0
M  V30 908 C 85.0848 1.79633 3.92882 0
M  V30 909 C 84.2198 1.34939 5.13775 0
M  V30 910 C 83.2588 2.47823 5.59687 0
M  V30 911 N 82.3958 2.04022 6.71803 0
M  V30 912 H 87.2358 1.96685 2.23873 0
M  V30 913 H 84.7728 0.979694 1.09729 0
M  V30 914 H 86.7308 0.390931 4.15364 0
M  V30 915 H 85.3608 -0.261693 3.21737 0
M  V30 916 H 84.4128 2.15681 3.13346 0
M  V30 917 H 85.7248 2.64466 4.22918 0
M  V30 918 H 84.8788 1.06134 5.97345 0
M  V30 919 H 83.6178 0.471557 4.85415 0
M  V30 920 H 82.6228 2.77392 4.74693 0
M  V30 921 H 83.8478 3.36158 5.90063 0
M  V30 922 H 81.7938 1.18632 6.45184 0
M  V30 923 H 81.7108 2.82409 7.01271 0
M  V30 924 H 82.9788 1.78347 7.58823 0
M  V30 925 N 87.2079 -1.17134 1.05439 0
M  V30 926 C 88.6239 -1.39454 0.776201 0
M  V30 927 C 88.8239 -1.91454 -0.628307 0
M  V30 928 O 87.8799 -2.10777 -1.39031 0
M  V30 929 C 89.1929 -2.38305 1.83388 0
M  V30 930 C 90.7409 -2.52006 1.85639 0
M  V30 931 C 91.2159 -3.54133 2.90437 0
M  V30 932 N 92.7069 -3.61653 2.89415 0
M  V30 933 C 93.4419 -4.4044 3.67152 0
M  V30 934 N 92.9379 -5.22721 4.54681 0
M  V30 935 N 94.7309 -4.35337 3.55581 0
M  V30 936 H 86.8819 -0.817134 1.96053 0
M  V30 937 H 89.1449 -0.421626 0.849079 0
M  V30 938 H 88.8509 -2.07173 2.84204 0
M  V30 939 H 88.7249 -3.37841 1.67761 0
M  V30 940 H 91.1119 -2.82447 0.85486 0
M  V30 941 H 91.1929 -1.52537 2.05344 0
M  V30 942 H 90.8369 -3.24431 3.90777 0
M  V30 943 H 90.7669 -4.53313 2.67983 0
M  V30 944 H 93.2579 -3.02909 2.25952 0
M  V30 945 H 93.5709 -5.80027 5.10674 0
M  V30 946 H 91.9159 -5.22093 4.58741 0
M  V30 947 H 95.1069 -3.70112 2.86592 0
M  V30 948 H 95.2799 -4.96494 4.1641 0
M  V30 949 N 88.686 -0.835752 -1.33615 0
M  V30 950 C 89.616 -0.281739 -2.31794 0
M  V30 951 C 90.597 0.608833 -1.58831 0
M  V30 952 O 91.782 0.533035 -1.86741 0
M  V30 953 C 88.912 0.546612 -3.42971 0
M  V30 954 C 87.866 -0.247904 -4.27281 0
M  V30 955 C 87.192 0.704001 -5.30045 0
M  V30 956 C 88.492 -1.46324 -5.01385 0
M  V30 957 H 90.186 -1.10206 -2.78379 0
M  V30 958 H 87.732 -0.531388 -1.33837 0
M  V30 959 H 89.685 0.944467 -4.1068 0
M  V30 960 H 88.409 1.40011 -2.95067 0
M  V30 961 H 87.068 -0.627281 -3.61194 0
M  V30 962 H 86.716 1.55381 -4.78399 0
M  V30 963 H 86.416 0.176524 -5.87335 0
M  V30 964 H 87.94 1.09944 -6.0062 0
M  V30 965 H 89.354 -1.13871 -5.61877 0
M  V30 966 H 87.751 -1.92728 -5.6831 0
M  V30 967 H 88.821 -2.23467 -4.30338 0
M  V30 968 N 90.1641 1.46063 -0.591896 0
M  V30 969 C 91.0741 2.34192 0.13831 0
M  V30 970 C 92.0901 1.50305 0.876608 0
M  V30 971 O 93.2661 1.8315 0.837728 0
M  V30 972 C 90.3311 3.27656 1.13326 0
M  V30 973 C 89.3921 4.27445 0.39863 0
M  V30 974 C 88.6251 5.16443 1.34618 0
M  V30 975 O 88.8481 5.08553 2.58321 0
M  V30 976 O 87.7821 5.95843 0.851768 0
M  V30 977 H 91.6081 2.98002 -0.58552 0
M  V30 978 H 89.1931 1.45188 -0.352239 0
M  V30 979 H 91.0751 3.85291 1.70671 0
M  V30 980 H 89.7501 2.6643 1.83839 0
M  V30 981 H 88.6571 3.73471 -0.216895 0
M  V30 982 H 89.9901 4.91482 -0.265709 0
M  V30 983 N 91.6422 0.330177 1.54103 0
M  V30 984 C 92.5522 -0.541534 2.28264 0
M  V30 985 C 93.5682 -1.12351 1.32866 0
M  V30 986 O 94.7442 -1.14206 1.65888 0
M  V30 987 C 91.8092 -1.68322 3.03098 0
M  V30 988 C 90.8702 -1.13238 4.14096 0
M  V30 989 C 90.1032 -2.21966 4.85352 0
M  V30 990 O 90.3262 -3.42437 4.56172 0
M  V30 991 O 89.2602 -1.87013 5.7211 0
M  V30 992 H 93.0862 0.060938 3.03639 0
M  V30 993 H 90.6712 0.09565 1.49093 0
M  V30 994 H 92.5532 -2.34777 3.49939 0
M  V30 995 H 91.2282 -2.27176 2.30593 0
M  V30 996 H 90.1352 -0.432736 3.71589 0
M  V30 997 H 91.4682 -0.588898 4.88664 0
M  V30 998 N 93.1203 -1.57491 0.0584922 0
M  V30 999 C 94.0533 -2.07533 -0.948969 0
M  V30 1000 C 95.0313 -0.977444 -1.29942 0
M  V30 1001 O 96.2153 -1.2499 -1.41102 0
M  V30 1002 C 93.3423 -2.52192 -2.2609 0
M  V30 1003 C 92.3883 -3.73287 -2.06298 0
M  V30 1004 S 93.2213 -5.18603 -1.33459 0
M  V30 1005 C 94.3773 -5.66583 -2.65959 0
M  V30 1006 H 94.6103 -2.92662 -0.523118 0
M  V30 1007 H 92.1433 -1.53631 -0.153954 0
M  V30 1008 H 94.1013 -2.78585 -3.01498 0
M  V30 1009 H 92.7623 -1.67356 -2.65802 0
M  V30 1010 H 91.9553 -4.0248 -3.03357 0
M  V30 1011 H 91.5573 -3.47199 -1.39029 0
M  V30 1012 H 93.8493 -5.72616 -3.62101 0
M  V30 1013 H 94.7923 -6.65684 -2.41393 0
M  V30 1014 H 95.2003 -4.94342 -2.72554 0
M  V30 1015 N 94.5984 0.214957 -1.56127 0
M  V30 1016 C 95.5284 1.2695 -1.95974 0
M  V30 1017 C 96.5094 1.48539 -0.828868 0
M  V30 1018 O 97.6944 1.60611 -1.09168 0
M  V30 1019 C 94.8244 2.61794 -2.28214 0
M  V30 1020 C 93.7784 2.54851 -3.43853 0
M  V30 1021 C 93.1044 3.93785 -3.61715 0
M  V30 1022 C 94.4044 2.09065 -4.78632 0
M  V30 1023 H 96.0984 0.93846 -2.84312 0
M  V30 1024 H 93.6444 0.449996 -1.36788 0
M  V30 1025 H 95.5974 3.35731 -2.54682 0
M  V30 1026 H 94.3214 2.96599 -1.36736 0
M  V30 1027 H 92.9804 1.8337 -3.17444 0
M  V30 1028 H 92.6284 4.25908 -2.67602 0
M  V30 1029 H 92.3284 3.90019 -4.39498 0
M  V30 1030 H 93.8524 4.69374 -3.90539 0
M  V30 1031 H 95.2664 2.7275 -5.04262 0
M  V30 1032 H 93.6634 2.16346 -5.59745 0
M  V30 1033 H 94.7334 1.04315 -4.73547 0
M  V30 1034 N 96.0765 1.50051 0.48192 0
M  V30 1035 C 97.4925 1.37237 0.814756 0
M  V30 1036 C 97.6925 0.420109 1.97072 0
M  V30 1037 O 96.7485 -0.141246 2.52105 0
M  V30 1038 C 98.0615 2.78375 1.13701 0
M  V30 1039 C 99.6095 2.87213 1.2441 0
M  V30 1040 C 100.084 4.29161 1.59954 0
M  V30 1041 N 101.575 4.32061 1.66967 0
M  V30 1042 C 102.31 5.38879 1.95952 0
M  V30 1043 N 101.806 6.55918 2.23031 0
M  V30 1044 N 103.599 5.26312 1.97363 0
M  V30 1045 H 95.7505 2.10546 -0.28005 0
M  V30 1046 H 98.0135 0.945921 -0.0627454 0
M  V30 1047 H 97.7195 3.49845 0.360787 0
M  V30 1048 H 97.5935 3.14941 2.07586 0
M  V30 1049 H 99.9805 2.15969 2.01101 0
M  V30 1050 H 100.061 2.54204 0.285299 0
M  V30 1051 H 99.7055 5.00938 0.838067 0
M  V30 1052 H 99.6355 4.59648 2.56966 0
M  V30 1053 H 102.126 3.47661 1.48123 0
M  V30 1054 H 102.439 7.33139 2.44391 0
M  V30 1055 H 100.784 6.59112 2.20447 0
M  V30 1056 H 103.975 4.33876 1.75697 0
M  V30 1057 H 104.148 6.09649 2.19618 0
M  V30 1058 N 97.5546 -0.734337 1.39446 0
M  V30 1059 C 98.9656 -1.31264 1.32766 0
M  V30 1060 C 99.3166 -1.96198 -0.00767497 0
M  V30 1061 O 98.4416 -1.96346 -0.909796 0
M  V30 1062 C 99.0366 -2.38682 2.4045 0
M  V30 1063 C 97.5956 -2.92184 2.37288 0
M  V30 1064 C 96.7426 -1.6576 2.22304 0
M  V30 1065 H 99.6936 -0.531799 1.49525 0
M  V30 1066 H 99.7146 -3.19087 2.07276 0
M  V30 1067 H 99.2266 -1.91392 3.37625 0
M  V30 1068 H 97.3276 -3.43752 1.43754 0
M  V30 1069 H 97.4406 -3.45253 3.3217 0
M  V30 1070 H 95.8046 -1.9012 1.69489 0
M  V30 1071 H 96.5876 -1.20521 3.21449 0
M  V30 1072 N 99.0327 -1.24633 -0.964593 0
M  V30 1073 C 99.9627 -1.06611 -2.07741 0
M  V30 1074 C 100.944 0.0218666 -1.70086 0
M  V30 1075 O 102.129 -0.145793 -1.93652 0
M  V30 1076 C 99.2587 -0.673444 -3.40708 0
M  V30 1077 C 98.2127 -1.71054 -3.92332 0
M  V30 1078 C 97.5387 -1.17285 -5.21678 0
M  V30 1079 C 98.8387 -3.10718 -4.19824 0
M  V30 1080 H 100.533 -1.99693 -2.23076 0
M  V30 1081 H 98.0787 -0.96152 -1.07195 0
M  V30 1082 H 100.032 -0.534345 -4.17998 0
M  V30 1083 H 98.7557 0.293073 -3.25282 0
M  V30 1084 H 97.4147 -1.83791 -3.17201 0
M  V30 1085 H 97.0627 -0.196847 -5.02615 0
M  V30 1086 H 96.7627 -1.86592 -5.57187 0
M  V30 1087 H 98.2867 -1.04593 -6.01575 0
M  V30 1088 H 99.7007 -3.01192 -4.87808 0
M  V30 1089 H 98.0977 -3.77406 -4.66567 0
M  V30 1090 H 99.1677 -3.58524 -3.26479 0
M  V30 1091 N 100.511 1.16574 -1.06058 0
M  V30 1092 C 101.757 1.87324 -0.777022 0
M  V30 1093 C 102.09 1.81351 0.694645 0
M  V30 1094 O 101.365 1.22753 1.50871 0
M  V30 1095 C 101.648 3.36991 -1.26922 0
M  V30 1096 C 101.501 3.51667 -2.80447 0
M  V30 1097 C 102.82 4.3131 -0.87521 0
M  V30 1098 H 99.9388 0.680191 -0.28374 0
M  V30 1099 H 102.581 1.37036 -1.3161 0
M  V30 1100 H 100.731 3.79949 -0.81063 0
M  V30 1101 H 102.403 3.17664 -3.34495 0
M  V30 1102 H 100.646 2.93656 -3.19294 0
M  V30 1103 H 101.317 4.56766 -3.0995 0
M  V30 1104 H 103.793 3.9624 -1.27014 0
M  V30 1105 H 102.669 5.34545 -1.2471 0
M  V30 1106 H 102.93 4.41552 0.220071 0
M  V30 1107 N 101.989 0.842826 1.3317 0
M  V30 1108 C 102.899 0.281444 2.32906 0
M  V30 1109 C 103.915 -0.594587 1.63526 0
M  V30 1110 O 105.091 -0.49777 1.95152 0
M  V30 1111 C 102.156 -0.530929 3.42611 0
M  V30 1112 C 101.217 0.369843 4.27704 0
M  V30 1113 C 100.45 -0.403853 5.3217 0
M  V30 1114 O 100.673 -1.63513 5.46461 0
M  V30 1115 O 99.6069 0.224199 6.01482 0
M  V30 1116 H 103.433 1.10744 2.82789 0
M  V30 1117 H 101.018 0.60545 1.36582 0
M  V30 1118 H 102.9 -0.992437 4.09547 0
M  V30 1119 H 101.575 -1.33392 2.94938 0
M  V30 1120 H 100.482 0.879275 3.6362 0
M  V30 1121 H 101.815 1.13771 4.78871 0
M  V30 1122 N 103.467 -1.45747 0.599634 0
M  V30 1123 C 104.377 -2.34262 -0.125888 0
M  V30 1124 C 105.393 -1.50768 -0.868625 0
M  V30 1125 O 106.569 -1.83592 -0.828003 0
M  V30 1126 C 103.634 -3.28252 -1.11587 0
M  V30 1127 C 102.695 -4.27651 -0.375956 0
M  V30 1128 C 101.928 -5.1715 -1.31877 0
M  V30 1129 O 102.151 -5.09916 -2.55621 0
M  V30 1130 O 101.085 -5.96286 -0.820157 0
M  V30 1131 H 104.911 -2.97688 0.601315 0
M  V30 1132 H 102.496 -1.44999 0.359934 0
M  V30 1133 H 104.378 -3.86191 -1.68626 0
M  V30 1134 H 103.053 -2.67401 -1.82424 0
M  V30 1135 H 101.96 -3.7335 0.236698 0
M  V30 1136 H 103.293 -4.91334 0.29177 0
M  V30 1137 N 104.945 -0.338344 -1.53925 0
M  V30 1138 C 106.193 0.259245 -2.0043 0
M  V30 1139 C 106.514 1.51484 -1.22791 0
M  V30 1140 O 105.784 1.93037 -0.33368 0
M  V30 1141 H 104.364 0.0987845 -0.740439 0
M  V30 1142 H 107.026 -0.458302 -1.89435 0
M  V30 1143 H 106.122 0.505334 -3.07982 0
M  V30 1144 N 106.423 1.57458 -0.0668435 0
M  V30 1145 C 107.353 2.15468 0.899764 0
M  V30 1146 C 108.334 1.08042 1.31381 0
M  V30 1147 O 109.519 1.36054 1.38574 0
M  V30 1148 C 106.649 2.71232 2.16911 0
M  V30 1149 C 105.603 3.83781 1.89463 0
M  V30 1150 C 104.929 4.26127 3.22986 0
M  V30 1151 C 106.229 5.08238 1.20381 0
M  V30 1152 H 107.923 2.96488 0.416529 0
M  V30 1153 H 105.469 1.4262 0.198908 0
M  V30 1154 H 107.422 3.10458 2.84945 0
M  V30 1155 H 106.146 1.87426 2.67468 0
M  V30 1156 H 104.805 3.45051 1.23836 0
M  V30 1157 H 104.453 3.39249 3.71374 0
M  V30 1158 H 104.153 5.01993 3.05413 0
M  V30 1159 H 105.677 4.67966 3.92225 0
M  V30 1160 H 107.091 5.44811 1.78475 0
M  V30 1161 H 105.488 5.89349 1.13083 0
M  V30 1162 H 106.558 4.84558 0.182153 0
M  V30 1163 N 107.901 -0.206675 1.56239 0
M  V30 1164 C 109.317 -0.557025 1.49564 0
M  V30 1165 C 109.517 -1.86424 0.764735 0
M  V30 1166 O 108.573 -2.50584 0.310491 0
M  V30 1167 C 109.886 -0.622478 2.94186 0
M  V30 1168 C 111.434 -0.712099 3.04792 0
M  V30 1169 C 111.909 -0.808767 4.50803 0
M  V30 1170 N 113.4 -0.8726 4.54907 0
M  V30 1171 C 114.135 -0.967365 5.65181 0
M  V30 1172 N 113.631 -1.02515 6.85173 0
M  V30 1173 N 115.424 -1.00366 5.53067 0
M  V30 1174 H 107.575 0.650943 2.02179 0
M  V30 1175 H 109.838 0.230387 0.919579 0
M  V30 1176 H 109.544 0.268727 3.50672 0
M  V30 1177 H 109.418 -1.4811 3.46905 0
M  V30 1178 H 111.805 -1.59374 2.48363 0
M  V30 1179 H 111.886 0.172489 2.55218 0
M  V30 1180 H 111.53 0.0684754 5.07854 0
M  V30 1181 H 111.46 -1.70899 4.98098 0
M  V30 1182 H 113.951 -0.837657 3.68499 0
M  V30 1183 H 114.264 -1.09765 7.64965 0
M  V30 1184 H 112.609 -0.994026 6.87855 0
M  V30 1185 H 115.8 -0.95527 4.58249 0
M  V30 1186 H 115.973 -1.07405 6.39037 0
M  V30 1187 N 109.379 -1.50304 -0.473955 0
M  V30 1188 C 110.619 -1.62786 -1.23612 0
M  V30 1189 C 110.983 -0.319786 -1.89318 0
M  V30 1190 O 112.184 -0.320012 -2.66888 0
M  V30 1191 C 110.455 -2.77351 -2.25414 0
M  V30 1192 S 112.014 -3.09948 -3.10608 0
M  V30 1193 H 108.832 -0.573895 -0.419721 0
M  V30 1194 H 111.434 -1.88076 -0.533623 0
M  V30 1195 H 110.138 -3.70879 -1.75719 0
M  V30 1196 H 109.669 -2.54137 -3.00296 0
M  V30 1197 H 111.684 -2.53553 -4.26527 0
M  V30 1198 N 110.857 0.726932 -1.39834 0
M  V30 1199 C 112.103 1.48884 -1.377 0
M  V30 1200 C 112.436 1.94185 0.0244852 0
M  V30 1201 O 111.711 1.67361 0.990986 0
M  V30 1202 C 111.994 2.72288 -2.3565 0
M  V30 1203 C 111.847 2.32956 -3.84775 0
M  V30 1204 C 113.166 3.74414 -2.31306 0
M  V30 1205 H 110.285 0.540062 -0.5015 0
M  V30 1206 H 112.927 0.830547 -1.70886 0
M  V30 1207 H 111.077 3.28457 -2.07481 0
M  V30 1208 H 112.749 1.82356 -4.23726 0
M  V30 1209 H 110.992 1.65088 -4.01159 0
M  V30 1210 H 111.663 3.21362 -4.4881 0
M  V30 1211 H 114.139 3.27849 -2.56231 0
M  V30 1212 H 113.015 4.58414 -3.01907 0
M  V30 1213 H 113.276 4.21909 -1.32081 0
M  V30 1214 N 112.336 1.25143 0.95797 0
M  V30 1215 C 113.266 1.07711 2.07173 0
M  V30 1216 C 114.247 -0.0128462 1.70095 0
M  V30 1217 O 115.432 0.156061 1.93572 0
M  V30 1218 C 112.562 0.691503 3.40346 0
M  V30 1219 C 111.516 1.73132 3.9142 0
M  V30 1220 C 110.842 1.20049 5.21049 0
M  V30 1221 C 112.142 3.1294 4.1817 0
M  V30 1222 H 113.836 2.00873 2.22014 0
M  V30 1223 H 111.382 0.967191 1.06684 0
M  V30 1224 H 113.335 0.556505 4.17709 0
M  V30 1225 H 112.059 -0.275819 3.25433 0
M  V30 1226 H 110.718 1.8547 3.16222 0
M  V30 1227 H 110.366 0.223499 5.02503 0
M  V30 1228 H 110.066 1.89545 5.56189 0
M  V30 1229 H 111.59 1.07782 6.01012 0
M  V30 1230 H 113.004 3.03775 4.86203 0
M  V30 1231 H 111.401 3.79875 4.64559 0
M  V30 1232 H 112.471 3.6025 3.24573 0
M  V30 1233 N 113.814 -1.1601 1.06675 0
M  V30 1234 C 115.063 -1.85973 0.780818 0
M  V30 1235 C 115.376 -1.82819 -0.695444 0
M  V30 1236 O 116.582 -2.484 -1.09589 0
M  V30 1237 C 115.038 -3.33757 1.34665 0
M  V30 1238 C 114.646 -3.45374 2.85343 0
M  V30 1239 C 116.39 -4.0895 1.13843 0
M  V30 1240 C 114.297 -4.87266 3.35151 0
M  V30 1241 H 113.227 -0.696661 0.288407 0
M  V30 1242 H 115.878 -1.30903 1.28595 0
M  V30 1243 H 114.26 -3.88456 0.769274 0
M  V30 1244 H 115.434 -3.00816 3.49065 0
M  V30 1245 H 113.749 -2.83619 3.04876 0
M  V30 1246 H 116.346 -5.13654 1.4854 0
M  V30 1247 H 116.689 -4.16229 0.0770282 0
M  V30 1248 H 117.222 -3.605 1.68179 0
M  V30 1249 H 113.961 -4.85168 4.40786 0
M  V30 1250 H 113.481 -5.32433 2.76179 0
M  V30 1251 H 115.16 -5.56097 3.30704 0
M  V30 1252 N 115.292 -0.849877 -1.32721 0
M  V30 1253 C 116.539 -0.450923 -1.97416 0
M  V30 1254 C 116.867 0.992376 -1.67279 0
M  V30 1255 O 116.122 1.71048 -0.950845 0
M  V30 1256 C 116.421 -0.631272 -3.51781 0
M  V30 1257 C 116.087 -2.04432 -4.01894 0
M  V30 1258 C 114.749 -2.4308 -4.1529 0
M  V30 1259 C 117.101 -2.96679 -4.28522 0
M  V30 1260 C 114.429 -3.73257 -4.52654 0
M  V30 1261 C 116.781 -4.26349 -4.67343 0
M  V30 1262 C 115.445 -4.64939 -4.78945 0
M  V30 1263 H 114.715 -0.165004 -0.722395 0
M  V30 1264 H 117.362 -1.07901 -1.58207 0
M  V30 1265 H 115.667 0.0800767 -3.91718 0
M  V30 1266 H 117.364 -0.302709 -3.99856 0
M  V30 1267 H 113.954 -1.73419 -3.91949 0
M  V30 1268 H 118.138 -2.68054 -4.17685 0
M  V30 1269 H 113.394 -4.02946 -4.59831 0
M  V30 1270 H 117.568 -4.97895 -4.86902 0
M  V30 1271 H 115.195 -5.65855 -5.07654 0
M  V30 1272 N 116.77 1.45427 -0.607355 0
M  V30 1273 C 118.018 2.01841 -0.102253 0
M  V30 1274 C 118.339 1.47832 1.27164 0
M  V30 1275 O 117.609 0.672497 1.83995 0
M  V30 1276 H 116.189 0.746188 -0.0348101 0
M  V30 1277 H 118.851 1.78229 -0.7887 0
M  V30 1278 H 117.947 3.12057 -0.0518585 0
M  V30 1279 N 118.248 0.346503 1.53744 0
M  V30 1280 C 119.494 -0.249473 2.0126 0
M  V30 1281 C 119.827 -1.49965 1.23386 0
M  V30 1282 O 119.102 -1.91811 0.32229 0
M  V30 1283 C 119.385 -0.560643 3.55709 0
M  V30 1284 C 119.238 0.701836 4.44291 0
M  V30 1285 C 120.557 -1.36905 4.18264 0
M  V30 1286 H 117.676 -0.0891987 0.731582 0
M  V30 1287 H 120.318 0.467624 1.84156 0
M  V30 1288 H 118.468 -1.17156 3.70414 0
M  V30 1289 H 120.14 1.33974 4.41417 0
M  V30 1290 H 118.383 1.32612 4.13033 0
M  V30 1291 H 119.054 0.43933 5.50249 0
M  V30 1292 H 121.53 -0.852448 4.07275 0
M  V30 1293 H 120.406 -1.55553 5.26398 0
M  V30 1294 H 120.667 -2.37203 3.73078 0
M  V30 1295 N 119.726 -1.57421 0.075193 0
M  V30 1296 C 121.137 -1.81021 -0.456964 0
M  V30 1297 C 121.488 -0.98936 -1.69429 0
M  V30 1298 O 120.613 -0.212865 -2.15351 0
M  V30 1299 C 121.208 -3.28329 -0.83581 0
M  V30 1300 C 119.767 -3.52764 -1.31281 0
M  V30 1301 C 118.914 -2.75676 -0.299648 0
M  V30 1302 H 121.865 -1.55822 0.300856 0
M  V30 1303 H 121.886 -3.40564 -1.69696 0
M  V30 1304 H 121.398 -3.88046 0.0649238 0
M  V30 1305 H 119.499 -2.98355 -2.23193 0
M  V30 1306 H 119.612 -4.61451 -1.28839 0
M  V30 1307 H 117.976 -2.42538 -0.777641 0
M  V30 1308 H 118.759 -3.38132 0.593417 0
M  V30 1309 N 121.204 0.198386 -1.56346 0
M  V30 1310 C 122.429 0.939682 -1.84891 0
M  V30 1311 C 122.854 1.76202 -0.658369 0
M  V30 1312 O 122.212 1.76993 0.392851 0
M  V30 1313 C 122.26 1.81428 -3.11635 0
M  V30 1314 O 121.364 2.91265 -2.91956 0
M  V30 1315 H 120.705 0.264807 -0.608912 0
M  V30 1316 H 123.235 0.204695 -2.03573 0
M  V30 1317 H 123.245 2.21958 -3.42343 0
M  V30 1318 H 121.92 1.21004 -3.97908 0
M  V30 1319 H 120.497 2.54514 -2.72538 0
M  V30 1320 N 122.682 1.50554 0.465978 0
M  V30 1321 C 124.098 1.38093 0.800154 0
M  V30 1322 C 124.298 0.440988 1.96615 0
M  V30 1323 O 123.354 -0.114499 2.5224 0
M  V30 1324 C 124.667 2.79565 1.10742 0
M  V30 1325 C 126.215 2.88516 1.21357 0
M  V30 1326 C 126.69 4.30833 1.55393 0
M  V30 1327 N 128.181 4.33807 1.62375 0
M  V30 1328 C 128.916 5.40927 1.90225 0
M  V30 1329 N 128.412 6.58247 2.16062 0
M  V30 1330 N 130.205 5.28376 1.9177 0
M  V30 1331 H 122.356 2.10237 -0.302366 0
M  V30 1332 H 124.619 0.945203 -0.0727746 0
M  V30 1333 H 124.325 3.50208 0.323661 0
M  V30 1334 H 124.199 3.17125 2.04234 0
M  V30 1335 H 126.586 2.1809 1.98799 0
M  V30 1336 H 126.667 2.54492 0.258321 0
M  V30 1337 H 126.311 5.01799 0.784889 0
M  V30 1338 H 126.241 4.62347 2.52076 0
M  V30 1339 H 128.732 3.49212 1.44427 0
M  V30 1340 H 129.045 7.3569 2.36601 0
M  V30 1341 H 127.39 6.61413 2.13444 0
M  V30 1342 H 130.581 4.35715 1.71085 0
M  V30 1343 H 130.754 6.11944 2.13139 0
M  V30 1344 N 124.16 -0.719506 1.40217 0
M  V30 1345 C 125.406 -1.48152 1.38488 0
M  V30 1346 C 125.739 -1.94195 -0.0141867 0
M  V30 1347 O 125.014 -1.67884 -0.982096 0
M  V30 1348 C 125.297 -2.71035 2.37091 0
M  V30 1349 C 125.15 -2.30912 3.86005 0
M  V30 1350 C 126.469 -3.73182 2.33288 0
M  V30 1351 H 123.588 -0.537395 0.504357 0
M  V30 1352 H 126.23 -0.821472 1.71324 0
M  V30 1353 H 124.38 -3.27352 2.0922 0
M  V30 1354 H 126.052 -1.80107 4.24687 0
M  V30 1355 H 124.295 -1.62958 4.02029 0
M  V30 1356 H 124.966 -3.18978 4.50508 0
M  V30 1357 H 127.442 -3.26485 2.57966 0
M  V30 1358 H 126.318 -4.56806 3.04334 0
M  V30 1359 H 126.579 -4.21202 1.34317 0
M  V30 1360 N 125.638 -1.25649 -0.95132 0
M  V30 1361 C 127.049 -1.09654 -1.51106 0
M  V30 1362 C 127.4 0.326615 -1.93462 0
M  V30 1363 O 126.525 1.21697 -1.78938 0
M  V30 1364 C 127.12 -1.98437 -2.74605 0
M  V30 1365 C 125.679 -1.86618 -3.2688 0
M  V30 1366 C 124.826 -1.9239 -1.99703 0
M  V30 1367 H 127.777 -1.38887 -0.767865 0
M  V30 1368 H 127.798 -1.5263 -3.48546 0
M  V30 1369 H 127.31 -3.02009 -2.43746 0
M  V30 1370 H 125.411 -0.859421 -3.62553 0
M  V30 1371 H 125.524 -2.71607 -3.94673 0
M  V30 1372 H 123.888 -1.36317 -2.15151 0
M  V30 1373 H 124.671 -2.97573 -1.71188 0
M  V30 1374 N 127.117 1.15442 -1.07289 0
M  V30 1375 C 128.064 2.20161 -0.692653 0
M  V30 1376 C 129.034 1.63073 0.31564 0
M  V30 1377 O 130.219 1.89725 0.202235 0
M  V30 1378 C 127.359 3.44967 -0.0959509 0
M  V30 1379 C 126.472 4.16256 -1.15564 0
M  V30 1380 C 125.607 5.28609 -0.524011 0
M  V30 1381 C 124.646 5.91715 -1.56653 0
M  V30 1382 N 123.783 6.9554 -0.957531 0
M  V30 1383 H 128.623 2.52037 -1.59002 0
M  V30 1384 H 126.16 1.2378 -0.794798 0
M  V30 1385 H 128.118 4.16341 0.267628 0
M  V30 1386 H 126.748 3.1361 0.764772 0
M  V30 1387 H 125.8 3.43385 -1.6368 0
M  V30 1388 H 127.112 4.59268 -1.94613 0
M  V30 1389 H 126.266 6.06604 -0.108032 0
M  V30 1390 H 125.005 4.86787 0.29825 0
M  V30 1391 H 124.01 5.12433 -1.9923 0
M  V30 1392 H 125.235 6.35614 -2.39107 0
M  V30 1393 H 123.181 6.55814 -0.156162 0
M  V30 1394 H 123.098 7.36977 -1.68526 0
M  V30 1395 H 124.366 7.77435 -0.567032 0
M  V30 1396 N 128.595 0.856903 1.32268 0
M  V30 1397 C 129.872 0.382583 1.91822 0
M  V30 1398 C 130.252 -1.13407 1.78051 0
M  V30 1399 O 129.6 -1.95673 1.18001 0
M  V30 1400 C 129.81 0.849446 3.38505 0
M  V30 1401 C 131.158 0.867936 4.15634 0
M  V30 1402 O 132.182 0.794232 3.47232 0
M  V30 1403 O 131.041 0.972286 5.37781 0
M  V30 1404 H 128.135 0.112014 0.819379 0
M  V30 1405 H 130.681 0.943952 1.41024 0
M  V30 1406 H 129.453 1.89267 3.42482 0
M  V30 1407 H 129.076 0.265652 3.96712 0
M  V30 1408 N 130.073 -1.45103 0.615059 0
M  V30 1409 C 130.983 -2.34382 -0.101034 0
M  V30 1410 C 131.999 -1.51681 -0.852585 0
M  V30 1411 O 133.175 -1.8446 -0.808484 0
M  V30 1412 C 130.24 -3.29417 -1.08099 0
M  V30 1413 C 129.301 -4.28025 -0.330577 0
M  V30 1414 C 128.534 -5.1852 -1.26385 0
M  V30 1415 O 128.757 -5.12598 -2.50198 0
M  V30 1416 O 127.691 -5.97122 -0.756866 0
M  V30 1417 H 131.517 -2.97033 0.632855 0
M  V30 1418 H 129.102 -1.4461 0.375293 0
M  V30 1419 H 130.984 -3.87958 -1.6452 0
M  V30 1420 H 129.659 -2.69321 -1.79577 0
M  V30 1421 H 128.566 -3.73078 0.276283 0
M  V30 1422 H 129.899 -4.90997 0.343866 0
M  V30 1423 N 131.551 -0.354651 -1.53558 0
M  V30 1424 C 132.967 -0.00315426 -1.596 0
M  V30 1425 C 133.167 1.47741 -1.37021 0
M  V30 1426 O 132.223 2.23759 -1.16996 0
M  V30 1427 C 133.536 -0.44929 -2.97325 0
M  V30 1428 C 135.084 -0.402578 -3.104 0
M  V30 1429 C 135.559 -0.824355 -4.5052 0
M  V30 1430 N 137.05 -0.778979 -4.56603 0
M  V30 1431 C 137.785 -1.07715 -5.63192 0
M  V30 1432 N 137.281 -1.44405 -6.77583 0
M  V30 1433 N 139.074 -1.00066 -5.53121 0
M  V30 1434 H 131.225 -1.31893 -1.66487 0
M  V30 1435 H 133.488 -0.538388 -0.780284 0
M  V30 1436 H 133.194 -1.48202 -3.1895 0
M  V30 1437 H 133.068 0.169772 -3.76818 0
M  V30 1438 H 135.455 0.621004 -2.88492 0
M  V30 1439 H 135.536 -1.05699 -2.32941 0
M  V30 1440 H 135.18 -1.846 -4.73165 0
M  V30 1441 H 135.11 -0.147304 -5.26394 0
M  V30 1442 H 137.601 -0.508528 -3.74463 0
M  V30 1443 H 137.914 -1.65612 -7.54846 0
M  V30 1444 H 136.259 -1.4826 -6.79002 0
M  V30 1445 H 139.45 -0.713293 -4.62633 0
M  V30 1446 H 139.623 -1.23638 -6.36096 0
M  V30 1447 N 133.029 1.57378 -0.0835403 0
M  V30 1448 C 134.277 1.93547 0.581718 0
M  V30 1449 C 134.598 0.96524 1.69435 0
M  V30 1450 O 133.868 0.0153369 1.95894 0
M  V30 1451 H 132.448 0.714521 0.217874 0
M  V30 1452 H 135.11 1.94366 -0.144158 0
M  V30 1453 H 134.206 2.95665 0.999423 0
M  V30 1454 N 134.507 -0.190092 1.56449 0
M  V30 1455 C 135.732 -0.929864 1.85387 0
M  V30 1456 C 136.157 -1.7585 0.667704 0
M  V30 1457 O 135.515 -1.77198 -0.383459 0
M  V30 1458 C 135.563 -1.79773 3.12593 0
M  V30 1459 O 134.667 -2.89713 2.93496 0
M  V30 1460 H 134.008 -0.261574 0.610307 0
M  V30 1461 H 136.538 -0.193896 2.03679 0
M  V30 1462 H 136.548 -2.20139 3.43515 0
M  V30 1463 H 135.223 -1.18892 3.98544 0
M  V30 1464 H 133.8 -2.53065 2.73884 0
M  V30 1465 N 135.985 -1.50799 -0.457987 0
M  V30 1466 C 136.948 -1.7005 -1.53674 0
M  V30 1467 C 137.948 -0.570881 -1.50325 0
M  V30 1468 O 139.138 -0.838126 -1.52712 0
M  V30 1469 C 136.27 -1.73788 -2.93276 0
M  V30 1470 H 137.463 -2.66306 -1.37917 0
M  V30 1471 H 135.016 -1.40477 -0.685271 0
M  V30 1472 H 135.751 -0.792717 -3.14462 0
M  V30 1473 H 135.536 -2.55864 -2.97113 0
M  V30 1474 H 137.026 -1.90591 -3.71571 0
M  V30 1475 N 137.463 0.71206 -1.40597 0
M  V30 1476 C 138.426 1.80785 -1.40888 0
M  V30 1477 C 139.426 1.57937 -0.302103 0
M  V30 1478 O 140.616 1.64913 -0.561182 0
M  V30 1479 C 137.748 3.18927 -1.20409 0
M  V30 1480 H 138.941 1.81924 -2.38419 0
M  V30 1481 H 136.494 0.91805 -1.26497 0
M  V30 1482 H 137.229 3.23436 -0.236522 0
M  V30 1483 H 137.014 3.36911 -2.00582 0
M  V30 1484 H 138.504 3.98949 -1.23408 0
M  V30 1485 N 138.941 1.26152 0.944643 0
M  V30 1486 C 140.218 1.02247 1.66748 0
M  V30 1487 C 140.598 -0.448202 2.06287 0
M  V30 1488 O 139.946 -1.42779 1.78399 0
M  V30 1489 C 140.156 1.96788 2.88228 0
M  V30 1490 C 141.504 2.25201 3.59958 0
M  V30 1491 O 142.528 1.94626 2.98327 0
M  V30 1492 O 141.387 2.77242 4.70956 0
M  V30 1493 H 138.481 0.388517 0.730057 0
M  V30 1494 H 141.027 1.37348 0.99668 0
M  V30 1495 H 139.799 2.96047 2.55875 0
M  V30 1496 H 139.422 1.62145 3.63035 0
M  V30 1497 N 140.419 -1.14872 1.07899 0
M  V30 1498 C 141.644 -1.90202 0.826926 0
M  V30 1499 C 142.069 -1.77774 -0.614664 0
M  V30 1500 O 141.427 -1.11431 -1.43013 0
M  V30 1501 C 141.475 -3.38352 1.24702 0
M  V30 1502 O 140.579 -4.10497 0.39575 0
M  V30 1503 H 139.92 -0.591968 0.300782 0
M  V30 1504 H 142.45 -1.45437 1.43907 0
M  V30 1505 H 142.46 -3.89156 1.22563 0
M  V30 1506 H 141.135 -3.46715 2.29698 0
M  V30 1507 H 139.712 -3.69796 0.480117 0
M  V30 1508 N 141.898 -0.863906 -1.31812 0
M  V30 1509 C 142.808 -0.318461 -2.32428 0
M  V30 1510 C 143.824 0.568496 -1.64451 0
M  V30 1511 O 145 0.46666 -1.95919 0
M  V30 1512 C 142.065 0.476355 -3.43412 0
M  V30 1513 C 141.126 -0.43784 -4.27061 0
M  V30 1514 C 140.359 0.319138 -5.32745 0
M  V30 1515 O 140.582 1.54799 -5.48993 0
M  V30 1516 O 139.516 -0.319861 -6.01049 0
M  V30 1517 H 143.342 -1.15229 -2.80991 0
M  V30 1518 H 140.927 -0.627103 -1.35602 0
M  V30 1519 H 142.809 0.927156 -4.11074 0
M  V30 1520 H 141.484 1.28683 -2.97022 0
M  V30 1521 H 140.391 -0.937013 -3.62175 0
M  V30 1522 H 141.724 -1.21375 -4.77 0
M  V30 1523 N 143.376 1.44774 -0.622745 0
M  V30 1524 C 144.286 2.34433 0.0886031 0
M  V30 1525 C 145.302 1.52131 0.844529 0
M  V30 1526 O 146.478 1.84886 0.798691 0
M  V30 1527 C 143.543 3.29986 1.0635 0
M  V30 1528 C 142.604 4.28195 0.307873 0
M  V30 1529 C 141.837 5.19183 1.23633 0
M  V30 1530 O 142.06 5.13918 2.47476 0
M  V30 1531 O 140.994 5.97515 0.725189 0
M  V30 1532 H 144.82 2.96693 -0.648599 0
M  V30 1533 H 142.405 1.44408 -0.382957 0
M  V30 1534 H 144.287 3.88825 1.6246 0
M  V30 1535 H 142.962 2.70269 1.78146 0
M  V30 1536 H 141.869 3.72927 -0.296064 0
M  V30 1537 H 143.202 4.90808 -0.3699 0
M  V30 1538 N 144.854 0.36279 1.53368 0
M  V30 1539 C 146.079 -0.231226 2.06107 0
M  V30 1540 C 146.504 -1.419 1.23474 0
M  V30 1541 O 145.862 -1.79524 0.253128 0
M  V30 1542 C 145.91 -0.605523 3.5548 0
M  V30 1543 O 145.014 -1.70312 3.7559 0
M  V30 1544 H 144.355 -0.034327 0.663112 0
M  V30 1545 H 146.885 0.522584 1.97814 0
M  V30 1546 H 146.895 -0.877314 3.98456 0
M  V30 1547 H 145.57 0.263004 4.15068 0
M  V30 1548 H 144.147 -1.4271 3.44512 0
M  V30 1549 N 146.332 -1.57332 0.0918853 0
M  V30 1550 C 147.743 -1.81496 -0.437739 0
M  V30 1551 C 148.094 -1.00727 -1.6837 0
M  V30 1552 O 147.219 -0.235694 -2.15113 0
M  V30 1553 C 147.814 -3.29197 -0.800939 0
M  V30 1554 C 146.373 -3.54136 -1.27532 0
M  V30 1555 C 145.52 -2.75979 -0.270392 0
M  V30 1556 H 148.471 -1.55494 0.317366 0
M  V30 1557 H 148.492 -3.42344 -1.66074 0
M  V30 1558 H 148.004 -3.87955 0.106078 0
M  V30 1559 H 146.105 -3.00705 -2.20016 0
M  V30 1560 H 146.218 -4.62792 -1.23938 0
M  V30 1561 H 144.582 -2.43349 -0.751872 0
M  V30 1562 H 145.365 -3.37484 0.629248 0
M  V30 1563 N 147.81 0.181792 -1.56548 0
M  V30 1564 C 148.773 1.20894 -1.94724 0
M  V30 1565 C 149.773 1.37738 -0.829747 0
M  V30 1566 O 150.963 1.35323 -1.09697 0
M  V30 1567 C 148.095 2.57593 -2.23291 0
M  V30 1568 H 149.288 0.882275 -2.86629 0
M  V30 1569 H 146.841 0.423838 -1.50444 0
M  V30 1570 H 147.576 2.95291 -1.34067 0
M  V30 1571 H 147.361 2.46735 -3.04736 0
M  V30 1572 H 148.851 3.31637 -2.53785 0
M  V30 1573 N 149.288 1.51039 0.449983 0
M  V30 1574 C 150.537 1.62317 1.19733 0
M  V30 1575 C 150.85 0.339101 1.92638 0
M  V30 1576 O 152.056 0.331069 2.69474 0
M  V30 1577 C 150.512 2.86608 2.17678 0
M  V30 1578 C 150.12 4.21972 1.50479 0
M  V30 1579 C 151.864 3.07239 2.92924 0
M  V30 1580 C 149.771 5.37426 2.46834 0
M  V30 1581 H 148.701 0.604532 0.450619 0
M  V30 1582 H 151.352 1.77494 0.465625 0
M  V30 1583 H 149.734 2.65037 2.94231 0
M  V30 1584 H 150.908 4.53878 0.795716 0
M  V30 1585 H 149.223 4.07117 0.874344 0
M  V30 1586 H 151.82 3.90668 3.65079 0
M  V30 1587 H 152.163 2.19807 3.5354 0
M  V30 1588 H 152.696 3.29091 2.23481 0
M  V30 1589 H 149.435 6.27079 1.90926 0
M  V30 1590 H 148.955 5.09912 3.15832 0
M  V30 1591 H 150.634 5.68862 3.08228 0
M  V30 1592 N 150.766 -0.704594 1.40972 0
M  V30 1593 C 151.676 -1.84856 1.44448 0
M  V30 1594 C 152.692 -1.70726 0.335961 0
M  V30 1595 O 153.868 -1.92799 0.582276 0
M  V30 1596 C 150.933 -3.20758 1.31587 0
M  V30 1597 C 149.994 -3.47063 2.52677 0
M  V30 1598 C 149.227 -4.76481 2.4042 0
M  V30 1599 O 149.45 -5.52341 1.42391 0
M  V30 1600 O 148.384 -5.03367 3.30007 0
M  V30 1601 H 152.21 -1.8488 2.40942 0
M  V30 1602 H 149.795 -0.85647 1.22413 0
M  V30 1603 H 151.677 -4.01913 1.26665 0
M  V30 1604 H 150.352 -3.21438 0.382049 0
M  V30 1605 H 149.259 -2.65873 2.63177 0
M  V30 1606 H 150.592 -3.5119 3.44858 0
M  V30 1607 N 152.244 -1.26651 -0.937939 0
M  V30 1608 C 153.207 -1.08546 -2.01867 0
M  V30 1609 C 154.207 -0.0327327 -1.60767 0
M  V30 1610 O 155.397 -0.276427 -1.71993 0
M  V30 1611 C 152.529 -0.651711 -3.34613 0
M  V30 1612 H 153.722 -2.04502 -2.1936 0
M  V30 1613 H 151.275 -1.09294 -1.11734 0
M  V30 1614 H 152.01 0.309696 -3.22818 0
M  V30 1615 H 151.795 -1.41189 -3.65798 0
M  V30 1616 H 153.285 -0.546973 -4.14002 0
M  V30 1617 N 153.722 1.14298 -1.08507 0
M  V30 1618 C 154.971 1.84708 -0.810305 0
M  V30 1619 C 155.284 1.83903 0.666271 0
M  V30 1620 O 156.49 2.50112 1.05624 0
M  V30 1621 C 154.946 3.31572 -1.39957 0
M  V30 1622 C 154.554 3.40791 -2.90801 0
M  V30 1623 C 156.298 4.07087 -1.20334 0
M  V30 1624 C 154.205 4.81872 -3.4286 0
M  V30 1625 H 153.135 0.691985 -0.299454 0
M  V30 1626 H 155.786 1.28841 -1.30661 0
M  V30 1627 H 154.168 3.87183 -0.830976 0
M  V30 1628 H 155.342 2.95225 -3.53806 0
M  V30 1629 H 153.657 2.78732 -3.0935 0
M  V30 1630 H 156.254 5.11225 -1.56693 0
M  V30 1631 H 156.597 4.16054 -0.143237 0
M  V30 1632 H 157.13 3.57779 -1.73893 0
M  V30 1633 H 153.869 4.78094 -4.48449 0
M  V30 1634 H 153.389 5.27972 -2.84615 0
M  V30 1635 H 155.068 5.50765 -3.39509 0
M  V30 1636 N 155.201 0.870884 1.31352 0
M  V30 1637 C 156.151 0.298889 2.26032 0
M  V30 1638 C 157.135 -0.564595 1.50669 0
M  V30 1639 O 158.327 -0.411323 1.72154 0
M  V30 1640 C 155.456 -0.497842 3.39671 0
M  V30 1641 C 154.542 0.378937 4.22404 0
M  V30 1642 N 154.933 1.47284 4.83881 0
M  V30 1643 C 153.231 0.171535 4.4567 0
M  V30 1644 C 153.932 2.01359 5.45738 0
M  V30 1645 N 152.908 1.31047 5.27568 0
M  V30 1646 H 156.71 1.13494 2.71102 0
M  V30 1647 H 154.224 0.718745 1.45629 0
M  V30 1648 H 156.221 -0.924155 4.06528 0
M  V30 1649 H 154.881 -1.33149 2.96144 0
M  V30 1650 H 155.892 1.85575 4.8351 0
M  V30 1651 H 152.569 -0.626091 4.12779 0
M  V30 1652 H 153.959 2.93143 6.0458 0
M  V30 1653 N 156.679 -1.44442 0.630414 0
M  V30 1654 C 157.609 -2.33418 -0.0618083 0
M  V30 1655 C 158.59 -1.48165 -0.835541 0
M  V30 1656 O 159.775 -1.76886 -0.801564 0
M  V30 1657 C 156.905 -3.31222 -1.04449 0
M  V30 1658 C 155.859 -4.26288 -0.382436 0
M  V30 1659 C 155.185 -5.13954 -1.47497 0
M  V30 1660 C 156.485 -5.1744 0.710865 0
M  V30 1661 H 158.179 -2.91548 0.681184 0
M  V30 1662 H 155.725 -1.40191 0.329026 0
M  V30 1663 H 157.678 -3.92351 -1.53748 0
M  V30 1664 H 156.402 -2.71299 -1.81836 0
M  V30 1665 H 155.061 -3.6649 0.0899054 0
M  V30 1666 H 154.709 -4.50385 -2.2397 0
M  V30 1667 H 154.409 -5.7837 -1.03737 0
M  V30 1668 H 155.933 -5.77955 -1.96979 0
M  V30 1669 H 157.347 -5.72509 0.300996 0
M  V30 1670 H 155.744 -5.90455 1.07156 0
M  V30 1671 H 156.814 -4.58496 1.57829 0
M  V30 1672 N 158.157 -0.370918 -1.53173 0
M  V30 1673 C 159.087 0.464847 -2.28826 0
M  V30 1674 C 160.068 1.07936 -1.31468 0
M  V30 1675 O 161.253 1.0956 -1.60344 0
M  V30 1676 C 158.383 1.60196 -3.08147 0
M  V30 1677 C 157.337 1.11443 -4.13237 0
M  V30 1678 C 156.663 2.3422 -4.80672 0
M  V30 1679 C 157.963 0.195384 -5.21934 0
M  V30 1680 H 159.657 -0.166329 -2.98938 0
M  V30 1681 H 157.203 -0.0814359 -1.4377 0
M  V30 1682 H 159.156 2.19332 -3.59822 0
M  V30 1683 H 157.88 2.26045 -2.35735 0
M  V30 1684 H 156.539 0.545727 -3.62515 0
M  V30 1685 H 156.187 2.98537 -4.04827 0
M  V30 1686 H 155.887 2.02269 -5.51689 0
M  V30 1687 H 157.411 2.94032 -5.35143 0
M  V30 1688 H 158.825 0.694375 -5.69079 0
M  V30 1689 H 157.222 -0.0335027 -6.00091 0
M  V30 1690 H 158.292 -0.760961 -4.78892 0
M  V30 1691 N 159.635 1.57281 -0.100228 0
M  V30 1692 C 161.051 1.57527 0.256416 0
M  V30 1693 C 161.251 1.11173 1.68056 0
M  V30 1694 O 160.307 0.79053 2.39806 0
M  V30 1695 C 161.62 3.00673 0.0401747 0
M  V30 1696 C 163.168 3.12815 0.107528 0
M  V30 1697 C 163.643 4.57929 -0.0807834 0
M  V30 1698 N 165.134 4.63193 -0.0261207 0
M  V30 1699 C 165.869 5.73212 -0.146999 0
M  V30 1700 N 165.365 6.92047 -0.322999 0
M  V30 1701 N 167.158 5.62031 -0.0879044 0
M  V30 1702 H 159.309 1.85718 -1.03065 0
M  V30 1703 H 161.572 0.857446 -0.404339 0
M  V30 1704 H 161.278 3.38804 -0.943649 0
M  V30 1705 H 161.152 3.69042 0.780262 0
M  V30 1706 H 163.539 2.74554 1.08186 0
M  V30 1707 H 163.62 2.47028 -0.664134 0
M  V30 1708 H 163.264 4.96886 -1.05201 0
M  V30 1709 H 163.194 5.21783 0.710635 0
M  V30 1710 H 165.685 3.77748 0.107161 0
M  V30 1711 H 165.998 7.7173 -0.406608 0
M  V30 1712 H 164.343 6.94074 -0.358733 0
M  V30 1713 H 167.534 4.68075 0.048498 0
M  V30 1714 H 167.707 6.47734 -0.185557 0
M  V30 1715 N 161.113 -0.173488 1.56642 0
M  V30 1716 C 162.06 -1.21482 1.96242 0
M  V30 1717 C 163.03 -1.44104 0.826027 0
M  V30 1718 O 164.215 -1.5688 1.08597 0
M  V30 1719 C 161.355 -2.54964 2.32567 0
M  V30 1720 C 160.468 -2.39739 3.59373 0
M  V30 1721 C 159.603 -3.66072 3.84921 0
M  V30 1722 C 158.642 -3.45771 5.05083 0
M  V30 1723 N 157.779 -4.64169 5.26775 0
M  V30 1724 H 162.619 -0.870123 2.85014 0
M  V30 1725 H 160.156 -0.418245 1.41029 0
M  V30 1726 H 162.114 -3.32758 2.5165 0
M  V30 1727 H 160.744 -2.87433 1.46908 0
M  V30 1728 H 159.796 -1.53131 3.48217 0
M  V30 1729 H 161.108 -2.20683 4.47326 0
M  V30 1730 H 160.262 -4.52303 4.0436 0
M  V30 1731 H 159.001 -3.88105 2.9534 0
M  V30 1732 H 158.006 -2.57927 4.85545 0
M  V30 1733 H 159.231 -3.25163 5.96193 0
M  V30 1734 H 157.177 -4.86425 4.40144 0
M  V30 1735 H 157.094 -4.48019 6.08946 0
M  V30 1736 H 158.362 -5.51689 5.5069 0
M  V30 1737 N 162.591 -1.51276 -0.441967 0
M  V30 1738 C 163.819 -1.67516 -1.21434 0
M  V30 1739 C 164.234 -0.37055 -1.85128 0
M  V30 1740 O 163.591 0.650498 -1.70513 0
M  V30 1741 C 163.642 -2.78748 -2.30177 0
M  V30 1742 O 163.363 -4.04154 -1.69089 0
M  V30 1743 C 164.864 -3.06217 -3.20541 0
M  V30 1744 H 162.084 -0.562276 -0.366178 0
M  V30 1745 H 164.628 -1.97666 -0.524244 0
M  V30 1746 H 162.783 -2.5121 -2.94911 0
M  V30 1747 H 163.197 -4.65894 -2.40922 0
M  V30 1748 H 164.671 -3.8764 -3.92987 0
M  V30 1749 H 165.148 -2.18439 -3.81026 0
M  V30 1750 H 165.754 -3.35397 -2.61513 0
M  V30 1751 N 164.069 0.697108 -1.41344 0
M  V30 1752 C 165.316 1.45714 -1.40619 0
M  V30 1753 C 165.644 1.94494 -0.0147907 0
M  V30 1754 O 164.899 1.69794 0.973066 0
M  V30 1755 C 165.198 2.68553 -2.35826 0
M  V30 1756 C 164.864 2.38438 -3.82698 0
M  V30 1757 C 163.526 2.29936 -4.22709 0
M  V30 1758 C 165.878 2.13567 -4.75435 0
M  V30 1759 C 163.206 1.94656 -5.53467 0
M  V30 1760 C 165.558 1.79797 -6.06511 0
M  V30 1761 C 164.222 1.69789 -6.45545 0
M  V30 1762 H 163.492 0.533206 -0.51456 0
M  V30 1763 H 166.139 0.796901 -1.74131 0
M  V30 1764 H 164.444 3.39503 -1.95563 0
M  V30 1765 H 166.141 3.2669 -2.32539 0
M  V30 1766 H 162.731 2.4595 -3.51008 0
M  V30 1767 H 166.915 2.19082 -4.45328 0
M  V30 1768 H 162.171 1.8546 -5.82593 0
M  V30 1769 H 166.345 1.59572 -6.77872 0
M  V30 1770 H 163.972 1.4222 -7.46778 0
M  V30 1771 N 165.547 1.27147 0.931209 0
M  V30 1772 C 166.958 1.12044 1.49342 0
M  V30 1773 C 167.309 -0.295795 1.93957 0
M  V30 1774 O 166.434 -1.18835 1.80852 0
M  V30 1775 C 167.029 2.02781 2.71414 0
M  V30 1776 C 165.588 1.91794 3.2387 0
M  V30 1777 C 164.735 1.95543 1.96617 0
M  V30 1778 H 167.686 1.40091 0.745672 0
M  V30 1779 H 167.707 1.58156 3.46074 0
M  V30 1780 H 167.219 3.05848 2.38911 0
M  V30 1781 H 165.32 0.916992 3.6114 0
M  V30 1782 H 165.433 2.77852 3.90302 0
M  V30 1783 H 163.797 1.39722 2.12955 0
M  V30 1784 H 164.58 3.00259 1.66432 0
M  V30 1785 N 167.025 -1.13721 1.09112 0
M  V30 1786 C 167.973 -2.21103 0.722219 0
M  V30 1787 C 168.967 -1.67147 -0.275374 0
M  V30 1788 O 170.173 -1.79477 -0.137176 0
M  V30 1789 H 166.548 -0.720445 0.215553 0
M  V30 1790 H 168.519 -2.49483 1.63709 0
M  V30 1791 C 167.268 -3.47352 0.15543 0
M  V30 1792 H 166.591 -3.89206 0.914246 0
M  V30 1793 H 168.031 -4.2395 -0.0647967 0
M  V30 1794 C 166.49 -3.1814 -1.10852 0
M  V30 1795 O 167.02 -3.36604 -2.19227 0
M  V30 1796 N 165.226 -2.72045 -1.02176 0
M  V30 1797 H 164.773 -2.57221 -0.139764 0
M  V30 1798 H 164.731 -2.52875 -1.8682 0
M  V30 1799 N 168.503 -0.877838 -1.30888 0
M  V30 1800 C 169.433 -0.35534 -2.3078 0
M  V30 1801 C 170.414 0.557994 -1.60687 0
M  V30 1802 O 171.599 0.473355 -1.88343 0
M  V30 1803 C 168.729 0.437221 -3.44537 0
M  V30 1804 C 167.683 -0.383715 -4.26276 0
M  V30 1805 C 167.009 0.535014 -5.32017 0
M  V30 1806 C 168.309 -1.62201 -4.96476 0
M  V30 1807 H 170.003 -1.19007 -2.74732 0
M  V30 1808 H 167.549 -0.573698 -1.32078 0
M  V30 1809 H 169.502 0.813334 -4.13477 0
M  V30 1810 H 168.226 1.30553 -2.99372 0
M  V30 1811 H 166.885 -0.741874 -3.59015 0
M  V30 1812 H 166.533 1.40083 -4.831 0
M  V30 1813 H 166.233 -0.0104211 -5.87599 0
M  V30 1814 H 167.757 0.907799 -6.03814 0
M  V30 1815 H 169.171 -1.31689 -5.5797 0
M  V30 1816 H 167.568 -2.10711 -5.61891 0
M  V30 1817 H 168.638 -2.37044 -4.23011 0
M  V30 1818 N 169.982 1.44106 -0.638065 0
M  V30 1819 C 170.912 2.33448 0.0494287 0
M  V30 1820 C 171.893 1.48606 0.827672 0
M  V30 1821 O 173.078 1.77308 0.792173 0
M  V30 1822 C 170.208 3.31771 1.02691 0
M  V30 1823 C 169.162 4.26485 0.359823 0
M  V30 1824 C 168.488 5.14729 1.44769 0
M  V30 1825 C 169.788 5.17056 -0.738296 0
M  V30 1826 H 171.482 2.91183 -0.696636 0
M  V30 1827 H 169.028 1.40014 -0.336456 0
M  V30 1828 H 170.981 3.93161 1.51666 0
M  V30 1829 H 169.705 2.7226 1.80395 0
M  V30 1830 H 168.364 3.66437 -0.10934 0
M  V30 1831 H 168.012 4.51566 2.21578 0
M  V30 1832 H 167.712 5.78913 1.00668 0
M  V30 1833 H 169.236 5.78991 1.93911 0
M  V30 1834 H 170.65 5.72342 -0.331354 0
M  V30 1835 H 169.047 5.89879 -1.10286 0
M  V30 1836 H 170.117 4.57652 -1.60258 0
M  V30 1837 N 171.46 0.379036 1.52974 0
M  V30 1838 C 172.706 -0.206727 2.01744 0
M  V30 1839 C 173.039 -1.47314 1.26539 0
M  V30 1840 O 172.314 -1.91084 0.362903 0
M  V30 1841 C 172.597 -0.485066 3.56818 0
M  V30 1842 C 172.45 0.795919 4.42702 0
M  V30 1843 C 173.769 -1.28003 4.21074 0
M  V30 1844 H 170.888 -0.0736607 0.73331 0
M  V30 1845 H 173.53 0.506581 1.83122 0
M  V30 1846 H 171.68 -1.09272 3.72816 0
M  V30 1847 H 173.352 1.43307 4.38476 0
M  V30 1848 H 171.595 1.41344 4.10127 0
M  V30 1849 H 172.266 0.555947 5.49193 0
M  V30 1850 H 174.742 -0.765867 4.08991 0
M  V30 1851 H 173.618 -1.44352 5.29579 0
M  V30 1852 H 173.879 -2.29236 3.78026 0
M  V30 1853 N 172.938 -1.57226 0.108567 0
M  V30 1854 C 173.901 -2.13602 -0.831082 0
M  V30 1855 C 174.901 -1.06841 -1.20173 0
M  V30 1856 O 176.091 -1.32666 -1.12895 0
M  V30 1857 C 173.223 -2.66769 -2.12243 0
M  V30 1858 H 174.416 -2.97951 -0.341317 0
M  V30 1859 H 171.969 -1.55667 -0.14057 0
M  V30 1860 H 172.704 -1.85977 -2.65675 0
M  V30 1861 H 172.489 -3.44839 -1.86625 0
M  V30 1862 H 173.979 -3.10332 -2.79435 0
M  V30 1863 N 174.416 0.165178 -1.56732 0
M  V30 1864 C 175.656 0.887231 -1.8414 0
M  V30 1865 C 176.02 1.79159 -0.690353 0
M  V30 1866 O 177.221 2.55172 -0.845032 0
M  V30 1867 C 175.492 1.65674 -3.16681 0
M  V30 1868 S 177.051 2.42671 -3.6559 0
M  V30 1869 H 173.869 0.297042 -0.645978 0
M  V30 1870 H 176.471 0.148439 -1.94936 0
M  V30 1871 H 175.175 0.983507 -3.98441 0
M  V30 1872 H 174.706 2.43679 -3.08843 0
M  V30 1873 H 176.721 3.67499 -3.33406 0
M  V30 1874 N 175.894 1.51508 0.433938 0
M  V30 1875 C 177.171 1.54888 1.19453 0
M  V30 1876 C 177.551 0.315154 2.08734 0
M  V30 1877 O 176.899 -0.699558 2.17528 0
M  V30 1878 C 177.109 2.86467 1.99342 0
M  V30 1879 C 178.457 3.38545 2.56267 0
M  V30 1880 O 179.481 2.88041 2.0955 0
M  V30 1881 O 178.34 4.26675 3.41483 0
M  V30 1882 H 175.434 0.622863 0.544032 0
M  V30 1883 H 177.98 1.63823 0.442732 0
M  V30 1884 H 176.752 3.67718 1.33788 0
M  V30 1885 H 176.375 2.8071 2.8158 0
M  V30 1886 N 177.372 -0.689602 1.41712 0
M  V30 1887 C 178.618 -1.45181 1.41599 0
M  V30 1888 C 178.951 -1.94181 0.0270081 0
M  V30 1889 O 178.226 -1.6993 -0.946265 0
M  V30 1890 C 178.509 -2.65945 2.42787 0
M  V30 1891 C 178.362 -2.22672 3.90816 0
M  V30 1892 C 179.681 -3.68149 2.41151 0
M  V30 1893 H 176.8 -0.526576 0.515642 0
M  V30 1894 H 179.442 -0.784947 1.73028 0
M  V30 1895 H 177.592 -3.2284 2.16116 0
M  V30 1896 H 179.264 -1.71058 4.28412 0
M  V30 1897 H 177.507 -1.54394 4.05395 0
M  V30 1898 H 178.178 -3.0935 4.57172 0
M  V30 1899 H 180.654 -3.2094 2.64834 0
M  V30 1900 H 179.53 -4.50248 3.13955 0
M  V30 1901 H 179.791 -4.18259 1.43221 0
M  V30 1902 N 178.85 -1.27639 -0.924453 0
M  V30 1903 C 180.09 -1.15407 -1.68703 0
M  V30 1904 C 180.454 0.294581 -1.89727 0
M  V30 1905 O 181.655 0.539385 -2.63333 0
M  V30 1906 C 179.926 -1.9195 -3.0148 0
M  V30 1907 S 181.485 -1.95969 -3.92609 0
M  V30 1908 H 178.303 -0.411937 -0.579507 0
M  V30 1909 H 180.905 -1.61592 -1.10038 0
M  V30 1910 H 179.609 -2.96387 -2.83871 0
M  V30 1911 H 179.14 -1.46272 -3.65196 0
M  V30 1912 H 181.155 -1.05846 -4.84779 0
M  V30 1913 N 180.328 1.1314 -1.09713 0
M  V30 1914 C 181.258 2.20748 -0.761102 0
M  V30 1915 C 182.239 1.68061 0.262566 0
M  V30 1916 O 183.424 1.93765 0.129977 0
M  V30 1917 C 180.554 3.46812 -0.184054 0
M  V30 1918 C 179.508 4.12606 -1.13757 0
M  V30 1919 C 178.834 5.33031 -0.422083 0
M  V30 1920 C 180.134 4.59603 -2.48118 0
M  V30 1921 H 181.828 2.49113 -1.66082 0
M  V30 1922 H 179.374 1.19734 -0.799987 0
M  V30 1923 H 181.327 4.21353 0.0631215 0
M  V30 1924 H 180.051 3.17851 0.750868 0
M  V30 1925 H 178.71 3.40036 -1.37007 0
M  V30 1926 H 178.358 5.00335 0.517072 0
M  V30 1927 H 178.058 5.77999 -1.05788 0
M  V30 1928 H 179.582 6.10325 -0.183277 0
M  V30 1929 H 180.996 5.25552 -2.29059 0
M  V30 1930 H 179.393 5.15321 -3.07514 0
M  V30 1931 H 180.463 3.73971 -3.08665 0
M  V30 1932 N 181.806 0.884767 1.30421 0
M  V30 1933 C 183.046 0.509806 1.9794 0
M  V30 1934 C 183.41 -0.923736 1.68319 0
M  V30 1935 O 184.611 -1.40481 2.29169 0
M  V30 1936 C 182.882 0.776732 3.48858 0
M  V30 1937 S 184.441 0.503843 4.35898 0
M  V30 1938 H 181.259 0.189699 0.685227 0
M  V30 1939 H 183.861 1.14399 1.58535 0
M  V30 1940 H 182.565 1.81857 3.67908 0
M  V30 1941 H 182.096 0.1301 3.93185 0
M  V30 1942 H 184.111 -0.657625 4.91823 0
M  V30 1943 N 183.284 -1.43765 0.645699 0
M  V30 1944 C 184.695 -1.85193 0.236719 0
M  V30 1945 C 185.046 -1.54045 -1.21509 0
M  V30 1946 O 184.171 -0.985694 -1.92647 0
M  V30 1947 C 184.766 -3.36151 0.422845 0
M  V30 1948 C 183.325 -3.76338 0.0682492 0
M  V30 1949 C 182.472 -2.67538 0.729306 0
M  V30 1950 H 185.423 -1.34025 0.849883 0
M  V30 1951 H 185.444 -3.79032 -0.333904 0
M  V30 1952 H 184.956 -3.5879 1.47958 0
M  V30 1953 H 183.057 -3.59312 -0.986179 0
M  V30 1954 H 183.17 -4.76603 0.488469 0
M  V30 1955 H 181.534 -2.54176 0.163235 0
M  V30 1956 H 182.317 -2.93006 1.78892 0
M  V30 1957 N 184.763 -0.387143 -1.52771 0
M  V30 1958 C 185.993 0.195585 -2.05672 0
M  V30 1959 C 186.401 1.41241 -1.25887 0
M  V30 1960 O 185.744 1.81265 -0.298081 0
M  V30 1961 C 185.806 0.632327 -3.53895 0
M  V30 1962 C 185.47 -0.470739 -4.54569 0
M  V30 1963 C 186.467 -1.32746 -5.02667 0
M  V30 1964 C 184.152 -0.637151 -4.98243 0
M  V30 1965 C 186.146 -2.33574 -5.93061 0
M  V30 1966 C 183.833 -1.64877 -5.88438 0
M  V30 1967 C 184.831 -2.49649 -6.35739 0
M  V30 1968 O 184.519 -3.49082 -7.24153 0
M  V30 1969 H 184.251 0.033658 -0.675162 0
M  V30 1970 H 186.805 -0.550221 -1.97893 0
M  V30 1971 H 185.035 1.43008 -3.59285 0
M  V30 1972 H 186.724 1.14048 -3.89548 0
M  V30 1973 H 187.49 -1.21019 -4.69659 0
M  V30 1974 H 183.369 0.0129567 -4.60998 0
M  V30 1975 H 186.913 -2.99777 -6.29904 0
M  V30 1976 H 182.81 -1.76643 -6.2086 0
M  V30 1977 H 183.578 -3.45065 -7.42208 0
M  V30 1978 N 186.241 1.57166 -0.116904 0
M  V30 1979 C 187.469 1.99473 0.549383 0
M  V30 1980 C 187.884 0.996541 1.60357 0
M  V30 1981 O 187.241 -0.0108731 1.82497 0
M  V30 1982 C 187.292 3.41788 1.17741 0
M  V30 1983 O 187.013 4.37788 0.165362 0
M  V30 1984 C 188.514 3.99216 1.92722 0
M  V30 1985 H 185.734 0.655009 0.145616 0
M  V30 1986 H 188.278 2.03494 -0.202625 0
M  V30 1987 H 186.433 3.38713 1.88021 0
M  V30 1988 H 186.847 5.20806 0.621403 0
M  V30 1989 H 188.321 5.00882 2.31995 0
M  V30 1990 H 188.798 3.3824 2.80161 0
M  V30 1991 H 189.404 4.0583 1.27209 0
M  V30 1992 N 187.719 -0.156864 1.56817 0
M  V30 1993 C 188.944 -0.890331 1.87318 0
M  V30 1994 C 189.369 -1.74394 0.704855 0
M  V30 1995 O 188.727 -1.77972 -0.345786 0
M  V30 1996 C 188.775 -1.73102 3.16336 0
M  V30 1997 O 187.879 -2.83422 2.99576 0
M  V30 1998 H 187.22 -0.24857 0.615718 0
M  V30 1999 H 189.75 -0.150649 2.04045 0
M  V30 2000 H 189.76 -2.12803 3.48107 0
M  V30 2001 H 188.435 -1.10412 4.00976 0
M  V30 2002 H 187.012 -2.47199 2.7919 0
M  V30 2003 N 189.197 -1.51736 -0.425897 0
M  V30 2004 C 190.147 -1.70258 -1.51645 0
M  V30 2005 C 191.131 -0.556488 -1.5097 0
M  V30 2006 O 192.323 -0.812879 -1.5723 0
M  V30 2007 C 189.452 -1.84143 -2.89735 0
M  V30 2008 C 188.538 -3.04572 -2.95122 0
M  V30 2009 N 188.929 -4.2756 -2.70233 0
M  V30 2010 C 187.227 -3.04061 -3.26286 0
M  V30 2011 C 187.928 -5.08908 -2.81757 0
M  V30 2012 N 186.904 -4.43797 -3.13919 0
M  V30 2013 H 190.706 -2.63004 -1.31172 0
M  V30 2014 H 188.22 -1.4954 -0.633375 0
M  V30 2015 H 190.217 -1.95525 -3.68206 0
M  V30 2016 H 188.877 -0.925857 -3.1122 0
M  V30 2017 H 189.888 -4.56315 -2.44943 0
M  V30 2018 H 186.565 -2.22179 -3.53473 0
M  V30 2019 H 187.955 -6.16843 -2.66372 0
M  V30 2020 N 190.675 0.682077 -1.42076 0
M  V30 2021 C 191.923 1.4393 -1.41876 0
M  V30 2022 C 192.244 1.94971 -0.0335599 0
M  V30 2023 O 191.514 1.72591 0.926773 0
M  V30 2024 H 190.094 0.534085 -0.522267 0
M  V30 2025 H 192.756 0.806427 -1.77434 0
M  V30 2026 H 191.852 2.29588 -2.11414 0
M  V30 2027 N 192.153 1.28127 0.917671 0
M  V30 2028 C 193.103 1.08361 2.00604 0
M  V30 2029 C 194.087 0.00847518 1.60898 0
M  V30 2030 O 195.279 0.228167 1.75523 0
M  V30 2031 C 192.408 0.743376 3.35155 0
M  V30 2032 C 191.494 1.85716 3.81275 0
M  V30 2033 N 191.885 3.09822 3.99805 0
M  V30 2034 C 190.183 1.74612 4.10398 0
M  V30 2035 C 190.884 3.82368 4.38372 0
M  V30 2036 N 189.86 3.10192 4.4641 0
M  V30 2037 H 193.662 2.02531 2.12975 0
M  V30 2038 H 191.176 1.18989 1.10523 0
M  V30 2039 H 193.173 0.582859 4.12805 0
M  V30 2040 H 191.833 -0.190595 3.2414 0
M  V30 2041 H 192.844 3.45475 3.85833 0
M  V30 2042 H 189.521 0.883657 4.08041 0
M  V30 2043 H 190.911 4.89082 4.60704 0
M  V30 2044 N 193.631 -1.12557 1.10312 0
M  V30 2045 C 194.871 -1.8568 0.854543 0
M  V30 2046 C 195.235 -1.82091 -0.608843 0
M  V30 2047 O 196.436 -2.50544 -0.973717 0
M  V30 2048 C 194.707 -3.2942 1.38626 0
M  V30 2049 S 196.266 -4.19931 1.27293 0
M  V30 2050 H 193.084 -0.640427 0.308827 0
M  V30 2051 H 195.686 -1.35599 1.40831 0
M  V30 2052 H 194.39 -3.2959 2.44537 0
M  V30 2053 H 193.921 -3.84566 0.82902 0
M  V30 2054 H 195.936 -4.95668 0.229776 0
M  V30 2055 N 195.109 -0.891671 -1.2995 0
M  V30 2056 C 196.357 -0.512486 -1.95494 0
M  V30 2057 C 196.678 0.942776 -1.70695 0
M  V30 2058 O 195.948 1.66374 -1.03424 0
M  V30 2059 H 194.528 -0.186533 -0.723336 0
M  V30 2060 H 197.19 -1.13621 -1.58355 0
M  V30 2061 H 196.286 -0.688342 -3.04415 0
M  V30 2062 N 196.587 1.43421 -0.653314 0
M  V30 2063 C 197.517 2.33487 0.0246656 0
M  V30 2064 C 198.498 1.49475 0.811863 0
M  V30 2065 O 199.683 1.78139 0.773322 0
M  V30 2066 C 196.813 3.32841 0.99166 0
M  V30 2067 C 195.767 4.26842 0.314568 0
M  V30 2068 C 195.093 5.16236 1.39302 0
M  V30 2069 C 196.393 5.16243 -0.793095 0
M  V30 2070 H 198.087 2.90427 -0.727481 0
M  V30 2071 H 195.633 1.39649 -0.351287 0
M  V30 2072 H 197.586 3.94747 1.47487 0
M  V30 2073 H 196.31 2.74158 1.77497 0
M  V30 2074 H 194.969 3.663 -0.148199 0
M  V30 2075 H 194.617 4.53891 2.16776 0
M  V30 2076 H 194.317 5.79948 0.945223 0
M  V30 2077 H 195.841 5.81015 1.87759 0
M  V30 2078 H 197.255 5.71958 -0.392039 0
M  V30 2079 H 195.652 5.88676 -1.16536 0
M  V30 2080 H 196.722 4.55927 -1.65103 0
M  V30 2081 N 198.065 0.39524 1.52563 0
M  V30 2082 C 198.995 -0.428384 2.29537 0
M  V30 2083 C 199.976 -1.05831 1.33169 0
M  V30 2084 O 201.161 -1.06995 1.62067 0
M  V30 2085 C 198.291 -1.55274 3.10656 0
M  V30 2086 C 197.245 -1.04855 4.14957 0
M  V30 2087 C 196.571 -2.26543 4.84337 0
M  V30 2088 C 197.871 -0.112324 5.22179 0
M  V30 2089 H 199.565 0.213867 2.98635 0
M  V30 2090 H 197.111 0.104298 1.43622 0
M  V30 2091 H 199.064 -2.1358 3.63265 0
M  V30 2092 H 197.788 -2.22266 2.39302 0
M  V30 2093 H 196.447 -0.487985 3.63338 0
M  V30 2094 H 196.095 -2.92059 4.09525 0
M  V30 2095 H 195.795 -1.93466 5.54837 0
M  V30 2096 H 197.319 -2.85481 5.39753 0
M  V30 2097 H 198.733 -0.603752 5.70112 0
M  V30 2098 H 197.13 0.128968 5.99961 0
M  V30 2099 H 198.2 0.837052 4.77621 0
M  V30 2100 N 199.544 -1.57102 0.125237 0
M  V30 2101 C 200.769 -2.0019 -0.542101 0
M  V30 2102 C 201.194 -1.00449 -1.59034 0
M  V30 2103 O 200.552 0.0229423 -1.81285 0
M  V30 2104 C 200.6 -3.42129 -1.13929 0
M  V30 2105 O 199.704 -3.45307 -2.2547 0
M  V30 2106 H 199.045 -0.650171 -0.134812 0
M  V30 2107 H 201.575 -2.03461 0.215553 0
M  V30 2108 H 201.585 -3.80471 -1.4733 0
M  V30 2109 H 200.26 -4.14237 -0.371531 0
M  V30 2110 H 198.837 -3.1879 -1.93462 0
M  V30 2111 N 201.022 0.148545 -1.56898 0
M  V30 2112 C 201.932 1.20293 -2.01412 0
M  V30 2113 C 202.948 1.47107 -0.929273 0
M  V30 2114 O 204.124 1.58807 -1.23863 0
M  V30 2115 C 201.189 2.51682 -2.38447 0
M  V30 2116 C 200.25 2.32529 -3.60872 0
M  V30 2117 C 199.483 3.57653 -3.96132 0
M  V30 2118 O 199.706 4.63771 -3.32073 0
M  V30 2119 O 198.64 3.50408 -4.89385 0
M  V30 2120 H 202.466 0.855025 -2.91416 0
M  V30 2121 H 200.051 0.357151 -1.45068 0
M  V30 2122 H 201.933 3.29147 -2.63135 0
M  V30 2123 H 200.608 2.86006 -1.51599 0
M  V30 2124 H 199.515 1.53019 -3.41373 0
M  V30 2125 H 200.848 2.03121 -4.48333 0
M  V30 2126 N 202.5 1.5196 0.417844 0
M  V30 2127 C 203.448 1.75278 1.52907 0
M  V30 2128 C 204.442 0.619611 1.57662 0
M  V30 2129 O 205.648 0.801457 1.61173 0
M  V30 2130 H 202.023 0.554141 0.508362 0
M  V30 2131 H 203.994 2.68389 1.30422 0
M  V30 2132 C 202.743 1.91262 2.90369 0
M  V30 2133 H 202.066 2.77872 2.8745 0
M  V30 2134 H 203.506 2.11581 3.67436 0
M  V30 2135 C 201.965 0.677431 3.30019 0
M  V30 2136 O 202.495 -0.158799 4.01386 0
M  V30 2137 N 200.701 0.515851 2.85985 0
M  V30 2138 H 200.248 1.19744 2.28077 0
M  V30 2139 H 200.206 -0.309315 3.12875 0
M  V30 2140 N 203.978 -0.674533 1.42435 0
M  V30 2141 C 205.226 -1.43175 1.42637 0
M  V30 2142 C 205.547 -1.94951 0.0438992 0
M  V30 2143 O 204.817 -1.7308 -0.917607 0
M  V30 2144 H 203.397 -0.531307 0.525092 0
M  V30 2145 H 206.059 -0.797006 1.77859 0
M  V30 2146 H 205.155 -2.28463 2.12629 0
M  V30 2147 N 205.456 -1.28612 -0.910864 0
M  V30 2148 C 206.419 -1.12803 -1.9952 0
M  V30 2149 C 207.419 -0.0668264 -1.60661 0
M  V30 2150 O 208.609 -0.312847 -1.71368 0
M  V30 2151 C 205.741 -0.72254 -3.33155 0
M  V30 2152 H 206.934 -2.09109 -2.14973 0
M  V30 2153 H 204.487 -1.11639 -1.09391 0
M  V30 2154 H 205.222 0.241152 -3.23402 0
M  V30 2155 H 205.007 -1.48916 -3.62721 0
M  V30 2156 H 206.497 -0.634666 -4.12749 0
M  V30 2157 N 206.934 1.1197 -1.10907 0
M  V30 2158 C 208.181 1.83588 -0.854507 0
M  V30 2159 C 208.509 1.84357 0.6199 0
M  V30 2160 O 207.764 1.28809 1.47332 0
M  V30 2161 C 208.063 3.30749 -1.35425 0
M  V30 2162 C 207.729 3.50146 -2.84093 0
M  V30 2163 C 206.391 3.55148 -3.2469 0
M  V30 2164 C 208.743 3.56857 -3.79872 0
M  V30 2165 C 206.071 3.6441 -4.59806 0
M  V30 2166 C 208.423 3.6765 -5.14797 0
M  V30 2167 C 207.087 3.7091 -5.54961 0
M  V30 2168 H 206.357 0.671795 -0.312686 0
M  V30 2169 H 209.004 1.32091 -1.38652 0
M  V30 2170 H 207.309 3.84703 -0.742361 0
M  V30 2171 H 209.006 3.8464 -1.1337 0
M  V30 2172 H 205.596 3.46919 -2.51685 0
M  V30 2173 H 209.78 3.52258 -3.49611 0
M  V30 2174 H 205.036 3.65208 -4.9034 0
M  V30 2175 H 209.21 3.71786 -5.88853 0
M  V30 2176 H 206.837 3.7784 -6.59652 0
M  V30 2177 N 208.412 0.89855 1.29475 0
M  V30 2178 C 209.828 0.594483 1.48115 0
M  V30 2179 C 210.028 -0.86431 1.82022 0
M  V30 2180 O 209.084 -1.64457 1.91599 0
M  V30 2181 C 210.397 1.51932 2.59494 0
M  V30 2182 C 211.945 1.5244 2.7337 0
M  V30 2183 C 212.42 2.43548 3.87877 0
M  V30 2184 N 213.911 2.41589 3.95208 0
M  V30 2185 C 214.646 3.08789 4.83153 0
M  V30 2186 N 214.142 3.85265 5.75798 0
M  V30 2187 N 215.935 2.97952 4.76635 0
M  V30 2188 H 208.086 1.84207 1.05742 0
M  V30 2189 H 210.349 0.789251 0.525154 0
M  V30 2190 H 210.055 2.55865 2.41301 0
M  V30 2191 H 209.929 1.23899 3.56271 0
M  V30 2192 H 212.316 0.492518 2.90961 0
M  V30 2193 H 212.397 1.8451 1.77172 0
M  V30 2194 H 212.041 3.46829 3.71041 0
M  V30 2195 H 211.971 2.08788 4.83441 0
M  V30 2196 H 214.462 1.86025 3.28943 0
M  V30 2197 H 214.775 4.33598 6.39697 0
M  V30 2198 H 213.12 3.89371 5.75687 0
M  V30 2199 H 216.311 2.37723 4.03244 0
M  V30 2200 H 216.484 3.50599 5.44962 0
M  V30 2201 N 209.89 -1.43072 0.660911 0
M  V30 2202 C 210.853 -2.29194 -0.0166406 0
M  V30 2203 C 211.853 -1.42609 -0.742912 0
M  V30 2204 O 213.043 -1.64155 -0.583004 0
M  V30 2205 C 210.175 -3.24831 -1.0343 0
M  V30 2206 H 211.368 -2.90596 0.741208 0
M  V30 2207 H 208.921 -1.5048 0.422532 0
M  V30 2208 H 209.656 -2.68339 -1.82111 0
M  V30 2209 H 209.441 -3.88676 -0.517082 0
M  V30 2210 H 210.931 -3.89451 -1.50723 0
M  V30 2211 N 211.368 -0.403325 -1.52352 0
M  V30 2212 C 212.278 0.432009 -2.30588 0
M  V30 2213 C 213.294 1.05884 -1.38075 0
M  V30 2214 O 214.47 1.06161 -1.71148 0
M  V30 2215 C 211.535 1.53669 -3.10784 0
M  V30 2216 C 210.596 0.933525 -4.19027 0
M  V30 2217 C 209.829 1.98557 -4.9539 0
M  V30 2218 O 210.052 3.20283 -4.71991 0
M  V30 2219 O 208.986 1.59504 -5.80381 0
M  V30 2220 H 212.812 -0.205739 -3.03002 0
M  V30 2221 H 210.397 -0.166675 -1.48467 0
M  V30 2222 H 212.279 2.17814 -3.60742 0
M  V30 2223 H 210.954 2.15915 -2.41169 0
M  V30 2224 H 209.861 0.254954 -3.7323 0
M  V30 2225 H 211.194 0.35508 -4.90918 0
M  V30 2226 N 212.846 1.57033 -0.133567 0
M  V30 2227 C 213.756 2.19632 0.824564 0
M  V30 2228 C 214.772 1.17666 1.28182 0
M  V30 2229 O 215.948 1.50193 1.3418 0
M  V30 2230 C 213.013 2.79499 2.05137 0
M  V30 2231 C 212.074 3.96548 1.64464 0
M  V30 2232 C 211.307 4.5355 2.81297 0
M  V30 2233 O 211.53 4.09438 3.97136 0
M  V30 2234 O 210.464 5.44018 2.57542 0
M  V30 2235 H 214.29 3.01991 0.321766 0
M  V30 2236 H 211.875 1.49112 0.0927889 0
M  V30 2237 H 213.757 3.17602 2.7696 0
M  V30 2238 H 212.432 2.00162 2.54395 0
M  V30 2239 H 211.339 3.63186 0.897048 0
M  V30 2240 H 212.672 4.77364 1.19934 0
M  V30 2241 N 214.325 -0.140222 1.56975 0
M  V30 2242 C 215.55 -0.870414 1.88251 0
M  V30 2243 C 215.975 -1.73637 0.723312 0
M  V30 2244 O 215.333 -1.78329 -0.32689 0
M  V30 2245 C 215.381 -1.69737 3.18154 0
M  V30 2246 O 214.485 -2.80229 3.02565 0
M  V30 2247 H 213.826 -0.242025 0.61832 0
M  V30 2248 H 216.356 -0.128999 2.04193 0
M  V30 2249 H 216.366 -2.09099 3.50345 0
M  V30 2250 H 215.041 -1.06152 4.02125 0
M  V30 2251 H 213.618 -2.44224 2.81796 0
M  V30 2252 N 215.803 -1.52179 -0.40978 0
M  V30 2253 C 217.219 -1.40968 -0.74835 0
M  V30 2254 C 217.419 -0.513657 -1.94843 0
M  V30 2255 O 216.475 0.0208026 -2.52491 0
M  V30 2256 C 217.788 -2.83483 -1.0029 0
M  V30 2257 C 219.336 -2.92821 -1.10565 0
M  V30 2258 C 219.811 -4.36303 -1.39296 0
M  V30 2259 N 221.302 -4.39535 -1.46162 0
M  V30 2260 C 222.037 -5.47614 -1.70018 0
M  V30 2261 N 221.533 -6.65812 -1.91483 0
M  V30 2262 N 223.326 -5.35129 -1.72027 0
M  V30 2263 H 215.477 -2.0897 0.380186 0
M  V30 2264 H 217.74 -0.94185 0.107805 0
M  V30 2265 H 217.446 -3.51168 -0.193461 0
M  V30 2266 H 217.32 -3.24487 -1.92323 0
M  V30 2267 H 219.707 -2.25318 -1.90568 0
M  V30 2268 H 219.788 -2.55276 -0.16369 0
M  V30 2269 H 219.432 -5.04366 -0.598109 0
M  V30 2270 H 219.362 -4.71385 -2.34743 0
M  V30 2271 H 221.853 -3.54332 -1.31367 0
M  V30 2272 H 222.166 -7.43964 -2.09134 0
M  V30 2273 H 220.511 -6.68879 -1.88749 0
M  V30 2274 H 223.702 -4.41764 -1.54796 0
M  V30 2275 H 223.875 -6.19433 -1.9028 0
M  V30 2276 N 217.281 0.66697 -1.42791 0
M  V30 2277 C 218.213 1.7925 -1.42836 0
M  V30 2278 C 219.226 1.59496 -0.326333 0
M  V30 2279 O 220.415 1.6847 -0.589916 0
M  V30 2280 C 217.515 3.16476 -1.21229 0
M  V30 2281 C 216.688 3.63011 -2.44013 0
M  V30 2282 C 215.747 4.78993 -2.17834 0
M  V30 2283 O 214.773 4.89137 -2.91091 0
M  V30 2284 N 215.975 5.68248 -1.18635 0
M  V30 2285 H 218.74 1.79695 -2.39854 0
M  V30 2286 H 216.301 0.850338 -1.37771 0
M  V30 2287 H 218.293 3.91734 -1.01621 0
M  V30 2288 H 216.863 3.10884 -0.32706 0
M  V30 2289 H 216.083 2.78346 -2.79137 0
M  V30 2290 H 217.371 3.90845 -3.25757 0
M  V30 2291 H 216.769 5.62712 -0.580615 0
M  V30 2292 H 215.326 6.43285 -1.05013 0
M  V30 2293 N 218.759 1.29093 0.90403 0
M  V30 2294 C 220.175 1.07011 1.1841 0
M  V30 2295 C 220.375 -0.181358 2.00682 0
M  V30 2296 O 219.431 -0.880331 2.36657 0
M  V30 2297 C 220.744 2.32311 1.90924 0
M  V30 2298 C 222.292 2.37587 2.03768 0
M  V30 2299 C 222.767 3.62679 2.79693 0
M  V30 2300 N 224.258 3.63376 2.87249 0
M  V30 2301 C 224.993 4.56848 3.46522 0
M  V30 2302 N 224.489 5.60648 4.06996 0
M  V30 2303 N 226.282 4.44426 3.44154 0
M  V30 2304 H 218.433 2.09412 0.354993 0
M  V30 2305 H 220.696 0.922181 0.219742 0
M  V30 2306 H 220.402 3.23536 1.37905 0
M  V30 2307 H 220.276 2.39483 2.91424 0
M  V30 2308 H 222.663 1.46853 2.55965 0
M  V30 2309 H 222.744 2.34403 1.02415 0
M  V30 2310 H 222.388 4.53762 2.28173 0
M  V30 2311 H 222.318 3.63119 3.81381 0
M  V30 2312 H 224.809 2.88321 2.44293 0
M  V30 2313 H 225.122 6.28101 4.50232 0
M  V30 2314 H 223.467 5.64463 4.05471 0
M  V30 2315 H 226.658 3.62529 2.96126 0
M  V30 2316 H 226.831 5.17457 3.90054 0
M  V30 2317 N 220.237 -1.11381 1.11499 0
M  V30 2318 C 221.167 -2.19509 0.796125 0
M  V30 2319 C 222.148 -1.68458 -0.235796 0
M  V30 2320 O 223.333 -1.93947 -0.0991344 0
M  V30 2321 C 220.463 -3.46475 0.239205 0
M  V30 2322 C 219.417 -4.10744 1.20307 0
M  V30 2323 C 218.743 -5.32293 0.50683 0
M  V30 2324 C 220.043 -4.55597 2.55399 0
M  V30 2325 H 221.737 -2.46439 1.70024 0
M  V30 2326 H 219.283 -1.18446 0.818935 0
M  V30 2327 H 221.236 -4.214 0.00392006 0
M  V30 2328 H 219.96 -3.19006 -0.700206 0
M  V30 2329 H 218.619 -3.37813 1.42399 0
M  V30 2330 H 218.267 -5.01095 -0.437408 0
M  V30 2331 H 217.967 -5.76243 1.1497 0
M  V30 2332 H 219.491 -6.09956 0.280351 0
M  V30 2333 H 220.905 -5.21841 2.37391 0
M  V30 2334 H 219.302 -5.10363 3.15673 0
M  V30 2335 H 220.372 -3.69013 3.14575 0
M  V30 2336 N 221.715 -0.905404 -1.28997 0
M  V30 2337 C 222.678 -0.392253 -2.25819 0
M  V30 2338 C 223.678 0.476753 -1.5357 0
M  V30 2339 O 224.868 0.280994 -1.71919 0
M  V30 2340 C 222 0.438588 -3.38067 0
M  V30 2341 H 223.193 -1.24743 -2.72725 0
M  V30 2342 H 220.746 -0.684051 -1.40536 0
M  V30 2343 H 221.481 1.31352 -2.96508 0
M  V30 2344 H 221.266 -0.184167 -3.91667 0
M  V30 2345 H 222.756 0.78873 -4.10084 0
M  V30 2346 N 223.193 1.4272 -0.668489 0
M  V30 2347 C 224.103 2.34596 0.0139753 0
M  V30 2348 C 225.119 1.5474 0.795703 0
M  V30 2349 O 226.295 1.87334 0.739466 0
M  V30 2350 C 223.36 3.33202 0.957982 0
M  V30 2351 C 222.421 4.28957 0.17149 0
M  V30 2352 C 221.654 5.22853 1.07053 0
M  V30 2353 O 221.877 5.21531 2.31001 0
M  V30 2354 O 220.811 5.9952 0.534727 0
M  V30 2355 H 224.637 2.9448 -0.742661 0
M  V30 2356 H 222.222 1.43117 -0.428705 0
M  V30 2357 H 224.104 3.93796 1.50008 0
M  V30 2358 H 222.779 2.758 1.69458 0
M  V30 2359 H 221.686 3.71796 -0.414558 0
M  V30 2360 H 223.019 4.89383 -0.52586 0
M  V30 2361 N 224.671 0.411399 1.52136 0
M  V30 2362 C 225.917 -0.163888 2.02137 0
M  V30 2363 C 226.25 -1.44597 1.29636 0
M  V30 2364 O 225.525 -1.90272 0.403353 0
M  V30 2365 C 225.808 -0.40927 3.57767 0
M  V30 2366 C 225.661 0.889643 4.40914 0
M  V30 2367 C 226.98 -1.19042 4.23694 0
M  V30 2368 H 224.099 -0.0580896 0.734707 0
M  V30 2369 H 226.741 0.54531 1.82007 0
M  V30 2370 H 224.891 -1.0134 3.7505 0
M  V30 2371 H 226.563 1.52575 4.35337 0
M  V30 2372 H 224.806 1.50011 4.07037 0
M  V30 2373 H 225.477 0.672314 5.4789 0
M  V30 2374 H 227.953 -0.678942 4.10524 0
M  V30 2375 H 226.829 -1.33086 5.32522 0
M  V30 2376 H 227.09 -2.21166 3.82803 0
M  V30 2377 N 226.149 -1.5696 0.141893 0
M  V30 2378 C 227.112 -2.15316 -0.785587 0
M  V30 2379 C 228.112 -1.09366 -1.1788 0
M  V30 2380 O 229.302 -1.35031 -1.10056 0
M  V30 2381 C 226.434 -2.71211 -2.06537 0
M  V30 2382 H 227.627 -2.98608 -0.278041 0
M  V30 2383 H 225.18 -1.5593 -0.107519 0
M  V30 2384 H 225.915 -1.91571 -2.6167 0
M  V30 2385 H 225.7 -3.4872 -1.79268 0
M  V30 2386 H 227.19 -3.16189 -2.72789 0
M  V30 2387 N 227.627 0.131896 -1.57047 0
M  V30 2388 C 228.557 1.16384 -2.02428 0
M  V30 2389 C 229.538 1.43936 -0.90644 0
M  V30 2390 O 230.723 1.54599 -1.17528 0
M  V30 2391 C 227.853 2.49328 -2.4177 0
M  V30 2392 C 226.807 2.36266 -3.56879 0
M  V30 2393 C 226.133 3.74057 -3.8208 0
M  V30 2394 C 227.433 1.834 -4.89042 0
M  V30 2395 H 229.127 0.786433 -2.88887 0
M  V30 2396 H 226.673 0.376855 -1.38981 0
M  V30 2397 H 228.626 3.21759 -2.7212 0
M  V30 2398 H 227.35 2.88934 -1.52266 0
M  V30 2399 H 226.009 1.66286 -3.26718 0
M  V30 2400 H 225.657 4.11125 -2.89803 0
M  V30 2401 H 225.357 3.66174 -4.59554 0
M  V30 2402 H 226.881 4.48012 -4.1487 0
M  V30 2403 H 228.295 2.45636 -5.18011 0
M  V30 2404 H 226.692 1.8637 -5.70426 0
M  V30 2405 H 227.762 0.790662 -4.7841 0
M  V30 2406 N 229.106 1.52395 0.401703 0
M  V30 2407 C 230.069 1.75636 1.47257 0
M  V30 2408 C 231.069 0.62628 1.48103 0
M  V30 2409 O 232.259 0.894227 1.49497 0
M  V30 2410 C 229.391 1.84553 2.86624 0
M  V30 2411 H 230.584 2.71241 1.27938 0
M  V30 2412 H 228.137 1.42923 0.632662 0
M  V30 2413 H 228.872 0.908882 3.11303 0
M  V30 2414 H 228.657 2.66715 2.87412 0
M  V30 2415 H 230.147 2.04251 3.64241 0
M  V30 2416 N 230.584 -0.659388 1.43143 0
M  V30 2417 C 231.814 -1.44513 1.47646 0
M  V30 2418 C 232.222 -1.88981 0.0910095 0
M  V30 2419 O 231.565 -1.59702 -0.907789 0
M  V30 2420 C 231.627 -2.71663 2.35456 0
M  V30 2421 C 231.291 -2.49175 3.83094 0
M  V30 2422 C 232.288 -2.1279 4.74359 0
M  V30 2423 C 229.973 -2.63691 4.27519 0
M  V30 2424 C 231.967 -1.9121 6.08044 0
M  V30 2425 C 229.654 -2.41726 5.61259 0
M  V30 2426 C 230.652 -2.0554 6.51339 0
M  V30 2427 O 230.34 -1.838 7.82606 0
M  V30 2428 H 230.072 -0.45064 0.503884 0
M  V30 2429 H 232.626 -0.816248 1.88485 0
M  V30 2430 H 230.856 -3.37089 1.89493 0
M  V30 2431 H 232.545 -3.33595 2.31235 0
M  V30 2432 H 233.311 -2.01157 4.41317 0
M  V30 2433 H 229.19 -2.90832 3.57684 0
M  V30 2434 H 232.734 -1.62889 6.78316 0
M  V30 2435 H 228.631 -2.52959 5.9387 0
M  V30 2436 H 229.399 -1.98275 7.94122 0
M  V30 2437 N 232.062 -1.29571 -0.897171 0
M  V30 2438 C 233.025 -1.14913 -1.98312 0
M  V30 2439 C 234.025 -0.0838629 -1.60581 0
M  V30 2440 O 235.215 -0.331006 -1.71026 0
M  V30 2441 C 232.347 -0.757835 -3.3237 0
M  V30 2442 H 233.54 -2.11377 -2.12743 0
M  V30 2443 H 231.093 -1.12793 -1.08201 0
M  V30 2444 H 231.828 0.206837 -3.2364 0
M  V30 2445 H 231.613 -1.52755 -3.61121 0
M  V30 2446 H 233.103 -0.678408 -4.12053 0
M  V30 2447 N 233.54 1.10788 -1.12088 0
M  V30 2448 C 234.487 2.17025 -0.785407 0
M  V30 2449 C 235.457 1.64265 0.246191 0
M  V30 2450 O 236.642 1.90412 0.121584 0
M  V30 2451 C 233.782 3.44249 -0.242177 0
M  V30 2452 C 232.895 4.1098 -1.33115 0
M  V30 2453 C 232.03 5.25911 -0.747741 0
M  V30 2454 C 231.069 5.84538 -1.81609 0
M  V30 2455 N 230.206 6.90853 -1.25167 0
M  V30 2456 H 235.046 2.45066 -1.69548 0
M  V30 2457 H 232.583 1.20297 -0.846582 0
M  V30 2458 H 234.541 4.17101 0.0908026 0
M  V30 2459 H 233.171 3.16571 0.631072 0
M  V30 2460 H 232.223 3.36133 -1.78097 0
M  V30 2461 H 233.535 4.50601 -2.13917 0
M  V30 2462 H 232.689 6.056 -0.365216 0
M  V30 2463 H 231.428 4.87614 0.0915188 0
M  V30 2464 H 230.433 5.03522 -2.20785 0
M  V30 2465 H 231.658 6.249 -2.6585 0
M  V30 2466 H 229.604 6.54562 -0.434174 0
M  V30 2467 H 229.521 7.29166 -1.99633 0
M  V30 2468 H 230.789 7.7433 -0.896259 0
M  V30 2469 N 235.018 0.912232 1.28515 0
M  V30 2470 C 235.981 0.404223 2.25607 0
M  V30 2471 C 236.981 -0.468602 1.53821 0
M  V30 2472 O 238.171 -0.271873 1.72065 0
M  V30 2473 C 235.303 -0.420653 3.38295 0
M  V30 2474 H 236.496 1.26188 2.7206 0
M  V30 2475 H 234.049 0.691495 1.40171 0
M  V30 2476 H 234.784 -1.29777 2.97201 0
M  V30 2477 H 234.569 0.204935 3.91564 0
M  V30 2478 H 236.059 -0.766971 4.10496 0
M  V30 2479 N 236.496 -1.42363 0.676048 0
M  V30 2480 C 237.744 -2.01123 0.198437 0
M  V30 2481 C 238.065 -1.53731 -1.19966 0
M  V30 2482 O 237.335 -0.759518 -1.80577 0
M  V30 2483 H 235.915 -0.743678 0.0703721 0
M  V30 2484 H 238.577 -1.74263 0.872837 0
M  V30 2485 H 237.673 -3.11454 0.200686 0
M  V30 2486 N 237.974 -0.419461 -1.51915 0
M  V30 2487 C 239.214 0.152336 -2.03832 0
M  V30 2488 C 239.578 1.41501 -1.29775 0
M  V30 2489 O 240.779 2.06591 -1.7197 0
M  V30 2490 C 239.05 0.383812 -3.55333 0
M  V30 2491 S 240.609 0.921577 -4.29013 0
M  V30 2492 H 237.427 0.0402193 -0.709862 0
M  V30 2493 H 240.029 -0.574758 -1.8686 0
M  V30 2494 H 238.733 -0.541794 -4.06808 0
M  V30 2495 H 238.264 1.13849 -3.76566 0
M  V30 2496 H 240.279 2.20108 -4.4471 0
M  V30 2497 N 239.452 1.56882 -0.150215 0
M  V30 2498 C 240.384 2.14057 0.819286 0
M  V30 2499 C 241.397 1.09082 1.20851 0
M  V30 2500 O 242.586 1.36347 1.15203 0
M  V30 2501 C 239.686 2.65102 2.11127 0
M  V30 2502 C 238.859 3.94511 1.88891 0
M  V30 2503 C 237.918 4.30834 3.02107 0
M  V30 2504 O 236.944 4.99099 2.73659 0
M  V30 2505 N 238.146 3.90676 4.29363 0
M  V30 2506 H 240.911 2.97871 0.330618 0
M  V30 2507 H 238.472 1.61866 0.0332538 0
M  V30 2508 H 240.464 2.86411 2.85921 0
M  V30 2509 H 239.034 1.85994 2.51247 0
M  V30 2510 H 238.254 3.81795 0.981152 0
M  V30 2511 H 239.542 4.7907 1.71376 0
M  V30 2512 H 238.94 3.35677 4.55343 0
M  V30 2513 H 237.497 4.1703 5.00928 0
M  V30 2514 N 240.93 -0.123565 1.57115 0
M  V30 2515 C 242.176 -0.833386 1.84885 0
M  V30 2516 C 242.509 -1.79742 0.735292 0
M  V30 2517 O 241.784 -1.92764 -0.25925 0
M  V30 2518 C 242.067 -1.5873 3.23228 0
M  V30 2519 C 241.92 -0.643183 4.45178 0
M  V30 2520 C 243.239 -2.54453 3.59085 0
M  V30 2521 H 240.358 -0.301518 0.6725 0
M  V30 2522 H 243 -0.097778 1.89748 0
M  V30 2523 H 241.15 -2.21438 3.19214 0
M  V30 2524 H 242.822 -0.0253015 4.61293 0
M  V30 2525 H 241.065 0.0456139 4.33776 0
M  V30 2526 H 241.736 -1.20724 5.38637 0
M  V30 2527 H 244.212 -2.01853 3.63861 0
M  V30 2528 H 243.088 -3.04238 4.5687 0
M  V30 2529 H 243.349 -3.36906 2.86264 0
M  V30 2530 N 242.408 -1.52605 -0.393616 0
M  V30 2531 C 243.654 -1.67672 -1.14079 0
M  V30 2532 C 243.987 -0.413121 -1.89755 0
M  V30 2533 O 243.262 0.588952 -1.85369 0
M  V30 2534 C 243.545 -2.9088 -2.12276 0
M  V30 2535 C 243.398 -4.27329 -1.40394 0
M  V30 2536 C 244.717 -3.09628 -3.12759 0
M  V30 2537 H 241.836 -0.610168 -0.413356 0
M  V30 2538 H 244.478 -1.85193 -0.424696 0
M  V30 2539 H 242.628 -2.76073 -2.73342 0
M  V30 2540 H 244.3 -4.53894 -0.82327 0
M  V30 2541 H 242.543 -4.2802 -0.705801 0
M  V30 2542 H 243.214 -5.09615 -2.12123 0
M  V30 2543 H 245.69 -3.23436 -2.61779 0
M  V30 2544 H 244.566 -3.97322 -3.78717 0
M  V30 2545 H 244.827 -2.23637 -3.81365 0
M  V30 2546 N 243.887 0.651787 -1.4349 0
M  V30 2547 C 244.85 1.74647 -1.48429 0
M  V30 2548 C 245.85 1.56513 -0.368817 0
M  V30 2549 O 247.04 1.62385 -0.630623 0
M  V30 2550 C 244.172 3.13533 -1.33827 0
M  V30 2551 H 245.365 1.71649 -2.4592 0
M  V30 2552 H 242.918 0.863573 -1.30277 0
M  V30 2553 H 243.653 3.22142 -0.37349 0
M  V30 2554 H 243.438 3.28101 -2.14691 0
M  V30 2555 H 244.928 3.93356 -1.40218 0
M  V30 2556 N 245.365 1.30045 0.890287 0
M  V30 2557 C 246.776 1.16738 1.45702 0
M  V30 2558 C 247.127 -0.233939 1.948 0
M  V30 2559 O 246.252 -1.13021 1.84541 0
M  V30 2560 C 246.847 2.11313 2.64825 0
M  V30 2561 C 245.406 2.02001 3.17604 0
M  V30 2562 C 244.553 2.01699 1.90296 0
M  V30 2563 H 247.504 1.42392 0.700726 0
M  V30 2564 H 247.525 1.69086 3.40867 0
M  V30 2565 H 247.037 3.13294 2.2906 0
M  V30 2566 H 245.138 1.03142 3.5804 0
M  V30 2567 H 245.251 2.90128 3.81264 0
M  V30 2568 H 243.615 1.46427 2.08402 0
M  V30 2569 H 244.398 3.05402 1.56795 0
M  V30 2570 N 246.843 -1.10192 1.12674 0
M  V30 2571 C 248.068 -1.86523 0.906853 0
M  V30 2572 C 248.493 -1.80221 -0.538711 0
M  V30 2573 O 247.851 -1.17396 -1.38158 0
M  V30 2574 C 247.899 -3.32758 1.3894 0
M  V30 2575 O 247.003 -4.08449 0.5695 0
M  V30 2576 H 246.344 -0.578678 0.325619 0
M  V30 2577 H 248.874 -1.39203 1.49946 0
M  V30 2578 H 248.884 -3.83608 1.38958 0
M  V30 2579 H 247.559 -3.36661 2.44197 0
M  V30 2580 H 246.136 -3.67427 0.636528 0
M  V30 2581 N 248.321 -0.919034 -1.28029 0
M  V30 2582 C 249.598 -0.473668 -1.89778 0
M  V30 2583 C 249.978 1.04783 -1.83259 0
M  V30 2584 O 249.326 1.8982 -1.27202 0
M  V30 2585 C 249.536 -1.00998 -3.34066 0
M  V30 2586 C 250.884 -1.06525 -4.1102 0
M  V30 2587 O 251.908 -0.958996 -3.43048 0
M  V30 2588 O 250.767 -1.22776 -5.3253 0
M  V30 2589 H 247.861 -0.15098 -0.813101 0
M  V30 2590 H 250.407 -1.01016 -1.36359 0
M  V30 2591 H 249.179 -2.05392 -3.33061 0
M  V30 2592 H 248.802 -0.454626 -3.94992 0
M  V30 2593 N 249.799 1.42003 -0.683588 0
M  V30 2594 C 250.732 2.28166 0.039592 0
M  V30 2595 C 251.71 1.41562 0.799942 0
M  V30 2596 O 252.894 1.70997 0.793248 0
M  V30 2597 C 250.021 3.21575 1.06335 0
M  V30 2598 C 249.067 4.24643 0.397562 0
M  V30 2599 S 249.9 5.2869 -0.851296 0
M  V30 2600 C 251.056 6.25666 0.171166 0
M  V30 2601 H 251.289 2.89153 -0.691229 0
M  V30 2602 H 248.822 1.46962 -0.473435 0
M  V30 2603 H 250.78 3.75928 1.6489 0
M  V30 2604 H 249.441 2.59707 1.76667 0
M  V30 2605 H 248.634 4.90223 1.17035 0
M  V30 2606 H 248.236 3.73824 -0.114611 0
M  V30 2607 H 250.528 6.69653 1.02819 0
M  V30 2608 H 251.471 7.06666 -0.450397 0
M  V30 2609 H 251.879 5.62095 0.520578 0
M  V30 2610 N 251.277 0.427512 1.51691 0
M  V30 2611 C 252.21 -0.433876 2.24037 0
M  V30 2612 C 253.188 -1.03287 1.25581 0
M  V30 2613 O 254.372 -1.07722 1.54688 0
M  V30 2614 C 251.499 -1.60385 2.98319 0
M  V30 2615 C 250.545 -1.12648 4.11355 0
M  V30 2616 S 251.378 -0.076543 5.35445 0
M  V30 2617 C 252.534 -1.25141 6.13262 0
M  V30 2618 H 252.767 0.180367 2.96752 0
M  V30 2619 H 250.3 0.211946 1.52938 0
M  V30 2620 H 252.258 -2.27462 3.41718 0
M  V30 2621 H 250.919 -2.18948 2.25213 0
M  V30 2622 H 250.112 -2.0011 4.62571 0
M  V30 2623 H 249.714 -0.534088 3.70167 0
M  V30 2624 H 252.006 -2.17162 6.41753 0
M  V30 2625 H 252.949 -0.779411 7.03797 0
M  V30 2626 H 253.357 -1.48553 5.44603 0
M  V30 2627 N 252.755 -1.56801 0.158532 0
M  V30 2628 C 254.032 -1.88131 -0.535357 0
M  V30 2629 C 254.412 -1.06638 -1.82186 0
M  V30 2630 O 253.76 -0.156533 -2.27963 0
M  V30 2631 C 253.97 -3.39949 -0.789653 0
M  V30 2632 C 255.318 -4.09416 -1.12533 0
M  V30 2633 O 256.342 -3.45194 -0.878622 0
M  V30 2634 O 255.201 -5.22855 -1.59014 0
M  V30 2635 H 252.295 -0.780143 -0.27442 0
M  V30 2636 H 254.841 -1.68564 0.19601 0
M  V30 2637 H 253.613 -3.91115 0.120353 0
M  V30 2638 H 253.236 -3.65084 -1.57479 0
M  V30 2639 N 254.233 0.115231 -1.57178 0
M  V30 2640 C 255.481 0.820727 -1.84685 0
M  V30 2641 C 255.802 1.80237 -0.744279 0
M  V30 2642 O 255.072 1.94529 0.231375 0
M  V30 2643 H 253.652 0.306084 -0.681411 0
M  V30 2644 H 256.314 0.101656 -1.94635 0
M  V30 2645 H 255.41 1.36366 -2.80733 0
M  V30 2646 N 255.711 1.52812 0.385517 0
M  V30 2647 C 257.127 1.4214 0.725829 0
M  V30 2648 C 257.327 0.544589 1.94001 0
M  V30 2649 O 256.383 0.0193693 2.52493 0
M  V30 2650 C 257.696 2.85042 0.957668 0
M  V30 2651 C 259.244 2.94543 1.05892 0
M  V30 2652 C 259.719 4.38464 1.32337 0
M  V30 2653 N 261.21 4.41804 1.39151 0
M  V30 2654 C 261.945 5.5025 1.61285 0
M  V30 2655 N 261.441 6.68775 1.80866 0
M  V30 2656 N 263.234 5.37798 1.63492 0
M  V30 2657 H 255.385 2.08338 -0.413383 0
M  V30 2658 H 257.648 0.940016 -0.122775 0
M  V30 2659 H 257.354 3.51431 0.137568 0
M  V30 2660 H 257.228 3.27505 1.87137 0
M  V30 2661 H 259.615 2.28321 1.86959 0
M  V30 2662 H 259.696 2.55504 0.123057 0
M  V30 2663 H 259.34 5.05254 0.517793 0
M  V30 2664 H 259.27 4.75059 2.27214 0
M  V30 2665 H 261.761 3.56377 1.25713 0
M  V30 2666 H 262.074 7.47197 1.97271 0
M  V30 2667 H 260.419 6.71797 1.78083 0
M  V30 2668 H 263.61 4.44171 1.47749 0
M  V30 2669 H 263.783 6.22382 1.80402 0
M  V30 2670 N 257.189 -0.644168 1.43834 0
M  V30 2671 C 258.435 -1.40603 1.46146 0
M  V30 2672 C 258.768 -1.93997 0.0887717 0
M  V30 2673 O 258.043 -1.72854 -0.891724 0
M  V30 2674 C 258.326 -2.58086 2.51124 0
M  V30 2675 C 258.179 -2.10126 3.97702 0
M  V30 2676 C 259.498 -3.60291 2.52742 0
M  V30 2677 H 256.617 -0.509905 0.532134 0
M  V30 2678 H 259.259 -0.729502 1.75437 0
M  V30 2679 H 257.409 -3.15801 2.26278 0
M  V30 2680 H 259.081 -1.57342 4.33637 0
M  V30 2681 H 257.324 -1.41419 4.10101 0
M  V30 2682 H 257.995 -2.94649 4.66783 0
M  V30 2683 H 260.471 -3.12352 2.7491 0
M  V30 2684 H 259.347 -4.40032 3.28121 0
M  V30 2685 H 259.608 -4.1349 1.56455 0
M  V30 2686 N 258.668 -1.30515 -0.883378 0
M  V30 2687 C 259.578 -1.18959 -2.02203 0
M  V30 2688 C 260.594 -0.109172 -1.73657 0
M  V30 2689 O 261.77 -0.324413 -1.9877 0
M  V30 2690 C 258.835 -0.883871 -3.35244 0
M  V30 2691 C 257.896 -2.04982 -3.77201 0
M  V30 2692 C 257.129 -1.75859 -5.03894 0
M  V30 2693 O 257.352 -0.687276 -5.66244 0
M  V30 2694 O 256.286 -2.61146 -5.42297 0
M  V30 2695 H 260.112 -2.14616 -2.1488 0
M  V30 2696 H 257.697 -1.10124 -1.0096 0
M  V30 2697 H 259.579 -0.728644 -4.15053 0
M  V30 2698 H 258.254 0.0427798 -3.23672 0
M  V30 2699 H 257.161 -2.26038 -2.9809 0
M  V30 2700 H 258.494 -2.95825 -3.93381 0
M  V30 2701 N 260.146 1.09593 -1.13257 0
M  V30 2702 C 261.109 2.14359 -0.811358 0
M  V30 2703 C 262.109 1.59808 0.178377 0
M  V30 2704 O 263.299 1.74132 -0.0484911 0
M  V30 2705 C 260.431 3.40269 -0.207276 0
M  V30 2706 H 261.624 2.44284 -1.73969 0
M  V30 2707 H 259.177 1.25102 -0.936973 0
M  V30 2708 H 259.912 3.15969 0.73036 0
M  V30 2709 H 259.697 3.81154 -0.919992 0
M  V30 2710 H 261.187 4.176 0.000667944 0
M  V30 2711 N 261.624 0.925811 1.2754 0
M  V30 2712 C 262.873 0.561084 1.93739 0
M  V30 2713 C 263.186 -0.901685 1.73577 0
M  V30 2714 O 264.392 -1.37511 2.34101 0
M  V30 2715 C 262.848 0.952668 3.47062 0
M  V30 2716 C 262.456 2.43599 3.75983 0
M  V30 2717 C 264.2 0.659103 4.19352 0
M  V30 2718 C 262.107 2.76707 5.22673 0
M  V30 2719 H 261.037 0.206122 0.725279 0
M  V30 2720 H 263.688 1.12637 1.44863 0
M  V30 2721 H 262.07 0.316053 3.94737 0
M  V30 2722 H 263.244 3.12035 3.39073 0
M  V30 2723 H 261.559 2.70125 3.16893 0
M  V30 2724 H 264.156 0.882985 5.27359 0
M  V30 2725 H 264.499 -0.403607 4.14339 0
M  V30 2726 H 265.032 1.25473 3.77494 0
M  V30 2727 H 261.771 3.8188 5.32774 0
M  V30 2728 H 261.291 2.12919 5.60737 0
M  V30 2729 H 262.97 2.6435 5.90532 0
M  V30 2730 N 263.102 -1.41638 0.69111 0
M  V30 2731 C 264.049 -2.30789 0.0229705 0
M  V30 2732 C 265.019 -1.46863 -0.775911 0
M  V30 2733 O 266.204 -1.75661 -0.74485 0
M  V30 2734 C 263.344 -3.32868 -0.910666 0
M  V30 2735 C 262.457 -4.31875 -0.103874 0
M  V30 2736 C 261.592 -5.21024 -1.03475 0
M  V30 2737 C 260.631 -6.11702 -0.220598 0
M  V30 2738 N 259.768 -6.93349 -1.10504 0
M  V30 2739 H 264.608 -2.87366 0.788978 0
M  V30 2740 H 262.145 -1.41535 0.400794 0
M  V30 2741 H 264.103 -3.90596 -1.46597 0
M  V30 2742 H 262.733 -2.77851 -1.64312 0
M  V30 2743 H 261.785 -3.76131 0.568285 0
M  V30 2744 H 263.097 -4.96003 0.527504 0
M  V30 2745 H 262.251 -5.83565 -1.65943 0
M  V30 2746 H 260.99 -4.57112 -1.69999 0
M  V30 2747 H 259.995 -5.48215 0.417187 0
M  V30 2748 H 261.22 -6.77668 0.440784 0
M  V30 2749 H 259.166 -6.3205 -1.75638 0
M  V30 2750 H 259.083 -7.54146 -0.529125 0
M  V30 2751 H 260.351 -7.60362 -1.71667 0
M  V30 2752 N 264.58 -0.43555 -1.51462 0
M  V30 2753 C 265.49 0.383001 -2.31453 0
M  V30 2754 C 266.506 1.02931 -1.4029 0
M  V30 2755 O 267.682 1.02507 -1.73362 0
M  V30 2756 C 264.747 1.47043 -3.13973 0
M  V30 2757 C 263.808 0.844433 -4.20913 0
M  V30 2758 C 263.041 1.88004 -4.9949 0
M  V30 2759 O 263.264 3.10199 -4.78678 0
M  V30 2760 O 262.198 1.47157 -5.83634 0
M  V30 2761 H 266.024 -0.269964 -3.02498 0
M  V30 2762 H 263.609 -0.19813 -1.4808 0
M  V30 2763 H 265.491 2.10113 -3.65281 0
M  V30 2764 H 264.166 2.10751 -2.45695 0
M  V30 2765 H 263.073 0.175729 -3.73687 0
M  V30 2766 H 264.406 0.250869 -4.9156 0
M  V30 2767 N 266.058 1.56714 -0.166846 0
M  V30 2768 C 267.021 2.16539 0.751232 0
M  V30 2769 C 268.021 1.11228 1.16125 0
M  V30 2770 O 269.211 1.36765 1.07894 0
M  V30 2771 C 266.343 2.74462 2.02196 0
M  V30 2772 H 267.536 2.99013 0.230499 0
M  V30 2773 H 265.089 1.56081 0.0826982 0
M  V30 2774 H 265.824 1.95709 2.58589 0
M  V30 2775 H 265.609 3.51527 1.73698 0
M  V30 2776 H 267.099 3.20489 2.67725 0
M  V30 2777 N 267.536 -0.106894 1.57237 0
M  V30 2778 C 268.466 -1.13148 2.04254 0
M  V30 2779 C 269.447 -1.42476 0.929224 0
M  V30 2780 O 270.632 -1.52709 1.19973 0
M  V30 2781 C 267.762 -2.4545 2.45706 0
M  V30 2782 C 266.716 -2.30558 3.60592 0
M  V30 2783 C 266.042 -3.67931 3.87983 0
M  V30 2784 C 267.342 -1.75597 4.91897 0
M  V30 2785 H 269.036 -0.740374 2.90101 0
M  V30 2786 H 266.582 -0.354696 1.39563 0
M  V30 2787 H 268.535 -3.17389 2.77205 0
M  V30 2788 H 267.259 -2.86475 1.56843 0
M  V30 2789 H 265.918 -1.61067 3.29322 0
M  V30 2790 H 265.566 -4.06462 2.96306 0
M  V30 2791 H 265.266 -3.58817 4.65322 0
M  V30 2792 H 266.79 -4.41356 4.21945 0
M  V30 2793 H 268.204 -2.37364 5.21854 0
M  V30 2794 H 266.601 -1.77272 5.73319 0
M  V30 2795 H 267.671 -0.714451 4.79608 0
M  V30 2796 N 269.014 -1.53014 -0.377408 0
M  V30 2797 C 269.947 -1.73382 -1.48371 0
M  V30 2798 C 270.925 -0.581879 -1.51832 0
M  V30 2799 O 272.109 -0.81307 -1.70063 0
M  V30 2800 C 269.236 -1.80192 -2.8679 0
M  V30 2801 C 268.282 -3.02056 -3.01105 0
M  V30 2802 S 269.115 -4.61811 -2.71093 0
M  V30 2803 C 270.271 -4.71453 -4.11683 0
M  V30 2804 H 270.504 -2.66946 -1.30872 0
M  V30 2805 H 268.037 -1.43453 -0.571012 0
M  V30 2806 H 269.995 -1.84802 -3.6655 0
M  V30 2807 H 268.656 -0.877008 -3.01608 0
M  V30 2808 H 267.849 -3.03396 -4.02451 0
M  V30 2809 H 267.451 -2.95498 -2.29253 0
M  V30 2810 H 269.743 -4.50781 -5.0577 0
M  V30 2811 H 270.686 -5.73487 -4.15353 0
M  V30 2812 H 271.094 -4.00189 -3.98132 0
M  V30 2813 N 270.492 0.636531 -1.44174 0
M  V30 2814 C 271.455 1.73063 -1.50273 0
M  V30 2815 C 272.455 1.56113 -0.385397 0
M  V30 2816 O 273.645 1.61707 -0.64781 0
M  V30 2817 C 270.777 3.12096 -1.37145 0
M  V30 2818 H 271.97 1.69031 -2.47727 0
M  V30 2819 H 269.523 0.849706 -1.31186 0
M  V30 2820 H 270.258 3.21728 -0.407636 0
M  V30 2821 H 270.043 3.25805 -2.18159 0
M  V30 2822 H 271.533 3.91846 -1.44382 0
M  V30 2823 N 271.97 1.30982 0.876444 0
M  V30 2824 C 272.92 1.14688 1.97055 0
M  V30 2825 C 273.904 0.0596593 1.60789 0
M  V30 2826 O 275.096 0.283892 1.74708 0
M  V30 2827 C 272.225 0.849627 3.3262 0
M  V30 2828 C 271.311 1.97752 3.75173 0
M  V30 2829 N 271.702 3.22384 3.89746 0
M  V30 2830 C 270 1.8758 4.04635 0
M  V30 2831 C 270.701 3.96121 4.25985 0
M  V30 2832 N 269.677 3.24237 4.36315 0
M  V30 2833 H 273.479 2.09204 2.06424 0
M  V30 2834 H 270.993 1.22445 1.06682 0
M  V30 2835 H 272.99 0.713895 4.10742 0
M  V30 2836 H 271.65 -0.087376 3.24582 0
M  V30 2837 H 272.661 3.57575 3.74647 0
M  V30 2838 H 269.338 1.01303 4.05024 0
M  V30 2839 H 270.728 5.03491 4.44911 0
M  V30 2840 N 273.449 -1.08991 1.13837 0
M  V30 2841 C 274.697 -1.80899 0.901098 0
M  V30 2842 C 275.018 -1.86356 -0.574134 0
M  V30 2843 O 274.288 -1.35235 -1.41733 0
M  V30 2844 H 272.868 -0.669966 0.330386 0
M  V30 2845 H 275.53 -1.318 1.43578 0
M  V30 2846 H 274.626 -2.83929 1.29578 0
M  V30 2847 N 274.927 -0.932562 -1.27047 0
M  V30 2848 C 275.857 -0.452902 -2.29066 0
M  V30 2849 C 276.838 0.489338 -1.62909 0
M  V30 2850 O 278.023 0.393046 -1.90181 0
M  V30 2851 C 275.153 0.290698 -3.46081 0
M  V30 2852 C 274.107 -0.564168 -4.24265 0
M  V30 2853 C 273.433 0.308886 -5.33807 0
M  V30 2854 C 274.733 -1.83112 -4.89149 0
M  V30 2855 H 276.427 -1.30552 -2.69437 0
M  V30 2856 H 273.973 -0.629201 -1.29526 0
M  V30 2857 H 275.926 0.637233 -4.16554 0
M  V30 2858 H 274.65 1.17738 -3.0464 0
M  V30 2859 H 273.309 -0.893477 -3.55545 0
M  V30 2860 H 272.957 1.19467 -4.88607 0
M  V30 2861 H 272.657 -0.259633 -5.87026 0
M  V30 2862 H 274.181 0.650884 -6.07121 0
M  V30 2863 H 275.595 -1.55236 -5.51883 0
M  V30 2864 H 273.992 -2.34353 -5.52448 0
M  V30 2865 H 275.062 -2.54772 -4.12576 0
M  V30 2866 N 276.405 1.4127 -0.698611 0
M  V30 2867 C 277.653 2.00782 -0.230409 0
M  V30 2868 C 277.974 1.5562 1.17505 0
M  V30 2869 O 277.244 0.78815 1.79346 0
M  V30 2870 H 275.824 0.742464 -0.0821944 0
M  V30 2871 H 278.486 1.72852 -0.90045 0
M  V30 2872 H 277.582 3.11095 -0.25021 0
M  V30 2873 N 277.883 0.443576 1.51229 0
M  V30 2874 C 278.831 -0.37904 2.29491 0
M  V30 2875 C 279.825 -1.0153 1.35603 0
M  V30 2876 O 281.031 -0.94955 1.52917 0
M  V30 2877 H 277.406 -0.141053 0.738653 0
M  V30 2878 H 279.377 0.301799 2.9687 0
M  V30 2879 C 278.126 -1.46426 3.15364 0
M  V30 2880 H 277.449 -0.984037 3.87501 0
M  V30 2881 H 278.889 -2.01297 3.7317 0
M  V30 2882 C 277.348 -2.45099 2.31146 0
M  V30 2883 O 277.878 -3.49773 1.9754 0
M  V30 2884 N 276.084 -2.16139 1.94249 0
M  V30 2885 H 275.631 -1.31044 2.21777 0
M  V30 2886 H 275.589 -2.82398 1.38198 0
M  V30 2887 N 279.361 -1.56624 0.175154 0
M  V30 2888 C 280.777 -1.58571 -0.180966 0
M  V30 2889 C 280.977 -1.19065 -1.6256 0
M  V30 2890 O 280.033 -0.904044 -2.35761 0
M  V30 2891 C 281.346 -3.00522 0.103326 0
M  V30 2892 C 282.894 -3.12972 0.0418426 0
M  V30 2893 C 283.369 -4.57022 0.299175 0
M  V30 2894 N 284.86 -4.62541 0.247086 0
M  V30 2895 C 285.595 -5.71857 0.420318 0
M  V30 2896 N 285.091 -6.89717 0.652816 0
M  V30 2897 N 286.884 -5.60972 0.355957 0
M  V30 2898 H 279.035 -1.80589 1.11809 0
M  V30 2899 H 281.298 -0.837178 0.444788 0
M  V30 2900 H 281.004 -3.33916 1.10422 0
M  V30 2901 H 280.878 -3.72344 -0.603299 0
M  V30 2902 H 283.265 -2.79403 -0.949636 0
M  V30 2903 H 283.346 -2.43578 0.781238 0
M  V30 2904 H 282.99 -4.913 1.28788 0
M  V30 2905 H 282.92 -5.24579 -0.460876 0
M  V30 2906 H 285.411 -3.77829 0.0731895 0
M  V30 2907 H 285.724 -7.68911 0.774347 0
M  V30 2908 H 284.069 -6.91572 0.689476 0
M  V30 2909 H 287.26 -4.67773 0.174882 0
M  V30 2910 H 287.433 -6.46111 0.494388 0
M  V30 2911 N 280.839 0.0985539 -1.57292 0
M  V30 2912 C 282.085 0.803867 -1.86188 0
M  V30 2913 C 282.418 1.78549 -0.763794 0
M  V30 2914 O 281.693 1.93153 0.22855 0
M  V30 2915 C 281.976 1.53568 -3.25713 0
M  V30 2916 C 281.829 0.572277 -4.46145 0
M  V30 2917 C 283.148 2.48708 -3.63087 0
M  V30 2918 H 280.267 0.290781 -0.677211 0
M  V30 2919 H 282.909 0.0675783 -1.8988 0
M  V30 2920 H 281.059 2.16332 -3.22696 0
M  V30 2921 H 282.731 -0.0480894 -4.61275 0
M  V30 2922 H 280.974 -0.114618 -4.33649 0
M  V30 2923 H 281.645 1.12139 -5.40489 0
M  V30 2924 H 284.121 1.96039 -3.67026 0
M  V30 2925 H 282.997 2.96932 -4.61652 0
M  V30 2926 H 283.258 3.32309 -2.91588 0
M  V30 2927 N 282.317 1.53212 0.369288 0
M  V30 2928 C 283.542 1.73423 1.1375 0
M  V30 2929 C 283.967 0.460404 1.82378 0
M  V30 2930 O 283.325 -0.585298 1.71592 0
M  V30 2931 C 283.373 2.89769 2.1463 0
M  V30 2932 O 282.477 2.58119 3.21634 0
M  V30 2933 H 281.818 0.576061 0.330227 0
M  V30 2934 H 284.348 2.00083 0.427547 0
M  V30 2935 H 284.358 3.15829 2.58294 0
M  V30 2936 H 283.033 3.8217 1.64071 0
M  V30 2937 H 281.61 2.42864 2.82969 0
M  V30 2938 N 283.795 -0.628877 1.44509 0
M  V30 2939 C 285.041 -1.39045 1.47629 0
M  V30 2940 C 285.374 -1.93892 0.109343 0
M  V30 2941 O 284.649 -1.7379 -0.87334 0
M  V30 2942 C 284.932 -2.55408 2.53848 0
M  V30 2943 C 284.785 -2.05896 3.99909 0
M  V30 2944 C 286.104 -3.5759 2.56549 0
M  V30 2945 H 283.223 -0.504232 0.537512 0
M  V30 2946 H 285.865 -0.710854 1.76201 0
M  V30 2947 H 284.015 -3.13384 2.29615 0
M  V30 2948 H 285.687 -1.52734 4.35282 0
M  V30 2949 H 283.93 -1.37061 4.11578 0
M  V30 2950 H 284.601 -2.89681 4.69882 0
M  V30 2951 H 287.077 -3.09419 2.78207 0
M  V30 2952 H 285.953 -4.36527 3.32769 0
M  V30 2953 H 286.214 -4.11808 1.60832 0
M  V30 2954 N 285.273 -1.31445 -0.869486 0
M  V30 2955 C 286.206 -1.13465 -1.97992 0
M  V30 2956 C 287.184 -0.0380291 -1.62556 0
M  V30 2957 O 288.368 -0.194544 -1.87493 0
M  V30 2958 C 285.495 -0.733822 -3.30655 0
M  V30 2959 C 284.541 -1.83356 -3.85075 0
M  V30 2960 S 285.374 -3.43909 -4.10472 0
M  V30 2961 C 286.53 -3.05763 -5.46132 0
M  V30 2962 H 286.763 -2.07471 -2.1294 0
M  V30 2963 H 284.296 -1.15936 -1.01972 0
M  V30 2964 H 286.254 -0.509306 -4.07328 0
M  V30 2965 H 284.915 0.187123 -3.13542 0
M  V30 2966 H 284.108 -1.50574 -4.80982 0
M  V30 2967 H 283.71 -2.01315 -3.15195 0
M  V30 2968 H 286.002 -2.54686 -6.27807 0
M  V30 2969 H 286.945 -4.00635 -5.83864 0
M  V30 2970 H 287.353 -2.43192 -5.09429 0
M  V30 2971 N 286.751 1.08385 -1.14413 0
M  V30 2972 C 287.976 1.85057 -0.936413 0
M  V30 2973 C 288.401 1.81055 0.509971 0
M  V30 2974 O 287.759 1.1958 1.36273 0
M  V30 2975 C 287.807 3.30505 -1.44217 0
M  V30 2976 O 286.911 4.07491 -0.634409 0
M  V30 2977 H 286.252 0.573425 -0.334784 0
M  V30 2978 H 288.782 1.36799 -1.52142 0
M  V30 2979 H 288.792 3.81348 -1.45043 0
M  V30 2980 H 287.467 3.32734 -2.49522 0
M  V30 2981 H 286.044 3.66368 -0.694902 0
M  V30 2982 N 288.23 0.939286 1.26551 0
M  V30 2983 C 289.46 0.601663 1.97645 0
M  V30 2984 C 289.868 -0.827206 1.70159 0
M  V30 2985 O 289.211 -1.56291 0.965338 0
M  V30 2986 C 289.273 0.761725 3.51337 0
M  V30 2987 C 288.937 2.16487 4.0247 0
M  V30 2988 C 289.934 3.14016 4.14355 0
M  V30 2989 C 287.619 2.48494 4.36527 0
M  V30 2990 C 289.613 4.41654 4.59587 0
M  V30 2991 C 287.3 3.76364 4.81449 0
M  V30 2992 C 288.298 4.72758 4.92939 0
M  V30 2993 O 287.986 5.98352 5.36871 0
M  V30 2994 H 287.718 0.225758 0.637189 0
M  V30 2995 H 290.272 1.26178 1.62075 0
M  V30 2996 H 288.502 0.0444808 3.86674 0
M  V30 2997 H 290.191 0.427442 4.03643 0
M  V30 2998 H 290.957 2.90613 3.8829 0
M  V30 2999 H 286.836 1.74202 4.26819 0
M  V30 3000 H 290.38 5.16896 4.68471 0
M  V30 3001 H 286.277 3.99582 5.06956 0
M  V30 3002 H 287.045 6.01507 5.55096 0
M  V30 3003 N 289.708 -1.40897 0.706093 0
M  V30 3004 C 290.933 -2.05895 0.249435 0
M  V30 3005 C 291.358 -1.52823 -1.09666 0
M  V30 3006 O 290.716 -0.659589 -1.68876 0
M  V30 3007 C 290.764 -3.59872 0.22904 0
M  V30 3008 O 289.868 -4.04708 -0.792784 0
M  V30 3009 H 289.209 -0.653206 0.119241 0
M  V30 3010 H 291.739 -1.80471 0.96391 0
M  V30 3011 H 291.749 -4.07951 0.0634791 0
M  V30 3012 H 290.424 -3.97866 1.21141 0
M  V30 3013 H 289.001 -3.68111 -0.59572 0
M  V30 3014 N 291.186 -0.45159 -1.50991 0
M  V30 3015 C 292.149 0.341117 -2.26647 0
M  V30 3016 C 293.149 0.937422 -1.30649 0
M  V30 3017 O 294.339 0.809644 -1.54241 0
M  V30 3018 C 291.471 1.48398 -3.06905 0
M  V30 3019 H 292.664 -0.322117 -2.98165 0
M  V30 3020 H 290.217 -0.205122 -1.54948 0
M  V30 3021 H 290.952 2.18284 -2.39838 0
M  V30 3022 H 290.737 1.06241 -3.77432 0
M  V30 3023 H 292.227 2.04367 -3.64176 0
M  V30 3024 N 292.664 1.56529 -0.183458 0
M  V30 3025 C 293.611 2.18546 0.742055 0
M  V30 3026 C 294.581 1.12912 1.2182 0
M  V30 3027 O 295.766 1.41115 1.28418 0
M  V30 3028 C 292.906 2.83977 1.96089 0
M  V30 3029 C 292.019 4.04105 1.52719 0
M  V30 3030 C 291.154 4.57427 2.70063 0
M  V30 3031 C 290.193 5.69938 2.23243 0
M  V30 3032 N 289.33 6.17717 3.33722 0
M  V30 3033 H 294.17 2.97284 0.206432 0
M  V30 3034 H 291.707 1.46823 0.0901571 0
M  V30 3035 H 293.665 3.20077 2.67594 0
M  V30 3036 H 292.295 2.07822 2.47002 0
M  V30 3037 H 291.347 3.73745 0.708436 0
M  V30 3038 H 292.659 4.85513 1.1436 0
M  V30 3039 H 291.813 4.95772 3.49708 0
M  V30 3040 H 290.552 3.75101 3.11689 0
M  V30 3041 H 289.557 5.31133 1.42048 0
M  V30 3042 H 290.782 6.54073 1.82661 0
M  V30 3043 H 288.728 5.38317 3.74902 0
M  V30 3044 H 288.645 6.94146 2.99495 0
M  V30 3045 H 289.913 6.60713 4.13616 0
M  V30 3046 N 294.142 -0.090211 1.57342 0
M  V30 3047 C 295.389 -0.792807 1.86335 0
M  V30 3048 C 295.717 -1.78494 0.772662 0
M  V30 3049 O 294.972 -1.94305 -0.233258 0
M  V30 3050 C 295.271 -1.55222 3.21933 0
M  V30 3051 C 294.937 -0.701765 4.45406 0
M  V30 3052 C 293.599 -0.467334 4.78925 0
M  V30 3053 C 295.951 -0.11086 5.21082 0
M  V30 3054 C 293.279 0.367785 5.85546 0
M  V30 3055 C 295.631 0.711609 6.28585 0
M  V30 3056 C 294.295 0.956086 6.60617 0
M  V30 3057 H 293.565 -0.290109 0.681849 0
M  V30 3058 H 296.212 -0.0541332 1.91423 0
M  V30 3059 H 294.517 -2.3626 3.12551 0
M  V30 3060 H 296.214 -2.10032 3.41595 0
M  V30 3061 H 292.804 -0.894598 4.1916 0
M  V30 3062 H 296.988 -0.279129 4.95514 0
M  V30 3063 H 292.244 0.566128 6.08773 0
M  V30 3064 H 296.418 1.17632 6.86393 0
M  V30 3065 H 294.045 1.60499 7.43064 0
M  V30 3066 N 295.62 -1.53406 -0.361157 0
M  V30 3067 C 296.583 -1.79479 -1.42548 0
M  V30 3068 C 297.583 -0.665327 -1.4639 0
M  V30 3069 O 298.773 -0.933549 -1.47073 0
M  V30 3070 C 295.905 -1.92087 -2.8163 0
M  V30 3071 H 297.098 -2.74538 -1.20701 0
M  V30 3072 H 294.651 -1.4455 -0.594546 0
M  V30 3073 H 295.386 -0.991099 -3.08784 0
M  V30 3074 H 295.171 -2.74241 -2.80239 0
M  V30 3075 H 296.661 -2.13836 -3.58697 0
M  V30 3076 N 297.098 0.621204 -1.44841 0
M  V30 3077 C 298.323 1.41244 -1.51871 0
M  V30 3078 C 298.748 1.87519 -0.147764 0
M  V30 3079 O 298.106 1.59334 0.865 0
M  V30 3080 C 298.154 2.60221 -2.49634 0
M  V30 3081 O 297.258 3.60395 -2.00473 0
M  V30 3082 H 296.599 0.42223 -0.512463 0
M  V30 3083 H 299.129 0.757305 -1.90069 0
M  V30 3084 H 299.139 3.0764 -2.67996 0
M  V30 3085 H 297.814 2.25887 -3.4921 0
M  V30 3086 H 296.391 3.19717 -1.91925 0
M  V30 3087 N 298.576 1.31904 0.862503 0
M  V30 3088 C 299.816 1.23324 1.63004 0
M  V30 3089 C 300.18 -0.203724 1.90916 0
M  V30 3090 O 301.381 -0.413132 2.65606 0
M  V30 3091 C 299.652 2.06116 2.91978 0
M  V30 3092 S 301.211 2.14478 3.82812 0
M  V30 3093 H 298.029 0.439117 0.559193 0
M  V30 3094 H 300.631 1.66658 1.02202 0
M  V30 3095 H 299.335 3.09593 2.69407 0
M  V30 3096 H 298.866 1.6353 3.57801 0
M  V30 3097 H 300.881 1.28855 4.79177 0
M  V30 3098 N 300.054 -1.07777 1.14986 0
M  V30 3099 C 301.301 -1.8029 0.922056 0
M  V30 3100 C 301.629 -1.86531 -0.55105 0
M  V30 3101 O 300.884 -1.34189 -1.42449 0
M  V30 3102 C 301.183 -3.25495 1.47608 0
M  V30 3103 C 300.849 -3.39361 2.96893 0
M  V30 3104 C 299.511 -3.42852 3.37647 0
M  V30 3105 C 301.863 -3.42512 3.92854 0
M  V30 3106 C 299.191 -3.47094 4.73015 0
M  V30 3107 C 301.543 -3.4829 5.28088 0
M  V30 3108 C 300.207 -3.50058 5.68345 0
M  V30 3109 H 299.477 -0.659727 0.337404 0
M  V30 3110 H 302.124 -1.26854 1.43459 0
M  V30 3111 H 300.429 -3.81683 0.88463 0
M  V30 3112 H 302.126 -3.80168 1.27568 0
M  V30 3113 H 298.716 -3.37339 2.64387 0
M  V30 3114 H 302.9 -3.3904 3.62444 0
M  V30 3115 H 298.156 -3.46758 5.03556 0
M  V30 3116 H 302.33 -3.49675 6.02246 0
M  V30 3117 H 299.957 -3.53097 6.73221 0
M  V30 3118 N 301.532 -0.945985 -1.26051 0
M  V30 3119 C 302.762 -0.612136 -1.97323 0
M  V30 3120 C 303.17 0.818171 -1.70595 0
M  V30 3121 O 302.513 1.55777 -0.973613 0
M  V30 3122 C 302.575 -0.780347 -3.50929 0
M  V30 3123 C 302.239 -2.18619 -4.01317 0
M  V30 3124 C 303.236 -3.16209 -4.12683 0
M  V30 3125 C 300.921 -2.50805 -4.35203 0
M  V30 3126 C 302.915 -4.44085 -4.57238 0
M  V30 3127 C 300.602 -3.78912 -4.79446 0
M  V30 3128 C 301.6 -4.75365 -4.90425 0
M  V30 3129 O 301.288 -6.01191 -5.3369 0
M  V30 3130 H 301.02 -0.229134 -0.635982 0
M  V30 3131 H 303.574 -1.27036 -1.61404 0
M  V30 3132 H 301.804 -0.0649864 -3.86645 0
M  V30 3133 H 303.493 -0.448842 -4.03411 0
M  V30 3134 H 304.259 -2.92668 -3.86744 0
M  V30 3135 H 300.138 -1.76463 -4.2589 0
M  V30 3136 H 303.682 -5.19373 -4.65723 0
M  V30 3137 H 299.579 -4.02265 -5.0483 0
M  V30 3138 H 300.347 -6.04442 -5.51899 0
M  V30 3139 N 303.011 1.40521 -0.713556 0
M  V30 3140 C 304.259 2.00527 -0.251692 0
M  V30 3141 C 304.58 1.56857 1.15848 0
M  V30 3142 O 303.85 0.807127 1.785 0
M  V30 3143 H 302.43 0.741551 -0.0900646 0
M  V30 3144 H 305.092 1.71887 -0.918733 0
M  V30 3145 H 304.188 3.10813 -0.283192 0
M  V30 3146 N 304.489 0.459591 1.5075 0
M  V30 3147 C 305.9 0.00171547 1.867 0
M  V30 3148 C 306.251 -1.39934 1.37525 0
M  V30 3149 O 305.376 -2.03523 0.735349 0
M  V30 3150 C 305.971 -0.00366298 3.388 0
M  V30 3151 C 304.53 -0.406026 3.74204 0
M  V30 3152 C 303.677 0.38673 2.7459 0
M  V30 3153 H 306.628 0.674413 1.43657 0
M  V30 3154 H 306.649 -0.808371 3.71814 0
M  V30 3155 H 306.161 1.01617 3.74561 0
M  V30 3156 H 304.262 -1.43063 3.4404 0
M  V30 3157 H 304.375 -0.115362 4.78961 0
M  V30 3158 H 302.739 -0.158019 2.54209 0
M  V30 3159 H 303.522 1.40585 3.13194 0
M  V30 3160 N 305.967 -1.56429 0.191757 0
M  V30 3161 C 307.214 -1.97485 -0.447891 0
M  V30 3162 C 307.542 -1.07852 -1.61859 0
M  V30 3163 O 306.797 -0.116903 -1.95351 0
M  V30 3164 C 307.096 -3.44449 -0.953384 0
M  V30 3165 C 306.762 -4.50781 0.103586 0
M  V30 3166 C 305.424 -4.79584 0.394023 0
M  V30 3167 C 307.776 -5.1471 0.819946 0
M  V30 3168 C 305.104 -5.69607 1.40585 0
M  V30 3169 C 307.456 -6.05827 1.8209 0
M  V30 3170 C 306.12 -6.32987 2.11857 0
M  V30 3171 H 305.39 -0.722648 -0.163895 0
M  V30 3172 H 308.037 -1.89322 0.28802 0
M  V30 3173 H 306.342 -3.49666 -1.76751 0
M  V30 3174 H 308.039 -3.73569 -1.45765 0
M  V30 3175 H 304.629 -4.28394 -0.132951 0
M  V30 3176 H 308.813 -4.92552 0.608789 0
M  V30 3177 H 304.069 -5.88926 1.64243 0
M  V30 3178 H 308.243 -6.54424 2.38123 0
M  V30 3179 H 305.87 -7.02544 2.90407 0
M  V30 3180 N 307.445 0.0818655 -1.57387 0
M  V30 3181 C 308.861 0.436412 -1.53517 0
M  V30 3182 C 309.061 1.79758 -0.910459 0
M  V30 3183 O 308.117 2.47324 -0.508636 0
M  V30 3184 C 309.43 0.386734 -2.98203 0
M  V30 3185 C 310.978 0.467644 -3.09487 0
M  V30 3186 C 311.453 0.447978 -4.55804 0
M  V30 3187 N 312.944 0.508348 -4.60402 0
M  V30 3188 C 313.679 0.515184 -5.71081 0
M  V30 3189 N 313.175 0.477435 -6.91153 0
M  V30 3190 N 314.968 0.560988 -5.59294 0
M  V30 3191 H 307.119 -0.809546 -1.96367 0
M  V30 3192 H 309.382 -0.302733 -0.898363 0
M  V30 3193 H 309.088 -0.546539 -3.47427 0
M  V30 3194 H 308.962 1.20075 -3.57578 0
M  V30 3195 H 311.349 1.39134 -2.60242 0
M  V30 3196 H 311.43 -0.374753 -2.5304 0
M  V30 3197 H 311.074 -0.471826 -5.05704 0
M  V30 3198 H 311.004 1.30777 -5.10103 0
M  V30 3199 H 313.495 0.54218 -3.7399 0
M  V30 3200 H 313.808 0.486299 -7.71268 0
M  V30 3201 H 312.153 0.444278 -6.93579 0
M  V30 3202 H 315.344 0.5881 -4.64391 0
M  V30 3203 H 315.517 0.562846 -6.45551 0
M  V30 3204 N 308.923 1.53595 0.353017 0
M  V30 3205 C 310.2 1.61002 1.11075 0
M  V30 3206 C 310.58 0.425356 2.0677 0
M  V30 3207 O 309.928 -0.583267 2.2093 0
M  V30 3208 C 310.138 2.96631 1.83877 0
M  V30 3209 C 311.486 3.51653 2.37961 0
M  V30 3210 O 312.51 2.98743 1.93987 0
M  V30 3211 O 311.369 4.44177 3.18386 0
M  V30 3212 H 308.463 0.650825 0.510251 0
M  V30 3213 H 311.009 1.6594 0.35527 0
M  V30 3214 H 309.781 3.74293 1.14108 0
M  V30 3215 H 309.404 2.95242 2.66304 0
M  V30 3216 N 310.401 -0.613514 1.45168 0
M  V30 3217 C 311.364 -1.7065 1.53007 0
M  V30 3218 C 312.364 -1.5548 0.410184 0
M  V30 3219 O 313.554 -1.60656 0.673455 0
M  V30 3220 C 310.686 -3.09875 1.42093 0
M  V30 3221 H 311.879 -1.65068 2.50385 0
M  V30 3222 H 309.432 -0.828728 1.32521 0
M  V30 3223 H 310.167 -3.21039 0.458769 0
M  V30 3224 H 309.952 -3.22293 2.23315 0
M  V30 3225 H 311.442 -3.895 1.50598 0
M  V30 3226 N 311.879 -1.3236 -0.855495 0
M  V30 3227 C 312.842 -1.21164 -1.94556 0
M  V30 3228 C 313.842 -0.134908 -1.60233 0
M  V30 3229 O 315.032 -0.385249 -1.69887 0
M  V30 3230 C 312.164 -0.863192 -3.29791 0
M  V30 3231 H 313.357 -2.18038 -2.05911 0
M  V30 3232 H 310.91 -1.16179 -1.04557 0
M  V30 3233 H 311.645 0.103769 -3.24134 0
M  V30 3234 H 311.43 -1.64166 -3.56078 0
M  V30 3235 H 312.92 -0.809156 -4.09686 0
M  V30 3236 N 313.357 1.07166 -1.15556 0
M  V30 3237 C 314.304 2.14417 -0.854055 0
M  V30 3238 C 315.274 1.64965 0.193806 0
M  V30 3239 O 316.459 1.90703 0.0609443 0
M  V30 3240 C 313.599 3.43304 -0.351574 0
M  V30 3241 C 312.712 4.06537 -1.46123 0
M  V30 3242 C 311.847 5.23266 -0.914677 0
M  V30 3243 C 310.886 5.78464 -2.00114 0
M  V30 3244 N 310.023 6.86521 -1.47083 0
M  V30 3245 H 314.863 2.39548 -1.77259 0
M  V30 3246 H 312.4 1.17543 -0.884425 0
M  V30 3247 H 314.358 4.17179 -0.0419409 0
M  V30 3248 H 312.988 3.18419 0.530037 0
M  V30 3249 H 312.04 3.30297 -1.88701 0
M  V30 3250 H 313.352 4.43567 -2.28144 0
M  V30 3251 H 312.506 6.04131 -0.557698 0
M  V30 3252 H 311.245 4.87658 -0.0636583 0
M  V30 3253 H 310.25 4.96243 -2.36692 0
M  V30 3254 H 311.475 6.16126 -2.85597 0
M  V30 3255 H 309.421 6.52849 -0.642198 0
M  V30 3256 H 309.338 7.22446 -2.22729 0
M  V30 3257 H 310.606 7.71087 -1.14215 0
M  V30 3258 N 314.835 0.952656 1.25548 0
M  V30 3259 C 316.06 0.623025 1.97821 0
M  V30 3260 C 316.485 -0.7976 1.70352 0
M  V30 3261 O 315.843 -1.53905 0.958283 0
M  V30 3262 C 315.891 0.885532 3.49558 0
M  V30 3263 O 314.995 -0.0366641 4.12384 0
M  V30 3264 H 314.336 0.237082 0.620232 0
M  V30 3265 H 316.866 1.27871 1.59719 0
M  V30 3266 H 316.876 0.811009 3.99858 0
M  V30 3267 H 315.551 1.92094 3.6888 0
M  V30 3268 H 314.128 0.0898954 3.72792 0
M  V30 3269 N 316.313 -1.40141 0.720998 0
M  V30 3270 C 317.538 -2.05618 0.271258 0
M  V30 3271 C 317.963 -1.53978 -1.08039 0
M  V30 3272 O 317.321 -0.677463 -1.68167 0
M  V30 3273 C 317.369 -3.59609 0.267197 0
M  V30 3274 O 316.473 -4.05526 -0.749814 0
M  V30 3275 H 315.814 -0.651904 0.126162 0
M  V30 3276 H 318.344 -1.79439 0.982997 0
M  V30 3277 H 318.354 -4.0786 0.106744 0
M  V30 3278 H 317.029 -3.96559 1.25354 0
M  V30 3279 H 315.606 -3.68722 -0.556644 0
M  V30 3280 N 317.792 -0.46758 -1.50504 0
M  V30 3281 C 319.203 -0.0116166 -1.86696 0
M  V30 3282 C 319.554 1.39202 -1.38265 0
M  V30 3283 O 318.679 2.0313 -0.746132 0
M  V30 3284 C 319.274 -0.0143044 -3.38797 0
M  V30 3285 C 317.833 0.386175 -3.74414 0
M  V30 3286 C 316.98 -0.401287 -2.74381 0
M  V30 3287 H 319.931 -0.682022 -1.43297 0
M  V30 3288 H 319.952 0.788641 -3.72237 0
M  V30 3289 H 319.464 -1.03602 -3.74016 0
M  V30 3290 H 317.565 1.41237 -3.44794 0
M  V30 3291 H 317.678 0.0899596 -4.79016 0
M  V30 3292 H 316.042 0.144536 -2.5429 0
M  V30 3293 H 316.825 -1.42244 -3.12444 0
M  V30 3294 N 319.27 1.56325 -0.20005 0
M  V30 3295 C 320.233 2.18084 0.705132 0
M  V30 3296 C 321.233 1.13666 1.1374 0
M  V30 3297 O 322.423 1.39023 1.04968 0
M  V30 3298 C 319.555 2.78689 1.96329 0
M  V30 3299 H 320.748 2.99435 0.167023 0
M  V30 3300 H 318.301 1.56221 0.0495725 0
M  V30 3301 H 319.036 2.0115 2.5438 0
M  V30 3302 H 318.821 3.55133 1.66202 0
M  V30 3303 H 320.311 3.26096 2.60866 0
M  V30 3304 N 320.748 -0.0735177 1.57428 0
M  V30 3305 C 321.995 -0.772999 1.87166 0
M  V30 3306 C 322.323 -1.77665 0.791551 0
M  V30 3307 O 321.578 -1.94541 -0.212636 0
M  V30 3308 C 321.877 -1.51799 3.23561 0
M  V30 3309 C 321.543 -0.654484 4.46125 0
M  V30 3310 C 320.205 -0.416511 4.79394 0
M  V30 3311 C 322.557 -0.0555862 5.2117 0
M  V30 3312 C 319.885 0.429869 5.85123 0
M  V30 3313 C 322.237 0.778239 6.27795 0
M  V30 3314 C 320.901 1.0261 6.59566 0
M  V30 3315 H 320.171 -0.282861 0.684888 0
M  V30 3316 H 322.818 -0.0338272 1.9147 0
M  V30 3317 H 321.123 -2.32932 3.1504 0
M  V30 3318 H 322.82 -2.06397 3.43804 0
M  V30 3319 H 319.41 -0.850091 4.20085 0
M  V30 3320 H 323.594 -0.226558 4.95783 0
M  V30 3321 H 318.85 0.630665 6.08139 0
M  V30 3322 H 323.024 1.24906 6.85107 0
M  V30 3323 H 320.651 1.68371 7.4132 0
M  V30 3324 N 322.226 -1.5378 -0.344866 0
M  V30 3325 C 323.474 -1.70625 -1.08311 0
M  V30 3326 C 323.795 -0.471447 -1.89215 0
M  V30 3327 O 323.065 0.514616 -1.8902 0
M  V30 3328 H 321.645 -0.629058 -0.402859 0
M  V30 3329 H 324.307 -1.9103 -0.386459 0
M  V30 3330 H 323.403 -2.57656 -1.76124 0
M  V30 3331 N 323.704 0.605807 -1.45491 0
M  V30 3332 C 324.981 1.36522 -1.40075 0
M  V30 3333 C 325.361 2.10976 -0.0722744 0
M  V30 3334 O 324.709 2.08007 0.945808 0
M  V30 3335 C 324.919 2.31056 -2.61561 0
M  V30 3336 C 326.267 2.93608 -3.06724 0
M  V30 3337 O 327.291 2.41376 -2.61946 0
M  V30 3338 O 326.15 3.88421 -3.84437 0
M  V30 3339 H 323.244 0.612248 -0.555951 0
M  V30 3340 H 325.79 0.628747 -1.57623 0
M  V30 3341 H 324.562 1.75311 -3.49831 0
M  V30 3342 H 324.185 3.12081 -2.46356 0
M  V30 3343 N 325.182 1.32811 0.848464 0
M  V30 3344 C 326.598 1.11937 1.13764 0
M  V30 3345 C 326.798 -0.0960789 2.01271 0
M  V30 3346 O 325.854 -0.779165 2.40178 0
M  V30 3347 C 327.167 2.402 1.809 0
M  V30 3348 C 328.715 2.46016 1.93508 0
M  V30 3349 C 329.19 3.74215 2.64059 0
M  V30 3350 N 330.681 3.75232 2.71579 0
M  V30 3351 C 331.416 4.71134 3.26833 0
M  V30 3352 N 330.912 5.77406 3.8285 0
M  V30 3353 N 332.705 4.58623 3.24995 0
M  V30 3354 H 324.856 2.1073 0.265855 0
M  V30 3355 H 327.119 0.930671 0.180431 0
M  V30 3356 H 326.825 3.29093 1.24058 0
M  V30 3357 H 326.699 2.51628 2.81004 0
M  V30 3358 H 329.086 1.57577 2.49506 0
M  V30 3359 H 329.167 2.38536 0.923811 0
M  V30 3360 H 328.811 4.63031 2.08722 0
M  V30 3361 H 328.741 3.78968 3.65637 0
M  V30 3362 H 331.232 2.98423 2.31845 0
M  V30 3363 H 331.545 6.46632 4.23187 0
M  V30 3364 H 329.89 5.81152 3.81165 0
M  V30 3365 H 333.081 3.74762 2.80484 0
M  V30 3366 H 333.254 5.33535 3.67756 0
M  V30 3367 N 326.66 -1.06551 1.16123 0
M  V30 3368 C 328.076 -1.3142 0.905585 0
M  V30 3369 C 328.276 -1.96571 -0.442964 0
M  V30 3370 O 327.332 -2.23068 -1.18308 0
M  V30 3371 C 328.645 -2.19741 2.05267 0
M  V30 3372 C 330.193 -2.33165 2.08813 0
M  V30 3373 C 330.668 -3.24838 3.22868 0
M  V30 3374 N 332.159 -3.32421 3.22568 0
M  V30 3375 C 332.894 -4.0344 4.0746 0
M  V30 3376 N 332.39 -4.77003 5.02434 0
M  V30 3377 N 334.183 -3.99464 3.95456 0
M  V30 3378 H 326.334 -0.626548 2.02949 0
M  V30 3379 H 328.597 -0.338777 0.8854 0
M  V30 3380 H 328.303 -1.79142 3.02657 0
M  V30 3381 H 328.177 -3.20313 1.99198 0
M  V30 3382 H 330.564 -2.73013 1.12018 0
M  V30 3383 H 330.645 -1.3227 2.18948 0
M  V30 3384 H 330.289 -2.85708 4.19921 0
M  V30 3385 H 330.219 -4.25707 3.0997 0
M  V30 3386 H 332.71 -2.79994 2.53795 0
M  V30 3387 H 333.023 -5.28712 5.63634 0
M  V30 3388 H 331.368 -4.75992 5.06415 0
M  V30 3389 H 334.559 -3.4111 3.20564 0
M  V30 3390 H 334.732 -4.54544 4.61837 0
M  V30 3391 N 328.138 -0.959301 -1.25041 0
M  V30 3392 C 329.378 -0.624343 -1.94631 0
M  V30 3393 C 329.742 0.82403 -1.73418 0
M  V30 3394 O 330.943 1.26881 -2.3697 0
M  V30 3395 C 329.214 -0.978805 -3.43736 0
M  V30 3396 S 330.773 -0.757127 -4.32219 0
M  V30 3397 H 327.591 -0.229327 -0.673001 0
M  V30 3398 H 330.193 -1.23447 -1.51595 0
M  V30 3399 H 328.897 -2.02997 -3.56679 0
M  V30 3400 H 328.428 -0.359117 -3.91757 0
M  V30 3401 H 330.443 0.369759 -4.9482 0
M  V30 3402 N 329.616 1.39756 -0.72842 0
M  V30 3403 C 330.846 2.04651 -0.283117 0
M  V30 3404 C 331.254 1.5502 1.08469 0
M  V30 3405 O 330.597 0.707343 1.69536 0
M  V30 3406 C 330.659 3.58947 -0.199309 0
M  V30 3407 C 330.323 4.31525 -1.5045 0
M  V30 3408 C 331.32 4.5861 -2.44894 0
M  V30 3409 C 329.005 4.70195 -1.76698 0
M  V30 3410 C 330.999 5.23366 -3.63822 0
M  V30 3411 C 328.686 5.3468 -2.95906 0
M  V30 3412 C 329.684 5.61198 -3.89289 0
M  V30 3413 O 329.372 6.24347 -5.06404 0
M  V30 3414 H 329.104 0.664777 -0.122666 0
M  V30 3415 H 331.658 1.79913 -0.990987 0
M  V30 3416 H 329.888 3.82556 0.56461 0
M  V30 3417 H 331.577 4.0534 0.213125 0
M  V30 3418 H 332.343 4.29187 -2.25883 0
M  V30 3419 H 328.222 4.48916 -1.04859 0
M  V30 3420 H 331.766 5.4398 -4.36728 0
M  V30 3421 H 327.663 5.63524 -3.14819 0
M  V30 3422 H 328.431 6.42842 -5.06652 0
M  V30 3423 N 331.094 0.475555 1.50254 0
M  V30 3424 C 332.026 -0.352649 2.26471 0
M  V30 3425 C 333.039 -0.953165 1.3198 0
M  V30 3426 O 334.228 -0.840815 1.57457 0
M  V30 3427 C 331.328 -1.50902 3.0345 0
M  V30 3428 C 330.501 -1.02047 4.25329 0
M  V30 3429 C 329.56 -2.05142 4.84565 0
M  V30 3430 O 328.586 -1.63023 5.45355 0
M  V30 3431 N 329.788 -3.37987 4.71959 0
M  V30 3432 H 332.553 0.300767 2.98187 0
M  V30 3433 H 330.114 0.306598 1.5897 0
M  V30 3434 H 332.106 -2.19572 3.39956 0
M  V30 3435 H 330.676 -2.06705 2.34504 0
M  V30 3436 H 329.896 -0.159507 3.93877 0
M  V30 3437 H 331.184 -0.672061 5.04342 0
M  V30 3438 H 330.582 -3.74913 4.23623 0
M  V30 3439 H 329.139 -4.02443 5.12721 0
M  V30 3440 N 332.573 -1.56217 0.208337 0
M  V30 3441 C 333.503 -2.22694 -0.702116 0
M  V30 3442 C 334.484 -1.19432 -1.2112 0
M  V30 3443 O 335.669 -1.47978 -1.25762 0
M  V30 3444 C 332.799 -2.8966 -1.9161 0
M  V30 3445 C 331.753 -3.9928 -1.5414 0
M  V30 3446 C 331.079 -4.53476 -2.83308 0
M  V30 3447 C 332.379 -5.17012 -0.741339 0
M  V30 3448 H 334.073 -2.99034 -0.147898 0
M  V30 3449 H 331.619 -1.43831 -0.0696951 0
M  V30 3450 H 333.572 -3.34852 -2.55836 0
M  V30 3451 H 332.296 -2.10746 -2.49507 0
M  V30 3452 H 330.955 -3.54799 -0.922668 0
M  V30 3453 H 330.603 -3.71308 -3.39322 0
M  V30 3454 H 330.303 -5.27451 -2.58976 0
M  V30 3455 H 331.827 -5.01378 -3.485 0
M  V30 3456 H 333.241 -5.58667 -1.28699 0
M  V30 3457 H 331.638 -5.97137 -0.595627 0
M  V30 3458 H 332.708 -4.8423 0.254851 0
M  V30 3459 N 334.051 0.0651679 -1.57465 0
M  V30 3460 C 335.462 0.616213 -1.76238 0
M  V30 3461 C 335.813 1.7756 -0.834689 0
M  V30 3462 O 334.938 2.1639 -0.0204156 0
M  V30 3463 C 335.533 1.12462 -3.1959 0
M  V30 3464 C 334.092 1.62147 -3.39684 0
M  V30 3465 C 333.239 0.543739 -2.71917 0
M  V30 3466 H 336.19 -0.161022 -1.57881 0
M  V30 3467 H 336.211 1.99324 -3.24114 0
M  V30 3468 H 335.723 0.280592 -3.87084 0
M  V30 3469 H 333.824 2.48854 -2.77313 0
M  V30 3470 H 333.937 1.69385 -4.48158 0
M  V30 3471 H 332.301 0.990352 -2.34657 0
M  V30 3472 H 333.084 -0.290216 -3.42071 0
M  V30 3473 N 335.529 1.53961 0.336706 0
M  V30 3474 C 336.94 1.62914 0.911925 0
M  V30 3475 C 337.291 0.514795 1.89326 0
M  V30 3476 O 336.416 -0.354395 2.13478 0
M  V30 3477 C 337.011 2.95304 1.66076 0
M  V30 3478 C 335.57 3.06496 2.18489 0
M  V30 3479 C 334.717 2.58403 1.00613 0
M  V30 3480 H 337.668 1.58285 0.114649 0
M  V30 3481 H 337.689 2.84727 2.5241 0
M  V30 3482 H 337.201 3.76387 0.946276 0
M  V30 3483 H 335.302 2.3006 2.93092 0
M  V30 3484 H 335.415 4.1208 2.44391 0
M  V30 3485 H 333.779 2.13977 1.38152 0
M  V30 3486 H 334.562 3.41932 0.306179 0
M  V30 3487 N 337.007 -0.598083 1.45811 0
M  V30 3488 C 338.255 -1.35413 1.50026 0
M  V30 3489 C 338.576 -1.94444 0.147177 0
M  V30 3490 O 337.846 -1.77701 -0.824571 0
M  V30 3491 H 336.426 -0.502727 0.552517 0
M  V30 3492 H 339.088 -0.701606 1.81834 0
M  V30 3493 H 338.184 -2.16871 2.2444 0
M  V30 3494 N 338.485 -1.33259 -0.841409 0
M  V30 3495 C 339.448 -1.23221 -1.9326 0
M  V30 3496 C 340.448 -0.151895 -1.60081 0
M  V30 3497 O 341.638 -0.403246 -1.69468 0
M  V30 3498 C 338.77 -0.898123 -3.28856 0
M  V30 3499 H 339.963 -2.2021 -2.03587 0
M  V30 3500 H 337.516 -1.17281 -1.03319 0
M  V30 3501 H 338.251 0.0693841 -3.24226 0
M  V30 3502 H 338.036 -1.67934 -3.54317 0
M  V30 3503 H 339.526 -0.852563 -4.08805 0
M  V30 3504 N 339.963 1.05934 -1.16686 0
M  V30 3505 C 341.379 1.30938 -0.912542 0
M  V30 3506 C 341.579 1.96803 0.432533 0
M  V30 3507 O 340.635 2.23693 1.17123 0
M  V30 3508 C 341.948 2.18649 -2.06429 0
M  V30 3509 C 343.496 2.32055 -2.10047 0
M  V30 3510 C 343.971 3.23122 -3.24586 0
M  V30 3511 N 345.462 3.30706 -3.24327 0
M  V30 3512 C 346.197 4.01273 -4.09594 0
M  V30 3513 N 345.693 4.74332 -5.04956 0
M  V30 3514 N 347.486 3.97361 -3.97569 0
M  V30 3515 H 339.637 0.615777 -2.03278 0
M  V30 3516 H 341.9 0.334077 -0.887185 0
M  V30 3517 H 341.606 1.77534 -3.03603 0
M  V30 3518 H 341.48 3.19252 -2.00894 0
M  V30 3519 H 343.867 2.72415 -1.13464 0
M  V30 3520 H 343.948 1.31107 -2.19647 0
M  V30 3521 H 343.592 2.83477 -4.2143 0
M  V30 3522 H 343.522 4.24057 -3.12223 0
M  V30 3523 H 346.013 2.78644 -2.55276 0
M  V30 3524 H 346.326 5.25716 -5.6643 0
M  V30 3525 H 344.671 4.733 -5.08933 0
M  V30 3526 H 347.862 3.39405 -3.22369 0
M  V30 3527 H 348.035 4.52089 -4.64241 0
M  V30 3528 N 341.441 0.965919 1.2453 0
M  V30 3529 C 342.689 0.625593 1.92174 0
M  V30 3530 C 343.01 -0.841652 1.75901 0
M  V30 3531 O 342.28 -1.60061 1.12948 0
M  V30 3532 H 340.86 0.228388 0.71123 0
M  V30 3533 H 343.522 1.2266 1.51461 0
M  V30 3534 H 342.618 0.864653 2.99884 0
M  V30 3535 N 342.919 -1.39368 0.735821 0
M  V30 3536 C 343.849 -2.33234 0.111506 0
M  V30 3537 C 344.83 -1.53954 -0.723334 0
M  V30 3538 O 346.015 -1.82344 -0.668147 0
M  V30 3539 C 343.145 -3.38057 -0.795917 0
M  V30 3540 C 342.099 -4.2795 -0.065172 0
M  V30 3541 C 341.425 -5.23479 -1.08967 0
M  V30 3542 C 342.725 -5.10741 1.09273 0
M  V30 3543 H 344.419 -2.85692 0.895571 0
M  V30 3544 H 341.965 -1.37364 0.432109 0
M  V30 3545 H 343.918 -4.02675 -1.24221 0
M  V30 3546 H 342.642 -2.8404 -1.61211 0
M  V30 3547 H 341.301 -3.64813 0.361511 0
M  V30 3548 H 340.949 -4.65758 -1.89944 0
M  V30 3549 H 340.649 -5.84472 -0.605489 0
M  V30 3550 H 342.173 -5.90974 -1.53565 0
M  V30 3551 H 343.587 -5.68699 0.724841 0
M  V30 3552 H 341.984 -5.8088 1.50659 0
M  V30 3553 H 343.054 -4.45525 1.91404 0
M  V30 3554 N 344.397 -0.483516 -1.5 0
M  V30 3555 C 345.36 0.292965 -2.2732 0
M  V30 3556 C 346.36 0.909499 -1.32608 0
M  V30 3557 O 347.55 0.776745 -1.55924 0
M  V30 3558 C 344.682 1.41854 -3.09984 0
M  V30 3559 H 345.875 -0.385289 -2.97415 0
M  V30 3560 H 343.428 -0.237942 -1.54478 0
M  V30 3561 H 344.163 2.13148 -2.44414 0
M  V30 3562 H 343.948 0.982114 -3.79601 0
M  V30 3563 H 345.438 1.96597 -3.68429 0
M  V30 3564 N 345.875 1.56104 -0.216619 0
M  V30 3565 C 346.805 2.23063 0.690296 0
M  V30 3566 C 347.786 1.20072 1.20485 0
M  V30 3567 O 348.971 1.48643 1.24976 0
M  V30 3568 C 346.101 2.90672 1.90072 0
M  V30 3569 C 345.055 4.00092 1.5202 0
M  V30 3570 C 344.381 4.54972 2.80899 0
M  V30 3571 C 345.681 5.17398 0.71391 0
M  V30 3572 H 347.375 2.99109 0.132038 0
M  V30 3573 H 344.921 1.43866 0.0620664 0
M  V30 3574 H 346.874 3.36204 2.54057 0
M  V30 3575 H 345.598 2.12066 2.48386 0
M  V30 3576 H 344.257 3.55283 0.903839 0
M  V30 3577 H 343.905 3.73102 3.37348 0
M  V30 3578 H 343.605 5.28817 2.56176 0
M  V30 3579 H 345.129 5.0322 3.45836 0
M  V30 3580 H 346.543 5.59342 1.25735 0
M  V30 3581 H 344.94 5.97444 0.563951 0
M  V30 3582 H 346.01 4.84088 -0.280527 0
M  V30 3583 N 347.353 -0.0568162 1.57498 0
M  V30 3584 C 348.769 -0.411933 1.54192 0
M  V30 3585 C 348.969 -1.78287 0.938942 0
M  V30 3586 O 348.025 -2.46483 0.547919 0
M  V30 3587 C 349.338 -0.339244 2.9878 0
M  V30 3588 C 350.886 -0.418348 3.10192 0
M  V30 3589 C 351.361 -0.375407 4.56459 0
M  V30 3590 N 352.852 -0.435038 4.61153 0
M  V30 3591 C 353.587 -0.424265 5.71828 0
M  V30 3592 N 353.083 -0.367418 6.91825 0
M  V30 3593 N 354.876 -0.471938 5.60115 0
M  V30 3594 H 347.027 0.840684 1.95055 0
M  V30 3595 H 349.29 0.316987 0.893433 0
M  V30 3596 H 348.996 0.601742 3.46514 0
M  V30 3597 H 348.87 -1.14371 3.59443 0
M  V30 3598 H 351.257 -1.34976 2.62422 0
M  V30 3599 H 351.338 0.414962 2.52412 0
M  V30 3600 H 350.982 0.552219 5.04889 0
M  V30 3601 H 350.912 -1.22645 5.12119 0
M  V30 3602 H 353.403 -0.482612 3.74806 0
M  V30 3603 H 353.716 -0.363535 7.71944 0
M  V30 3604 H 352.061 -0.333879 6.94198 0
M  V30 3605 H 355.252 -0.514145 4.65268 0
M  V30 3606 H 355.425 -0.460073 6.46365 0
M  V30 3607 N 348.832 -1.54138 -0.328536 0
M  V30 3608 C 349.795 -1.82462 -1.38709 0
M  V30 3609 C 350.795 -0.696229 -1.44946 0
M  V30 3610 O 351.985 -0.964535 -1.4506 0
M  V30 3611 C 349.117 -1.98018 -2.77492 0
M  V30 3612 H 350.31 -2.77037 -1.14851 0
M  V30 3613 H 347.863 -1.45779 -0.563751 0
M  V30 3614 H 348.598 -1.05637 -3.06613 0
M  V30 3615 H 348.383 -2.80124 -2.74359 0
M  V30 3616 H 349.873 -2.21396 -3.54081 0
M  V30 3617 N 350.31 0.590341 -1.46126 0
M  V30 3618 C 351.556 1.35082 -1.51264 0
M  V30 3619 C 351.889 1.93534 -0.160711 0
M  V30 3620 O 351.164 1.76045 0.826956 0
M  V30 3621 C 351.447 2.48588 -2.6053 0
M  V30 3622 C 351.3 1.95221 -4.05227 0
M  V30 3623 C 352.619 3.50662 -2.6594 0
M  V30 3624 H 349.738 0.489803 -0.550692 0
M  V30 3625 H 352.38 0.663887 -1.78024 0
M  V30 3626 H 350.53 3.07186 -2.37843 0
M  V30 3627 H 352.202 1.41139 -4.39178 0
M  V30 3628 H 350.445 1.26101 -4.15068 0
M  V30 3629 H 351.116 2.77121 -4.77397 0
M  V30 3630 H 353.592 3.01934 -2.86313 0
M  V30 3631 H 352.468 4.27551 -3.44226 0
M  V30 3632 H 352.729 4.07399 -1.71694 0
M  V30 3633 N 351.788 1.33704 0.83433 0
M  V30 3634 C 353.065 1.16011 1.57483 0
M  V30 3635 C 353.445 -0.27176 2.09343 0
M  V30 3636 O 352.793 -1.27146 1.89858 0
M  V30 3637 C 353.003 2.20507 2.70514 0
M  V30 3638 C 354.351 2.54898 3.39577 0
M  V30 3639 O 355.375 2.19209 2.80759 0
M  V30 3640 O 354.234 3.16158 4.45765 0
M  V30 3641 H 351.328 0.448992 0.694503 0
M  V30 3642 H 353.874 1.453 0.876691 0
M  V30 3643 H 352.646 3.16667 2.29865 0
M  V30 3644 H 352.269 1.92329 3.47987 0
M  V30 3645 N 353.266 -1.05314 1.17247 0
M  V30 3646 C 354.682 -1.30452 0.919473 0
M  V30 3647 C 354.882 -1.9703 -0.42209 0
M  V30 3648 O 353.938 -2.24311 -1.15935 0
M  V30 3649 C 355.251 -2.17551 2.07586 0
M  V30 3650 C 356.799 -2.30937 2.11275 0
M  V30 3651 C 357.274 -3.21396 3.26296 0
M  V30 3652 N 358.765 -3.28981 3.26076 0
M  V30 3653 C 359.5 -3.99095 4.11716 0
M  V30 3654 N 358.996 -4.71648 5.07465 0
M  V30 3655 N 360.789 -3.95247 3.9967 0
M  V30 3656 H 352.94 -0.604988 2.03602 0
M  V30 3657 H 355.203 -0.329368 0.888944 0
M  V30 3658 H 354.909 -1.75921 3.0454 0
M  V30 3659 H 354.783 -3.18182 2.02584 0
M  V30 3660 H 357.17 -2.71809 1.14907 0
M  V30 3661 H 357.251 -1.2994 2.20339 0
M  V30 3662 H 356.895 -2.81238 4.22927 0
M  V30 3663 H 356.825 -4.22395 3.14467 0
M  V30 3664 H 359.316 -2.77286 2.5675 0
M  V30 3665 H 359.629 -5.22705 5.6921 0
M  V30 3666 H 357.974 -4.70594 5.11435 0
M  V30 3667 H 361.165 -3.37691 3.24164 0
M  V30 3668 H 361.338 -4.4962 4.66632 0
M  V30 3669 N 354.744 -0.972509 -1.24016 0
M  V30 3670 C 356.021 -0.553733 -1.87598 0
M  V30 3671 C 356.401 0.969158 -1.87538 0
M  V30 3672 O 355.749 1.84255 -1.35139 0
M  V30 3673 C 355.959 -1.15076 -3.29482 0
M  V30 3674 C 357.307 -1.23862 -4.06132 0
M  V30 3675 O 358.331 -1.10363 -3.38672 0
M  V30 3676 O 357.19 -1.45252 -5.26844 0
M  V30 3677 H 354.284 -0.185331 -0.805966 0
M  V30 3678 H 356.83 -1.06709 -1.31952 0
M  V30 3679 H 355.602 -2.19333 -3.2405 0
M  V30 3680 H 355.225 -0.621746 -3.92709 0
M  V30 3681 N 356.222 1.38976 -0.743202 0
M  V30 3682 C 357.468 2.0064 -0.295189 0
M  V30 3683 C 357.801 1.5885 1.11716 0
M  V30 3684 O 357.076 0.821181 1.76315 0
M  V30 3685 C 357.359 3.578 -0.406318 0
M  V30 3686 C 357.212 4.09586 -1.85903 0
M  V30 3687 C 358.531 4.39616 0.206439 0
M  V30 3688 H 355.65 0.728935 -0.108733 0
M  V30 3689 H 358.292 1.65067 -0.940897 0
M  V30 3690 H 356.442 3.88235 0.143419 0
M  V30 3691 H 358.114 3.89837 -2.46627 0
M  V30 3692 H 356.357 3.6284 -2.3776 0
M  V30 3693 H 357.028 5.18708 -1.888 0
M  V30 3694 H 359.504 4.15273 -0.262283 0
M  V30 3695 H 358.38 5.48812 0.0983819 0
M  V30 3696 H 358.641 4.22754 1.2935 0
M  V30 3697 N 357.7 0.491464 1.49741 0
M  V30 3698 C 359.116 0.146835 1.58923 0
M  V30 3699 C 359.316 -1.34804 1.49767 0
M  V30 3700 O 358.372 -2.12317 1.36667 0
M  V30 3701 C 359.685 0.715157 2.92072 0
M  V30 3702 C 361.233 0.680407 3.05515 0
M  V30 3703 C 361.708 1.22663 4.41269 0
M  V30 3704 N 363.199 1.18691 4.47735 0
M  V30 3705 C 363.934 1.57984 5.51207 0
M  V30 3706 N 363.43 2.04824 6.6183 0
M  V30 3707 N 365.223 1.49459 5.41866 0
M  V30 3708 H 357.374 1.46347 1.53936 0
M  V30 3709 H 359.637 0.606453 0.728642 0
M  V30 3710 H 359.343 1.76317 3.04311 0
M  V30 3711 H 359.217 0.17018 3.76816 0
M  V30 3712 H 361.604 -0.358743 2.92911 0
M  V30 3713 H 361.685 1.26242 2.22478 0
M  V30 3714 H 361.329 2.26451 4.54623 0
M  V30 3715 H 361.259 0.620637 5.2293 0
M  V30 3716 H 363.75 0.843605 3.68364 0
M  V30 3717 H 364.063 2.32901 7.3687 0
M  V30 3718 H 362.408 2.08791 6.62896 0
M  V30 3719 H 365.599 1.12692 4.54333 0
M  V30 3720 H 365.772 1.80406 6.22381 0
M  V30 3721 N 359.178 -1.55987 0.224894 0
M  V30 3722 C 360.088 -2.24066 -0.69511 0
M  V30 3723 C 361.104 -1.24939 -1.21104 0
M  V30 3724 O 362.28 -1.5776 -1.25195 0
M  V30 3725 C 359.345 -2.90983 -1.88493 0
M  V30 3726 C 358.406 -4.05462 -1.41064 0
M  V30 3727 C 357.639 -4.69179 -2.54375 0
M  V30 3728 O 357.862 -4.31895 -3.72589 0
M  V30 3729 O 356.796 -5.58108 -2.25386 0
M  V30 3730 H 360.622 -3.03353 -0.145149 0
M  V30 3731 H 358.207 -1.49399 -0.00569476 0
M  V30 3732 H 360.089 -3.33209 -2.57972 0
M  V30 3733 H 358.764 -2.14653 -2.42293 0
M  V30 3734 H 357.671 -3.67798 -0.683774 0
M  V30 3735 H 359.004 -4.83545 -0.918985 0
M  V30 3736 N 360.656 0.0484629 -1.57525 0
M  V30 3737 C 361.904 0.741657 -1.88 0
M  V30 3738 C 362.225 1.76918 -0.820054 0
M  V30 3739 O 361.495 1.95335 0.148661 0
M  V30 3740 H 360.075 0.276908 -0.69378 0
M  V30 3741 H 362.737 0.019013 -1.94891 0
M  V30 3742 H 361.833 1.24336 -2.86264 0
M  V30 3743 N 362.134 1.5431 0.320358 0
M  V30 3744 C 363.097 1.83195 1.3774 0
M  V30 3745 C 364.097 0.703906 1.44575 0
M  V30 3746 O 365.287 0.972214 1.44546 0
M  V30 3747 C 362.419 1.99487 2.76438 0
M  V30 3748 H 363.612 2.77642 1.1338 0
M  V30 3749 H 361.165 1.46076 0.556012 0
M  V30 3750 H 361.9 1.07262 3.06048 0
M  V30 3751 H 361.685 2.81575 2.7287 0
M  V30 3752 H 363.175 2.23271 3.52902 0
M  V30 3753 N 363.613 -0.582584 1.46437 0
M  V30 3754 C 364.89 -1.34276 1.4223 0
M  V30 3755 C 365.27 -2.10835 0.10583 0
M  V30 3756 O 364.618 -2.09485 -0.912596 0
M  V30 3757 C 364.828 -2.26865 2.65204 0
M  V30 3758 C 366.176 -2.88691 3.11356 0
M  V30 3759 O 367.2 -2.37178 2.65753 0
M  V30 3760 O 366.059 -3.82255 3.90568 0
M  V30 3761 H 363.153 -0.603326 0.565621 0
M  V30 3762 H 365.699 -0.603591 1.58603 0
M  V30 3763 H 364.471 -1.69724 3.52576 0
M  V30 3764 H 364.094 -3.08122 2.5129 0
M  V30 3765 N 365.091 -1.34144 -0.827227 0
M  V30 3766 C 366.024 -1.19707 -1.94282 0
M  V30 3767 C 367.002 -0.0897256 -1.62352 0
M  V30 3768 O 368.186 -0.254095 -1.8678 0
M  V30 3769 C 365.313 -0.838646 -3.28153 0
M  V30 3770 C 364.359 -1.95514 -3.79047 0
M  V30 3771 S 365.192 -3.56793 -3.99323 0
M  V30 3772 C 366.348 -3.22983 -5.36127 0
M  V30 3773 H 366.581 -2.1414 -2.06231 0
M  V30 3774 H 364.114 -1.19121 -0.982321 0
M  V30 3775 H 366.072 -0.638637 -4.05502 0
M  V30 3776 H 364.733 0.0872776 -3.13979 0
M  V30 3777 H 363.926 -1.658 -4.75948 0
M  V30 3778 H 363.528 -2.11241 -3.08631 0
M  V30 3779 H 365.82 -2.74531 -6.19386 0
M  V30 3780 H 366.763 -4.19008 -5.70822 0
M  V30 3781 H 367.171 -2.59276 -5.01434 0
M  V30 3782 N 366.569 1.04691 -1.17803 0
M  V30 3783 C 367.499 2.14494 -0.92275 0
M  V30 3784 C 368.48 1.69546 0.137179 0
M  V30 3785 O 369.665 1.94195 -0.0141108 0
M  V30 3786 C 366.795 3.44491 -0.440803 0
M  V30 3787 C 365.749 4.03031 -1.4405 0
M  V30 3788 C 365.075 5.28432 -0.81631 0
M  V30 3789 C 366.375 4.39932 -2.81527 0
M  V30 3790 H 368.069 2.36107 -1.84103 0
M  V30 3791 H 365.615 1.1347 -0.886599 0
M  V30 3792 H 367.568 4.2066 -0.249602 0
M  V30 3793 H 366.292 3.22546 0.513025 0
M  V30 3794 H 364.951 3.28937 -1.61853 0
M  V30 3795 H 364.599 5.02792 0.144511 0
M  V30 3796 H 364.299 5.68559 -1.48371 0
M  V30 3797 H 365.823 6.07284 -0.635496 0
M  V30 3798 H 367.237 5.07113 -2.67412 0
M  V30 3799 H 365.634 4.9109 -3.44892 0
M  V30 3800 H 366.704 3.50045 -3.35554 0
M  V30 3801 N 368.047 0.979072 1.23499 0
M  V30 3802 C 368.98 0.463027 2.23453 0
M  V30 3803 C 369.958 -0.469128 1.55685 0
M  V30 3804 O 371.142 -0.397882 1.84253 0
M  V30 3805 C 368.269 -0.330308 3.37086 0
M  V30 3806 C 367.315 0.545795 4.22993 0
M  V30 3807 S 368.148 1.99285 4.97037 0
M  V30 3808 C 369.304 1.20862 6.1412 0
M  V30 3809 H 369.537 1.31005 2.6688 0
M  V30 3810 H 367.07 0.784965 1.32957 0
M  V30 3811 H 369.028 -0.782027 4.02982 0
M  V30 3812 H 367.689 -1.15244 2.92194 0
M  V30 3813 H 366.882 -0.0638928 5.03959 0
M  V30 3814 H 366.484 0.933705 3.62157 0
M  V30 3815 H 368.776 0.469284 6.75873 0
M  V30 3816 H 369.719 1.99307 6.79472 0
M  V30 3817 H 370.127 0.727992 5.59786 0
M  V30 3818 N 369.525 -1.3858 0.750561 0
M  V30 3819 C 370.771 -2.00481 0.305825 0
M  V30 3820 C 371.104 -1.5944 -1.10872 0
M  V30 3821 O 370.379 -0.83052 -1.75877 0
M  V30 3822 C 370.662 -3.5758 0.425287 0
M  V30 3823 C 370.515 -4.08594 1.88072 0
M  V30 3824 C 371.834 -4.39719 -0.183122 0
M  V30 3825 H 368.953 -0.728348 0.112598 0
M  V30 3826 H 371.595 -1.64566 0.949638 0
M  V30 3827 H 369.745 -3.88306 -0.122828 0
M  V30 3828 H 371.417 -3.88523 2.48691 0
M  V30 3829 H 369.66 -3.61574 2.39681 0
M  V30 3830 H 370.331 -5.177 1.91548 0
M  V30 3831 H 372.807 -4.15128 0.284303 0
M  V30 3832 H 371.683 -5.48856 -0.0692757 0
M  V30 3833 H 371.944 -4.23434 -1.27106 0
M  V30 3834 N 371.003 -0.499398 -1.49478 0
M  V30 3835 C 371.95 0.279881 -2.29097 0
M  V30 3836 C 372.92 0.961805 -1.3542 0
M  V30 3837 O 374.105 0.968777 -1.64376 0
M  V30 3838 C 371.245 1.33932 -3.18051 0
M  V30 3839 C 370.358 0.669333 -4.26783 0
M  V30 3840 C 369.493 1.70907 -5.02955 0
M  V30 3841 C 368.532 1.02087 -6.03527 0
M  V30 3842 N 367.669 2.00474 -6.7287 0
M  V30 3843 H 372.509 -0.405317 -2.95231 0
M  V30 3844 H 370.046 -0.211726 -1.45568 0
M  V30 3845 H 372.004 1.96553 -3.67998 0
M  V30 3846 H 370.634 1.9933 -2.53904 0
M  V30 3847 H 369.686 -0.0701234 -3.80335 0
M  V30 3848 H 370.998 0.127503 -4.98637 0
M  V30 3849 H 370.152 2.41037 -5.56764 0
M  V30 3850 H 368.891 2.28476 -4.30871 0
M  V30 3851 H 367.896 0.305338 -5.48951 0
M  V30 3852 H 369.121 0.451708 -6.77596 0
M  V30 3853 H 367.067 2.57007 -6.03559 0
M  V30 3854 H 366.984 1.51353 -7.40694 0
M  V30 3855 H 368.252 2.69897 -7.31284 0
M  V30 3856 N 372.481 1.55866 -0.233164 0
M  V30 3857 C 373.892 1.847 0.272554 0
M  V30 3858 C 374.243 1.15477 1.58617 0
M  V30 3859 O 373.368 0.42841 2.12117 0
M  V30 3860 C 373.963 3.35071 0.501299 0
M  V30 3861 C 372.522 3.6418 0.951304 0
M  V30 3862 C 371.669 2.77292 0.0208209 0
M  V30 3863 H 374.62 1.52005 -0.456074 0
M  V30 3864 H 374.641 3.55906 1.34577 0
M  V30 3865 H 374.153 3.85424 -0.454936 0
M  V30 3866 H 372.254 3.19293 1.92049 0
M  V30 3867 H 372.367 4.72071 0.817675 0
M  V30 3868 H 370.731 2.49131 0.529723 0
M  V30 3869 H 371.514 3.30448 -0.93054 0
M  V30 3870 N 373.959 -0.0401083 1.57549 0
M  V30 3871 C 375.207 -0.731677 1.8839 0
M  V30 3872 C 375.528 -1.76481 0.829425 0
M  V30 3873 O 374.798 -1.95411 -0.1383 0
M  V30 3874 H 373.378 -0.273225 0.695239 0
M  V30 3875 H 376.04 -0.00867725 1.94898 0
M  V30 3876 H 375.136 -1.22816 2.86919 0
M  V30 3877 N 375.437 -1.54477 -0.31217 0
M  V30 3878 C 376.37 -1.79519 -1.40884 0
M  V30 3879 C 377.348 -0.645753 -1.49227 0
M  V30 3880 O 378.532 -0.884468 -1.66461 0
M  V30 3881 C 375.659 -1.92194 -2.78889 0
M  V30 3882 C 374.705 -3.14555 -2.88023 0
M  V30 3883 S 375.538 -4.72893 -2.51262 0
M  V30 3884 C 376.694 -4.8849 -3.91317 0
M  V30 3885 H 376.927 -2.72256 -1.19432 0
M  V30 3886 H 374.46 -1.45746 -0.509654 0
M  V30 3887 H 376.418 -2.00182 -3.58382 0
M  V30 3888 H 375.079 -1.00414 -2.97617 0
M  V30 3889 H 374.272 -3.20193 -3.89221 0
M  V30 3890 H 373.874 -3.04955 -2.16514 0
M  V30 3891 H 376.166 -4.71826 -4.86196 0
M  V30 3892 H 377.109 -5.90588 -3.90656 0
M  V30 3893 H 377.517 -4.16715 -3.80801 0
M  V30 3894 N 376.915 0.57481 -1.46744 0
M  V30 3895 C 378.326 1.15695 -1.46532 0
M  V30 3896 C 378.677 1.95068 -0.210425 0
M  V30 3897 O 377.802 2.05241 0.685944 0
M  V30 3898 C 378.397 2.1048 -2.65487 0
M  V30 3899 C 376.956 2.64002 -2.68291 0
M  V30 3900 C 376.103 1.40026 -2.39349 0
M  V30 3901 H 379.054 0.362325 -1.54509 0
M  V30 3902 H 379.075 2.94074 -2.41455 0
M  V30 3903 H 378.587 1.52683 -3.56805 0
M  V30 3904 H 376.688 3.25646 -1.81067 0
M  V30 3905 H 376.801 3.06197 -3.68483 0
M  V30 3906 H 375.165 1.70106 -1.89568 0
M  V30 3907 H 375.948 0.840485 -3.32852 0
M  V30 3908 N 378.394 1.34581 0.820102 0
M  V30 3909 C 379.624 1.29991 1.6058 0
M  V30 3910 C 380.032 -0.127588 1.88769 0
M  V30 3911 O 379.375 -1.08595 1.48165 0
M  V30 3912 C 379.437 2.02548 2.9701 0
M  V30 3913 C 379.101 3.51794 2.91701 0
M  V30 3914 C 380.098 4.46647 2.66087 0
M  V30 3915 C 377.783 3.94249 3.11245 0
M  V30 3916 C 379.777 5.81929 2.60071 0
M  V30 3917 C 377.464 5.2963 3.04853 0
M  V30 3918 C 378.462 6.23282 2.793 0
M  V30 3919 O 378.15 7.56181 2.72847 0
M  V30 3920 H 377.882 0.448539 0.505756 0
M  V30 3921 H 380.436 1.77811 1.02822 0
M  V30 3922 H 378.666 1.49345 3.56697 0
M  V30 3923 H 380.355 1.91211 3.58041 0
M  V30 3924 H 381.121 4.15168 2.5072 0
M  V30 3925 H 377 3.21749 3.30149 0
M  V30 3926 H 380.544 6.54999 2.40046 0
M  V30 3927 H 376.441 5.60727 3.19774 0
M  V30 3928 H 377.209 7.6595 2.88553 0
M  V30 3929 N 379.872 -1.04064 1.18357 0
M  V30 3930 C 380.802 -2.14001 0.934113 0
M  V30 3931 C 381.783 -1.69616 -0.128186 0
M  V30 3932 O 382.968 -1.94185 0.0244093 0
M  V30 3933 C 380.098 -3.44253 0.459066 0
M  V30 3934 C 379.052 -4.02261 1.46185 0
M  V30 3935 C 378.378 -5.27992 0.844322 0
M  V30 3936 C 379.678 -4.38432 2.83856 0
M  V30 3937 H 381.372 -2.35127 1.85352 0
M  V30 3938 H 378.918 -1.12998 0.892604 0
M  V30 3939 H 380.871 -4.20522 0.271907 0
M  V30 3940 H 379.595 -3.22813 -0.495912 0
M  V30 3941 H 378.254 -3.28074 1.63595 0
M  V30 3942 H 377.902 -5.02862 -0.117845 0
M  V30 3943 H 377.602 -5.67765 1.51384 0
M  V30 3944 H 379.126 -6.06938 0.667693 0
M  V30 3945 H 380.54 -5.05688 2.70098 0
M  V30 3946 H 378.937 -4.89254 3.47491 0
M  V30 3947 H 380.007 -3.4826 3.37406 0
M  V30 3948 N 381.35 -0.985608 -1.22978 0
M  V30 3949 C 382.627 -0.573599 -1.87001 0
M  V30 3950 C 383.007 0.949213 -1.88555 0
M  V30 3951 O 382.355 1.82811 -1.37086 0
M  V30 3952 C 382.565 -1.18564 -3.28243 0
M  V30 3953 C 383.913 -1.28163 -4.04796 0
M  V30 3954 O 384.937 -1.13949 -3.37482 0
M  V30 3955 O 383.796 -1.50832 -5.25273 0
M  V30 3956 H 380.89 -0.193868 -0.803955 0
M  V30 3957 H 383.436 -1.08102 -1.30813 0
M  V30 3958 H 382.208 -2.22758 -3.21706 0
M  V30 3959 H 381.831 -0.663363 -3.92027 0
M  V30 3960 N 382.828 1.3818 -0.7579 0
M  V30 3961 C 384.077 1.99261 -0.312744 0
M  V30 3962 C 384.39 1.60846 1.11301 0
M  V30 3963 O 385.596 2.14929 1.65885 0
M  V30 3964 C 384.052 3.56294 -0.50821 0
M  V30 3965 C 383.66 4.03657 -1.94333 0
M  V30 3966 C 385.404 4.24313 -0.125982 0
M  V30 3967 C 383.311 5.53347 -2.08712 0
M  V30 3968 H 382.241 0.745456 -0.113185 0
M  V30 3969 H 384.892 1.57889 -0.935056 0
M  V30 3970 H 383.274 3.95575 0.183353 0
M  V30 3971 H 384.448 3.75655 -2.66871 0
M  V30 3972 H 382.763 3.48376 -2.28086 0
M  V30 3973 H 385.36 5.34279 -0.212125 0
M  V30 3974 H 385.703 4.05962 0.921964 0
M  V30 3975 H 386.236 3.90285 -0.769563 0
M  V30 3976 H 382.975 5.76607 -3.11777 0
M  V30 3977 H 382.495 5.83078 -1.4064 0
M  V30 3978 H 384.174 6.19111 -1.87912 0
M  V30 3979 N 384.306 0.507319 1.49211 0
M  V30 3980 C 385.552 -0.0350047 2.0277 0
M  V30 3981 C 385.885 -1.3606 1.38569 0
M  V30 3982 O 385.16 -1.87321 0.523542 0
M  V30 3983 C 385.443 -0.180916 3.59645 0
M  V30 3984 C 385.296 1.16825 4.34364 0
M  V30 3985 C 386.615 -0.918558 4.30407 0
M  V30 3986 H 383.734 -0.0112473 0.736914 0
M  V30 3987 H 386.376 0.659956 1.7817 0
M  V30 3988 H 384.526 -0.772826 3.80736 0
M  V30 3989 H 386.198 1.79952 4.24753 0
M  V30 3990 H 384.441 1.75594 3.96673 0
M  V30 3991 H 385.112 1.01939 5.42506 0
M  V30 3992 H 387.588 -0.41649 4.1401 0
M  V30 3993 H 386.464 -0.989505 5.39907 0
M  V30 3994 H 386.725 -1.96373 3.96093 0
M  V30 3995 N 385.784 -1.5574 0.241426 0
M  V30 3996 C 387.2 -1.59196 -0.113548 0
M  V30 3997 C 387.4 -1.25852 -1.57364 0
M  V30 3998 O 386.456 -1.00322 -2.31715 0
M  V30 3999 C 387.769 -2.99814 0.230695 0
M  V30 4000 C 389.317 -3.12513 0.174547 0
M  V30 4001 C 389.792 -4.55342 0.492744 0
M  V30 4002 N 391.283 -4.61076 0.443043 0
M  V30 4003 C 392.018 -5.6956 0.662484 0
M  V30 4004 N 391.514 -6.86328 0.944761 0
M  V30 4005 N 393.307 -5.58957 0.593564 0
M  V30 4006 H 385.458 -1.75685 1.19368 0
M  V30 4007 H 387.721 -0.81756 0.479896 0
M  V30 4008 H 387.427 -3.28932 1.24485 0
M  V30 4009 H 387.301 -3.74568 -0.444833 0
M  V30 4010 H 389.688 -2.83179 -0.830277 0
M  V30 4011 H 389.769 -2.40045 0.883845 0
M  V30 4012 H 389.413 -4.85396 1.4951 0
M  V30 4013 H 389.343 -5.26062 -0.23797 0
M  V30 4014 H 391.834 -3.77179 0.233374 0
M  V30 4015 H 392.147 -7.64935 1.09977 0
M  V30 4016 H 390.492 -6.88025 0.982175 0
M  V30 4017 H 393.683 -4.66611 0.373123 0
M  V30 4018 H 393.856 -6.43433 0.767981 0
M  V30 4019 N 387.262 0.0317525 -1.57568 0
M  V30 4020 C 388.172 1.05021 -2.0978 0
M  V30 4021 C 389.188 1.39809 -1.03583 0
M  V30 4022 O 390.364 1.49182 -1.35302 0
M  V30 4023 C 387.429 2.33301 -2.56459 0
M  V30 4024 C 386.49 2.0512 -3.77127 0
M  V30 4025 C 385.723 3.27283 -4.2157 0
M  V30 4026 O 385.946 4.37861 -3.65559 0
M  V30 4027 O 384.88 3.13141 -5.14029 0
M  V30 4028 H 388.706 0.636505 -2.96955 0
M  V30 4029 H 386.291 0.248559 -1.47318 0
M  V30 4030 H 388.173 3.08722 -2.86825 0
M  V30 4031 H 386.848 2.73973 -1.72397 0
M  V30 4032 H 385.755 1.27276 -3.51784 0
M  V30 4033 H 387.088 1.69305 -4.62165 0
M  V30 4034 N 388.74 1.54641 0.303973 0
M  V30 4035 C 389.986 1.74038 1.04109 0
M  V30 4036 C 390.319 0.523051 1.87024 0
M  V30 4037 O 389.594 -0.479874 1.88487 0
M  V30 4038 C 389.877 3.02761 1.94955 0
M  V30 4039 C 389.73 4.34787 1.1524 0
M  V30 4040 C 391.049 3.27336 2.94175 0
M  V30 4041 H 388.168 0.63323 0.377079 0
M  V30 4042 H 390.81 1.87354 0.316001 0
M  V30 4043 H 388.96 2.9154 2.56782 0
M  V30 4044 H 390.632 4.57922 0.557236 0
M  V30 4045 H 388.875 4.31407 0.455053 0
M  V30 4046 H 389.546 5.21116 1.8205 0
M  V30 4047 H 392.022 3.38148 2.42477 0
M  V30 4048 H 390.898 4.18726 3.54908 0
M  V30 4049 H 391.159 2.45491 3.67677 0
M  V30 4050 N 390.218 -0.567019 1.47046 0
M  V30 4051 C 391.165 -1.67489 1.58796 0
M  V30 4052 C 392.135 -1.60399 0.43144 0
M  V30 4053 O 393.32 -1.79378 0.650233 0
M  V30 4054 C 390.46 -3.05821 1.59899 0
M  V30 4055 C 389.573 -3.2342 2.86397 0
M  V30 4056 C 388.708 -4.52093 2.789 0
M  V30 4057 C 387.747 -4.6309 4.00267 0
M  V30 4058 N 386.884 -5.83106 3.91064 0
M  V30 4059 H 391.724 -1.56785 2.53422 0
M  V30 4060 H 389.261 -0.763896 1.2571 0
M  V30 4061 H 391.219 -3.8591 1.58522 0
M  V30 4062 H 389.849 -3.15384 0.687929 0
M  V30 4063 H 388.901 -2.3683 2.97684 0
M  V30 4064 H 390.213 -3.27412 3.76301 0
M  V30 4065 H 389.367 -5.4043 2.75718 0
M  V30 4066 H 388.106 -4.50565 1.86662 0
M  V30 4067 H 387.111 -3.73168 4.03765 0
M  V30 4068 H 388.336 -4.66386 4.93621 0
M  V30 4069 H 386.282 -5.82546 3.01623 0
M  V30 4070 H 386.199 -5.88434 4.74638 0
M  V30 4071 H 387.467 -6.73831 3.91882 0
M  V30 4072 N 391.696 -1.35014 -0.812953 0
M  V30 4073 C 392.973 -1.18502 -1.55617 0
M  V30 4074 C 393.353 0.238421 -2.09749 0
M  V30 4075 O 392.701 1.2411 -1.91857 0
M  V30 4076 C 392.911 -2.24783 -2.66971 0
M  V30 4077 C 394.259 -2.60268 -3.35478 0
M  V30 4078 O 395.283 -2.23648 -2.77236 0
M  V30 4079 O 394.142 -3.2321 -4.40678 0
M  V30 4080 H 391.236 -0.459984 -0.687272 0
M  V30 4081 H 393.782 -1.46677 -0.853464 0
M  V30 4082 H 392.554 -3.20284 -2.24798 0
M  V30 4083 H 392.177 -1.97841 -3.44884 0
M  V30 4084 N 393.175 1.03435 -1.18907 0
M  V30 4085 C 394.122 2.11591 -0.921837 0
M  V30 4086 C 395.092 1.65499 0.141226 0
M  V30 4087 O 396.277 1.908 0.000242829 0
M  V30 4088 C 393.417 3.42012 -0.460616 0
M  V30 4089 C 392.53 4.01682 -1.58982 0
M  V30 4090 C 391.665 5.20091 -1.08069 0
M  V30 4091 C 390.704 5.71805 -2.18416 0
M  V30 4092 N 389.841 6.81494 -1.68849 0
M  V30 4093 H 394.681 2.33787 -1.8479 0
M  V30 4094 H 392.218 1.1467 -0.921373 0
M  V30 4095 H 394.176 4.16834 -0.174642 0
M  V30 4096 H 392.806 3.19944 0.428467 0
M  V30 4097 H 391.858 3.24127 -1.99113 0
M  V30 4098 H 393.17 4.36084 -2.4214 0
M  V30 4099 H 392.324 6.02051 -0.749615 0
M  V30 4100 H 391.063 4.87209 -0.218771 0
M  V30 4101 H 390.068 4.88461 -2.5236 0
M  V30 4102 H 391.293 6.06728 -3.05054 0
M  V30 4103 H 389.239 6.50475 -0.849572 0
M  V30 4104 H 389.156 7.14994 -2.45601 0
M  V30 4105 H 390.424 7.67063 -1.38689 0
M  V30 4106 N 394.653 0.992116 1.22453 0
M  V30 4107 C 395.603 0.512969 2.22155 0
M  V30 4108 C 396.587 -0.418416 1.55364 0
M  V30 4109 O 397.779 -0.245363 1.75291 0
M  V30 4110 C 394.908 -0.171822 3.4287 0
M  V30 4111 C 393.994 0.779822 4.16869 0
M  V30 4112 N 394.385 1.92734 4.6764 0
M  V30 4113 C 392.683 0.59554 4.42006 0
M  V30 4114 C 393.384 2.52458 5.24061 0
M  V30 4115 N 392.36 1.80735 5.12675 0
M  V30 4116 H 396.162 1.38817 2.5905 0
M  V30 4117 H 393.676 0.854277 1.38115 0
M  V30 4118 H 395.673 -0.532469 4.13486 0
M  V30 4119 H 394.333 -1.04317 3.07487 0
M  V30 4120 H 395.344 2.30816 4.63621 0
M  V30 4121 H 392.021 -0.229805 4.16867 0
M  V30 4122 H 393.411 3.49433 5.73887 0
M  V30 4123 N 396.131 -1.37776 0.765217 0
M  V30 4124 C 397.542 -1.82521 0.392819 0
M  V30 4125 C 397.893 -1.63789 -1.08017 0
M  V30 4126 O 397.018 -1.14542 -1.83601 0
M  V30 4127 C 397.613 -3.31358 0.706214 0
M  V30 4128 C 396.172 -3.74406 0.386952 0
M  V30 4129 C 395.319 -2.60394 0.953422 0
M  V30 4130 H 398.27 -1.2634 0.960412 0
M  V30 4131 H 398.291 -3.80498 -0.0114706 0
M  V30 4132 H 397.803 -3.44959 1.77833 0
M  V30 4133 H 395.904 -3.66377 -0.678112 0
M  V30 4134 H 396.017 -4.70749 0.890636 0
M  V30 4135 H 394.381 -2.51878 0.378064 0
M  V30 4136 H 395.164 -2.76791 2.03081 0
M  V30 4137 N 397.609 -0.515225 -1.4894 0
M  V30 4138 C 398.886 0.0879088 -1.95402 0
M  V30 4139 C 399.266 1.52745 -1.45712 0
M  V30 4140 O 398.614 2.18238 -0.677093 0
M  V30 4141 C 398.824 -0.0141055 -3.48997 0
M  V30 4142 C 400.172 0.152646 -4.24326 0
M  V30 4143 O 401.196 0.0604025 -3.56149 0
M  V30 4144 O 400.055 0.34384 -5.45417 0
M  V30 4145 H 397.149 0.0874636 -0.822362 0
M  V30 4146 H 399.695 -0.578775 -1.59525 0
M  V30 4147 H 398.467 -1.01745 -3.77841 0
M  V30 4148 H 398.09 0.692091 -3.9153 0
M  V30 4149 N 399.087 1.5561 -0.249682 0
M  V30 4150 C 400.017 2.24477 0.642826 0
M  V30 4151 C 400.998 1.22601 1.17911 0
M  V30 4152 O 402.183 1.5126 1.21795 0
M  V30 4153 C 399.313 2.94638 1.83863 0
M  V30 4154 C 398.267 4.03227 1.435 0
M  V30 4155 C 397.593 4.60828 2.71186 0
M  V30 4156 C 398.893 5.18796 0.604002 0
M  V30 4157 H 400.587 2.99321 0.0685625 0
M  V30 4158 H 398.133 1.43965 0.0315363 0
M  V30 4159 H 400.086 3.41517 2.46868 0
M  V30 4160 H 398.81 2.17287 2.43832 0
M  V30 4161 H 397.469 3.57121 0.828275 0
M  V30 4162 H 397.117 3.80174 3.29358 0
M  V30 4163 H 396.817 5.34132 2.44901 0
M  V30 4164 H 398.341 5.10442 3.35084 0
M  V30 4165 H 399.755 5.61883 1.13842 0
M  V30 4166 H 398.152 5.98506 0.437097 0
M  V30 4167 H 399.222 4.83384 -0.383147 0
M  V30 4168 N 400.565 -0.0233959 1.57583 0
M  V30 4169 C 401.976 -0.56927 1.77809 0
M  V30 4170 C 402.327 -1.75284 0.881472 0
M  V30 4171 O 401.452 -2.1626 0.0777805 0
M  V30 4172 C 402.047 -1.03949 3.22459 0
M  V30 4173 C 400.606 -1.53084 3.43864 0
M  V30 4174 C 399.753 -0.471454 2.73263 0
M  V30 4175 H 402.704 0.202825 1.57399 0
M  V30 4176 H 402.725 -1.90661 3.29285 0
M  V30 4177 H 402.237 -0.177865 3.87692 0
M  V30 4178 H 400.338 -2.41414 2.83814 0
M  V30 4179 H 400.451 -1.57443 4.52491 0
M  V30 4180 H 398.815 -0.927788 2.37201 0
M  V30 4181 H 399.598 0.380808 3.41181 0
M  V30 4182 N 402.043 -1.548 -0.295768 0
M  V30 4183 C 402.973 -1.89115 -1.36959 0
M  V30 4184 C 403.954 -0.75059 -1.52644 0
M  V30 4185 O 405.139 -1.00678 -1.66065 0
M  V30 4186 C 402.269 -2.14307 -2.73295 0
M  V30 4187 C 401.223 -3.30151 -2.72368 0
M  V30 4188 C 400.549 -3.40772 -4.12042 0
M  V30 4189 C 401.849 -4.67126 -2.33646 0
M  V30 4190 H 403.543 -2.79053 -1.08488 0
M  V30 4191 H 401.089 -1.34266 -0.520443 0
M  V30 4192 H 403.042 -2.36898 -3.48507 0
M  V30 4193 H 401.766 -1.21145 -3.03301 0
M  V30 4194 H 400.425 -3.0749 -1.99613 0
M  V30 4195 H 400.073 -2.45117 -4.39234 0
M  V30 4196 H 399.773 -4.18645 -4.12322 0
M  V30 4197 H 401.297 -3.6563 -4.89027 0
M  V30 4198 H 402.711 -4.89414 -2.98575 0
M  V30 4199 H 401.108 -5.47751 -2.45129 0
M  V30 4200 H 402.178 -4.67489 -1.28772 0
M  V30 4201 N 403.521 0.559213 -1.47345 0
M  V30 4202 C 404.484 1.64854 -1.59235 0
M  V30 4203 C 405.484 1.53851 -0.467607 0
M  V30 4204 O 406.674 1.58045 -0.732617 0
M  V30 4205 C 403.806 3.04388 -1.53496 0
M  V30 4206 H 404.999 1.55662 -2.56339 0
M  V30 4207 H 402.552 0.778973 -1.35505 0
M  V30 4208 H 403.287 3.19115 -0.577604 0
M  V30 4209 H 403.072 3.13783 -2.35123 0
M  V30 4210 H 404.562 3.83642 -1.6495 0
M  V30 4211 N 404.999 1.35443 0.805782 0
M  V30 4212 C 406.245 1.28952 1.56522 0
M  V30 4213 C 406.578 -0.135597 1.93726 0
M  V30 4214 O 405.853 -1.08516 1.61414 0
M  V30 4215 C 406.136 2.19678 2.85331 0
M  V30 4216 C 405.989 3.7081 2.54598 0
M  V30 4217 C 407.308 2.09495 3.8704 0
M  V30 4218 H 404.427 0.469764 0.567883 0
M  V30 4219 H 407.069 1.65851 0.927001 0
M  V30 4220 H 405.219 1.8834 3.39795 0
M  V30 4221 H 406.891 4.12593 2.06312 0
M  V30 4222 H 405.134 3.91051 1.8778 0
M  V30 4223 H 405.805 4.29679 3.46525 0
M  V30 4224 H 408.281 2.37045 3.41978 0
M  V30 4225 H 407.157 2.75173 4.74943 0
M  V30 4226 H 407.418 1.07714 4.28777 0
M  V30 4227 N 406.477 -1.02803 1.19454 0
M  V30 4228 C 407.707 -1.79581 1.02149 0
M  V30 4229 C 408.115 -1.84182 -0.432851 0
M  V30 4230 O 407.458 -1.28534 -1.31243 0
M  V30 4231 C 407.52 -3.25993 1.51554 0
M  V30 4232 C 407.184 -3.45025 2.99678 0
M  V30 4233 C 408.181 -3.35175 3.97434 0
M  V30 4234 C 405.866 -3.71212 3.38389 0
M  V30 4235 C 407.86 -3.51238 5.31893 0
M  V30 4236 C 405.547 -3.8692 4.73008 0
M  V30 4237 C 406.545 -3.76936 5.69569 0
M  V30 4238 O 406.233 -3.92179 7.01748 0
M  V30 4239 H 405.965 -0.571962 0.360327 0
M  V30 4240 H 408.519 -1.30367 1.58725 0
M  V30 4241 H 406.749 -3.76235 0.893543 0
M  V30 4242 H 408.438 -3.84368 1.30444 0
M  V30 4243 H 409.204 -3.14895 3.68872 0
M  V30 4244 H 405.083 -3.78075 2.6378 0
M  V30 4245 H 408.627 -3.43362 6.07247 0
M  V30 4246 H 404.524 -4.06699 5.01265 0
M  V30 4247 H 405.292 -4.09265 7.08833 0
M  V30 4248 N 407.956 -0.998596 -1.21925 0
M  V30 4249 C 408.906 -0.524743 -2.21879 0
M  V30 4250 C 409.89 0.41017 -1.55584 0
M  V30 4251 O 411.082 0.236063 -1.75419 0
M  V30 4252 C 408.211 0.153636 -3.42956 0
M  V30 4253 C 407.297 -0.801918 -4.16449 0
M  V30 4254 N 407.688 -1.95211 -4.66611 0
M  V30 4255 C 405.986 -0.618972 -4.41684 0
M  V30 4256 C 406.687 -2.55234 -5.22715 0
M  V30 4257 N 405.663 -1.83451 -5.1171 0
M  V30 4258 H 409.465 -1.40189 -2.58311 0
M  V30 4259 H 406.979 -0.86159 -1.3766 0
M  V30 4260 H 408.976 0.510534 -4.13762 0
M  V30 4261 H 407.636 1.02684 -3.08036 0
M  V30 4262 H 408.647 -2.33271 -4.62391 0
M  V30 4263 H 405.324 0.207694 -4.16983 0
M  V30 4264 H 406.714 -3.52471 -5.72026 0
M  V30 4265 N 409.434 1.37368 -0.772513 0
M  V30 4266 C 410.68 1.99969 -0.337681 0
M  V30 4267 C 411.013 1.61184 1.08321 0
M  V30 4268 O 410.288 0.858395 1.74533 0
M  V30 4269 C 410.571 3.56858 -0.482121 0
M  V30 4270 C 410.424 4.0555 -1.94549 0
M  V30 4271 C 411.743 4.39955 0.113143 0
M  V30 4272 H 408.862 0.726464 -0.124171 0
M  V30 4273 H 411.504 1.63034 -0.975699 0
M  V30 4274 H 409.654 3.88452 0.0610361 0
M  V30 4275 H 411.326 3.84518 -2.54841 0
M  V30 4276 H 409.569 3.57715 -2.45403 0
M  V30 4277 H 410.24 5.14587 -1.9976 0
M  V30 4278 H 412.716 4.14623 -0.35031 0
M  V30 4279 H 411.592 5.48897 -0.0180514 0
M  V30 4280 H 411.853 4.25403 1.20354 0
M  V30 4281 N 410.912 0.523116 1.48665 0
M  V30 4282 C 412.137 -0.0117284 2.07397 0
M  V30 4283 C 412.562 -1.28031 1.37803 0
M  V30 4284 O 411.92 -1.75836 0.441762 0
M  V30 4285 C 411.968 -0.225786 3.59892 0
M  V30 4286 O 411.072 -1.29592 3.91509 0
M  V30 4287 H 410.413 0.0360673 0.66302 0
M  V30 4288 H 412.943 0.729066 1.9117 0
M  V30 4289 H 412.953 -0.450552 4.05505 0
M  V30 4290 H 411.628 0.700944 4.09951 0
M  V30 4291 H 410.205 -1.05436 3.57684 0
M  V30 4292 N 412.39 -1.55475 0.257931 0
M  V30 4293 C 413.638 -1.98813 -0.363009 0
M  V30 4294 C 413.959 -1.14757 -1.57657 0
M  V30 4295 O 413.229 -0.232956 -1.9451 0
M  V30 4296 H 411.809 -0.734308 -0.137113 0
M  V30 4297 H 414.471 -1.9156 0.359281 0
M  V30 4298 H 413.567 -3.04941 -0.664634 0
M  V30 4299 N 413.868 0.0150385 -1.57593 0
M  V30 4300 C 414.778 1.02791 -2.10882 0
M  V30 4301 C 415.794 1.38702 -1.0506 0
M  V30 4302 O 416.97 1.47739 -1.36877 0
M  V30 4303 C 414.035 2.30568 -2.58919 0
M  V30 4304 C 413.096 2.01108 -3.79281 0
M  V30 4305 C 412.329 3.22794 -4.25018 0
M  V30 4306 O 412.552 4.33959 -3.70183 0
M  V30 4307 O 411.486 3.07672 -5.17322 0
M  V30 4308 H 415.312 0.604973 -2.97613 0
M  V30 4309 H 412.897 0.23292 -1.47573 0
M  V30 4310 H 414.779 3.05662 -2.90084 0
M  V30 4311 H 413.454 2.72129 -1.75293 0
M  V30 4312 H 412.361 1.23537 -3.53114 0
M  V30 4313 H 413.694 1.64394 -4.63935 0
M  V30 4314 N 415.346 1.54954 0.287554 0
M  V30 4315 C 416.593 1.74873 1.02106 0
M  V30 4316 C 416.921 0.541829 1.86801 0
M  V30 4317 O 416.176 -0.475992 1.89823 0
M  V30 4318 C 416.475 2.99833 1.94512 0
M  V30 4319 C 416.141 4.33029 1.25686 0
M  V30 4320 C 414.803 4.69233 1.06649 0
M  V30 4321 C 417.155 5.15542 0.765913 0
M  V30 4322 C 414.483 5.85518 0.372222 0
M  V30 4323 C 416.835 6.32542 0.0853101 0
M  V30 4324 C 415.499 6.67398 -0.1169 0
M  V30 4325 H 414.769 0.639906 0.373632 0
M  V30 4326 H 417.416 1.89219 0.294665 0
M  V30 4327 H 415.721 2.80325 2.73725 0
M  V30 4328 H 417.418 3.1244 2.51361 0
M  V30 4329 H 414.008 4.04564 1.41512 0
M  V30 4330 H 418.192 4.88059 0.90066 0
M  V30 4331 H 413.448 6.11057 0.204695 0
M  V30 4332 H 417.622 6.95741 -0.302936 0
M  V30 4333 H 415.249 7.57357 -0.656859 0
M  V30 4334 N 416.824 -0.551391 1.4764 0
M  V30 4335 C 417.787 -1.64007 1.60107 0
M  V30 4336 C 418.787 -1.53601 0.47576 0
M  V30 4337 O 419.977 -1.57655 0.740988 0
M  V30 4338 C 417.109 -3.03569 1.55108 0
M  V30 4339 H 418.302 -1.543 2.57161 0
M  V30 4340 H 415.855 -0.771776 1.35917 0
M  V30 4341 H 416.59 -3.18804 0.594519 0
M  V30 4342 H 416.375 -3.12532 2.36783 0
M  V30 4343 H 417.865 -3.82762 1.66982 0
M  V30 4344 N 418.302 -1.35869 -0.798587 0
M  V30 4345 C 419.235 -1.23801 -1.91699 0
M  V30 4346 C 420.213 -0.124143 -1.62125 0
M  V30 4347 O 421.397 -0.293656 -1.86199 0
M  V30 4348 C 418.524 -0.908063 -3.263 0
M  V30 4349 C 417.57 -2.0351 -3.74815 0
M  V30 4350 S 418.403 -3.65183 -3.91665 0
M  V30 4351 C 419.559 -3.34283 -5.29156 0
M  V30 4352 H 419.792 -2.18466 -2.01643 0
M  V30 4353 H 417.325 -1.21178 -0.956833 0
M  V30 4354 H 419.283 -0.724506 -4.04056 0
M  V30 4355 H 417.944 0.0206584 -3.14093 0
M  V30 4356 H 417.137 -1.75858 -4.72324 0
M  V30 4357 H 416.739 -2.1774 -3.04081 0
M  V30 4358 H 419.031 -2.87607 -6.13424 0
M  V30 4359 H 419.974 -4.31022 -5.61806 0
M  V30 4360 H 420.382 -2.69854 -4.95822 0
M  V30 4361 N 419.78 1.02168 -1.19998 0
M  V30 4362 C 420.71 2.12488 -0.96804 0
M  V30 4363 C 421.691 1.69799 0.101185 0
M  V30 4364 O 422.876 1.94121 -0.0552993 0
M  V30 4365 C 420.006 3.43479 -0.513776 0
M  V30 4366 C 418.96 3.99884 -1.52566 0
M  V30 4367 C 418.286 5.26582 -0.928214 0
M  V30 4368 C 419.586 4.33861 -2.90795 0
M  V30 4369 H 421.28 2.32149 -1.89069 0
M  V30 4370 H 418.826 1.11564 -0.910468 0
M  V30 4371 H 420.779 4.20036 -0.338774 0
M  V30 4372 H 419.503 3.23561 0.444493 0
M  V30 4373 H 418.162 3.25429 -1.68794 0
M  V30 4374 H 417.81 5.02986 0.0378289 0
M  V30 4375 H 417.51 5.65284 -1.60397 0
M  V30 4376 H 419.034 6.05799 -0.764167 0
M  V30 4377 H 420.448 5.01327 -2.78109 0
M  V30 4378 H 418.845 4.83664 -3.55231 0
M  V30 4379 H 419.915 3.42848 -3.42904 0
M  V30 4380 N 421.258 1.00505 1.21394 0
M  V30 4381 C 422.504 0.698477 1.91031 0
M  V30 4382 C 422.859 -0.762448 1.76648 0
M  V30 4383 O 422.152 -1.54554 1.13241 0
M  V30 4384 C 422.346 1.0546 3.41486 0
M  V30 4385 C 422.175 2.5486 3.70508 0
M  V30 4386 C 420.945 3.21461 3.8986 0
M  V30 4387 C 423.143 3.53019 3.74008 0
M  V30 4388 N 421.125 4.60211 4.06299 0
M  V30 4389 C 422.496 4.77279 3.95733 0
M  V30 4390 C 424.551 3.47154 3.56915 0
M  V30 4391 C 423.254 5.96388 4.02137 0
M  V30 4392 C 425.28 4.65652 3.64585 0
M  V30 4393 C 424.642 5.88717 3.86771 0
M  V30 4394 H 420.741 0.30707 0.719189 0
M  V30 4395 H 423.325 1.28753 1.46051 0
M  V30 4396 H 421.496 0.494007 3.85246 0
M  V30 4397 H 423.228 0.702765 3.98552 0
M  V30 4398 H 419.983 2.71906 3.87768 0
M  V30 4399 H 420.407 5.32216 4.1842 0
M  V30 4400 H 425.049 2.53015 3.38738 0
M  V30 4401 H 422.767 6.90919 4.19114 0
M  V30 4402 H 426.353 4.62717 3.52681 0
M  V30 4403 H 425.233 6.78877 3.92549 0
M  V30 4404 N 422.737 -1.36956 0.779787 0
M  V30 4405 C 423.687 -2.27539 0.144892 0
M  V30 4406 C 424.671 -1.46493 -0.665488 0
M  V30 4407 O 425.863 -1.68968 -0.527141 0
M  V30 4408 C 422.992 -3.35512 -0.727082 0
M  V30 4409 C 422.078 -4.24001 0.0915642 0
M  V30 4410 N 422.469 -4.92757 1.14125 0
M  V30 4411 C 420.767 -4.45807 -0.131141 0
M  V30 4412 C 421.468 -5.58138 1.6388 0
M  V30 4413 N 420.444 -5.35241 0.94962 0
M  V30 4414 H 424.246 -2.78176 0.948446 0
M  V30 4415 H 421.76 -1.50169 0.618315 0
M  V30 4416 H 423.757 -3.99324 -1.19776 0
M  V30 4417 H 422.417 -2.86431 -1.52929 0
M  V30 4418 H 423.428 -4.94984 1.52353 0
M  V30 4419 H 420.105 -4.07582 -0.904621 0
M  V30 4420 H 421.495 -6.23071 2.51461 0
M  V30 4421 N 424.215 -0.530993 -1.48385 0
M  V30 4422 C 425.463 0.00273189 -2.021 0
M  V30 4423 C 425.784 1.34672 -1.41027 0
M  V30 4424 O 425.054 1.8724 -0.576012 0
M  V30 4425 H 423.634 0.00399774 -0.746989 0
M  V30 4426 H 426.296 -0.695054 -1.82085 0
M  V30 4427 H 425.392 0.11031 -3.11905 0
M  V30 4428 N 425.693 1.55336 -0.266172 0
M  V30 4429 C 426.656 2.20878 0.612001 0
M  V30 4430 C 427.656 1.18388 1.08816 0
M  V30 4431 O 428.846 1.4335 0.989774 0
M  V30 4432 C 425.978 2.86765 1.84332 0
M  V30 4433 H 427.171 2.99873 0.0398718 0
M  V30 4434 H 424.724 1.56291 -0.0167309 0
M  V30 4435 H 425.459 2.11759 2.45619 0
M  V30 4436 H 425.244 3.61862 1.5099 0
M  V30 4437 H 426.734 3.36867 2.46801 0
M  V30 4438 N 427.171 -0.0066808 1.57599 0
M  V30 4439 C 428.103 -1.02827 2.04839 0
M  V30 4440 C 429.116 -1.31108 0.965113 0
M  V30 4441 O 430.305 -1.28202 1.24203 0
M  V30 4442 C 427.405 -2.36464 2.42771 0
M  V30 4443 C 426.578 -2.27219 3.73751 0
M  V30 4444 C 425.637 -3.43489 3.98625 0
M  V30 4445 O 424.663 -3.21976 4.69382 0
M  V30 4446 N 425.865 -4.66116 3.46 0
M  V30 4447 H 428.63 -0.625455 2.93101 0
M  V30 4448 H 426.191 -0.194198 1.60731 0
M  V30 4449 H 428.183 -3.13008 2.56531 0
M  V30 4450 H 426.753 -2.68512 1.60063 0
M  V30 4451 H 425.973 -1.35629 3.70133 0
M  V30 4452 H 427.261 -2.18208 4.59633 0
M  V30 4453 H 426.659 -4.86493 2.88688 0
M  V30 4454 H 425.216 -5.39949 3.65101 0
M  V30 4455 N 428.649 -1.55105 -0.279332 0
M  V30 4456 C 429.612 -1.86783 -1.32834 0
M  V30 4457 C 430.612 -0.74199 -1.42657 0
M  V30 4458 O 431.802 -1.0102 -1.41918 0
M  V30 4459 C 428.934 -2.06746 -2.71052 0
M  V30 4460 H 430.127 -2.8055 -1.05979 0
M  V30 4461 H 427.68 -1.47499 -0.517087 0
M  V30 4462 H 428.415 -1.15339 -3.03097 0
M  V30 4463 H 428.2 -2.88711 -2.65309 0
M  V30 4464 H 429.69 -2.32549 -3.46858 0
M  V30 4465 N 430.127 0.543554 -1.4793 0
M  V30 4466 C 431.375 1.29752 -1.54948 0
M  V30 4467 C 431.696 1.93764 -0.219242 0
M  V30 4468 O 430.966 1.80639 0.75805 0
M  V30 4469 H 429.546 0.481874 -0.570795 0
M  V30 4470 H 432.208 0.633636 -1.84312 0
M  V30 4471 H 431.304 2.08392 -2.32334 0
M  V30 4472 N 431.605 1.3629 0.791371 0
M  V30 4473 C 432.568 1.30309 1.88553 0
M  V30 4474 C 433.568 0.211204 1.59407 0
M  V30 4475 O 434.758 0.465865 1.67855 0
M  V30 4476 C 431.89 1.01956 3.25297 0
M  V30 4477 H 433.083 2.27614 1.95273 0
M  V30 4478 H 430.636 1.21035 0.988953 0
M  V30 4479 H 431.371 0.050998 3.2426 0
M  V30 4480 H 431.156 1.80968 3.4784 0
M  V30 4481 H 432.646 1.0037 4.05359 0
M  V30 4482 N 433.083 -1.0153 1.20538 0
M  V30 4483 C 434.33 -1.75149 1.01633 0
M  V30 4484 C 434.658 -1.89189 -0.451399 0
M  V30 4485 O 433.913 -1.41551 -1.35136 0
M  V30 4486 C 434.212 -3.17213 1.64654 0
M  V30 4487 C 433.878 -3.23146 3.14464 0
M  V30 4488 C 432.54 -3.24472 3.55347 0
M  V30 4489 C 434.892 -3.21207 4.10458 0
M  V30 4490 C 432.22 -3.21532 4.90748 0
M  V30 4491 C 434.572 -3.19808 5.45807 0
M  V30 4492 C 433.236 -3.19439 5.86102 0
M  V30 4493 H 432.506 -0.640914 0.3719 0
M  V30 4494 H 435.153 -1.19071 1.49981 0
M  V30 4495 H 433.458 -3.76457 1.08571 0
M  V30 4496 H 435.155 -3.72871 1.4754 0
M  V30 4497 H 431.745 -3.2285 2.81897 0
M  V30 4498 H 435.929 -3.19351 3.79906 0
M  V30 4499 H 431.185 -3.19578 5.21229 0
M  V30 4500 H 435.359 -3.1726 6.19935 0
M  V30 4501 H 432.986 -3.16915 6.90991 0
M  V30 4502 N 434.561 -1.01147 -1.20859 0
M  V30 4503 C 435.838 -0.613136 -1.85742 0
M  V30 4504 C 436.218 0.909004 -1.90526 0
M  V30 4505 O 435.566 1.79862 -1.40932 0
M  V30 4506 C 435.776 -1.255 -3.25654 0
M  V30 4507 C 437.124 -1.3672 -4.01986 0
M  V30 4508 O 438.148 -1.21082 -3.34989 0
M  V30 4509 O 437.007 -1.6194 -5.21956 0
M  V30 4510 H 434.101 -0.210878 -0.799662 0
M  V30 4511 H 436.647 -1.10853 -1.2849 0
M  V30 4512 H 435.419 -2.29532 -3.16908 0
M  V30 4513 H 435.042 -0.746369 -3.90532 0
M  V30 4514 N 436.039 1.36541 -0.78704 0
M  V30 4515 C 436.969 2.32659 -0.197992 0
M  V30 4516 C 437.95 1.56533 0.665697 0
M  V30 4517 O 439.135 1.84698 0.60001 0
M  V30 4518 C 436.265 3.40778 0.669901 0
M  V30 4519 C 435.219 4.27897 -0.0937039 0
M  V30 4520 C 434.545 5.27163 0.894629 0
M  V30 4521 C 435.845 5.06334 -1.28154 0
M  V30 4522 H 437.539 2.82171 -1.00099 0
M  V30 4523 H 435.085 1.35665 -0.482793 0
M  V30 4524 H 437.038 4.07008 1.09191 0
M  V30 4525 H 435.762 2.89827 1.50558 0
M  V30 4526 H 434.421 3.6322 -0.49666 0
M  V30 4527 H 434.069 4.72486 1.72527 0
M  V30 4528 H 433.769 5.86317 0.388149 0
M  V30 4529 H 435.293 5.96266 1.31525 0
M  V30 4530 H 436.707 5.65617 -0.93541 0
M  V30 4531 H 435.104 5.74888 -1.72115 0
M  V30 4532 H 436.174 4.38114 -2.07807 0
M  V30 4533 N 437.518 0.538854 1.48102 0
M  V30 4534 C 438.465 -0.219042 2.29758 0
M  V30 4535 C 439.435 -0.925562 1.37922 0
M  V30 4536 O 440.62 -0.924855 1.66886 0
M  V30 4537 C 437.76 -1.25452 3.2149 0
M  V30 4538 C 436.873 -0.555943 4.28408 0
M  V30 4539 C 436.008 -1.57512 5.0731 0
M  V30 4540 C 435.047 -0.860498 6.06021 0
M  V30 4541 N 434.184 -1.82564 6.77949 0
M  V30 4542 H 439.024 0.483449 2.94052 0
M  V30 4543 H 436.561 0.250247 1.44956 0
M  V30 4544 H 438.519 -1.86727 3.7308 0
M  V30 4545 H 437.149 -1.92528 2.591 0
M  V30 4546 H 436.201 0.170938 3.80016 0
M  V30 4547 H 437.513 0.00474616 4.988 0
M  V30 4548 H 436.667 -2.26191 5.62959 0
M  V30 4549 H 435.406 -2.16972 4.36778 0
M  V30 4550 H 434.411 -0.159686 5.49568 0
M  V30 4551 H 435.636 -0.271897 6.78555 0
M  V30 4552 H 433.582 -2.40915 6.10161 0
M  V30 4553 H 433.499 -1.31662 7.44447 0
M  V30 4554 H 434.767 -2.50414 7.38182 0
M  V30 4555 N 438.996 -1.55193 0.274407 0
M  V30 4556 C 439.959 -2.212 -0.600279 0
M  V30 4557 C 440.959 -1.18963 -1.08187 0
M  V30 4558 O 442.149 -1.43873 -0.982158 0
M  V30 4559 C 439.281 -2.87739 -1.82809 0
M  V30 4560 H 440.474 -2.9989 -0.0239682 0
M  V30 4561 H 438.027 -1.5628 0.0250192 0
M  V30 4562 H 438.762 -2.13058 -2.44493 0
M  V30 4563 H 438.547 -3.62658 -1.49069 0
M  V30 4564 H 440.037 -3.38171 -2.45011 0
M  V30 4565 N 440.474 -0.00167713 -1.576 0
M  V30 4566 C 441.437 0.974046 -2.07473 0
M  V30 4567 C 442.437 1.27143 -0.984444 0
M  V30 4568 O 443.627 1.21633 -1.24703 0
M  V30 4569 C 440.759 2.29849 -2.51759 0
M  V30 4570 H 441.952 0.54262 -2.9495 0
M  V30 4571 H 439.505 0.245829 -1.54355 0
M  V30 4572 H 440.24 2.77677 -1.67529 0
M  V30 4573 H 440.025 2.09584 -3.31386 0
M  V30 4574 H 441.515 2.9984 -2.90664 0
M  V30 4575 N 441.952 1.55251 0.271103 0
M  V30 4576 C 443.198 1.76207 1.00394 0
M  V30 4577 C 443.531 0.562604 1.85872 0
M  V30 4578 O 442.806 -0.439785 1.89463 0
M  V30 4579 C 443.089 3.06828 1.8849 0
M  V30 4580 C 442.942 4.37134 1.05992 0
M  V30 4581 C 444.261 3.33503 2.87165 0
M  V30 4582 H 441.38 0.641086 0.363562 0
M  V30 4583 H 444.022 1.87982 0.276189 0
M  V30 4584 H 442.172 2.96921 2.5054 0
M  V30 4585 H 443.844 4.59001 0.459978 0
M  V30 4586 H 442.087 4.32275 0.363443 0
M  V30 4587 H 442.758 5.2486 1.70955 0
M  V30 4588 H 445.234 3.43215 2.3525 0
M  V30 4589 H 444.11 4.2616 3.45946 0
M  V30 4590 H 444.371 2.53235 3.62387 0
M  V30 4591 N 443.43 -0.535701 1.48216 0
M  V30 4592 C 444.36 -1.65014 1.65204 0
M  V30 4593 C 445.341 -1.62554 0.501011 0
M  V30 4594 O 446.526 -1.7984 0.732886 0
M  V30 4595 C 443.656 -3.03616 1.68626 0
M  V30 4596 C 442.61 -3.20932 2.83172 0
M  V30 4597 C 441.936 -4.60537 2.71679 0
M  V30 4598 C 443.236 -3.04249 4.24535 0
M  V30 4599 H 444.93 -1.51053 2.58502 0
M  V30 4600 H 442.476 -0.725262 1.24402 0
M  V30 4601 H 444.429 -3.81446 1.79099 0
M  V30 4602 H 443.153 -3.18587 0.719026 0
M  V30 4603 H 441.812 -2.45517 2.72244 0
M  V30 4604 H 441.46 -4.72336 1.72937 0
M  V30 4605 H 441.16 -4.73069 3.48538 0
M  V30 4606 H 442.684 -5.40475 2.84112 0
M  V30 4607 H 444.098 -3.71877 4.36326 0
M  V30 4608 H 442.495 -3.28278 5.02348 0
M  V30 4609 H 443.565 -2.00739 4.41397 0
M  V30 4610 N 444.908 -1.36708 -0.784132 0
M  V30 4611 C 445.818 -1.3363 -1.92822 0
M  V30 4612 C 446.834 -0.237686 -1.72369 0
M  V30 4613 O 448.01 -0.470962 -1.95816 0
M  V30 4614 C 445.075 -1.13011 -3.27764 0
M  V30 4615 C 444.136 -2.32397 -3.60957 0
M  V30 4616 C 443.369 -2.12752 -4.89461 0
M  V30 4617 O 443.592 -1.10541 -5.59586 0
M  V30 4618 O 442.526 -3.00653 -5.21432 0
M  V30 4619 H 446.352 -2.29964 -1.98369 0
M  V30 4620 H 443.937 -1.1731 -0.925136 0
M  V30 4621 H 445.819 -1.03451 -4.08504 0
M  V30 4622 H 444.494 -0.19743 -3.23097 0
M  V30 4623 H 443.401 -2.47527 -2.80502 0
M  V30 4624 H 444.734 -3.2419 -3.70354 0
M  V30 4625 N 446.386 1.0089 -1.21074 0
M  V30 4626 C 447.349 2.0775 -0.968129 0
M  V30 4627 C 448.349 1.6069 0.0593445 0
M  V30 4628 O 449.539 1.73293 -0.177525 0
M  V30 4629 C 446.671 3.37794 -0.459108 0
M  V30 4630 H 447.864 2.30707 -1.9161 0
M  V30 4631 H 445.417 1.17807 -1.02719 0
M  V30 4632 H 446.152 3.20516 0.49397 0
M  V30 4633 H 445.937 3.7328 -1.20019 0
M  V30 4634 H 447.427 4.16454 -0.309099 0
M  V30 4635 N 447.864 1.01787 1.20321 0
M  V30 4636 C 448.797 0.533882 2.21867 0
M  V30 4637 C 449.775 -0.419361 1.57099 0
M  V30 4638 O 450.959 -0.339062 1.85426 0
M  V30 4639 C 448.086 -0.222899 3.37966 0
M  V30 4640 C 447.132 0.680091 4.21043 0
M  V30 4641 S 447.965 2.14997 4.90445 0
M  V30 4642 C 449.121 1.40339 6.09964 0
M  V30 4643 H 449.354 1.39429 2.62577 0
M  V30 4644 H 446.887 0.826867 1.30393 0
M  V30 4645 H 448.845 -0.653425 4.05266 0
M  V30 4646 H 447.506 -1.0589 2.95713 0
M  V30 4647 H 446.699 0.0964704 5.03908 0
M  V30 4648 H 446.301 1.04845 3.59004 0
M  V30 4649 H 448.593 0.68407 6.74038 0
M  V30 4650 H 449.536 2.20823 6.72787 0
M  V30 4651 H 449.944 0.905716 5.57187 0
M  V30 4652 N 449.342 -1.36122 0.79427 0
M  V30 4653 C 450.57 -2.03362 0.380989 0
M  V30 4654 C 450.985 -1.59881 -1.00416 0
M  V30 4655 O 450.342 -0.790515 -1.6449 0
M  V30 4656 C 450.393 -3.58804 0.440649 0
M  V30 4657 O 450.114 -4.007 1.77118 0
M  V30 4658 C 451.615 -4.43296 0.0186117 0
M  V30 4659 H 448.835 -0.652526 0.156367 0
M  V30 4660 H 451.379 -1.73998 1.07447 0
M  V30 4661 H 449.534 -3.8686 -0.204458 0
M  V30 4662 H 449.948 -4.95309 1.72538 0
M  V30 4663 H 451.422 -5.51887 0.111488 0
M  V30 4664 H 451.899 -4.2684 -1.03461 0
M  V30 4665 H 452.505 -4.20512 0.636395 0
M  V30 4666 N 450.82 -0.546701 -1.47814 0
M  V30 4667 C 451.783 0.196287 -2.28358 0
M  V30 4668 C 452.783 0.852437 -1.36346 0
M  V30 4669 O 453.973 0.709913 -1.59078 0
M  V30 4670 C 451.105 1.28579 -3.15722 0
M  V30 4671 H 452.298 -0.511086 -2.95513 0
M  V30 4672 H 449.851 -0.303248 -1.5333 0
M  V30 4673 H 450.586 2.0259 -2.53235 0
M  V30 4674 H 450.371 0.820229 -3.83425 0
M  V30 4675 H 451.861 1.80793 -3.76435 0
M  V30 4676 N 452.299 1.55045 -0.282633 0
M  V30 4677 C 453.546 1.9976 0.33199 0
M  V30 4678 C 453.874 1.17105 1.55295 0
M  V30 4679 O 453.129 0.230599 1.94337 0
M  V30 4680 C 453.428 3.49422 0.750938 0
M  V30 4681 C 453.094 4.4941 -0.366228 0
M  V30 4682 C 451.756 4.76471 -0.672964 0
M  V30 4683 C 454.108 5.09054 -1.11864 0
M  V30 4684 C 451.436 5.60442 -1.73556 0
M  V30 4685 C 453.788 5.9418 -2.17102 0
M  V30 4686 C 452.452 6.19558 -2.48402 0
M  V30 4687 H 451.722 0.730974 0.121484 0
M  V30 4688 H 454.369 1.8732 -0.39791 0
M  V30 4689 H 452.674 3.59377 1.56063 0
M  V30 4690 H 454.371 3.81432 1.23736 0
M  V30 4691 H 450.961 4.2844 -0.117041 0
M  V30 4692 H 455.145 4.88165 -0.894925 0
M  V30 4693 H 450.401 5.78349 -1.983 0
M  V30 4694 H 454.575 6.39427 -2.75873 0
M  V30 4695 H 452.202 6.84417 -3.30874 0
M  V30 4696 N 453.777 0.010035 1.57597 0
M  V30 4697 C 455.193 -0.346164 1.55801 0
M  V30 4698 C 455.393 -1.74144 1.01371 0
M  V30 4699 O 454.449 -2.43938 0.651968 0
M  V30 4700 C 455.762 -0.212216 2.9995 0
M  V30 4701 C 457.31 -0.286409 3.11687 0
M  V30 4702 C 457.785 -0.18147 4.5764 0
M  V30 4703 N 459.276 -0.239056 4.62583 0
M  V30 4704 C 460.011 -0.181351 5.73113 0
M  V30 4705 N 459.507 -0.073661 6.92761 0
M  V30 4706 N 461.3 -0.233949 5.61613 0
M  V30 4707 H 453.451 0.922657 1.91313 0
M  V30 4708 H 455.714 0.354595 0.879185 0
M  V30 4709 H 455.42 0.748169 3.4365 0
M  V30 4710 H 455.294 -0.990224 3.6397 0
M  V30 4711 H 457.681 -1.23724 2.67911 0
M  V30 4712 H 457.762 0.521645 2.50425 0
M  V30 4713 H 457.406 0.765863 5.02093 0
M  V30 4714 H 457.336 -1.00814 5.1686 0
M  V30 4715 H 459.827 -0.32321 3.76515 0
M  V30 4716 H 460.14 -0.0358003 7.72792 0
M  V30 4717 H 458.485 -0.0391461 6.94989 0
M  V30 4718 H 461.676 -0.316347 4.6703 0
M  V30 4719 H 461.849 -0.185514 6.47734 0
M  V30 4720 N 455.255 -1.55392 -0.262866 0
M  V30 4721 C 456.671 -1.47459 -0.610582 0
M  V30 4722 C 456.871 -0.697031 -1.8906 0
M  V30 4723 O 455.927 -0.219952 -2.5154 0
M  V30 4724 C 457.24 -2.91751 -0.728131 0
M  V30 4725 C 458.788 -3.02027 -0.821517 0
M  V30 4726 C 459.263 -4.47594 -0.97076 0
M  V30 4727 N 460.754 -4.51465 -1.03603 0
M  V30 4728 C 461.489 -5.61326 -1.17049 0
M  V30 4729 N 460.985 -6.81032 -1.2715 0
M  V30 4730 N 462.778 -5.49089 -1.20239 0
M  V30 4731 H 454.929 -2.04395 0.577632 0
M  V30 4732 H 457.192 -0.927287 0.197086 0
M  V30 4733 H 456.898 -3.51413 0.142132 0
M  V30 4734 H 456.772 -3.4134 -1.6052 0
M  V30 4735 H 459.159 -2.42456 -1.68224 0
M  V30 4736 H 459.24 -2.55674 0.0803688 0
M  V30 4737 H 458.884 -5.07771 -0.114655 0
M  V30 4738 H 458.814 -4.91613 -1.88745 0
M  V30 4739 H 461.305 -3.6524 -0.96996 0
M  V30 4740 H 461.618 -7.60511 -1.37271 0
M  V30 4741 H 459.963 -6.83824 -1.24136 0
M  V30 4742 H 463.154 -4.54507 -1.11985 0
M  V30 4743 H 463.327 -6.34749 -1.30373 0
M  V30 4744 N 456.733 0.527833 -1.48498 0
M  V30 4745 C 457.696 1.61439 -1.62696 0
M  V30 4746 C 458.696 1.52824 -0.500136 0
M  V30 4747 O 459.886 1.56456 -0.765976 0
M  V30 4748 C 457.018 3.01063 -1.59918 0
M  V30 4749 H 458.211 1.50189 -2.59583 0
M  V30 4750 H 455.764 0.750055 -1.37127 0
M  V30 4751 H 456.499 3.17818 -0.645163 0
M  V30 4752 H 456.284 3.08725 -2.41726 0
M  V30 4753 H 457.774 3.80057 -1.73051 0
M  V30 4754 N 458.211 1.37122 0.776871 0
M  V30 4755 C 459.459 1.31787 1.53221 0
M  V30 4756 C 459.78 -0.0987589 1.9475 0
M  V30 4757 O 459.05 -1.0417 1.65908 0
M  V30 4758 H 457.63 0.484839 0.568278 0
M  V30 4759 H 460.292 1.71556 0.924917 0
M  V30 4760 H 459.388 1.95355 2.43398 0
M  V30 4761 N 459.689 -1.00246 1.21608 0
M  V30 4762 C 460.652 -2.07233 0.979133 0
M  V30 4763 C 461.652 -1.6072 -0.0508219 0
M  V30 4764 O 462.842 -1.73196 0.186712 0
M  V30 4765 C 459.974 -3.37546 0.477016 0
M  V30 4766 H 461.167 -2.29687 1.92831 0
M  V30 4767 H 458.72 -1.17261 1.03342 0
M  V30 4768 H 459.455 -3.20773 -0.476966 0
M  V30 4769 H 459.24 -3.72638 1.21997 0
M  V30 4770 H 460.73 -4.16285 0.331181 0
M  V30 4771 N 461.167 -1.02423 -1.1978 0
M  V30 4772 C 462.444 -0.632802 -1.85081 0
M  V30 4773 C 462.824 0.888745 -1.9148 0
M  V30 4774 O 462.172 1.78357 -1.42832 0
M  V30 4775 C 462.382 -1.28947 -3.24305 0
M  V30 4776 C 463.73 -1.40976 -4.00513 0
M  V30 4777 O 464.754 -1.24628 -3.33686 0
M  V30 4778 O 463.613 -1.67467 -5.20209 0
M  V30 4779 H 460.707 -0.219348 -0.79738 0
M  V30 4780 H 463.253 -1.12209 -1.27307 0
M  V30 4781 H 462.025 -2.3288 -3.14456 0
M  V30 4782 H 461.648 -0.787748 -3.89718 0
M  V30 4783 N 462.645 1.35699 -0.801477 0
M  V30 4784 C 463.894 1.98165 -0.375979 0
M  V30 4785 C 464.207 1.64306 1.06127 0
M  V30 4786 O 465.413 2.20097 1.58964 0
M  V30 4787 C 463.869 3.54497 -0.621305 0
M  V30 4788 C 463.477 3.9727 -2.07076 0
M  V30 4789 C 465.221 4.23697 -0.26091 0
M  V30 4790 C 463.128 5.46427 -2.26211 0
M  V30 4791 H 462.058 0.741478 -0.136844 0
M  V30 4792 H 464.709 1.54834 -0.984814 0
M  V30 4793 H 463.091 3.95958 0.0574112 0
M  V30 4794 H 464.265 3.66974 -2.78687 0
M  V30 4795 H 462.58 3.40943 -2.39054 0
M  V30 4796 H 465.177 5.33334 -0.381994 0
M  V30 4797 H 465.52 4.0869 0.792344 0
M  V30 4798 H 466.053 3.87639 -0.893339 0
M  V30 4799 H 462.792 5.66396 -3.29963 0
M  V30 4800 H 462.312 5.78309 -1.59119 0
M  V30 4801 H 463.991 6.12819 -2.07513 0
M  V30 4802 N 464.123 0.554532 1.47522 0
M  V30 4803 C 465.372 0.0273458 2.01681 0
M  V30 4804 C 465.685 -1.32962 1.43459 0
M  V30 4805 O 466.891 -1.94657 1.89265 0
M  V30 4806 C 465.347 -0.00159057 3.599 0
M  V30 4807 C 464.955 1.35197 4.27113 0
M  V30 4808 C 466.699 -0.476311 4.21819 0
M  V30 4809 C 464.606 1.28229 5.77331 0
M  V30 4810 H 463.536 0.00645269 0.753972 0
M  V30 4811 H 466.187 0.701985 1.69542 0
M  V30 4812 H 464.569 -0.741821 3.8899 0
M  V30 4813 H 465.743 2.1097 4.09668 0
M  V30 4814 H 464.058 1.76441 3.77171 0
M  V30 4815 H 466.655 -0.5468 5.31897 0
M  V30 4816 H 466.998 -1.4877 3.8881 0
M  V30 4817 H 467.531 0.20898 3.97251 0
M  V30 4818 H 464.27 2.26959 6.14955 0
M  V30 4819 H 463.79 0.566314 5.97121 0
M  V30 4820 H 465.469 0.983226 6.39485 0
M  V30 4821 N 465.601 -1.54893 0.290851 0
M  V30 4822 C 466.85 -1.99111 -0.322113 0
M  V30 4823 C 467.163 -1.18283 -1.55784 0
M  V30 4824 O 468.369 -1.5272 -2.24475 0
M  V30 4825 C 466.825 -3.54442 -0.624438 0
M  V30 4826 C 466.433 -4.44066 0.592373 0
M  V30 4827 C 468.177 -4.07211 -1.19916 0
M  V30 4828 C 466.084 -5.90812 0.263762 0
M  V30 4829 H 465.014 -0.743712 -0.124133 0
M  V30 4830 H 467.665 -1.79132 0.39797 0
M  V30 4831 H 466.047 -3.70281 -1.40384 0
M  V30 4832 H 467.221 -4.39999 1.36886 0
M  V30 4833 H 465.536 -4.02015 1.08502 0
M  V30 4834 H 468.133 -5.14407 -1.45909 0
M  V30 4835 H 468.476 -3.57196 -2.13815 0
M  V30 4836 H 469.009 -3.94873 -0.481687 0
M  V30 4837 H 465.748 -6.44955 1.17105 0
M  V30 4838 H 465.268 -5.97911 -0.475655 0
M  V30 4839 H 466.947 -6.46852 -0.138354 0
M  V30 4840 N 467.08 -0.0183926 -1.57589 0
M  V30 4841 C 468.308 0.673046 -1.95647 0
M  V30 4842 C 468.723 1.66275 -0.894312 0
M  V30 4843 O 468.08 1.82072 0.124975 0
M  V30 4844 C 468.131 1.38884 -3.33756 0
M  V30 4845 O 467.852 0.438806 -4.35897 0
M  V30 4846 C 469.353 2.1731 -3.86383 0
M  V30 4847 H 466.573 0.186292 -0.644621 0
M  V30 4848 H 469.117 -0.0749748 -2.04363 0
M  V30 4849 H 467.272 2.08835 -3.26293 0
M  V30 4850 H 467.686 0.945869 -5.15901 0
M  V30 4851 H 469.16 2.62863 -4.85394 0
M  V30 4852 H 469.637 3.00764 -3.20059 0
M  V30 4853 H 470.243 1.52339 -3.97081 0
M  V30 4854 N 468.558 1.5553 0.254621 0
M  V30 4855 C 469.788 1.80784 1.00004 0
M  V30 4856 C 470.196 0.59071 1.79742 0
M  V30 4857 O 469.539 -0.449988 1.78103 0
M  V30 4858 C 469.601 2.99268 1.99196 0
M  V30 4859 C 469.265 4.35595 1.38224 0
M  V30 4860 C 470.262 5.13884 0.788611 0
M  V30 4861 C 467.947 4.82281 1.40393 0
M  V30 4862 C 469.941 6.37004 0.224783 0
M  V30 4863 C 467.628 6.05351 0.836243 0
M  V30 4864 C 468.626 6.82551 0.24769 0
M  V30 4865 O 468.314 8.03297 -0.311249 0
M  V30 4866 H 468.046 0.60565 0.300274 0
M  V30 4867 H 470.6 2.03411 0.285143 0
M  V30 4868 H 468.83 2.72377 2.74496 0
M  V30 4869 H 470.519 3.11682 2.60018 0
M  V30 4870 H 471.285 4.78938 0.764423 0
M  V30 4871 H 467.164 4.22189 1.85142 0
M  V30 4872 H 470.708 6.97203 -0.235235 0
M  V30 4873 H 466.605 6.39776 0.857733 0
M  V30 4874 H 467.373 8.1825 -0.20237 0
M  V30 4875 N 470.036 -0.519951 1.48776 0
M  V30 4876 C 471.266 -1.29783 1.60748 0
M  V30 4877 C 471.674 -1.87253 0.27072 0
M  V30 4878 O 471.017 -1.67628 -0.751438 0
M  V30 4879 C 471.079 -2.47984 2.60277 0
M  V30 4880 C 470.743 -2.11526 4.051 0
M  V30 4881 C 471.74 -1.66608 4.92481 0
M  V30 4882 C 469.425 -2.21742 4.50706 0
M  V30 4883 C 471.419 -1.32384 6.23501 0
M  V30 4884 C 469.106 -1.87129 5.81744 0
M  V30 4885 C 470.104 -1.42523 6.67964 0
M  V30 4886 O 469.792 -1.0837 7.96562 0
M  V30 4887 H 469.524 -0.400562 0.544542 0
M  V30 4888 H 472.078 -0.632879 1.95407 0
M  V30 4889 H 470.308 -3.17493 2.2076 0
M  V30 4890 H 471.997 -3.10036 2.61978 0
M  V30 4891 H 472.763 -1.58178 4.58481 0
M  V30 4892 H 468.642 -2.55415 3.83776 0
M  V30 4893 H 472.186 -0.974949 6.90754 0
M  V30 4894 H 468.083 -1.95204 6.15277 0
M  V30 4895 H 468.851 -1.21681 8.09405 0
M  V30 4896 N 471.514 -1.37532 -0.769588 0
M  V30 4897 C 472.742 -1.36059 -1.55871 0
M  V30 4898 C 473.157 0.053544 -1.88724 0
M  V30 4899 O 472.514 1.01591 -1.5161 0
M  V30 4900 C 472.565 -2.20107 -2.86767 0
M  V30 4901 O 472.286 -3.56009 -2.55321 0
M  V30 4902 C 473.787 -2.26636 -3.80987 0
M  V30 4903 H 471.007 -0.465967 -0.482821 0
M  V30 4904 H 473.551 -1.80901 -0.953686 0
M  V30 4905 H 471.706 -1.78768 -3.43687 0
M  V30 4906 H 472.12 -4.0009 -3.39158 0
M  V30 4907 H 473.594 -2.89763 -4.69831 0
M  V30 4908 H 474.071 -1.2754 -4.20274 0
M  V30 4909 H 474.677 -2.68296 -3.29996 0
M  V30 4910 N 472.992 0.995999 -1.22138 0
M  V30 4911 C 474.403 1.54961 -1.04135 0
M  V30 4912 C 474.754 1.92159 0.396147 0
M  V30 4913 O 473.879 1.74435 1.28069 0
M  V30 4914 C 474.474 2.81581 -1.88408 0
M  V30 4915 C 473.033 3.33396 -1.74712 0
M  V30 4916 C 472.18 2.06509 -1.85066 0
M  V30 4917 H 475.131 0.817436 -1.36028 0
M  V30 4918 H 475.152 3.53822 -1.39966 0
M  V30 4919 H 474.664 2.54476 -2.93025 0
M  V30 4920 H 472.765 3.65416 -0.728159 0
M  V30 4921 H 472.878 4.04208 -2.57202 0
M  V30 4922 H 471.242 2.19925 -1.28472 0
M  V30 4923 H 472.025 1.81804 -2.91208 0
M  V30 4924 N 474.47 1.03057 1.19235 0
M  V30 4925 C 475.402 0.570932 2.21975 0
M  V30 4926 C 476.415 -0.354088 1.58903 0
M  V30 4927 O 477.604 -0.150211 1.77867 0
M  V30 4928 C 474.704 -0.187152 3.38383 0
M  V30 4929 C 473.877 0.743231 4.31039 0
M  V30 4930 C 472.936 0.0302493 5.26191 0
M  V30 4931 O 471.962 0.657371 5.65391 0
M  V30 4932 N 473.164 -1.23991 5.67104 0
M  V30 4933 H 475.929 1.45456 2.62036 0
M  V30 4934 H 473.49 0.909807 1.33918 0
M  V30 4935 H 475.482 -0.673715 3.99053 0
M  V30 4936 H 474.052 -0.972205 2.97098 0
M  V30 4937 H 473.272 1.40985 3.68126 0
M  V30 4938 H 474.56 1.3755 4.89854 0
M  V30 4939 H 473.958 -1.77011 5.37293 0
M  V30 4940 H 472.515 -1.67093 6.30018 0
M  V30 4941 N 475.948 -1.35272 0.808662 0
M  V30 4942 C 476.878 -2.32315 0.234981 0
M  V30 4943 C 477.859 -1.57572 -0.64071 0
M  V30 4944 O 479.044 -1.8563 -0.570551 0
M  V30 4945 C 476.174 -3.41801 -0.615601 0
M  V30 4946 C 475.128 -4.27694 0.161767 0
M  V30 4947 C 474.454 -5.28519 -0.810649 0
M  V30 4948 C 475.754 -5.04231 1.36193 0
M  V30 4949 H 477.448 -2.80543 1.04575 0
M  V30 4950 H 474.994 -1.3488 0.504315 0
M  V30 4951 H 476.947 -4.08693 -1.02702 0
M  V30 4952 H 475.671 -2.92186 -1.45928 0
M  V30 4953 H 474.33 -3.62384 0.554382 0
M  V30 4954 H 473.978 -4.75171 -1.64988 0
M  V30 4955 H 473.678 -5.8686 -0.294822 0
M  V30 4956 H 475.202 -5.98283 -1.22023 0
M  V30 4957 H 476.616 -5.64058 1.02528 0
M  V30 4958 H 475.013 -5.72077 1.81239 0
M  V30 4959 H 476.083 -4.34753 2.14751 0
M  V30 4960 N 477.426 -0.562348 -1.47226 0
M  V30 4961 C 478.356 0.170627 -2.32876 0
M  V30 4962 C 479.337 0.903748 -1.44106 0
M  V30 4963 O 480.522 0.883206 -1.72954 0
M  V30 4964 C 477.652 1.19786 -3.25989 0
M  V30 4965 C 476.606 0.580875 -4.2404 0
M  V30 4966 C 475.932 1.71311 -5.06514 0
M  V30 4967 C 477.232 -0.468714 -5.20193 0
M  V30 4968 H 478.926 -0.544441 -2.94408 0
M  V30 4969 H 476.472 -0.263271 -1.41573 0
M  V30 4970 H 478.425 1.71884 -3.84752 0
M  V30 4971 H 477.149 1.94294 -2.62521 0
M  V30 4972 H 475.808 0.0811538 -3.6651 0
M  V30 4973 H 475.456 2.44736 -4.39447 0
M  V30 4974 H 475.156 1.30604 -5.72902 0
M  V30 4975 H 476.68 2.23725 -5.68137 0
M  V30 4976 H 478.094 -0.0336028 -5.7329 0
M  V30 4977 H 476.491 -0.794957 -5.94811 0
M  V30 4978 H 477.561 -1.36269 -4.65359 0
M  V30 4979 N 478.904 1.54736 -0.299062 0
M  V30 4980 C 479.836 2.20891 0.61153 0
M  V30 4981 C 480.849 1.20104 1.09904 0
M  V30 4982 O 482.038 1.46707 1.01683 0
M  V30 4983 C 479.138 2.84018 1.84897 0
M  V30 4984 C 478.311 4.10719 1.50428 0
M  V30 4985 C 477.37 4.57667 2.59667 0
M  V30 4986 O 476.396 5.2291 2.24842 0
M  V30 4987 N 477.598 4.29821 3.90172 0
M  V30 4988 H 480.363 2.99666 0.0452001 0
M  V30 4989 H 477.924 1.61446 -0.121178 0
M  V30 4990 H 479.916 3.1236 2.5732 0
M  V30 4991 H 478.486 2.09095 2.32375 0
M  V30 4992 H 477.706 3.89408 0.612781 0
M  V30 4993 H 478.994 4.93223 1.24934 0
M  V30 4994 H 478.392 3.77549 4.21276 0
M  V30 4995 H 476.949 4.62877 4.58899 0
M  V30 4996 N 480.382 0.0267497 1.57577 0
M  V30 4997 C 481.628 -0.647596 1.92815 0
M  V30 4998 C 481.983 -1.69872 0.903396 0
M  V30 4999 O 481.276 -1.91429 -0.0808881 0
M  V30 5000 C 481.47 -1.30914 3.3256 0
M  V30 5001 C 481.299 -0.323621 4.48534 0
M  V30 5002 C 480.069 0.0756607 5.05243 0
M  V30 5003 C 482.267 0.42112 5.12573 0
M  V30 5004 N 480.249 1.0566 6.04739 0
M  V30 5005 C 481.62 1.25589 6.07147 0
M  V30 5006 C 483.675 0.482077 4.95561 0
M  V30 5007 C 482.378 2.1461 6.86538 0
M  V30 5008 C 484.404 1.35962 5.75559 0
M  V30 5009 C 483.766 2.18217 6.69747 0
M  V30 5010 H 479.865 -0.209357 0.753454 0
M  V30 5011 H 482.449 0.0933695 1.94476 0
M  V30 5012 H 480.62 -2.02026 3.31723 0
M  V30 5013 H 482.352 -1.94033 3.55153 0
M  V30 5014 H 479.107 -0.298294 4.7266 0
M  V30 5015 H 479.531 1.54324 6.59176 0
M  V30 5016 H 484.173 -0.139609 4.22569 0
M  V30 5017 H 481.891 2.77835 7.58837 0
M  V30 5018 H 485.477 1.41105 5.6443 0
M  V30 5019 H 484.357 2.85022 7.3057 0
M  V30 5020 N 481.861 -1.55662 -0.24637 0
M  V30 5021 C 482.791 -1.93377 -1.30873 0
M  V30 5022 C 483.772 -0.798773 -1.50179 0
M  V30 5023 O 484.957 -1.0591 -1.62778 0
M  V30 5024 C 482.087 -2.22893 -2.66338 0
M  V30 5025 C 481.041 -3.38649 -2.61727 0
M  V30 5026 C 480.367 -3.53708 -4.00992 0
M  V30 5027 C 481.667 -4.74323 -2.18666 0
M  V30 5028 H 483.361 -2.82363 -0.995552 0
M  V30 5029 H 480.907 -1.35854 -0.477464 0
M  V30 5030 H 482.86 -2.47866 -3.40794 0
M  V30 5031 H 481.584 -1.30733 -2.99293 0
M  V30 5032 H 480.243 -3.13685 -1.89729 0
M  V30 5033 H 479.891 -2.58967 -4.31214 0
M  V30 5034 H 479.591 -4.31551 -3.98795 0
M  V30 5035 H 481.115 -3.81003 -4.77147 0
M  V30 5036 H 482.529 -4.98665 -2.82854 0
M  V30 5037 H 480.926 -5.55273 -2.27579 0
M  V30 5038 H 481.996 -4.71349 -1.13834 0
M  V30 5039 N 483.339 0.512053 -1.4905 0
M  V30 5040 C 484.286 1.6148 -1.64902 0
M  V30 5041 C 485.256 1.58687 -0.490673 0
M  V30 5042 O 486.441 1.76842 -0.71636 0
M  V30 5043 C 483.581 2.99676 -1.71139 0
M  V30 5044 C 482.694 3.12568 -2.98203 0
M  V30 5045 C 481.829 4.4143 -2.95487 0
M  V30 5046 C 480.868 4.47916 -4.17179 0
M  V30 5047 N 480.005 5.68191 -4.12437 0
M  V30 5048 H 484.845 1.47271 -2.59066 0
M  V30 5049 H 482.382 0.716713 -1.28459 0
M  V30 5050 H 484.34 3.79761 -1.72736 0
M  V30 5051 H 482.97 3.12614 -0.804508 0
M  V30 5052 H 482.022 2.25618 -3.06269 0
M  V30 5053 H 483.334 3.1322 -3.88194 0
M  V30 5054 H 482.488 5.29825 -2.95585 0
M  V30 5055 H 481.227 4.43326 -2.03256 0
M  V30 5056 H 480.232 3.57925 -4.17337 0
M  V30 5057 H 481.457 4.47744 -5.1059 0
M  V30 5058 H 479.403 5.7095 -3.23036 0
M  V30 5059 H 479.32 5.70413 -4.96151 0
M  V30 5060 H 480.588 6.58823 -4.16621 0
M  V30 5061 N 484.817 1.37938 0.762283 0
M  V30 5062 C 485.727 1.36681 1.90671 0
M  V30 5063 C 486.743 0.265078 1.71969 0
M  V30 5064 O 487.919 0.502055 1.95042 0
M  V30 5065 C 484.984 1.18211 3.25925 0
M  V30 5066 C 484.045 2.3811 3.57214 0
M  V30 5067 C 483.278 2.20512 4.86014 0
M  V30 5068 O 483.501 1.19429 5.57757 0
M  V30 5069 O 482.435 3.08911 5.16583 0
M  V30 5070 H 486.261 2.33091 1.94685 0
M  V30 5071 H 483.846 1.18767 0.906356 0
M  V30 5072 H 485.728 1.09937 4.06807 0
M  V30 5073 H 484.403 0.248807 3.22742 0
M  V30 5074 H 483.31 2.51958 2.76529 0
M  V30 5075 H 484.643 3.30041 3.65149 0
M  V30 5076 N 486.295 -0.989507 1.22664 0
M  V30 5077 C 487.205 -2.11449 1.01619 0
M  V30 5078 C 488.221 -1.73962 -0.036545 0
M  V30 5079 O 489.397 -2.00788 0.156924 0
M  V30 5080 C 486.462 -3.41465 0.600204 0
M  V30 5081 C 485.523 -3.93033 1.72695 0
M  V30 5082 C 484.756 -5.16844 1.33071 0
M  V30 5083 O 484.979 -5.7001 0.210975 0
M  V30 5084 O 483.913 -5.6225 2.14845 0
M  V30 5085 H 487.739 -2.32088 1.9588 0
M  V30 5086 H 485.324 -1.09823 1.01289 0
M  V30 5087 H 487.206 -4.19695 0.37873 0
M  V30 5088 H 485.881 -3.22178 -0.313511 0
M  V30 5089 H 484.788 -3.15961 2.00298 0
M  V30 5090 H 486.121 -4.16758 2.61865 0
M  V30 5091 O 487.812 -1.16279 -1.12078 0
M  V30 5092 H 488.503 -0.894109 -1.7183 0
M  V30 END ATOM
M  V30 BEGIN BOND
M  V30 END BOND
M  V30 END CTAB
M  END
$$$$
