drugbank_target|Q9WYT0 Thymidylate synthase ThyX (DB01903; DB03147; DB03761; DB03800)
 OpenBabel12092119533D

  0  0  0     0  0            999 V3000
M  V30 BEGIN CTAB
M  V30 COUNTS 3680 3729 0 0 0
M  V30 BEGIN ATOM
M  V30 1 H -0.908 1.98254 -0.117106 0
M  V30 2 N 0 1.576 0 0
M  V30 3 C 0.933 2.03868 1.02534 0
M  V30 4 C 1.911 0.928543 1.3348 0
M  V30 5 O 3.095 1.19667 1.45644 0
M  V30 6 C 0.222 2.43627 2.35294 0
M  V30 7 C -0.732 3.65373 2.2001 0
M  V30 8 S 0.101 5.13292 1.52614 0
M  V30 9 C 1.257 5.56322 2.86805 0
M  V30 10 H 1.49 2.90518 0.631377 0
M  V30 11 H -0.977 1.52953 0.210867 0
M  V30 12 H 0.981 2.67203 3.11629 0
M  V30 13 H -0.358 1.57376 2.7183 0
M  V30 14 H -1.165 3.90944 3.18086 0
M  V30 15 H -1.563 3.418 1.51819 0
M  V30 16 H 0.729 5.58782 3.83104 0
M  V30 17 H 1.672 6.56266 2.65933 0
M  V30 18 H 2.08 4.83886 2.90714 0
M  V30 19 N 1.4781 -0.272755 1.55222 0
M  V30 20 C 2.4251 -1.33716 1.88119 0
M  V30 21 C 3.3951 -1.49066 0.73271 0
M  V30 22 O 4.5801 -1.63469 0.984002 0
M  V30 23 C 1.7201 -2.69238 2.15882 0
M  V30 24 C 0.8331 -2.62108 3.43399 0
M  V30 25 C -0.0319 -3.89811 3.60861 0
M  V30 26 C -0.9929 -3.77193 4.8207 0
M  V30 27 N -1.8559 -4.9673 4.96189 0
M  V30 28 H 2.9841 -1.04962 2.78903 0
M  V30 29 H 0.5211 -0.507088 1.38083 0
M  V30 30 H 2.4791 -3.48089 2.29978 0
M  V30 31 H 1.1091 -2.96194 1.28331 0
M  V30 32 H 0.1611 -1.74967 3.37773 0
M  V30 33 H 1.4731 -2.48685 4.32386 0
M  V30 34 H 0.6271 -4.77103 3.74777 0
M  V30 35 H -0.6339 -4.06102 2.7006 0
M  V30 36 H -1.6289 -2.88284 4.68159 0
M  V30 37 H -0.4039 -3.62421 5.74307 0
M  V30 38 H -2.4579 -5.13431 4.08319 0
M  V30 39 H -2.5409 -4.85839 5.79221 0
M  V30 40 H -1.2729 -5.85594 5.1449 0
M  V30 41 N 2.9562 -1.48159 -0.537278 0
M  V30 42 C 4.2052 -1.5506 -1.28993 0
M  V30 43 C 4.5182 -0.226211 -1.94288 0
M  V30 44 O 5.7242 -0.173395 -2.70946 0
M  V30 45 C 4.1802 -2.73429 -2.34018 0
M  V30 46 C 3.7882 -4.1248 -1.74825 0
M  V30 47 C 5.5322 -2.89638 -3.10339 0
M  V30 48 C 3.4392 -5.22121 -2.77747 0
M  V30 49 H 2.3692 -0.577231 -0.485098 0
M  V30 50 H 5.0202 -1.74478 -0.568317 0
M  V30 51 H 3.4022 -2.47431 -3.09182 0
M  V30 52 H 4.5762 -4.48466 -1.05899 0
M  V30 53 H 2.8912 -4.01327 -1.11022 0
M  V30 54 H 5.4882 -3.68718 -3.87235 0
M  V30 55 H 5.8312 -1.9882 -3.65754 0
M  V30 56 H 6.3642 -3.15502 -2.42288 0
M  V30 57 H 3.1032 -6.1488 -2.27161 0
M  V30 58 H 2.6232 -4.90631 -3.45024 0
M  V30 59 H 4.3022 -5.49924 -3.4087 0
M  V30 60 N 4.4343 0.785586 -1.36625 0
M  V30 61 C 5.7113 1.53198 -1.21613 0
M  V30 62 C 6.0913 2.10187 0.196113 0
M  V30 63 O 5.4393 1.94318 1.20219 0
M  V30 64 C 5.6493 2.62388 -2.30116 0
M  V30 65 C 6.9973 3.30167 -2.66974 0
M  V30 66 O 8.0213 2.72674 -2.29188 0
M  V30 67 O 6.8803 4.34077 -3.32023 0
M  V30 68 H 3.9743 0.677865 -0.473738 0
M  V30 69 H 6.5203 0.823739 -1.48367 0
M  V30 70 H 5.2923 2.18299 -3.24748 0
M  V30 71 H 4.9153 3.40827 -2.0475 0
M  V30 72 N 5.9124 1.20967 1.01018 0
M  V30 73 C 7.1614 1.01796 1.74128 0
M  V30 74 C 7.4744 -0.449691 1.90361 0
M  V30 75 O 8.6804 -0.76068 2.60626 0
M  V30 76 C 7.1364 1.7727 3.13215 0
M  V30 77 C 6.7444 3.28171 3.04972 0
M  V30 78 C 8.4884 1.66489 3.90489 0
M  V30 79 C 6.3954 3.96156 4.39107 0
M  V30 80 H 5.3254 0.377276 0.652824 0
M  V30 81 H 7.9764 1.44651 1.12909 0
M  V30 82 H 6.3584 1.27205 3.75013 0
M  V30 83 H 7.5324 3.85499 2.52443 0
M  V30 84 H 5.8474 3.39437 2.41188 0
M  V30 85 H 8.4444 2.14617 4.89738 0
M  V30 86 H 8.7874 0.6222 4.11624 0
M  V30 87 H 9.3204 2.14003 3.35332 0
M  V30 88 H 6.0594 5.00604 4.23174 0
M  V30 89 H 5.5794 3.43617 4.91617 0
M  V30 90 H 7.2584 4.00774 5.07926 0
M  V30 91 N 7.3905 -1.2043 1.01659 0
M  V30 92 C 8.3205 -2.25466 0.607226 0
M  V30 93 C 9.3015 -1.65853 -0.377716 0
M  V30 94 O 10.4865 -1.92409 -0.263149 0
M  V30 95 C 7.6165 -3.47256 -0.0552949 0
M  V30 96 C 6.5705 -4.19462 0.850632 0
M  V30 97 C 5.8965 -5.34673 0.0538859 0
M  V30 98 C 7.1965 -4.75603 2.15868 0
M  V30 99 H 8.8905 -2.59962 1.48526 0
M  V30 100 H 6.4365 -1.2496 0.715605 0
M  V30 101 H 8.3895 -4.19917 -0.353233 0
M  V30 102 H 7.1135 -3.11924 -0.968045 0
M  V30 103 H 5.7725 -3.48667 1.13257 0
M  V30 104 H 5.4205 -4.95585 -0.860514 0
M  V30 105 H 5.1205 -5.83913 0.657192 0
M  V30 106 H 6.6445 -6.10138 -0.237598 0
M  V30 107 H 8.0585 -5.40083 1.92311 0
M  V30 108 H 6.4555 -5.3528 2.71284 0
M  V30 109 H 7.5255 -3.94346 2.82169 0
M  V30 110 N 8.8686 -0.792821 -1.36206 0
M  V30 111 C 10.1456 -0.290627 -1.93429 0
M  V30 112 C 10.5256 1.21773 -1.72437 0
M  V30 113 O 9.8736 2.0108 -1.08531 0
M  V30 114 C 10.0836 -0.686973 -3.42172 0
M  V30 115 C 11.4316 -0.668643 -4.19302 0
M  V30 116 O 12.4556 -0.627658 -3.50626 0
M  V30 117 O 11.3146 -0.714597 -5.41808 0
M  V30 118 H 8.4086 -0.0727927 -0.82379 0
M  V30 119 H 10.9546 -0.875593 -1.45367 0
M  V30 120 H 9.7266 -1.72711 -3.51122 0
M  V30 121 H 9.3496 -0.0760733 -3.97527 0
M  V30 122 N 10.3467 1.47872 -0.545128 0
M  V30 123 C 11.2937 2.29849 0.2093 0
M  V30 124 C 12.2637 1.38313 0.919707 0
M  V30 125 O 13.4487 1.67277 0.917772 0
M  V30 126 C 10.5887 3.22019 1.24088 0
M  V30 127 C 9.7017 4.2864 0.537778 0
M  V30 128 C 8.8367 5.07973 1.5536 0
M  V30 129 C 7.8757 6.06381 0.8348 0
M  V30 130 N 7.0127 6.78717 1.79688 0
M  V30 131 H 11.8527 2.93845 -0.49591 0
M  V30 132 H 9.3897 1.44848 -0.256389 0
M  V30 133 H 11.3477 3.73868 1.85144 0
M  V30 134 H 9.9777 2.59914 1.91428 0
M  V30 135 H 9.0297 3.7994 -0.187046 0
M  V30 136 H 10.3417 4.98793 -0.0258907 0
M  V30 137 H 9.4957 5.63912 2.23803 0
M  V30 138 H 8.2347 4.37693 2.15118 0
M  V30 139 H 7.2397 5.49631 0.136388 0
M  V30 140 H 8.4647 6.78665 0.24313 0
M  V30 141 H 6.4107 6.11177 2.38326 0
M  V30 142 H 6.3277 7.44998 1.28505 0
M  V30 143 H 7.5957 7.39237 2.47282 0
M  V30 144 N 11.8248 0.280983 1.55075 0
M  V30 145 C 13.0728 -0.333455 1.9933 0
M  V30 146 C 13.3938 -1.55937 1.17085 0
M  V30 147 O 12.6638 -1.94143 0.261805 0
M  V30 148 H 11.2438 -0.126197 0.736263 0
M  V30 149 H 13.9058 0.387678 1.91005 0
M  V30 150 H 13.0018 -0.619292 3.05894 0
M  V30 151 N 13.3029 -1.57598 0.00835791 0
M  V30 152 C 14.5499 -1.90928 -0.674732 0
M  V30 153 C 14.8779 -0.88277 -1.73313 0
M  V30 154 O 14.1329 0.111294 -1.95383 0
M  V30 155 C 14.4319 -3.3101 -1.34787 0
M  V30 156 C 14.0979 -4.48922 -0.421861 0
M  V30 157 C 12.7599 -4.8091 -0.166927 0
M  V30 158 C 15.1119 -5.20755 0.215211 0
M  V30 159 C 12.4399 -5.821 0.733232 0
M  V30 160 C 14.7919 -6.22905 1.1033 0
M  V30 161 C 13.4559 -6.53346 1.36733 0
M  V30 162 H 12.7259 -0.698656 -0.246902 0
M  V30 163 H 15.3729 -1.91387 0.0656779 0
M  V30 164 H 13.6779 -3.26714 -2.16253 0
M  V30 165 H 15.3749 -3.54061 -1.8826 0
M  V30 166 H 11.9649 -4.23934 -0.630729 0
M  V30 167 H 16.1489 -4.9629 0.0312829 0
M  V30 168 H 11.4049 -6.04042 0.945712 0
M  V30 169 H 15.5789 -6.77694 1.60325 0
M  V30 170 H 13.2059 -7.31573 2.06652 0
M  V30 171 N 14.781 0.264519 -1.55364 0
M  V30 172 C 16.027 0.99646 -1.76631 0
M  V30 173 C 16.36 1.85632 -0.570478 0
M  V30 174 O 15.635 1.89647 0.43175 0
M  V30 175 C 15.918 1.87187 -3.07625 0
M  V30 176 C 15.771 1.04138 -4.37579 0
M  V30 177 C 17.09 2.85749 -3.34717 0
M  V30 178 H 14.209 0.360841 -0.642622 0
M  V30 179 H 16.851 0.268218 -1.88097 0
M  V30 180 H 15.001 2.49279 -2.9798 0
M  V30 181 H 16.673 0.440517 -4.59192 0
M  V30 182 H 14.916 0.345115 -4.32425 0
M  V30 183 H 15.587 1.68729 -5.2558 0
M  V30 184 H 18.063 2.33793 -3.4421 0
M  V30 185 H 16.939 3.44136 -4.27623 0
M  V30 186 H 17.2 3.61311 -2.54768 0
M  V30 187 N 16.2591 1.48442 0.529413 0
M  V30 188 C 17.1691 1.6569 1.66084 0
M  V30 189 C 18.1851 0.539432 1.65427 0
M  V30 190 O 19.3611 0.810572 1.84368 0
M  V30 191 C 16.4261 1.69315 3.02545 0
M  V30 192 C 15.4871 2.92694 3.14052 0
M  V30 193 C 14.7201 2.96137 4.44003 0
M  V30 194 O 14.9431 2.07973 5.31134 0
M  V30 195 O 13.8771 3.88312 4.59888 0
M  V30 196 H 17.7031 2.61483 1.54469 0
M  V30 197 H 15.2881 1.3185 0.702567 0
M  V30 198 H 17.1701 1.74217 3.83701 0
M  V30 199 H 15.8451 0.766966 3.14483 0
M  V30 200 H 14.7521 2.93324 2.32189 0
M  V30 201 H 16.0851 3.84699 3.0703 0
M  V30 202 N 17.7372 -0.778329 1.37039 0
M  V30 203 C 18.6672 -1.90546 1.34962 0
M  V30 204 C 19.6482 -1.68681 0.219274 0
M  V30 205 O 20.8332 -1.89634 0.418624 0
M  V30 206 C 17.9632 -3.27734 1.14925 0
M  V30 207 C 16.9172 -3.64147 2.24902 0
M  V30 208 C 16.2432 -4.99806 1.89996 0
M  V30 209 C 17.5432 -3.71579 3.67051 0
M  V30 210 H 19.2372 -1.92541 2.29277 0
M  V30 211 H 16.7832 -0.924948 1.10366 0
M  V30 212 H 18.7362 -4.06215 1.12104 0
M  V30 213 H 17.4602 -3.26154 0.170631 0
M  V30 214 H 16.1192 -2.8797 2.26868 0
M  V30 215 H 15.7672 -4.94759 0.906796 0
M  V30 216 H 15.4672 -5.25139 2.63634 0
M  V30 217 H 16.9912 -5.80694 1.88749 0
M  V30 218 H 18.4052 -4.40227 3.67251 0
M  V30 219 H 16.8022 -4.08405 4.39688 0
M  V30 220 H 17.8722 -2.72404 4.01154 0
M  V30 221 N 19.2153 -1.21501 -1.00376 0
M  V30 222 C 20.4613 -1.03452 -1.74429 0
M  V30 223 C 20.7943 0.430764 -1.89362 0
M  V30 224 O 20.0693 1.31962 -1.42886 0
M  V30 225 C 20.3523 -1.73375 -3.15615 0
M  V30 226 C 20.2053 -3.27431 -3.08397 0
M  V30 227 C 21.5243 -1.47732 -4.14564 0
M  V30 228 H 18.6433 -0.377226 -0.633143 0
M  V30 229 H 21.2853 -1.49693 -1.17013 0
M  V30 230 H 19.4353 -1.34064 -3.64636 0
M  V30 231 H 21.1073 -3.76119 -2.67081 0
M  V30 232 H 19.3503 -3.5767 -2.45468 0
M  V30 233 H 20.0213 -3.71524 -4.08258 0
M  V30 234 H 22.4973 -1.8186 -3.74254 0
M  V30 235 H 21.3733 -1.99169 -5.11491 0
M  V30 236 H 21.6343 -0.407589 -4.40217 0
M  V30 237 N 20.6934 1.19889 -1.02296 0
M  V30 238 C 21.9704 1.85148 -0.630832 0
M  V30 239 C 22.3504 1.91385 0.890782 0
M  V30 240 O 21.6984 1.42642 1.78509 0
M  V30 241 C 21.9084 3.24442 -1.28602 0
M  V30 242 C 23.2564 4.00663 -1.4055 0
M  V30 243 O 24.2804 3.33818 -1.24273 0
M  V30 244 O 23.1394 5.20387 -1.66913 0
M  V30 245 H 20.2334 0.797613 -0.218499 0
M  V30 246 H 22.7794 1.27427 -1.12074 0
M  V30 247 H 21.5514 3.14704 -2.32545 0
M  V30 248 H 21.1744 3.89802 -0.7836 0
M  V30 249 N 22.1715 0.800033 1.35784 0
M  V30 250 C 23.4175 0.377901 1.99248 0
M  V30 251 C 23.7505 -1.05052 1.63333 0
M  V30 252 O 23.0255 -1.72768 0.893385 0
M  V30 253 C 23.3085 0.553922 3.55814 0
M  V30 254 C 23.1615 2.0268 4.01548 0
M  V30 255 C 24.4805 -0.0244802 4.40093 0
M  V30 256 H 21.5995 0.138782 0.723815 0
M  V30 257 H 24.2415 1.00835 1.61035 0
M  V30 258 H 22.3915 0.0172398 3.88496 0
M  V30 259 H 24.0635 2.62536 3.79305 0
M  V30 260 H 22.3065 2.5256 3.52698 0
M  V30 261 H 22.9775 2.10087 5.10458 0
M  V30 262 H 25.4535 0.433775 4.13833 0
M  V30 263 H 24.3295 0.128637 5.48749 0
M  V30 264 H 24.5905 -1.11758 4.27741 0
M  V30 265 N 23.6496 -1.47581 0.552962 0
M  V30 266 C 24.5826 -2.26883 -0.244857 0
M  V30 267 C 25.5606 -1.33784 -0.924147 0
M  V30 268 O 26.7446 -1.6316 -0.943981 0
M  V30 269 C 23.8716 -3.10695 -1.34856 0
M  V30 270 C 22.9176 -4.19339 -0.778268 0
M  V30 271 S 23.7506 -5.34207 0.37184 0
M  V30 272 C 24.9066 -6.21584 -0.733779 0
M  V30 273 H 25.1396 -2.94202 0.428087 0
M  V30 274 H 22.6726 -1.50628 0.339197 0
M  V30 275 H 24.6306 -3.59555 -1.98066 0
M  V30 276 H 23.2916 -2.42746 -1.99332 0
M  V30 277 H 22.4846 -4.77695 -1.60696 0
M  V30 278 H 22.0866 -3.73338 -0.222422 0
M  V30 279 H 24.3786 -6.57676 -1.62692 0
M  V30 280 H 25.3216 -7.07851 -0.187668 0
M  V30 281 H 25.7296 -5.55125 -1.02454 0
M  V30 282 N 25.1277 -0.289203 -1.54924 0
M  V30 283 C 26.3757 0.322879 -1.99504 0
M  V30 284 C 26.6967 1.55313 -1.1791 0
M  V30 285 O 25.9667 1.94001 -0.272097 0
M  V30 286 H 24.5467 0.122291 -0.736922 0
M  V30 287 H 27.2087 -0.397802 -1.90797 0
M  V30 288 H 26.3047 0.603061 -3.06218 0
M  V30 289 N 26.6058 1.57591 -0.0167156 0
M  V30 290 C 27.5538 2.10604 0.987353 0
M  V30 291 C 28.5478 1.02977 1.34507 0
M  V30 292 O 29.7538 1.21425 1.32875 0
M  V30 293 H 26.1288 0.672695 0.336134 0
M  V30 294 H 28.0998 2.93925 0.514817 0
M  V30 295 C 26.8488 2.6382 2.26483 0
M  V30 296 H 26.1718 3.46278 1.99829 0
M  V30 297 H 27.6118 3.04573 2.94977 0
M  V30 298 C 26.0708 1.55992 2.9861 0
M  V30 299 O 26.6008 0.952521 3.90243 0
M  V30 300 N 24.8068 1.28335 2.60727 0
M  V30 301 H 24.3538 1.77914 1.86291 0
M  V30 302 H 24.3118 0.564115 3.09298 0
M  V30 303 N 28.0839 -0.256276 1.55502 0
M  V30 304 C 29.3609 -1.00789 1.67633 0
M  V30 305 C 29.7409 -2.03706 0.553826 0
M  V30 306 O 29.0889 -2.24145 -0.443969 0
M  V30 307 C 29.2989 -1.64968 3.07549 0
M  V30 308 C 30.6469 -2.15505 3.65845 0
M  V30 309 O 31.6709 -1.74925 3.1029 0
M  V30 310 O 30.5299 -2.89986 4.63217 0
M  V30 311 H 27.6239 -0.468553 0.681459 0
M  V30 312 H 30.1699 -0.250806 1.67836 0
M  V30 313 H 28.9419 -0.904785 3.80696 0
M  V30 314 H 28.5649 -2.47321 3.11317 0
M  V30 315 N 29.562 -1.4872 -0.521534 0
M  V30 316 C 30.492 -1.66771 -1.63431 0
M  V30 317 C 31.473 -0.516499 -1.62069 0
M  V30 318 O 32.658 -0.750013 -1.79132 0
M  V30 319 C 29.788 -1.71515 -3.01993 0
M  V30 320 C 28.742 -2.86222 -3.18216 0
M  V30 321 C 28.068 -2.76061 -4.57924 0
M  V30 322 C 29.368 -4.27419 -3.00184 0
M  V30 323 H 31.062 -2.59932 -1.48579 0
M  V30 324 H 28.608 -1.25089 -0.713358 0
M  V30 325 H 30.561 -1.82731 -3.7972 0
M  V30 326 H 29.285 -0.749393 -3.17886 0
M  V30 327 H 27.944 -2.74575 -2.42908 0
M  V30 328 H 27.592 -1.77437 -4.70665 0
M  V30 329 H 27.292 -3.53037 -4.69722 0
M  V30 330 H 28.816 -2.89256 -5.37739 0
M  V30 331 H 30.23 -4.39855 -3.67697 0
M  V30 332 H 28.627 -5.05458 -3.2347 0
M  V30 333 H 29.697 -4.43293 -1.96518 0
M  V30 334 N 31.0401 0.771051 -1.3745 0
M  V30 335 C 32.2651 1.56529 -1.36065 0
M  V30 336 C 32.6901 1.88029 0.0515859 0
M  V30 337 O 32.0481 1.49282 1.02882 0
M  V30 338 C 32.0961 2.85187 -2.20683 0
M  V30 339 O 31.2001 3.79593 -1.61193 0
M  V30 340 H 30.5411 0.47411 -0.464883 0
M  V30 341 H 33.0711 0.954269 -1.80983 0
M  V30 342 H 33.0811 3.34283 -2.33921 0
M  V30 343 H 31.7561 2.61588 -3.23334 0
M  V30 344 H 30.3331 3.38239 -1.56999 0
M  V30 345 N 32.5182 1.22032 0.997298 0
M  V30 346 C 33.4812 0.987909 2.06816 0
M  V30 347 C 34.4812 -0.0440084 1.6074 0
M  V30 348 O 35.6712 0.194053 1.73116 0
M  V30 349 C 32.8032 0.49132 3.37341 0
M  V30 350 H 33.9962 1.93803 2.28868 0
M  V30 351 H 31.5492 1.03838 1.16822 0
M  V30 352 H 32.2842 -0.463364 3.20973 0
M  V30 353 H 32.0692 1.23575 3.72118 0
M  V30 354 H 33.5592 0.348824 4.16141 0
M  V30 355 N 33.9963 -1.19345 1.0293 0
M  V30 356 C 35.2423 -1.89318 0.727083 0
M  V30 357 C 35.5753 -1.79446 -0.742483 0
M  V30 358 O 34.8503 -1.1871 -1.54072 0
M  V30 359 C 35.1333 -3.40238 1.17942 0
M  V30 360 C 34.9863 -3.58979 2.71024 0
M  V30 361 C 36.3053 -4.33479 0.760548 0
M  V30 362 H 33.4243 -0.687475 0.265606 0
M  V30 363 H 36.0663 -1.40477 1.2793 0
M  V30 364 H 34.2163 -3.81964 0.709608 0
M  V30 365 H 35.8883 -3.26421 3.25955 0
M  V30 366 H 34.1313 -3.02018 3.11396 0
M  V30 367 H 34.8023 -4.64823 2.9773 0
M  V30 368 H 37.2783 -3.99469 1.16464 0
M  V30 369 H 36.1543 -5.37664 1.10493 0
M  V30 370 H 36.4153 -4.40813 -0.337063 0
M  V30 371 N 35.4744 -0.807222 -1.35358 0
M  V30 372 C 36.8904 -0.491038 -1.51858 0
M  V30 373 C 37.0904 0.987648 -1.75635 0
M  V30 374 O 36.1464 1.77265 -1.79815 0
M  V30 375 C 37.4594 -1.33695 -2.69344 0
M  V30 376 C 39.0074 -1.33246 -2.83222 0
M  V30 377 C 39.4824 -2.1625 -4.03733 0
M  V30 378 N 40.9734 -2.1379 -4.10911 0
M  V30 379 C 41.7084 -2.74772 -5.03277 0
M  V30 380 N 41.2044 -3.44684 -6.0097 0
M  V30 381 N 42.9974 -2.6441 -4.96028 0
M  V30 382 H 35.1484 -1.76485 -1.18181 0
M  V30 383 H 37.4114 -0.751199 -0.578276 0
M  V30 384 H 37.1174 -2.38634 -2.58354 0
M  V30 385 H 36.9914 -0.990618 -3.6396 0
M  V30 386 H 39.3784 -0.290911 -2.93663 0
M  V30 387 H 39.4594 -1.71866 -1.89461 0
M  V30 388 H 39.1034 -3.20445 -3.94052 0
M  V30 389 H 39.0334 -1.74989 -4.96675 0
M  V30 390 H 41.5244 -1.62923 -3.40976 0
M  V30 391 H 41.8374 -3.88501 -6.68047 0
M  V30 392 H 40.1824 -3.48788 -6.01142 0
M  V30 393 H 43.3734 -2.0938 -4.18662 0
M  V30 394 H 43.5464 -3.12225 -5.6782 0
M  V30 395 N 36.9525 1.47285 -0.560781 0
M  V30 396 C 37.9155 2.28535 0.174488 0
M  V30 397 C 38.9155 1.37153 0.839388 0
M  V30 398 O 40.1055 1.59748 0.694702 0
M  V30 399 C 37.2375 3.16934 1.25561 0
M  V30 400 H 38.4305 2.95012 -0.539262 0
M  V30 401 H 35.9835 1.53034 -0.317865 0
M  V30 402 H 36.7185 2.55157 2.00164 0
M  V30 403 H 36.5035 3.8419 0.783604 0
M  V30 404 H 37.9935 3.78143 1.77193 0
M  V30 405 N 38.4306 0.297415 1.54768 0
M  V30 406 C 39.3936 -0.567375 2.22066 0
M  V30 407 C 40.3936 -1.06409 1.20556 0
M  V30 408 O 41.5836 -0.960691 1.45315 0
M  V30 409 C 38.7156 -1.78517 2.90421 0
M  V30 410 H 39.9086 0.0205534 2.99893 0
M  V30 411 H 37.4616 0.0482163 1.56226 0
M  V30 412 H 38.1966 -2.41303 2.16664 0
M  V30 413 H 37.9816 -1.43669 3.64831 0
M  V30 414 H 39.4716 -2.39964 3.41771 0
M  V30 415 N 39.9087 -1.5758 0.0250728 0
M  V30 416 C 41.3247 -1.56124 -0.331282 0
M  V30 417 C 41.5247 -1.03029 -1.73169 0
M  V30 418 O 40.5807 -0.675215 -2.43305 0
M  V30 419 C 41.8937 -3.00139 -0.183584 0
M  V30 420 C 43.4417 -3.11946 -0.256654 0
M  V30 421 C 43.9167 -4.57793 -0.137792 0
M  V30 422 N 45.4077 -4.6279 -0.194904 0
M  V30 423 C 46.1427 -5.7326 -0.126655 0
M  V30 424 N 45.6387 -6.928 -0.00755288 0
M  V30 425 N 47.4317 -5.61811 -0.180348 0
M  V30 426 H 39.5827 -1.90424 0.94087 0
M  V30 427 H 41.8457 -0.875761 0.362968 0
M  V30 428 H 41.5517 -3.4292 0.780927 0
M  V30 429 H 41.4257 -3.64899 -0.955448 0
M  V30 430 H 43.8127 -2.69079 -1.21162 0
M  V30 431 H 43.8937 -2.49915 0.545517 0
M  V30 432 H 43.5377 -5.01339 0.813739 0
M  V30 433 H 43.4677 -5.17798 -0.958775 0
M  V30 434 H 45.9587 -3.76807 -0.287267 0
M  V30 435 H 46.2717 -7.72791 0.0379428 0
M  V30 436 H 44.6167 -6.94995 0.0271731 0
M  V30 437 H 47.8077 -4.6731 -0.271767 0
M  V30 438 H 47.9807 -6.47882 -0.123697 0
M  V30 439 N 41.3868 0.248026 -1.55636 0
M  V30 440 C 42.6328 0.97767 -1.77678 0
M  V30 441 C 42.9658 1.85016 -0.590135 0
M  V30 442 O 42.2408 1.90095 0.411611 0
M  V30 443 C 42.5238 1.83914 -3.09593 0
M  V30 444 C 42.3768 0.99491 -4.38659 0
M  V30 445 C 43.6958 2.82183 -3.37729 0
M  V30 446 H 40.8148 0.354005 -0.646413 0
M  V30 447 H 43.4568 0.248253 -1.88371 0
M  V30 448 H 41.6068 2.46104 -3.00608 0
M  V30 449 H 43.2788 0.391789 -4.59633 0
M  V30 450 H 41.5218 0.299231 -4.32767 0
M  V30 451 H 42.1928 1.63145 -5.2734 0
M  V30 452 H 44.6688 2.30129 -3.4667 0
M  V30 453 H 43.5448 3.39582 -4.31249 0
M  V30 454 H 43.8058 3.58588 -2.58586 0
M  V30 455 N 42.8649 1.48995 0.513639 0
M  V30 456 C 44.0899 1.61792 1.29762 0
M  V30 457 C 44.5149 0.284475 1.85936 0
M  V30 458 O 43.8729 -0.746185 1.65232 0
M  V30 459 C 43.9209 2.67993 2.41272 0
M  V30 460 O 43.0249 2.26287 3.44772 0
M  V30 461 H 42.3659 0.541963 0.38363 0
M  V30 462 H 44.8959 1.95097 0.616307 0
M  V30 463 H 44.9059 2.89772 2.87221 0
M  V30 464 H 43.5809 3.64791 1.9975 0
M  V30 465 H 42.1579 2.14788 3.04829 0
M  V30 466 N 44.343 -0.763751 1.37857 0
M  V30 467 C 45.59 -1.52257 1.33506 0
M  V30 468 C 45.918 -1.94343 -0.078022 0
M  V30 469 O 45.173 -1.64958 -1.05297 0
M  V30 470 C 45.472 -2.79499 2.22745 0
M  V30 471 C 45.138 -2.56426 3.70886 0
M  V30 472 C 43.8 -2.49842 4.11257 0
M  V30 473 C 46.152 -2.36008 4.64704 0
M  V30 474 C 43.48 -2.20841 5.43549 0
M  V30 475 C 45.832 -2.0853 5.97242 0
M  V30 476 C 44.496 -2.00396 6.36709 0
M  V30 477 H 43.766 -0.557149 0.488534 0
M  V30 478 H 46.413 -0.879073 1.70131 0
M  V30 479 H 44.718 -3.48447 1.79142 0
M  V30 480 H 46.415 -3.37413 2.16688 0
M  V30 481 H 43.005 -2.62416 3.38874 0
M  V30 482 H 47.189 -2.40079 4.34368 0
M  V30 483 H 42.445 -2.13045 5.73081 0
M  V30 484 H 46.619 -1.91732 6.69486 0
M  V30 485 H 44.246 -1.77688 7.39142 0
M  V30 486 N 45.8211 -1.22559 -0.990812 0
M  V30 487 C 47.0981 -0.959875 -1.70428 0
M  V30 488 C 47.4781 0.524455 -2.04481 0
M  V30 489 O 46.8261 1.49302 -1.72977 0
M  V30 490 C 47.0361 -1.85955 -2.95333 0
M  V30 491 C 48.3841 -2.11687 -3.68068 0
M  V30 492 O 49.4081 -1.8342 -3.05345 0
M  V30 493 O 48.2671 -2.59572 -4.80921 0
M  V30 494 H 45.3611 -0.361154 -0.743974 0
M  V30 495 H 47.9071 -1.33554 -1.04697 0
M  V30 496 H 46.6791 -2.86346 -2.66687 0
M  V30 497 H 46.3021 -1.4856 -3.68803 0
M  V30 498 N 47.2992 1.18797 -1.03562 0
M  V30 499 C 48.2322 2.2105 -0.56676 0
M  V30 500 C 49.2102 1.57704 0.395993 0
M  V30 501 O 50.3942 1.85908 0.311498 0
M  V30 502 C 47.5212 3.38259 0.172704 0
M  V30 503 C 46.5672 4.19987 -0.74252 0
M  V30 504 S 47.4002 4.87199 -2.22254 0
M  V30 505 C 48.5562 6.07813 -1.49379 0
M  V30 506 H 48.7892 2.60478 -1.43312 0
M  V30 507 H 46.3222 1.29151 -0.846133 0
M  V30 508 H 48.2802 4.06191 0.593191 0
M  V30 509 H 46.9412 2.97252 1.01488 0
M  V30 510 H 46.1342 5.03709 -0.171265 0
M  V30 511 H 45.7362 3.57408 -1.10163 0
M  V30 512 H 48.0282 6.72948 -0.784056 0
M  V30 513 H 48.9712 6.69435 -2.30786 0
M  V30 514 H 49.3792 5.55781 -0.988331 0
M  V30 515 N 48.7773 0.814389 1.34928 0
M  V30 516 C 50.0253 0.397636 1.9815 0
M  V30 517 C 50.3463 -1.04069 1.64908 0
M  V30 518 O 49.6163 -1.72121 0.93548 0
M  V30 519 H 48.1963 0.144043 0.732981 0
M  V30 520 H 50.8583 1.04195 1.6471 0
M  V30 521 H 49.9543 0.509688 3.0791 0
M  V30 522 N 50.2554 -1.46986 0.568584 0
M  V30 523 C 51.1854 -2.32946 -0.160753 0
M  V30 524 C 52.1664 -1.44487 -0.897631 0
M  V30 525 O 53.3514 -1.73327 -0.875867 0
M  V30 526 C 50.4814 -3.26494 -1.18403 0
M  V30 527 C 49.4354 -4.24282 -0.562895 0
M  V30 528 C 48.7614 -5.07236 -1.69163 0
M  V30 529 C 50.0614 -5.19989 0.490761 0
M  V30 530 H 51.7554 -2.94175 0.556916 0
M  V30 531 H 49.3014 -1.4146 0.26927 0
M  V30 532 H 51.2544 -3.85477 -1.70251 0
M  V30 533 H 49.9784 -2.63343 -1.93179 0
M  V30 534 H 48.6374 -3.66541 -0.0656164 0
M  V30 535 H 48.2854 -4.4048 -2.42871 0
M  V30 536 H 47.9854 -5.7345 -1.28174 0
M  V30 537 H 49.5094 -5.6908 -2.21314 0
M  V30 538 H 50.9234 -5.73271 0.0579047 0
M  V30 539 H 49.3204 -5.94469 0.820165 0
M  V30 540 H 50.3904 -4.64777 1.3824 0
M  V30 541 N 51.7335 -0.305618 -1.54608 0
M  V30 542 C 52.6805 0.568421 -2.23691 0
M  V30 543 C 53.6505 1.12592 -1.22116 0
M  V30 544 O 54.8355 1.16959 -1.50749 0
M  V30 545 C 51.9755 1.7322 -2.98477 0
M  V30 546 C 51.0885 1.20566 -4.14835 0
M  V30 547 C 50.2235 2.33368 -4.77193 0
M  V30 548 C 49.2625 1.7787 -5.85686 0
M  V30 549 N 48.3995 2.84263 -6.4198 0
M  V30 550 H 53.2395 -0.0272867 -2.97988 0
M  V30 551 H 50.7765 -0.0252363 -1.47078 0
M  V30 552 H 52.7345 2.41675 -3.40072 0
M  V30 553 H 51.3645 2.29947 -2.26548 0
M  V30 554 H 50.4165 0.413223 -3.78149 0
M  V30 555 H 51.7285 0.759417 -4.92985 0
M  V30 556 H 50.8825 3.09761 -5.21664 0
M  V30 557 H 49.6215 2.8132 -3.98385 0
M  V30 558 H 48.6265 0.99968 -5.40635 0
M  V30 559 H 49.8515 1.30816 -6.66381 0
M  V30 560 H 47.7975 3.31541 -5.66053 0
M  V30 561 H 47.7145 2.44149 -7.15491 0
M  V30 562 H 48.9825 3.6054 -6.91109 0
M  V30 563 N 53.2116 1.57565 -0.0334293 0
M  V30 564 C 54.4886 1.83282 0.683163 0
M  V30 565 C 54.8686 0.91823 1.90084 0
M  V30 566 O 54.2166 -0.025113 2.28486 0
M  V30 567 C 54.4266 3.32599 1.0573 0
M  V30 568 C 55.7746 3.99179 1.44711 0
M  V30 569 O 56.7986 3.3712 1.15015 0
M  V30 570 O 55.6576 5.08565 2.0006 0
M  V30 571 H 52.7516 0.755869 0.335546 0
M  V30 572 H 55.2976 1.69589 -0.0614402 0
M  V30 573 H 54.0696 3.90834 0.190828 0
M  V30 574 H 53.6926 3.51415 1.85993 0
M  V30 575 N 54.6897 -0.239769 1.55765 0
M  V30 576 C 55.5997 -1.31831 1.94056 0
M  V30 577 C 56.6157 -1.52275 0.841925 0
M  V30 578 O 57.7917 -1.65759 1.14394 0
M  V30 579 C 54.8567 -2.65156 2.23368 0
M  V30 580 C 53.9177 -2.53173 3.46701 0
M  V30 581 C 53.1507 -3.8014 3.74606 0
M  V30 582 O 53.3737 -4.82343 3.04469 0
M  V30 583 O 52.3077 -3.78344 4.68123 0
M  V30 584 H 56.1337 -1.02347 2.85935 0
M  V30 585 H 53.7187 -0.441123 1.42739 0
M  V30 586 H 55.6007 -3.43929 2.43497 0
M  V30 587 H 54.2757 -2.94358 1.34666 0
M  V30 588 H 53.1827 -1.72662 3.31871 0
M  V30 589 H 54.5157 -2.28915 4.35728 0
M  V30 590 N 56.1678 -1.49265 -0.50573 0
M  V30 591 C 57.0778 -1.68312 -1.63427 0
M  V30 592 C 58.0938 -0.565682 -1.64548 0
M  V30 593 O 59.2698 -0.839801 -1.83055 0
M  V30 594 C 56.3348 -1.74107 -2.99813 0
M  V30 595 C 55.3958 -2.97653 -3.09356 0
M  V30 596 C 54.6288 -3.03163 -4.39236 0
M  V30 597 O 54.8518 -2.16396 -5.27758 0
M  V30 598 O 53.7858 -3.9558 -4.53652 0
M  V30 599 H 57.6118 -2.63907 -1.50289 0
M  V30 600 H 55.1968 -1.32951 -0.681502 0
M  V30 601 H 57.0788 -1.803 -3.80881 0
M  V30 602 H 55.7538 -0.816901 -3.13223 0
M  V30 603 H 54.6608 -2.96981 -2.27493 0
M  V30 604 H 55.9938 -3.89535 -3.00871 0
M  V30 605 N 57.6459 0.756429 -1.3826 0
M  V30 606 C 59.0619 1.0591 -1.19395 0
M  V30 607 C 59.2619 2.01459 -0.0406567 0
M  V30 608 O 58.3179 2.44909 0.614467 0
M  V30 609 C 59.6309 1.64191 -2.51916 0
M  V30 610 C 61.1789 1.76376 -2.58574 0
M  V30 611 C 61.6539 2.38069 -3.91264 0
M  V30 612 N 63.1449 2.45503 -3.92788 0
M  V30 613 C 63.8799 2.94126 -4.92217 0
M  V30 614 N 63.3759 3.42805 -6.02043 0
M  V30 615 N 65.1689 2.9314 -4.7961 0
M  V30 616 H 57.3199 0.122313 -2.12048 0
M  V30 617 H 59.5829 0.116892 -0.940766 0
M  V30 618 H 59.2889 1.01451 -3.3675 0
M  V30 619 H 59.1629 2.6329 -2.70108 0
M  V30 620 H 61.5499 2.38244 -1.74137 0
M  V30 621 H 61.6309 0.759894 -2.44252 0
M  V30 622 H 61.2749 1.76835 -4.76121 0
M  V30 623 H 61.2049 3.39091 -4.02895 0
M  V30 624 H 63.6959 2.1107 -3.13461 0
M  V30 625 H 64.0089 3.78354 -6.73846 0
M  V30 626 H 62.3539 3.4087 -6.05667 0
M  V30 627 H 65.5449 2.54419 -3.92923 0
M  V30 628 H 65.7179 3.30721 -5.5725 0
M  V30 629 N 59.124 1.23083 0.984299 0
M  V30 630 C 60.401 0.9689 1.69917 0
M  V30 631 C 60.781 -0.513604 2.04757 0
M  V30 632 O 60.129 -1.48383 1.73767 0
M  V30 633 C 60.339 1.87518 2.94343 0
M  V30 634 C 61.687 2.13636 3.6694 0
M  V30 635 O 62.711 1.85036 3.04368 0
M  V30 636 O 61.57 2.62119 4.79537 0
M  V30 637 H 58.664 0.365095 0.742048 0
M  V30 638 H 61.21 1.34107 1.03987 0
M  V30 639 H 59.982 2.87756 2.65164 0
M  V30 640 H 59.605 1.50514 3.6801 0
M  V30 641 N 60.6021 -1.18246 1.0419 0
M  V30 642 C 62.0181 -1.40269 0.761366 0
M  V30 643 C 62.2181 -1.90777 -0.648578 0
M  V30 644 O 61.2741 -2.0929 -1.41258 0
M  V30 645 C 62.5871 -2.40237 1.8085 0
M  V30 646 C 64.1351 -2.53961 1.82955 0
M  V30 647 C 64.6101 -3.57194 2.86664 0
M  V30 648 N 66.1011 -3.64702 2.85563 0
M  V30 649 C 66.8361 -4.44309 3.6246 0
M  V30 650 N 66.3321 -5.27514 4.49111 0
M  V30 651 N 68.1251 -4.39084 3.50944 0
M  V30 652 H 60.2761 -0.837882 1.95175 0
M  V30 653 H 62.5391 -0.430608 0.84456 0
M  V30 654 H 62.2451 -2.10176 2.81991 0
M  V30 655 H 62.1191 -3.39601 1.64168 0
M  V30 656 H 64.5061 -2.83338 0.824855 0
M  V30 657 H 64.5871 -1.54706 2.03715 0
M  V30 658 H 64.2311 -3.28558 3.87314 0
M  V30 659 H 64.1611 -4.5613 2.6316 0
M  V30 660 H 66.6521 -3.05289 2.22727 0
M  V30 661 H 66.9651 -5.85411 5.04493 0
M  V30 662 H 65.3101 -5.2693 4.53178 0
M  V30 663 H 68.5011 -3.7313 2.82651 0
M  V30 664 H 68.6741 -5.00883 4.11121 0
M  V30 665 N 62.0802 -0.821533 -1.34494 0
M  V30 666 C 63.0302 -0.214793 -2.26986 0
M  V30 667 C 64.0142 0.620125 -1.4847 0
M  V30 668 O 65.2062 0.474933 -1.70509 0
M  V30 669 C 62.3352 0.623566 -3.37589 0
M  V30 670 C 61.4212 -0.221904 -4.23519 0
M  V30 671 N 61.8122 -1.29223 -4.89014 0
M  V30 672 C 60.1102 -0.00600922 -4.46 0
M  V30 673 C 60.8112 -1.80965 -5.52835 0
M  V30 674 N 59.7872 -1.11376 -5.32068 0
M  V30 675 H 63.5892 -1.03354 -2.75128 0
M  V30 676 H 61.1032 -0.6642 -1.48196 0
M  V30 677 H 63.1002 1.0744 -4.02818 0
M  V30 678 H 61.7602 1.44049 -2.90998 0
M  V30 679 H 62.7712 -1.67502 -4.90065 0
M  V30 680 H 59.4482 0.77886 -4.10171 0
M  V30 681 H 60.8382 -2.70502 -6.15043 0
M  V30 682 N 63.5583 1.46682 -0.576371 0
M  V30 683 C 64.4883 2.33028 0.148397 0
M  V30 684 C 65.4693 1.44961 0.889956 0
M  V30 685 O 66.6543 1.73789 0.866662 0
M  V30 686 C 63.7843 3.27117 1.1667 0
M  V30 687 C 62.7383 4.24575 0.540386 0
M  V30 688 C 62.0643 5.08126 1.6647 0
M  V30 689 C 63.3643 5.19722 -0.518331 0
M  V30 690 H 65.0583 2.93875 -0.572509 0
M  V30 691 H 62.6043 1.41315 -0.276768 0
M  V30 692 H 64.5573 3.86374 1.68204 0
M  V30 693 H 63.2813 2.64364 1.9178 0
M  V30 694 H 61.9403 3.66571 0.0461769 0
M  V30 695 H 61.5883 4.41762 2.40531 0
M  V30 696 H 61.2883 5.74122 1.25131 0
M  V30 697 H 62.8123 5.70246 2.18293 0
M  V30 698 H 64.2263 5.73232 -0.0883058 0
M  V30 699 H 62.6233 5.94026 -0.851679 0
M  V30 700 H 63.6933 4.64037 -1.40703 0
M  V30 701 N 65.0364 0.313813 1.54444 0
M  V30 702 C 66.2854 -0.292519 1.99568 0
M  V30 703 C 66.5984 -1.54011 1.20582 0
M  V30 704 O 67.8044 -2.22183 1.56035 0
M  V30 705 C 66.2604 -0.571752 3.55329 0
M  V30 706 C 65.8684 0.658229 4.43138 0
M  V30 707 C 67.6124 -1.13857 4.08946 0
M  V30 708 C 65.5194 0.351439 5.90355 0
M  V30 709 H 64.4494 -0.113079 0.745472 0
M  V30 710 H 67.1004 0.424518 1.78522 0
M  V30 711 H 65.4824 -1.34872 3.72325 0
M  V30 712 H 66.6564 1.43403 4.37918 0
M  V30 713 H 64.9714 1.14458 4.0036 0
M  V30 714 H 67.5684 -1.38257 5.16516 0
M  V30 715 H 67.9114 -2.08489 3.6033 0
M  V30 716 H 68.4444 -0.423015 3.95544 0
M  V30 717 H 65.1834 1.26667 6.43145 0
M  V30 718 H 64.7034 -0.386842 5.98551 0
M  V30 719 H 66.3824 -0.0423134 6.46986 0
M  V30 720 N 66.5145 -1.57545 0.0417849 0
M  V30 721 C 67.4245 -2.14451 -0.951213 0
M  V30 722 C 68.4405 -1.09992 -1.34825 0
M  V30 723 O 69.6165 -1.42114 -1.42708 0
M  V30 724 C 66.6815 -2.67063 -2.21084 0
M  V30 725 C 65.7425 -3.86284 -1.87304 0
M  V30 726 C 64.9755 -4.36378 -3.07261 0
M  V30 727 O 65.1985 -3.85587 -4.20332 0
M  V30 728 O 64.1325 -5.28077 -2.88822 0
M  V30 729 H 67.9585 -2.99601 -0.497287 0
M  V30 730 H 65.5435 -1.48317 -0.179567 0
M  V30 731 H 67.4255 -3.00914 -2.95006 0
M  V30 732 H 66.1005 -1.84989 -2.65633 0
M  V30 733 H 65.0075 -3.57338 -1.10727 0
M  V30 734 H 66.3405 -4.6956 -1.47562 0
M  V30 735 N 67.9926 0.231505 -1.5589 0
M  V30 736 C 69.2226 0.973092 -1.82248 0
M  V30 737 C 69.6306 1.78845 -0.617328 0
M  V30 738 O 68.9736 1.78752 0.423499 0
M  V30 739 C 69.0356 1.94732 -3.02192 0
M  V30 740 C 68.6996 1.31743 -4.37599 0
M  V30 741 C 69.6966 0.712238 -5.14998 0
M  V30 742 C 67.3816 1.33218 -4.84312 0
M  V30 743 C 69.3756 0.130195 -6.37267 0
M  V30 744 C 67.0626 0.746286 -6.06526 0
M  V30 745 C 68.0606 0.146337 -6.82843 0
M  V30 746 O 67.7486 -0.430465 -8.02747 0
M  V30 747 H 67.4806 0.29125 -0.61004 0
M  V30 748 H 70.0346 0.254915 -2.03812 0
M  V30 749 H 68.2646 2.70422 -2.76422 0
M  V30 750 H 69.9536 2.55362 -3.15508 0
M  V30 751 H 70.7196 0.69324 -4.8002 0
M  V30 752 H 66.5986 1.78854 -4.24891 0
M  V30 753 H 70.1426 -0.33871 -6.96777 0
M  V30 754 H 66.0396 0.762663 -6.40979 0
M  V30 755 H 66.8076 -0.323818 -8.17859 0
M  V30 756 N 69.4707 1.49531 0.497807 0
M  V30 757 C 70.4007 1.6935 1.60757 0
M  V30 758 C 71.3817 0.542218 1.61227 0
M  V30 759 O 72.5667 0.778417 1.77917 0
M  V30 760 C 69.6967 1.76298 2.99226 0
M  V30 761 C 68.6507 2.91248 3.13622 0
M  V30 762 C 67.9767 2.83312 4.53474 0
M  V30 763 C 69.2767 4.3214 2.93346 0
M  V30 764 H 70.9707 2.62263 1.44425 0
M  V30 765 H 68.5167 1.26208 0.693367 0
M  V30 766 H 70.4697 1.88749 3.76765 0
M  V30 767 H 69.1937 0.799871 3.16654 0
M  V30 768 H 67.8527 2.78404 2.38509 0
M  V30 769 H 67.5007 1.84902 4.67782 0
M  V30 770 H 67.2007 3.60465 4.64046 0
M  V30 771 H 68.7247 2.97775 5.33069 0
M  V30 772 H 70.1387 4.45649 3.60652 0
M  V30 773 H 68.5357 5.1054 3.15387 0
M  V30 774 H 69.6057 4.46363 1.89441 0
M  V30 775 N 70.9488 -0.749086 1.3866 0
M  V30 776 C 71.8818 -1.87111 1.30631 0
M  V30 777 C 72.8598 -1.61572 0.18251 0
M  V30 778 O 74.0438 -1.85019 0.360592 0
M  V30 779 C 71.1708 -3.22815 1.02511 0
M  V30 780 C 70.2168 -3.67234 2.1689 0
M  V30 781 S 71.0498 -3.78245 3.79066 0
M  V30 782 C 72.2058 -5.16761 3.53142 0
M  V30 783 H 72.4388 -1.93636 2.25594 0
M  V30 784 H 69.9718 -0.912525 1.24549 0
M  V30 785 H 71.9298 -4.01181 0.869701 0
M  V30 786 H 70.5908 -3.13964 0.0925884 0
M  V30 787 H 69.7838 -4.65677 1.92771 0
M  V30 788 H 69.3858 -2.96034 2.28561 0
M  V30 789 H 71.6778 -6.02656 3.09534 0
M  V30 790 H 72.6208 -5.45902 4.50995 0
M  V30 791 H 73.0288 -4.85771 2.87554 0
M  V30 792 N 72.4269 -1.23603 -0.977757 0
M  V30 793 C 73.3739 -1.01954 -2.07061 0
M  V30 794 C 74.3439 0.0638697 -1.65977 0
M  V30 795 O 75.5289 -0.0887624 -1.90593 0
M  V30 796 C 72.6689 -0.619658 -3.39491 0
M  V30 797 C 71.7819 -1.77547 -3.93829 0
M  V30 798 C 70.9169 -1.32212 -5.14484 0
M  V30 799 C 69.9559 -2.44852 -5.60994 0
M  V30 800 N 69.0929 -2.00456 -6.72876 0
M  V30 801 H 73.9329 -1.95495 -2.24913 0
M  V30 802 H 71.4699 -0.973861 -1.10247 0
M  V30 803 H 73.4279 -0.368898 -4.15566 0
M  V30 804 H 72.0579 0.278752 -3.21594 0
M  V30 805 H 71.1099 -2.14016 -3.14486 0
M  V30 806 H 72.4219 -2.62219 -4.24314 0
M  V30 807 H 71.5759 -1.02965 -5.97899 0
M  V30 808 H 70.3149 -0.445808 -4.85658 0
M  V30 809 H 69.3199 -2.74871 -4.76157 0
M  V30 810 H 70.5449 -3.33024 -5.91837 0
M  V30 811 H 68.4909 -1.15208 -6.45804 0
M  V30 812 H 68.4079 -2.78687 -7.02759 0
M  V30 813 H 69.6759 -1.7432 -7.59758 0
M  V30 814 N 73.905 1.17692 -1.04816 0
M  V30 815 C 74.855 2.1952 -0.616042 0
M  V30 816 C 75.839 1.57147 0.345485 0
M  V30 817 O 77.031 1.76245 0.163325 0
M  V30 818 C 74.16 3.43298 0.0116917 0
M  V30 819 C 73.246 4.12777 -0.973435 0
M  V30 820 N 73.637 4.5814 -2.14339 0
M  V30 821 C 71.935 4.38747 -0.80108 0
M  V30 822 C 72.636 5.11713 -2.7663 0
M  V30 823 N 71.612 5.03686 -2.04453 0
M  V30 824 H 75.414 2.52293 -1.5075 0
M  V30 825 H 72.928 1.3398 -0.917776 0
M  V30 826 H 74.925 4.15519 0.339006 0
M  V30 827 H 73.585 3.12018 0.898593 0
M  V30 828 H 74.596 4.52349 -2.52191 0
M  V30 829 H 71.273 4.17485 0.0350934 0
M  V30 830 H 72.663 5.56962 -3.75823 0
M  V30 831 N 75.3831 0.828654 1.34056 0
M  V30 832 C 76.6311 0.41863 1.97717 0
M  V30 833 C 76.9521 -1.02314 1.66002 0
M  V30 834 O 76.2221 -1.71119 0.953683 0
M  V30 835 H 74.8021 0.151809 0.731412 0
M  V30 836 H 77.4641 1.05936 1.63596 0
M  V30 837 H 76.5601 0.542318 3.07352 0
M  V30 838 N 76.8612 -1.46375 0.584142 0
M  V30 839 C 77.8112 -2.27371 -0.169232 0
M  V30 840 C 78.7952 -1.35955 -0.860523 0
M  V30 841 O 79.9872 -1.60119 -0.754382 0
M  V30 842 C 77.1162 -3.22334 -1.18134 0
M  V30 843 C 76.2022 -4.21235 -0.492088 0
M  V30 844 N 76.5932 -5.03766 0.453129 0
M  V30 845 C 74.8912 -4.39773 -0.742652 0
M  V30 846 C 75.5922 -5.75366 0.85609 0
M  V30 847 N 74.5682 -5.43214 0.204926 0
M  V30 848 H 78.3702 -2.88572 0.557097 0
M  V30 849 H 75.8842 -1.57242 0.406042 0
M  V30 850 H 77.8812 -3.79071 -1.73525 0
M  V30 851 H 76.5412 -2.62693 -1.90847 0
M  V30 852 H 77.5522 -5.11227 0.828723 0
M  V30 853 H 74.2292 -3.91279 -1.45625 0
M  V30 854 H 75.6192 -6.5172 1.63434 0
M  V30 855 N 78.3393 -0.321999 -1.54275 0
M  V30 856 C 79.2493 0.553631 -2.27974 0
M  V30 857 C 80.2653 1.13054 -1.32268 0
M  V30 858 O 81.4413 1.15084 -1.6528 0
M  V30 859 C 78.5063 1.69927 -3.02201 0
M  V30 860 C 77.5673 1.15433 -4.1349 0
M  V30 861 C 76.8003 2.24537 -4.84168 0
M  V30 862 O 77.0233 3.44852 -4.5435 0
M  V30 863 O 75.9573 1.90044 -5.7111 0
M  V30 864 H 79.7833 -0.0448345 -3.03667 0
M  V30 865 H 77.3683 -0.0877418 -1.49142 0
M  V30 866 H 79.2503 2.3663 -3.48689 0
M  V30 867 H 77.9253 2.28395 -2.29385 0
M  V30 868 H 76.8323 0.452436 -3.71354 0
M  V30 869 H 78.1653 0.614805 -4.88345 0
M  V30 870 N 79.8174 1.5752 -0.0501392 0
M  V30 871 C 81.0454 1.96963 0.633492 0
M  V30 872 C 81.4604 0.927631 1.6444 0
M  V30 873 O 80.8174 -0.0882665 1.82286 0
M  V30 874 C 80.8684 3.36487 1.32132 0
M  V30 875 O 80.5894 4.36693 0.350894 0
M  V30 876 C 82.0904 3.90682 2.09481 0
M  V30 877 H 79.3104 0.648244 0.173266 0
M  V30 878 H 81.8544 2.0417 -0.116134 0
M  V30 879 H 80.0094 3.30434 2.02218 0
M  V30 880 H 80.4234 5.17702 0.841735 0
M  V30 881 H 81.8974 4.90591 2.5303 0
M  V30 882 H 82.3744 3.26053 2.94255 0
M  V30 883 H 82.9804 4.00069 1.44307 0
M  V30 884 N 81.2955 -0.223234 1.56011 0
M  V30 885 C 82.7065 -0.790368 1.69145 0
M  V30 886 C 83.0575 -1.85055 0.651845 0
M  V30 887 O 82.1825 -2.15498 -0.197359 0
M  V30 888 C 82.7775 -1.4404 3.06656 0
M  V30 889 C 81.3365 -1.95494 3.2165 0
M  V30 890 C 80.4835 -0.814506 2.65068 0
M  V30 891 H 83.4345 0.00139011 1.587 0
M  V30 892 H 83.4555 -2.30916 3.0242 0
M  V30 893 H 82.9675 -0.668543 3.82298 0
M  V30 894 H 81.0685 -2.75487 2.50874 0
M  V30 895 H 81.1815 -2.13607 4.28846 0
M  V30 896 H 79.5455 -1.22137 2.23505 0
M  V30 897 H 80.3285 -0.0553515 3.43255 0
M  V30 898 N 82.7736 -1.49793 -0.48987 0
M  V30 899 C 84.0206 -1.59841 -1.24327 0
M  V30 900 C 84.3486 -0.290135 -1.92324 0
M  V30 901 O 83.6036 0.722749 -1.81865 0
M  V30 902 C 83.9026 -2.71488 -2.32441 0
M  V30 903 C 83.5686 -4.12614 -1.81826 0
M  V30 904 C 82.2306 -4.51017 -1.67742 0
M  V30 905 C 84.5826 -5.00892 -1.4407 0
M  V30 906 C 81.9106 -5.75459 -1.14297 0
M  V30 907 C 84.2626 -6.25863 -0.920742 0
M  V30 908 C 82.9266 -6.63086 -0.766383 0
M  V30 909 H 82.1966 -0.584899 -0.454944 0
M  V30 910 H 84.8436 -1.83663 -0.542215 0
M  V30 911 H 83.1486 -2.4168 -3.0838 0
M  V30 912 H 84.8456 -2.76469 -2.90458 0
M  V30 913 H 81.4356 -3.82307 -1.93751 0
M  V30 914 H 85.6196 -4.7187 -1.53794 0
M  V30 915 H 80.8756 -6.02989 -1.01068 0
M  V30 916 H 85.0496 -6.9364 -0.619448 0
M  V30 917 H 82.6766 -7.59393 -0.350083 0
M  V30 918 N 84.2517 0.741722 -1.39055 0
M  V30 919 C 85.1617 1.88621 -1.39496 0
M  V30 920 C 86.1777 1.71557 -0.290578 0
M  V30 921 O 87.3537 1.94275 -0.530954 0
M  V30 922 C 84.4187 3.24134 -1.23037 0
M  V30 923 C 83.4797 3.5364 -2.43387 0
M  V30 924 C 82.7127 4.82687 -2.27703 0
M  V30 925 O 82.9357 5.55922 -1.27696 0
M  V30 926 O 81.8697 5.1194 -3.16545 0
M  V30 927 H 85.6957 1.91203 -2.35956 0
M  V30 928 H 83.2807 0.888625 -1.20099 0
M  V30 929 H 85.1627 4.0513 -1.15964 0
M  V30 930 H 83.8377 3.22337 -0.296691 0
M  V30 931 H 82.7447 2.72758 -2.56035 0
M  V30 932 H 84.0777 3.60209 -3.35425 0
M  V30 933 N 85.7298 1.2412 0.971189 0
M  V30 934 C 86.6798 0.997551 2.05019 0
M  V30 935 C 87.6638 -0.0597747 1.60789 0
M  V30 936 O 88.8558 0.153516 1.76333 0
M  V30 937 C 85.9848 0.600557 3.38006 0
M  V30 938 C 85.0708 1.69377 3.88809 0
M  V30 939 N 85.4618 2.92586 4.12586 0
M  V30 940 C 83.7598 1.57048 4.17435 0
M  V30 941 C 84.4608 3.63431 4.54195 0
M  V30 942 N 83.4368 2.90979 4.59165 0
M  V30 943 H 87.2388 1.93316 2.21374 0
M  V30 944 H 84.7528 1.14194 1.1547 0
M  V30 945 H 86.7498 0.40725 4.14906 0
M  V30 946 H 85.4098 -0.327903 3.2304 0
M  V30 947 H 86.4208 3.288 4.00139 0
M  V30 948 H 83.0978 0.709798 4.11422 0
M  V30 949 H 84.4878 4.69102 4.81033 0
M  V30 950 N 87.2079 -1.17134 1.05439 0
M  V30 951 C 88.4569 -1.86791 0.761049 0
M  V30 952 C 88.7699 -1.82072 -0.714795 0
M  V30 953 O 89.9759 -2.47223 -1.12218 0
M  V30 954 C 88.4319 -3.35166 1.31117 0
M  V30 955 C 88.0399 -3.48381 2.81664 0
M  V30 956 C 89.7839 -4.10134 1.09499 0
M  V30 957 C 87.6909 -4.90793 3.29964 0
M  V30 958 H 86.6209 -0.699681 0.281002 0
M  V30 959 H 89.2719 -1.3226 1.27199 0
M  V30 960 H 87.6539 -3.8925 0.72803 0
M  V30 961 H 88.8279 -3.04502 3.45855 0
M  V30 962 H 87.1429 -2.86836 3.01851 0
M  V30 963 H 89.7399 -5.152 1.43084 0
M  V30 964 H 90.0829 -4.16287 0.0328772 0
M  V30 965 H 90.6159 -3.62264 1.64346 0
M  V30 966 H 87.3549 -4.89816 4.35616 0
M  V30 967 H 86.8749 -5.35333 2.70516 0
M  V30 968 H 88.5539 -5.59573 3.24787 0
M  V30 969 N 88.686 -0.835752 -1.33615 0
M  V30 970 C 89.932 -0.430596 -1.98176 0
M  V30 971 C 90.265 1.00684 -1.66061 0
M  V30 972 O 89.54 1.70339 -0.938877 0
M  V30 973 C 89.823 -0.648065 -3.5422 0
M  V30 974 C 89.676 -2.13255 -3.96033 0
M  V30 975 C 90.995 -0.0922113 -4.40003 0
M  V30 976 H 88.114 -0.157924 -0.719881 0
M  V30 977 H 90.756 -1.05069 -1.58305 0
M  V30 978 H 88.906 -0.120237 -3.88314 0
M  V30 979 H 90.578 -2.725 -3.72211 0
M  V30 980 H 88.821 -2.61823 -3.45878 0
M  V30 981 H 89.492 -2.23547 -5.04708 0
M  V30 982 H 91.968 -0.543343 -4.12537 0
M  V30 983 H 90.844 -0.274083 -5.48215 0
M  V30 984 H 91.105 1.00378 -4.30554 0
M  V30 985 N 90.1641 1.46063 -0.591896 0
M  V30 986 C 91.4111 2.02338 -0.0809991 0
M  V30 987 C 91.7391 1.46228 1.28249 0
M  V30 988 O 90.9941 0.620818 1.85592 0
M  V30 989 C 91.2931 3.57391 0.0249813 0
M  V30 990 C 90.9591 4.32583 -1.27211 0
M  V30 991 C 89.6211 4.52844 -1.62745 0
M  V30 992 C 91.9731 4.75687 -2.13005 0
M  V30 993 C 89.3011 5.13462 -2.83855 0
M  V30 994 C 91.6531 5.37644 -3.3335 0
M  V30 995 C 90.3171 5.5613 -3.69155 0
M  V30 996 H 89.5871 0.740407 -0.0296397 0
M  V30 997 H 92.2341 1.75321 -0.770374 0
M  V30 998 H 90.5391 3.83597 0.797537 0
M  V30 999 H 92.2361 3.98621 0.436184 0
M  V30 1000 H 88.8261 4.17116 -0.985499 0
M  V30 1001 H 93.0101 4.59782 -1.86855 0
M  V30 1002 H 88.2661 5.25965 -3.11722 0
M  V30 1003 H 92.4401 5.7 -4.00092 0
M  V30 1004 H 90.0671 6.0287 -4.63089 0
M  V30 1005 N 91.6422 0.330177 1.54103 0
M  V30 1006 C 92.8702 -0.272179 2.05102 0
M  V30 1007 C 93.2852 -1.45267 1.20595 0
M  V30 1008 O 92.6422 -1.8094 0.238144 0
M  V30 1009 C 92.6932 -0.70023 3.54653 0
M  V30 1010 O 92.4142 0.433301 4.35952 0
M  V30 1011 C 93.9152 -1.3647 4.21771 0
M  V30 1012 H 91.1352 -0.0549159 0.668749 0
M  V30 1013 H 93.6792 0.478285 1.98828 0
M  V30 1014 H 91.8342 -1.40066 3.61193 0
M  V30 1015 H 92.2482 0.0947539 5.24414 0
M  V30 1016 H 93.7222 -1.61509 5.27843 0
M  V30 1017 H 94.1992 -2.31409 3.73292 0
M  V30 1018 H 94.8052 -0.706675 4.19388 0
M  V30 1019 N 93.1203 -1.57491 0.0584922 0
M  V30 1020 C 94.3673 -1.92978 -0.613648 0
M  V30 1021 C 94.6953 -0.937461 -1.70417 0
M  V30 1022 O 93.9503 0.049078 -1.95638 0
M  V30 1023 C 94.2493 -3.3513 -1.24188 0
M  V30 1024 C 93.9153 -4.50037 -0.278826 0
M  V30 1025 C 92.5773 -4.81198 -0.0138447 0
M  V30 1026 C 94.9293 -5.19807 0.380777 0
M  V30 1027 C 92.2573 -5.79473 0.918052 0
M  V30 1028 C 94.6093 -6.19079 1.30091 0
M  V30 1029 C 93.2733 -6.48665 1.57449 0
M  V30 1030 H 92.5433 -0.706157 -0.22455 0
M  V30 1031 H 95.1903 -1.91082 0.126533 0
M  V30 1032 H 93.4953 -3.33429 -2.05749 0
M  V30 1033 H 95.1923 -3.59871 -1.769 0
M  V30 1034 H 91.7823 -4.25726 -0.495539 0
M  V30 1035 H 95.9663 -4.95939 0.189158 0
M  V30 1036 H 91.2223 -6.00727 1.1374 0
M  V30 1037 H 95.3963 -6.7225 1.81804 0
M  V30 1038 H 93.0233 -7.24628 2.29822 0
M  V30 1039 N 94.5984 0.214957 -1.56127 0
M  V30 1040 C 95.5484 1.27006 -1.8935 0
M  V30 1041 C 96.5324 1.41969 -0.757202 0
M  V30 1042 O 97.7244 1.44673 -1.01973 0
M  V30 1043 C 94.8534 2.61911 -2.2194 0
M  V30 1044 C 93.9394 2.50822 -3.41978 0
M  V30 1045 N 94.3304 2.09391 -4.60423 0
M  V30 1046 C 92.6284 2.81765 -3.45723 0
M  V30 1047 C 93.3294 2.09712 -5.42582 0
M  V30 1048 N 92.3054 2.50454 -4.82466 0
M  V30 1049 H 96.1074 0.940734 -2.78437 0
M  V30 1050 H 93.6214 0.423492 -1.56781 0
M  V30 1051 H 95.6184 3.38096 -2.43919 0
M  V30 1052 H 94.2784 2.95684 -1.34169 0
M  V30 1053 H 95.2894 1.80416 -4.85459 0
M  V30 1054 H 91.9664 3.19865 -2.68314 0
M  V30 1055 H 93.3564 1.79748 -6.4741 0
M  V30 1056 N 96.0765 1.50051 0.48192 0
M  V30 1057 C 97.3225 1.60736 1.2366 0
M  V30 1058 C 97.6555 0.301786 1.91841 0
M  V30 1059 O 96.9305 -0.696025 1.8162 0
M  V30 1060 C 97.2135 2.78009 2.28874 0
M  V30 1061 C 97.0665 4.18416 1.65069 0
M  V30 1062 C 98.3855 2.90867 3.30279 0
M  V30 1063 H 95.5045 0.585031 0.448228 0
M  V30 1064 H 98.1465 1.82402 0.531946 0
M  V30 1065 H 96.2965 2.59667 2.88973 0
M  V30 1066 H 97.9685 4.48322 1.0865 0
M  V30 1067 H 96.2115 4.23177 0.954148 0
M  V30 1068 H 96.8825 4.96381 2.41474 0
M  V30 1069 H 99.3585 3.07623 2.80191 0
M  V30 1070 H 98.2345 3.74566 4.01238 0
M  V30 1071 H 98.4955 2.01021 3.93755 0
M  V30 1072 N 97.5546 -0.734337 1.39446 0
M  V30 1073 C 98.5016 -1.84835 1.38219 0
M  V30 1074 C 99.4716 -1.64331 0.24179 0
M  V30 1075 O 100.657 -1.85728 0.437002 0
M  V30 1076 C 97.7966 -3.22355 1.23212 0
M  V30 1077 C 96.9096 -3.5456 2.46801 0
M  V30 1078 C 96.0446 -4.81485 2.24377 0
M  V30 1079 C 95.0836 -5.06536 3.43639 0
M  V30 1080 N 94.2206 -6.24665 3.20528 0
M  V30 1081 H 99.0606 -1.85219 2.33448 0
M  V30 1082 H 96.5976 -0.905039 1.15963 0
M  V30 1083 H 98.5556 -4.0174 1.12522 0
M  V30 1084 H 97.1856 -3.21248 0.316121 0
M  V30 1085 H 96.2376 -2.69872 2.68092 0
M  V30 1086 H 97.5496 -3.6899 3.3563 0
M  V30 1087 H 96.7036 -5.68852 2.10933 0
M  V30 1088 H 95.4426 -4.6923 1.32944 0
M  V30 1089 H 94.4476 -4.17632 3.5758 0
M  V30 1090 H 95.6726 -5.20676 4.35974 0
M  V30 1091 H 93.6186 -6.13696 2.3176 0
M  V30 1092 H 93.5356 -6.39685 4.02913 0
M  V30 1093 H 94.8036 -7.14868 3.10779 0
M  V30 1094 N 99.0327 -1.24633 -0.964593 0
M  V30 1095 C 99.9957 -1.0424 -2.04124 0
M  V30 1096 C 100.996 0.00137563 -1.608 0
M  V30 1097 O 102.186 -0.239883 -1.7254 0
M  V30 1098 C 99.3177 -0.580588 -3.3592 0
M  V30 1099 H 100.511 -1.99803 -2.23649 0
M  V30 1100 H 98.0637 -1.06899 -1.14027 0
M  V30 1101 H 98.7987 0.3781 -3.22088 0
M  V30 1102 H 98.5837 -1.33398 -3.6871 0
M  V30 1103 H 100.074 -0.459034 -4.15069 0
M  V30 1104 N 100.511 1.16574 -1.06058 0
M  V30 1105 C 101.922 1.68662 -0.800632 0
M  V30 1106 C 102.273 1.84184 0.67608 0
M  V30 1107 O 101.398 1.53568 1.52466 0
M  V30 1108 C 101.993 3.06356 -1.44676 0
M  V30 1109 C 100.552 3.55575 -1.23465 0
M  V30 1110 C 99.6988 2.31616 -1.52477 0
M  V30 1111 H 102.65 1.00969 -1.22438 0
M  V30 1112 H 102.671 3.70636 -0.860788 0
M  V30 1113 H 102.183 2.95027 -2.52152 0
M  V30 1114 H 100.284 3.72167 -0.179527 0
M  V30 1115 H 100.397 4.37812 -1.94571 0
M  V30 1116 H 98.7608 2.36512 -0.945209 0
M  V30 1117 H 99.5438 2.22887 -2.61106 0
M  V30 1118 N 101.989 0.842826 1.3317 0
M  V30 1119 C 103.238 0.436738 1.96915 0
M  V30 1120 C 103.551 -1.01025 1.67491 0
M  V30 1121 O 104.757 -1.5212 2.24881 0
M  V30 1122 C 103.213 0.730021 3.52418 0
M  V30 1123 C 102.821 2.19195 3.90714 0
M  V30 1124 C 104.565 0.391076 4.22695 0
M  V30 1125 C 102.472 2.42907 5.39212 0
M  V30 1126 H 101.402 0.15958 0.736919 0
M  V30 1127 H 104.053 1.03196 1.51733 0
M  V30 1128 H 102.435 0.0643755 3.95948 0
M  V30 1129 H 103.609 2.8984 3.58231 0
M  V30 1130 H 101.924 2.49425 3.33431 0
M  V30 1131 H 104.521 0.545817 5.31907 0
M  V30 1132 H 104.864 -0.666294 4.10933 0
M  V30 1133 H 105.397 1.01212 3.84709 0
M  V30 1134 H 102.136 3.47224 5.55982 0
M  V30 1135 H 101.656 1.76827 5.73142 0
M  V30 1136 H 103.335 2.2626 6.06148 0
M  V30 1137 N 103.467 -1.45747 0.599634 0
M  V30 1138 C 104.714 -2.02292 0.0917284 0
M  V30 1139 C 105.042 -1.46906 -1.27472 0
M  V30 1140 O 104.297 -0.630652 -1.8526 0
M  V30 1141 C 104.596 -3.57399 -0.00602758 0
M  V30 1142 C 104.262 -4.31902 1.29503 0
M  V30 1143 C 102.924 -4.51974 1.65144 0
M  V30 1144 C 105.276 -4.74551 2.15525 0
M  V30 1145 C 102.604 -5.11949 2.86574 0
M  V30 1146 C 104.956 -5.35868 3.36196 0
M  V30 1147 C 103.62 -5.54165 3.72099 0
M  V30 1148 H 102.89 -0.740239 0.0335658 0
M  V30 1149 H 105.537 -1.7491 0.779661 0
M  V30 1150 H 103.842 -3.84014 -0.777183 0
M  V30 1151 H 105.539 -3.98846 -0.415038 0
M  V30 1152 H 102.129 -4.16588 1.00761 0
M  V30 1153 H 106.313 -4.58784 1.8929 0
M  V30 1154 H 101.569 -5.24305 3.14507 0
M  V30 1155 H 105.743 -5.6787 4.03109 0
M  V30 1156 H 103.37 -6.00406 4.6628 0
M  V30 1157 N 104.945 -0.338344 -1.53925 0
M  V30 1158 C 106.191 0.260143 -2.01125 0
M  V30 1159 C 106.524 1.50617 -1.22589 0
M  V30 1160 O 105.799 1.91979 -0.312113 0
M  V30 1161 C 106.082 0.579499 -3.55407 0
M  V30 1162 C 105.935 -0.678264 -4.44657 0
M  V30 1163 C 107.254 1.39122 -4.17532 0
M  V30 1164 H 104.373 0.0930772 -0.731099 0
M  V30 1165 H 107.015 -0.457852 -1.84401 0
M  V30 1166 H 105.165 1.19118 -3.69788 0
M  V30 1167 H 106.837 -1.31631 -4.42121 0
M  V30 1168 H 105.08 -1.3042 -4.13731 0
M  V30 1169 H 105.751 -0.410143 -5.50474 0
M  V30 1170 H 108.227 0.874035 -4.06817 0
M  V30 1171 H 107.103 1.58342 -5.25565 0
M  V30 1172 H 107.364 2.39178 -3.71815 0
M  V30 1173 N 106.423 1.57458 -0.0668435 0
M  V30 1174 C 107.386 2.11323 0.887422 0
M  V30 1175 C 108.386 1.03618 1.22964 0
M  V30 1176 O 109.576 1.29626 1.16373 0
M  V30 1177 C 106.708 2.61048 2.19242 0
M  V30 1178 H 107.901 2.96942 0.420194 0
M  V30 1179 H 105.454 1.55239 0.181793 0
M  V30 1180 H 106.189 1.78868 2.70512 0
M  V30 1181 H 105.974 3.39769 1.95702 0
M  V30 1182 H 107.464 3.02814 2.87565 0
M  V30 1183 N 107.901 -0.206675 1.56239 0
M  V30 1184 C 109.317 -0.557025 1.49564 0
M  V30 1185 C 109.517 -1.86424 0.764735 0
M  V30 1186 O 108.573 -2.50584 0.310491 0
M  V30 1187 C 109.886 -0.622478 2.94186 0
M  V30 1188 C 111.434 -0.712099 3.04792 0
M  V30 1189 C 111.909 -0.808767 4.50803 0
M  V30 1190 N 113.4 -0.8726 4.54907 0
M  V30 1191 C 114.135 -0.967365 5.65181 0
M  V30 1192 N 113.631 -1.02515 6.85173 0
M  V30 1193 N 115.424 -1.00366 5.53067 0
M  V30 1194 H 107.575 0.650943 2.02179 0
M  V30 1195 H 109.838 0.230387 0.919579 0
M  V30 1196 H 109.544 0.268727 3.50672 0
M  V30 1197 H 109.418 -1.4811 3.46905 0
M  V30 1198 H 111.805 -1.59374 2.48363 0
M  V30 1199 H 111.886 0.172489 2.55218 0
M  V30 1200 H 111.53 0.0684754 5.07854 0
M  V30 1201 H 111.46 -1.70899 4.98098 0
M  V30 1202 H 113.951 -0.837657 3.68499 0
M  V30 1203 H 114.264 -1.09765 7.64965 0
M  V30 1204 H 112.609 -0.994026 6.87855 0
M  V30 1205 H 115.8 -0.95527 4.58249 0
M  V30 1206 H 115.973 -1.07405 6.39037 0
M  V30 1207 N 109.379 -1.50304 -0.473955 0
M  V30 1208 C 110.311 -1.65109 -1.58971 0
M  V30 1209 C 111.324 -0.532676 -1.53839 0
M  V30 1210 O 112.513 -0.805751 -1.59279 0
M  V30 1211 C 109.613 -1.61684 -2.97845 0
M  V30 1212 C 108.786 -2.8951 -3.27876 0
M  V30 1213 C 107.845 -2.78768 -4.4629 0
M  V30 1214 O 106.871 -3.52722 -4.46739 0
M  V30 1215 N 108.073 -1.9213 -5.47783 0
M  V30 1216 H 110.838 -2.61347 -1.46689 0
M  V30 1217 H 108.399 -1.47732 -0.662324 0
M  V30 1218 H 110.391 -1.52114 -3.75024 0
M  V30 1219 H 108.961 -0.731925 -3.03911 0
M  V30 1220 H 108.181 -3.13228 -2.39336 0
M  V30 1221 H 109.469 -3.74199 -3.4475 0
M  V30 1222 H 108.867 -1.31353 -5.50239 0
M  V30 1223 H 107.424 -1.88466 -6.23958 0
M  V30 1224 N 110.857 0.726932 -1.39834 0
M  V30 1225 C 112.103 1.48771 -1.38704 0
M  V30 1226 C 112.458 1.92394 0.0146387 0
M  V30 1227 O 111.751 1.64474 0.982797 0
M  V30 1228 C 111.945 2.73495 -2.30077 0
M  V30 1229 C 111.774 2.42068 -3.78989 0
M  V30 1230 C 110.544 2.33966 -4.4787 0
M  V30 1231 C 112.742 2.0708 -4.70768 0
M  V30 1232 N 110.724 1.95095 -5.82075 0
M  V30 1233 C 112.095 1.78719 -5.93683 0
M  V30 1234 C 114.15 1.93618 -4.58712 0
M  V30 1235 C 112.853 1.3825 -7.05889 0
M  V30 1236 C 114.879 1.54553 -5.70848 0
M  V30 1237 C 114.241 1.27082 -6.92842 0
M  V30 1238 H 110.34 0.542919 -0.562817 0
M  V30 1239 H 112.924 0.84408 -1.75452 0
M  V30 1240 H 111.095 3.35625 -1.95474 0
M  V30 1241 H 112.827 3.39755 -2.19883 0
M  V30 1242 H 109.582 2.51331 -4.0141 0
M  V30 1243 H 110.006 1.7823 -6.53118 0
M  V30 1244 H 114.648 2.13522 -3.64922 0
M  V30 1245 H 112.366 1.17088 -7.99572 0
M  V30 1246 H 115.952 1.44731 -5.6351 0
M  V30 1247 H 114.832 0.973069 -7.78139 0
M  V30 1248 N 112.336 1.25143 0.95797 0
M  V30 1249 C 113.583 1.09692 1.70217 0
M  V30 1250 C 113.911 -0.362654 1.91089 0
M  V30 1251 O 113.166 -1.28386 1.47701 0
M  V30 1252 C 113.465 1.79272 3.09187 0
M  V30 1253 C 113.131 3.29196 3.08125 0
M  V30 1254 C 111.793 3.70096 3.07543 0
M  V30 1255 C 114.145 4.24995 3.0171 0
M  V30 1256 C 111.473 5.05213 2.9829 0
M  V30 1257 C 113.825 5.60132 2.93999 0
M  V30 1258 C 112.489 6.00365 2.9175 0
M  V30 1259 H 111.759 0.401393 0.622868 0
M  V30 1260 H 114.406 1.55372 1.11945 0
M  V30 1261 H 112.711 1.26014 3.70982 0
M  V30 1262 H 114.408 1.64773 3.65583 0
M  V30 1263 H 110.998 2.96651 3.09348 0
M  V30 1264 H 115.182 3.9439 3.01281 0
M  V30 1265 H 110.438 5.35569 2.94916 0
M  V30 1266 H 114.612 6.3406 2.87996 0
M  V30 1267 H 112.239 7.05023 2.84336 0
M  V30 1268 N 113.814 -1.1601 1.06675 0
M  V30 1269 C 115.23 -1.38622 0.790948 0
M  V30 1270 C 115.43 -1.92109 -0.607965 0
M  V30 1271 O 114.486 -2.12239 -1.36787 0
M  V30 1272 C 115.799 -2.36347 1.85905 0
M  V30 1273 C 117.347 -2.50023 1.88301 0
M  V30 1274 C 117.822 -3.51033 2.94176 0
M  V30 1275 N 119.313 -3.58563 2.93235 0
M  V30 1276 C 120.048 -4.36521 3.71803 0
M  V30 1277 N 119.544 -5.17869 4.602 0
M  V30 1278 N 121.337 -4.31541 3.60178 0
M  V30 1279 H 113.488 -0.796294 1.96908 0
M  V30 1280 H 115.751 -0.412597 0.853503 0
M  V30 1281 H 115.457 -2.04147 2.86386 0
M  V30 1282 H 115.331 -3.36042 1.71334 0
M  V30 1283 H 117.718 -2.81524 0.884769 0
M  V30 1284 H 117.799 -1.5035 2.06951 0
M  V30 1285 H 117.443 -3.20268 3.94196 0
M  V30 1286 H 117.373 -4.50445 2.72776 0
M  V30 1287 H 119.864 -3.00496 2.29152 0
M  V30 1288 H 120.177 -5.74578 5.16797 0
M  V30 1289 H 118.522 -5.17199 4.64253 0
M  V30 1290 H 121.713 -3.67051 2.90502 0
M  V30 1291 H 121.886 -4.9205 4.21653 0
M  V30 1292 N 115.292 -0.849877 -1.32721 0
M  V30 1293 C 116.242 -0.262892 -2.26479 0
M  V30 1294 C 117.226 0.588493 -1.49752 0
M  V30 1295 O 118.418 0.438659 -1.71478 0
M  V30 1296 C 115.547 0.551818 -3.38836 0
M  V30 1297 C 114.633 -0.311689 -4.22953 0
M  V30 1298 N 115.024 -1.39567 -4.86163 0
M  V30 1299 C 113.322 -0.100611 -4.45887 0
M  V30 1300 C 114.023 -1.92651 -5.48872 0
M  V30 1301 N 112.999 -1.22637 -5.29586 0
M  V30 1302 H 116.801 -1.09166 -2.72873 0
M  V30 1303 H 114.315 -0.695486 -1.46754 0
M  V30 1304 H 116.312 0.988713 -4.05006 0
M  V30 1305 H 114.972 1.37844 -2.93988 0
M  V30 1306 H 115.983 -1.77859 -4.86402 0
M  V30 1307 H 112.66 0.691681 -4.11731 0
M  V30 1308 H 114.05 -2.83487 -6.09167 0
M  V30 1309 N 116.77 1.45427 -0.607355 0
M  V30 1310 C 118.186 1.57283 -0.270985 0
M  V30 1311 C 118.386 1.59875 1.22647 0
M  V30 1312 O 117.442 1.52893 2.00948 0
M  V30 1313 C 118.755 2.85566 -0.941952 0
M  V30 1314 C 120.303 2.9924 -0.917849 0
M  V30 1315 C 120.778 4.30293 -1.56882 0
M  V30 1316 N 122.269 4.37051 -1.5343 0
M  V30 1317 C 123.004 5.37123 -2.00715 0
M  V30 1318 N 122.5 6.43734 -2.56084 0
M  V30 1319 N 124.293 5.28479 -1.91484 0
M  V30 1320 H 116.444 1.41988 -1.57966 0
M  V30 1321 H 118.707 0.67885 -0.661715 0
M  V30 1322 H 118.413 2.8955 -1.99633 0
M  V30 1323 H 118.287 3.74322 -0.465096 0
M  V30 1324 H 120.674 2.94822 0.127984 0
M  V30 1325 H 120.755 2.11895 -1.43297 0
M  V30 1326 H 120.399 4.35469 -2.61398 0
M  V30 1327 H 120.329 5.16454 -1.02873 0
M  V30 1328 H 122.82 3.60615 -1.12982 0
M  V30 1329 H 123.133 7.16341 -2.89958 0
M  V30 1330 H 121.478 6.44485 -2.60122 0
M  V30 1331 H 124.669 4.44098 -1.47967 0
M  V30 1332 H 124.842 6.0632 -2.28648 0
M  V30 1333 N 118.248 0.346503 1.53744 0
M  V30 1334 C 119.497 -0.250122 2.00143 0
M  V30 1335 C 119.81 -1.51418 1.23822 0
M  V30 1336 O 121.016 -2.18823 1.60713 0
M  V30 1337 C 119.472 -0.496252 3.56462 0
M  V30 1338 C 119.08 0.752077 4.41642 0
M  V30 1339 C 120.824 -1.05157 4.11269 0
M  V30 1340 C 118.731 0.476583 5.89477 0
M  V30 1341 H 117.661 -0.0972409 0.747703 0
M  V30 1342 H 120.312 0.46229 1.77581 0
M  V30 1343 H 118.694 -1.26944 3.75102 0
M  V30 1344 H 119.868 1.5266 4.34778 0
M  V30 1345 H 118.183 1.22925 3.97842 0
M  V30 1346 H 120.78 -1.27269 5.19333 0
M  V30 1347 H 121.123 -2.00799 3.64672 0
M  V30 1348 H 121.656 -0.339019 3.96353 0
M  V30 1349 H 118.395 1.4028 6.40314 0
M  V30 1350 H 117.915 -0.259794 5.99237 0
M  V30 1351 H 119.594 0.0949315 6.4693 0
M  V30 1352 N 119.726 -1.57421 0.075193 0
M  V30 1353 C 120.689 -2.11791 -0.876203 0
M  V30 1354 C 121.689 -1.04268 -1.22412 0
M  V30 1355 O 122.879 -1.30242 -1.15684 0
M  V30 1356 C 120.011 -2.62207 -2.17854 0
M  V30 1357 H 121.204 -2.9716 -0.40444 0
M  V30 1358 H 118.757 -1.55333 -0.173557 0
M  V30 1359 H 119.492 -1.803 -2.6956 0
M  V30 1360 H 119.277 -3.40802 -1.93897 0
M  V30 1361 H 120.767 -3.04335 -2.85955 0
M  V30 1362 N 121.204 0.198386 -1.56346 0
M  V30 1363 C 122.429 0.939682 -1.84891 0
M  V30 1364 C 122.854 1.76202 -0.658369 0
M  V30 1365 O 122.212 1.76993 0.392851 0
M  V30 1366 C 122.26 1.81428 -3.11635 0
M  V30 1367 O 121.364 2.91265 -2.91956 0
M  V30 1368 H 120.705 0.264807 -0.608912 0
M  V30 1369 H 123.235 0.204695 -2.03573 0
M  V30 1370 H 123.245 2.21958 -3.42343 0
M  V30 1371 H 121.92 1.21004 -3.97908 0
M  V30 1372 H 120.497 2.54514 -2.72538 0
M  V30 1373 N 122.682 1.50554 0.465978 0
M  V30 1374 C 123.912 1.65323 1.23903 0
M  V30 1375 C 124.32 0.338051 1.86155 0
M  V30 1376 O 123.663 -0.690518 1.70228 0
M  V30 1377 C 123.725 2.69048 2.3844 0
M  V30 1378 C 123.389 4.12462 1.96784 0
M  V30 1379 C 124.386 4.98168 1.48745 0
M  V30 1380 C 122.071 4.58407 2.05349 0
M  V30 1381 C 124.065 6.27868 1.0982 0
M  V30 1382 C 121.752 5.88112 1.66035 0
M  V30 1383 C 122.75 6.72668 1.18349 0
M  V30 1384 O 122.438 7.99951 0.795825 0
M  V30 1385 H 122.17 0.558629 0.38067 0
M  V30 1386 H 124.724 1.97561 0.562022 0
M  V30 1387 H 122.954 2.32062 3.09328 0
M  V30 1388 H 124.643 2.72985 3.0039 0
M  V30 1389 H 125.409 4.63885 1.41546 0
M  V30 1390 H 121.288 3.92735 2.41414 0
M  V30 1391 H 124.832 6.93819 0.725293 0
M  V30 1392 H 120.729 6.21914 1.72895 0
M  V30 1393 H 121.497 8.13265 0.924222 0
M  V30 1394 N 124.16 -0.719506 1.40217 0
M  V30 1395 C 125.108 -1.85493 1.40339 0
M  V30 1396 C 126.102 -1.66995 0.284415 0
M  V30 1397 O 127.308 -1.74148 0.455252 0
M  V30 1398 H 123.683 -0.610857 0.438586 0
M  V30 1399 H 125.654 -1.82506 2.36081 0
M  V30 1400 C 124.403 -3.23321 1.27901 0
M  V30 1401 H 123.726 -3.38159 2.1328 0
M  V30 1402 H 125.166 -4.02914 1.32045 0
M  V30 1403 C 123.625 -3.36898 -0.0111355 0
M  V30 1404 O 124.155 -3.89674 -0.975538 0
M  V30 1405 N 122.361 -2.90492 -0.0793393 0
M  V30 1406 H 121.908 -2.47731 0.706183 0
M  V30 1407 H 121.866 -2.99955 -0.942038 0
M  V30 1408 N 125.638 -1.25649 -0.95132 0
M  V30 1409 C 126.548 -1.08073 -2.08224 0
M  V30 1410 C 127.564 -0.0169666 -1.73992 0
M  V30 1411 O 128.74 -0.218593 -2.0021 0
M  V30 1412 C 125.805 -0.704922 -3.39458 0
M  V30 1413 C 124.866 -1.84699 -3.87537 0
M  V30 1414 C 124.099 -1.48902 -5.12508 0
M  V30 1415 O 124.322 -0.386156 -5.69091 0
M  V30 1416 O 123.256 -2.32033 -5.55378 0
M  V30 1417 H 127.082 -2.02924 -2.25954 0
M  V30 1418 H 124.667 -1.04618 -1.06656 0
M  V30 1419 H 126.549 -0.507609 -4.18332 0
M  V30 1420 H 125.224 0.214291 -3.2299 0
M  V30 1421 H 124.131 -2.09919 -3.09653 0
M  V30 1422 H 125.464 -2.74557 -4.08509 0
M  V30 1423 N 127.117 1.15442 -1.07289 0
M  V30 1424 C 128.047 2.22312 -0.714107 0
M  V30 1425 C 129.028 1.67467 0.298155 0
M  V30 1426 O 130.213 1.93445 0.171048 0
M  V30 1427 C 127.343 3.47124 -0.110448 0
M  V30 1428 C 126.297 4.14926 -1.04979 0
M  V30 1429 C 125.623 5.33807 -0.308924 0
M  V30 1430 C 126.923 4.64762 -2.38314 0
M  V30 1431 H 128.617 2.5258 -1.6076 0
M  V30 1432 H 126.163 1.21404 -0.77441 0
M  V30 1433 H 128.116 4.21124 0.152482 0
M  V30 1434 H 126.84 3.16187 0.81812 0
M  V30 1435 H 125.499 3.42866 -1.29764 0
M  V30 1436 H 125.147 4.99126 0.623084 0
M  V30 1437 H 124.847 5.80113 -0.935036 0
M  V30 1438 H 126.371 6.10576 -0.0537771 0
M  V30 1439 H 127.785 5.30292 -2.1786 0
M  V30 1440 H 126.182 5.21728 -2.96514 0
M  V30 1441 H 127.252 3.80434 -3.00663 0
M  V30 1442 N 128.595 0.856903 1.32268 0
M  V30 1443 C 129.82 0.474569 2.01897 0
M  V30 1444 C 130.245 -0.921766 1.63967 0
M  V30 1445 O 129.603 -1.60589 0.84148 0
M  V30 1446 C 129.651 0.623799 3.55164 0
M  V30 1447 O 128.755 -0.342459 4.10976 0
M  V30 1448 H 128.096 0.190422 0.63611 0
M  V30 1449 H 130.626 1.15672 1.68764 0
M  V30 1450 H 130.636 0.512169 4.04773 0
M  V30 1451 H 129.311 1.64202 3.82113 0
M  V30 1452 H 127.888 -0.18688 3.72431 0
M  V30 1453 N 130.073 -1.45103 0.615059 0
M  V30 1454 C 131.321 -2.01784 0.112955 0
M  V30 1455 C 131.642 -1.48504 -1.26378 0
M  V30 1456 O 130.912 -0.682245 -1.83636 0
M  V30 1457 H 129.492 -0.745993 0.0387668 0
M  V30 1458 H 132.154 -1.77808 0.798141 0
M  V30 1459 H 131.25 -3.12025 0.0684069 0
M  V30 1460 N 131.551 -0.354651 -1.53558 0
M  V30 1461 C 132.967 -0.00315426 -1.596 0
M  V30 1462 C 133.167 1.47741 -1.37021 0
M  V30 1463 O 132.223 2.23759 -1.16996 0
M  V30 1464 C 133.536 -0.44929 -2.97325 0
M  V30 1465 C 135.084 -0.402578 -3.104 0
M  V30 1466 C 135.559 -0.824355 -4.5052 0
M  V30 1467 N 137.05 -0.778979 -4.56603 0
M  V30 1468 C 137.785 -1.07715 -5.63192 0
M  V30 1469 N 137.281 -1.44405 -6.77583 0
M  V30 1470 N 139.074 -1.00066 -5.53121 0
M  V30 1471 H 131.225 -1.31893 -1.66487 0
M  V30 1472 H 133.488 -0.538388 -0.780284 0
M  V30 1473 H 133.194 -1.48202 -3.1895 0
M  V30 1474 H 133.068 0.169772 -3.76818 0
M  V30 1475 H 135.455 0.621004 -2.88492 0
M  V30 1476 H 135.536 -1.05699 -2.32941 0
M  V30 1477 H 135.18 -1.846 -4.73165 0
M  V30 1478 H 135.11 -0.147304 -5.26394 0
M  V30 1479 H 137.601 -0.508528 -3.74463 0
M  V30 1480 H 137.914 -1.65612 -7.54846 0
M  V30 1481 H 136.259 -1.4826 -6.79002 0
M  V30 1482 H 139.45 -0.713293 -4.62633 0
M  V30 1483 H 139.623 -1.23638 -6.36096 0
M  V30 1484 N 133.029 1.57378 -0.0835403 0
M  V30 1485 C 134.259 1.97975 0.590713 0
M  V30 1486 C 134.667 0.961083 1.62972 0
M  V30 1487 O 134.01 -0.0590879 1.83605 0
M  V30 1488 C 134.072 3.34915 1.3066 0
M  V30 1489 C 133.736 4.55069 0.419698 0
M  V30 1490 C 134.733 5.18868 -0.32749 0
M  V30 1491 C 132.418 5.0114 0.341137 0
M  V30 1492 C 134.412 6.27098 -1.14134 0
M  V30 1493 C 132.099 6.0924 -0.476374 0
M  V30 1494 C 133.097 6.72083 -1.21627 0
M  V30 1495 O 132.785 7.781 -2.02028 0
M  V30 1496 H 132.517 0.655818 0.163947 0
M  V30 1497 H 135.071 2.04807 -0.156021 0
M  V30 1498 H 133.301 3.24733 2.09966 0
M  V30 1499 H 134.99 3.60037 1.87424 0
M  V30 1500 H 135.756 4.84211 -0.276459 0
M  V30 1501 H 131.635 4.51996 0.90668 0
M  V30 1502 H 135.179 6.7608 -1.71935 0
M  V30 1503 H 131.076 6.43329 -0.528927 0
M  V30 1504 H 131.844 7.95034 -1.94586 0
M  V30 1505 N 134.507 -0.190092 1.56449 0
M  V30 1506 C 135.732 -0.929864 1.85387 0
M  V30 1507 C 136.157 -1.7585 0.667704 0
M  V30 1508 O 135.515 -1.77198 -0.383459 0
M  V30 1509 C 135.563 -1.79773 3.12593 0
M  V30 1510 O 134.667 -2.89713 2.93496 0
M  V30 1511 H 134.008 -0.261574 0.610307 0
M  V30 1512 H 136.538 -0.193896 2.03679 0
M  V30 1513 H 136.548 -2.20139 3.43515 0
M  V30 1514 H 135.223 -1.18892 3.98544 0
M  V30 1515 H 133.8 -2.53065 2.73884 0
M  V30 1516 N 135.985 -1.50799 -0.457987 0
M  V30 1517 C 136.932 -1.70617 -1.5543 0
M  V30 1518 C 137.902 -0.547562 -1.56815 0
M  V30 1519 O 139.087 -0.779647 -1.74144 0
M  V30 1520 C 136.227 -1.81831 -2.93311 0
M  V30 1521 C 135.34 -3.09278 -3.01615 0
M  V30 1522 C 134.475 -3.11209 -4.30491 0
M  V30 1523 C 133.514 -4.33055 -4.32585 0
M  V30 1524 N 132.651 -4.32652 -5.52952 0
M  V30 1525 H 137.491 -2.64207 -1.37836 0
M  V30 1526 H 135.028 -1.30959 -0.669937 0
M  V30 1527 H 136.986 -1.86314 -3.73287 0
M  V30 1528 H 135.616 -0.916685 -3.0951 0
M  V30 1529 H 134.668 -3.14203 -2.1443 0
M  V30 1530 H 135.98 -3.99233 -2.99022 0
M  V30 1531 H 135.134 -3.14494 -5.18824 0
M  V30 1532 H 133.873 -2.19106 -4.35711 0
M  V30 1533 H 132.878 -4.29969 -3.42647 0
M  V30 1534 H 134.103 -5.264 -4.29046 0
M  V30 1535 H 132.049 -3.43409 -5.58933 0
M  V30 1536 H 131.966 -5.16392 -5.52155 0
M  V30 1537 H 133.234 -4.40101 -6.43375 0
M  V30 1538 N 137.463 0.71206 -1.40597 0
M  V30 1539 C 138.393 1.83889 -1.43899 0
M  V30 1540 C 139.374 1.67442 -0.299504 0
M  V30 1541 O 140.559 1.87421 -0.508624 0
M  V30 1542 C 137.689 3.21877 -1.30431 0
M  V30 1543 C 136.643 3.53002 -2.42019 0
M  V30 1544 C 135.969 4.90172 -2.13626 0
M  V30 1545 C 137.269 3.53643 -3.84362 0
M  V30 1546 H 138.963 1.81383 -2.38203 0
M  V30 1547 H 136.509 0.871237 -1.14654 0
M  V30 1548 H 138.462 4.00404 -1.31357 0
M  V30 1549 H 137.186 3.24968 -0.326049 0
M  V30 1550 H 135.845 2.76818 -2.40349 0
M  V30 1551 H 135.493 4.89869 -1.14182 0
M  V30 1552 H 135.193 5.11962 -2.88389 0
M  V30 1553 H 136.717 5.71028 -2.1624 0
M  V30 1554 H 138.131 4.22203 -3.87837 0
M  V30 1555 H 136.528 3.86961 -4.58673 0
M  V30 1556 H 137.598 2.52954 -4.13693 0
M  V30 1557 N 138.941 1.26152 0.944643 0
M  V30 1558 C 140.166 1.14363 1.7302 0
M  V30 1559 C 140.591 -0.29772 1.85729 0
M  V30 1560 O 139.949 -1.2157 1.34501 0
M  V30 1561 C 139.997 1.81378 3.11664 0
M  V30 1562 O 139.101 1.10022 3.97453 0
M  V30 1563 H 138.442 0.398694 0.53098 0
M  V30 1564 H 140.972 1.66906 1.18337 0
M  V30 1565 H 140.982 1.88064 3.62072 0
M  V30 1566 H 139.657 2.86237 3.0173 0
M  V30 1567 H 138.234 1.11287 3.55907 0
M  V30 1568 N 140.419 -1.14872 1.07899 0
M  V30 1569 C 141.649 -1.89386 0.825631 0
M  V30 1570 C 142.057 -1.78565 -0.625406 0
M  V30 1571 O 141.4 -1.13918 -1.44113 0
M  V30 1572 C 141.462 -3.40206 1.16191 0
M  V30 1573 C 141.126 -3.74812 2.61467 0
M  V30 1574 C 142.123 -3.75367 3.59716 0
M  V30 1575 C 139.808 -4.0495 2.97189 0
M  V30 1576 C 141.802 -4.05574 4.9172 0
M  V30 1577 C 139.489 -4.34821 4.29388 0
M  V30 1578 C 140.487 -4.35116 5.26463 0
M  V30 1579 O 140.175 -4.64267 6.56286 0
M  V30 1580 H 139.907 -0.606894 0.297751 0
M  V30 1581 H 142.461 -1.46438 1.44031 0
M  V30 1582 H 140.691 -3.8358 0.490214 0
M  V30 1583 H 142.38 -3.96018 0.890193 0
M  V30 1584 H 143.146 -3.52176 3.33462 0
M  V30 1585 H 139.025 -4.03876 2.22273 0
M  V30 1586 H 142.569 -4.05719 5.67484 0
M  V30 1587 H 138.466 -4.5748 4.55392 0
M  V30 1588 H 139.234 -4.82007 6.61522 0
M  V30 1589 N 141.898 -0.863906 -1.31812 0
M  V30 1590 C 142.808 -0.318461 -2.32428 0
M  V30 1591 C 143.824 0.568496 -1.64451 0
M  V30 1592 O 145 0.46666 -1.95919 0
M  V30 1593 C 142.065 0.476355 -3.43412 0
M  V30 1594 C 141.126 -0.43784 -4.27061 0
M  V30 1595 C 140.359 0.319138 -5.32745 0
M  V30 1596 O 140.582 1.54799 -5.48993 0
M  V30 1597 O 139.516 -0.319861 -6.01049 0
M  V30 1598 H 143.342 -1.15229 -2.80991 0
M  V30 1599 H 140.927 -0.627103 -1.35602 0
M  V30 1600 H 142.809 0.927156 -4.11074 0
M  V30 1601 H 141.484 1.28683 -2.97022 0
M  V30 1602 H 140.391 -0.937013 -3.62175 0
M  V30 1603 H 141.724 -1.21375 -4.77 0
M  V30 1604 N 143.376 1.44774 -0.622745 0
M  V30 1605 C 144.623 2.02121 -0.1239 0
M  V30 1606 C 144.951 1.48915 1.25118 0
M  V30 1607 O 144.206 0.660045 1.84233 0
M  V30 1608 C 144.505 3.57364 -0.0508323 0
M  V30 1609 C 144.171 4.29787 -1.36358 0
M  V30 1610 C 142.833 4.4929 -1.72314 0
M  V30 1611 C 145.185 4.71062 -2.23048 0
M  V30 1612 C 142.513 5.07325 -2.94682 0
M  V30 1613 C 144.865 5.30452 -3.44679 0
M  V30 1614 C 143.529 5.48175 -3.80868 0
M  V30 1615 H 142.799 0.739612 -0.0453381 0
M  V30 1616 H 145.446 1.73648 -0.807389 0
M  V30 1617 H 143.751 3.85202 0.715991 0
M  V30 1618 H 145.448 3.99456 0.351533 0
M  V30 1619 H 142.038 4.14932 -1.07375 0
M  V30 1620 H 146.222 4.55715 -1.96565 0
M  V30 1621 H 141.478 5.19235 -3.22809 0
M  V30 1622 H 145.652 5.61385 -4.12092 0
M  V30 1623 H 143.279 5.92912 -4.75773 0
M  V30 1624 N 144.854 0.36279 1.53368 0
M  V30 1625 C 146.084 -0.228281 2.05335 0
M  V30 1626 C 146.492 -1.43226 1.23625 0
M  V30 1627 O 145.835 -1.81717 0.269206 0
M  V30 1628 C 145.897 -0.688549 3.52845 0
M  V30 1629 C 145.561 0.398362 4.5526 0
M  V30 1630 C 146.558 1.24732 5.04716 0
M  V30 1631 C 144.243 0.557805 4.99193 0
M  V30 1632 C 146.237 2.2411 5.96702 0
M  V30 1633 C 143.924 1.55495 5.90986 0
M  V30 1634 C 144.922 2.39503 6.39631 0
M  V30 1635 O 144.61 3.37517 7.29615 0
M  V30 1636 H 144.342 -0.044395 0.674541 0
M  V30 1637 H 146.896 0.518668 1.98744 0
M  V30 1638 H 145.126 -1.48706 3.56964 0
M  V30 1639 H 146.815 -1.20231 3.87685 0
M  V30 1640 H 147.581 1.13532 4.71525 0
M  V30 1641 H 143.46 -0.0862959 4.60919 0
M  V30 1642 H 147.004 2.89718 6.34594 0
M  V30 1643 H 142.901 1.66744 6.23592 0
M  V30 1644 H 143.669 3.33213 7.47604 0
M  V30 1645 N 146.332 -1.57332 0.0918853 0
M  V30 1646 C 147.581 -1.93412 -0.572249 0
M  V30 1647 C 147.894 -0.975515 -1.69538 0
M  V30 1648 O 149.1 -1.22991 -2.42045 0
M  V30 1649 C 147.556 -3.43648 -1.0693 0
M  V30 1650 C 147.164 -4.47994 0.0239049 0
M  V30 1651 C 148.908 -3.88695 -1.70635 0
M  V30 1652 C 146.815 -5.89381 -0.488319 0
M  V30 1653 H 145.745 -0.721939 -0.217532 0
M  V30 1654 H 148.396 -1.82735 0.167369 0
M  V30 1655 H 146.778 -3.49466 -1.8625 0
M  V30 1656 H 147.952 -4.53815 0.799277 0
M  V30 1657 H 146.267 -4.12536 0.565946 0
M  V30 1658 H 148.864 -4.91725 -2.10025 0
M  V30 1659 H 149.207 -3.27166 -2.57426 0
M  V30 1660 H 149.74 -3.85564 -0.979023 0
M  V30 1661 H 146.479 -6.54602 0.342906 0
M  V30 1662 H 145.999 -5.87037 -1.23077 0
M  V30 1663 H 147.678 -6.39863 -0.958317 0
M  V30 1664 N 147.81 0.181792 -1.56548 0
M  V30 1665 C 149.221 0.745244 -1.71181 0
M  V30 1666 C 149.572 1.83262 -0.70068 0
M  V30 1667 O 148.697 2.15946 0.140154 0
M  V30 1668 C 149.292 1.35859 -3.10367 0
M  V30 1669 C 147.851 1.86898 -3.2672 0
M  V30 1670 C 146.998 0.743942 -2.67134 0
M  V30 1671 H 149.949 -0.0434661 -1.5864 0
M  V30 1672 H 149.97 2.22817 -3.08436 0
M  V30 1673 H 149.482 0.566948 -3.83937 0
M  V30 1674 H 147.583 2.68738 -2.5809 0
M  V30 1675 H 147.696 2.02162 -4.34359 0
M  V30 1676 H 146.06 1.16169 -2.26665 0
M  V30 1677 H 146.843 -0.035676 -3.43281 0
M  V30 1678 N 149.288 1.51039 0.449983 0
M  V30 1679 C 150.513 1.6715 1.22783 0
M  V30 1680 C 150.938 0.363081 1.84563 0
M  V30 1681 O 150.296 -0.675433 1.68249 0
M  V30 1682 C 150.344 2.77985 2.29689 0
M  V30 1683 O 149.448 2.40707 3.34864 0
M  V30 1684 H 148.789 0.557746 0.360299 0
M  V30 1685 H 151.319 1.97535 0.533005 0
M  V30 1686 H 151.329 3.01693 2.74673 0
M  V30 1687 H 150.004 3.72935 1.84098 0
M  V30 1688 H 148.581 2.27523 2.95445 0
M  V30 1689 N 150.766 -0.704594 1.40972 0
M  V30 1690 C 152.177 -1.28418 1.3552 0
M  V30 1691 C 152.528 -1.96171 0.0339434 0
M  V30 1692 O 151.653 -1.98231 -0.867944 0
M  V30 1693 C 152.248 -2.33528 2.45459 0
M  V30 1694 C 150.807 -2.87085 2.43433 0
M  V30 1695 C 149.954 -1.61007 2.2577 0
M  V30 1696 H 152.905 -0.499963 1.50619 0
M  V30 1697 H 152.926 -3.14619 2.13998 0
M  V30 1698 H 152.438 -1.84187 3.41609 0
M  V30 1699 H 150.539 -3.40626 1.51013 0
M  V30 1700 H 150.652 -3.3813 3.39419 0
M  V30 1701 H 149.016 -1.86482 1.73483 0
M  V30 1702 H 149.799 -1.13675 3.23933 0
M  V30 1703 N 152.244 -1.26651 -0.937939 0
M  V30 1704 C 153.154 -1.10276 -2.07066 0
M  V30 1705 C 154.17 -0.0354197 -1.73964 0
M  V30 1706 O 155.346 -0.239816 -1.99967 0
M  V30 1707 C 152.411 -0.740887 -3.38691 0
M  V30 1708 C 151.472 -1.88799 -3.85556 0
M  V30 1709 C 150.705 -1.54329 -5.10899 0
M  V30 1710 O 150.928 -0.446494 -5.6865 0
M  V30 1711 O 149.862 -2.37911 -5.52885 0
M  V30 1712 H 153.688 -2.05309 -2.23789 0
M  V30 1713 H 151.273 -1.05743 -1.0554 0
M  V30 1714 H 153.155 -0.55195 -4.1777 0
M  V30 1715 H 151.83 0.180022 -3.23199 0
M  V30 1716 H 150.737 -2.13191 -3.07409 0
M  V30 1717 H 152.07 -2.78874 -4.05574 0
M  V30 1718 N 153.722 1.14298 -1.08507 0
M  V30 1719 C 155.138 1.37347 -0.812901 0
M  V30 1720 C 155.338 1.93052 0.577325 0
M  V30 1721 O 154.394 2.14389 1.33393 0
M  V30 1722 C 155.707 2.33359 -1.89642 0
M  V30 1723 C 157.255 2.46996 -1.92255 0
M  V30 1724 C 157.73 3.46309 -2.99724 0
M  V30 1725 N 159.221 3.53853 -2.98902 0
M  V30 1726 C 159.956 4.3055 -3.787 0
M  V30 1727 N 159.452 5.10482 -4.6838 0
M  V30 1728 N 161.245 4.25757 -3.66998 0
M  V30 1729 H 153.396 0.764867 -1.9815 0
M  V30 1730 H 155.659 0.398966 -0.859959 0
M  V30 1731 H 155.365 1.99565 -2.89597 0
M  V30 1732 H 155.239 3.33274 -1.76659 0
M  V30 1733 H 157.626 2.80081 -0.929445 0
M  V30 1734 H 157.707 1.47039 -2.09316 0
M  V30 1735 H 157.351 3.13957 -3.99241 0
M  V30 1736 H 157.281 4.46049 -2.79907 0
M  V30 1737 H 159.772 2.96812 -2.33904 0
M  V30 1738 H 160.085 5.66284 -5.25873 0
M  V30 1739 H 158.43 5.09747 -4.72422 0
M  V30 1740 H 161.621 3.62383 -2.96304 0
M  V30 1741 H 161.794 4.85279 -4.29427 0
M  V30 1742 N 155.201 0.870884 1.31352 0
M  V30 1743 C 156.131 0.343096 2.30966 0
M  V30 1744 C 157.112 -0.566507 1.60389 0
M  V30 1745 O 158.297 -0.483336 1.88089 0
M  V30 1746 C 155.427 -0.455487 3.443 0
M  V30 1747 C 154.381 0.361103 4.26474 0
M  V30 1748 C 153.707 -0.563221 5.31725 0
M  V30 1749 C 155.007 1.59566 4.97329 0
M  V30 1750 H 156.701 1.17548 2.75359 0
M  V30 1751 H 154.247 0.566686 1.32381 0
M  V30 1752 H 156.2 -0.83525 4.13039 0
M  V30 1753 H 154.924 -1.32139 2.98675 0
M  V30 1754 H 153.583 0.722825 3.59403 0
M  V30 1755 H 153.231 -1.42643 4.82351 0
M  V30 1756 H 152.931 -0.0207409 5.87596 0
M  V30 1757 H 154.455 -0.939808 6.03324 0
M  V30 1758 H 155.869 1.28728 5.58661 0
M  V30 1759 H 154.266 2.07728 5.63 0
M  V30 1760 H 155.336 2.34798 4.24262 0
M  V30 1761 N 156.679 -1.44442 0.630414 0
M  V30 1762 C 157.589 -2.34476 -0.0761693 0
M  V30 1763 C 158.605 -1.52576 -0.836449 0
M  V30 1764 O 159.781 -1.85307 -0.788874 0
M  V30 1765 C 156.846 -3.30545 -1.04599 0
M  V30 1766 C 155.907 -4.28352 -0.28516 0
M  V30 1767 C 155.14 -5.19831 -1.20878 0
M  V30 1768 O 155.363 -5.15223 -2.44747 0
M  V30 1769 O 154.297 -5.97892 -0.693491 0
M  V30 1770 H 158.123 -2.96345 0.664324 0
M  V30 1771 H 155.708 -1.44203 0.39061 0
M  V30 1772 H 157.59 -3.89681 -1.60396 0
M  V30 1773 H 156.265 -2.7121 -1.76711 0
M  V30 1774 H 155.172 -3.72764 0.315837 0
M  V30 1775 H 156.505 -4.90605 0.395924 0
M  V30 1776 N 158.157 -0.370918 -1.53173 0
M  V30 1777 C 159.405 0.216673 -2.00935 0
M  V30 1778 C 159.726 1.48845 -1.25977 0
M  V30 1779 O 158.996 1.92286 -0.374551 0
M  V30 1780 H 157.576 0.0830565 -0.742368 0
M  V30 1781 H 160.238 -0.49838 -1.8842 0
M  V30 1782 H 159.334 0.439893 -3.08984 0
M  V30 1783 N 159.635 1.57281 -0.100228 0
M  V30 1784 C 160.865 1.98591 0.569681 0
M  V30 1785 C 161.273 0.978315 1.61943 0
M  V30 1786 O 160.616 -0.0396108 1.83657 0
M  V30 1787 C 160.678 3.36282 1.271 0
M  V30 1788 C 160.342 4.55488 0.371409 0
M  V30 1789 C 161.339 5.18491 -0.382504 0
M  V30 1790 C 159.024 5.01474 0.287965 0
M  V30 1791 C 161.018 6.25852 -1.20779 0
M  V30 1792 C 158.705 6.08701 -0.540965 0
M  V30 1793 C 159.703 6.70755 -1.28749 0
M  V30 1794 O 159.391 7.75914 -2.10269 0
M  V30 1795 H 159.123 0.65752 0.156982 0
M  V30 1796 H 161.677 2.0463 -0.177734 0
M  V30 1797 H 159.907 3.26941 2.0651 0
M  V30 1798 H 161.596 3.62005 1.83595 0
M  V30 1799 H 162.362 4.83891 -0.3278 0
M  V30 1800 H 158.241 4.52932 0.858689 0
M  V30 1801 H 161.785 6.74218 -1.79096 0
M  V30 1802 H 157.682 6.42732 -0.597131 0
M  V30 1803 H 158.45 7.92925 -2.03007 0
M  V30 1804 N 161.113 -0.173488 1.56642 0
M  V30 1805 C 162.06 -1.21482 1.96242 0
M  V30 1806 C 163.03 -1.44104 0.826027 0
M  V30 1807 O 164.215 -1.5688 1.08597 0
M  V30 1808 C 161.355 -2.54964 2.32567 0
M  V30 1809 C 160.468 -2.39739 3.59373 0
M  V30 1810 C 159.603 -3.66072 3.84921 0
M  V30 1811 C 158.642 -3.45771 5.05083 0
M  V30 1812 N 157.779 -4.64169 5.26775 0
M  V30 1813 H 162.619 -0.870123 2.85014 0
M  V30 1814 H 160.156 -0.418245 1.41029 0
M  V30 1815 H 162.114 -3.32758 2.5165 0
M  V30 1816 H 160.744 -2.87433 1.46908 0
M  V30 1817 H 159.796 -1.53131 3.48217 0
M  V30 1818 H 161.108 -2.20683 4.47326 0
M  V30 1819 H 160.262 -4.52303 4.0436 0
M  V30 1820 H 159.001 -3.88105 2.9534 0
M  V30 1821 H 158.006 -2.57927 4.85545 0
M  V30 1822 H 159.231 -3.25163 5.96193 0
M  V30 1823 H 157.177 -4.86425 4.40144 0
M  V30 1824 H 157.094 -4.48019 6.08946 0
M  V30 1825 H 158.362 -5.51689 5.5069 0
M  V30 1826 N 162.591 -1.51276 -0.441967 0
M  V30 1827 C 163.819 -1.67516 -1.21434 0
M  V30 1828 C 164.234 -0.37055 -1.85128 0
M  V30 1829 O 163.591 0.650498 -1.70513 0
M  V30 1830 C 163.642 -2.78748 -2.30177 0
M  V30 1831 O 163.363 -4.04154 -1.69089 0
M  V30 1832 C 164.864 -3.06217 -3.20541 0
M  V30 1833 H 162.084 -0.562276 -0.366178 0
M  V30 1834 H 164.628 -1.97666 -0.524244 0
M  V30 1835 H 162.783 -2.5121 -2.94911 0
M  V30 1836 H 163.197 -4.65894 -2.40922 0
M  V30 1837 H 164.671 -3.8764 -3.92987 0
M  V30 1838 H 165.148 -2.18439 -3.81026 0
M  V30 1839 H 165.754 -3.35397 -2.61513 0
M  V30 1840 N 164.069 0.697108 -1.41344 0
M  V30 1841 C 165.297 1.48593 -1.43972 0
M  V30 1842 C 165.712 1.88747 -0.0445612 0
M  V30 1843 O 165.069 1.56682 0.935785 0
M  V30 1844 C 165.12 2.74946 -2.34706 0
M  V30 1845 O 164.841 2.36484 -3.68791 0
M  V30 1846 C 166.342 3.687 -2.46121 0
M  V30 1847 H 163.562 0.457964 -0.490418 0
M  V30 1848 H 166.106 0.858429 -1.8561 0
M  V30 1849 H 164.261 3.33937 -1.9638 0
M  V30 1850 H 164.675 3.17918 -4.17167 0
M  V30 1851 H 166.149 4.54145 -3.13777 0
M  V30 1852 H 166.626 4.13081 -1.49199 0
M  V30 1853 H 167.232 3.15613 -2.85076 0
M  V30 1854 N 165.547 1.27147 0.931209 0
M  V30 1855 C 166.796 1.12664 1.67302 0
M  V30 1856 C 167.109 -0.327718 1.92835 0
M  V30 1857 O 168.315 -0.593392 2.64936 0
M  V30 1858 C 166.771 1.9683 3.01307 0
M  V30 1859 C 166.379 3.46901 2.83485 0
M  V30 1860 C 168.123 1.90985 3.79111 0
M  V30 1861 C 166.03 4.23279 4.13024 0
M  V30 1862 H 164.96 0.41803 0.627509 0
M  V30 1863 H 167.611 1.51539 1.03481 0
M  V30 1864 H 165.993 1.50797 3.66164 0
M  V30 1865 H 167.167 4.00773 2.27415 0
M  V30 1866 H 165.482 3.54088 2.19113 0
M  V30 1867 H 168.079 2.45328 4.75098 0
M  V30 1868 H 168.422 0.882718 4.06834 0
M  V30 1869 H 168.955 2.34895 3.21044 0
M  V30 1870 H 165.694 5.26503 3.90481 0
M  V30 1871 H 165.214 3.74186 4.6877 0
M  V30 1872 H 166.893 4.32265 4.81411 0
M  V30 1873 N 167.025 -1.13721 1.09112 0
M  V30 1874 C 168.436 -1.6648 0.845068 0
M  V30 1875 C 168.787 -1.85911 -0.62701 0
M  V30 1876 O 167.912 -1.57556 -1.48341 0
M  V30 1877 C 168.507 -3.02413 1.52748 0
M  V30 1878 C 167.066 -3.52176 1.32849 0
M  V30 1879 C 166.213 -2.27492 1.58564 0
M  V30 1880 H 169.164 -0.976872 1.25072 0
M  V30 1881 H 169.185 -3.68223 0.958752 0
M  V30 1882 H 168.697 -2.88238 2.59885 0
M  V30 1883 H 166.798 -3.7156 0.278137 0
M  V30 1884 H 166.911 -4.32499 2.0611 0
M  V30 1885 H 165.275 -2.33923 1.00758 0
M  V30 1886 H 166.058 -2.15886 2.66924 0
M  V30 1887 N 168.503 -0.877838 -1.30888 0
M  V30 1888 C 169.914 -0.544193 -1.78593 0
M  V30 1889 C 170.265 0.939301 -1.72254 0
M  V30 1890 O 169.39 1.7337 -1.29505 0
M  V30 1891 C 169.985 -0.98105 -3.24285 0
M  V30 1892 C 168.544 -0.698935 -3.69854 0
M  V30 1893 C 167.691 -1.168 -2.51502 0
M  V30 1894 H 170.642 -1.06278 -1.17859 0
M  V30 1895 H 170.663 -0.307009 -3.79259 0
M  V30 1896 H 170.175 -2.06079 -3.28866 0
M  V30 1897 H 168.276 0.369112 -3.70767 0
M  V30 1898 H 168.389 -1.28148 -4.61644 0
M  V30 1899 H 166.753 -0.587535 -2.47831 0
M  V30 1900 H 167.536 -2.25533 -2.58824 0
M  V30 1901 N 169.982 1.44106 -0.638065 0
M  V30 1902 C 170.892 2.34513 0.0637334 0
M  V30 1903 C 171.908 1.53018 0.828346 0
M  V30 1904 O 173.084 1.85723 0.779036 0
M  V30 1905 C 170.149 3.31095 1.02844 0
M  V30 1906 C 169.21 4.28497 0.26244 0
M  V30 1907 C 168.443 5.20465 1.1812 0
M  V30 1908 O 168.666 5.16514 2.42011 0
M  V30 1909 O 167.6 5.98251 0.661774 0
M  V30 1910 H 171.426 2.95989 -0.68003 0
M  V30 1911 H 169.011 1.43994 -0.398252 0
M  V30 1912 H 170.893 3.90526 1.58327 0
M  V30 1913 H 169.568 2.72144 1.7527 0
M  V30 1914 H 168.475 3.72592 -0.335602 0
M  V30 1915 H 169.808 4.90388 -0.421936 0
M  V30 1916 N 171.46 0.379036 1.52974 0
M  V30 1917 C 172.876 0.0285448 1.59574 0
M  V30 1918 C 173.076 -1.45542 1.39355 0
M  V30 1919 O 172.132 -2.2187 1.20541 0
M  V30 1920 C 173.445 0.496535 2.96572 0
M  V30 1921 C 174.993 0.451909 3.0972 0
M  V30 1922 C 175.468 0.895924 4.49152 0
M  V30 1923 N 176.959 0.851522 4.55306 0
M  V30 1924 C 177.694 1.16661 5.61407 0
M  V30 1925 N 177.19 1.55166 6.752 0
M  V30 1926 N 178.983 1.08853 5.51459 0
M  V30 1927 H 171.134 1.34525 1.64367 0
M  V30 1928 H 173.397 0.550733 0.771619 0
M  V30 1929 H 173.103 1.53258 3.16552 0
M  V30 1930 H 172.977 -0.109802 3.7704 0
M  V30 1931 H 175.364 -0.575029 2.89443 0
M  V30 1932 H 175.445 1.09392 2.3123 0
M  V30 1933 H 175.089 1.92104 4.70168 0
M  V30 1934 H 175.019 0.23103 5.26093 0
M  V30 1935 H 177.51 0.568038 3.73606 0
M  V30 1936 H 177.823 1.776 7.52116 0
M  V30 1937 H 176.168 1.59044 6.76557 0
M  V30 1938 H 179.359 0.786803 4.6144 0
M  V30 1939 H 179.532 1.33742 6.34048 0
M  V30 1940 N 172.938 -1.57226 0.108567 0
M  V30 1941 C 174.184 -1.95121 -0.552761 0
M  V30 1942 C 174.517 -0.991345 -1.66991 0
M  V30 1943 O 173.792 -0.0267211 -1.94482 0
M  V30 1944 C 174.075 -3.43039 -1.09528 0
M  V30 1945 C 173.928 -4.49797 0.0177332 0
M  V30 1946 C 175.247 -3.92567 -1.98945 0
M  V30 1947 H 172.366 -0.709496 -0.199461 0
M  V30 1948 H 175.008 -1.89126 0.182011 0
M  V30 1949 H 173.158 -3.48279 -1.72146 0
M  V30 1950 H 174.83 -4.56661 0.652584 0
M  V30 1951 H 173.073 -4.284 0.682309 0
M  V30 1952 H 173.744 -5.50528 -0.402919 0
M  V30 1953 H 176.22 -3.89565 -1.46214 0
M  V30 1954 H 175.096 -4.96605 -2.33827 0
M  V30 1955 H 175.357 -3.32648 -2.91201 0
M  V30 1956 N 174.416 0.165178 -1.56732 0
M  V30 1957 C 175.644 0.896218 -1.86482 0
M  V30 1958 C 176.059 1.75555 -0.694675 0
M  V30 1959 O 175.416 1.79379 0.33607 0
M  V30 1960 C 175.467 1.76792 -3.1532 0
M  V30 1961 O 175.188 0.943239 -4.27825 0
M  V30 1962 C 176.689 2.6081 -3.58459 0
M  V30 1963 H 173.909 0.260064 -0.618553 0
M  V30 1964 H 176.453 0.163428 -2.03846 0
M  V30 1965 H 174.608 2.45398 -2.99764 0
M  V30 1966 H 175.022 1.53998 -5.01383 0
M  V30 1967 H 176.496 3.17579 -4.51495 0
M  V30 1968 H 176.973 3.35977 -2.82872 0
M  V30 1969 H 177.579 1.97526 -3.76648 0
M  V30 1970 N 175.894 1.51508 0.433938 0
M  V30 1971 C 176.804 1.75917 1.5521 0
M  V30 1972 C 177.82 0.643545 1.61662 0
M  V30 1973 O 178.996 0.926183 1.7884 0
M  V30 1974 C 176.061 1.88213 2.91164 0
M  V30 1975 C 175.122 3.12074 2.94802 0
M  V30 1976 C 174.355 3.23774 4.24271 0
M  V30 1977 O 174.578 2.4133 5.16833 0
M  V30 1978 O 173.512 4.16774 4.34262 0
M  V30 1979 H 177.338 2.70777 1.37527 0
M  V30 1980 H 174.923 1.36051 0.617293 0
M  V30 1981 H 176.805 1.98267 3.71845 0
M  V30 1982 H 175.48 0.965413 3.08968 0
M  V30 1983 H 174.387 3.07497 2.13065 0
M  V30 1984 H 175.72 4.03446 2.81943 0
M  V30 1985 N 177.372 -0.689602 1.41712 0
M  V30 1986 C 178.319 -1.80345 1.44029 0
M  V30 1987 C 179.289 -1.63478 0.293948 0
M  V30 1988 O 180.474 -1.84244 0.495869 0
M  V30 1989 C 177.614 -3.18272 1.33405 0
M  V30 1990 C 176.727 -3.46529 2.57956 0
M  V30 1991 C 175.862 -4.74103 2.39582 0
M  V30 1992 C 174.901 -4.95347 3.5958 0
M  V30 1993 N 174.038 -6.14151 3.40239 0
M  V30 1994 H 178.878 -1.77698 2.39222 0
M  V30 1995 H 176.415 -0.867688 1.18784 0
M  V30 1996 H 178.373 -3.97956 1.25246 0
M  V30 1997 H 177.003 -3.2008 0.418164 0
M  V30 1998 H 176.055 -2.61207 2.76542 0
M  V30 1999 H 177.367 -3.58126 3.47199 0
M  V30 2000 H 176.521 -5.61853 2.28924 0
M  V30 2001 H 175.26 -4.64763 1.47805 0
M  V30 2002 H 174.265 -4.06044 3.70686 0
M  V30 2003 H 175.49 -5.06542 4.52318 0
M  V30 2004 H 173.436 -6.06013 2.51167 0
M  V30 2005 H 173.353 -6.26543 4.23061 0
M  V30 2006 H 174.621 -7.04619 3.33365 0
M  V30 2007 N 178.85 -1.27639 -0.924453 0
M  V30 2008 C 180.099 -1.13549 -1.66702 0
M  V30 2009 C 180.412 0.317487 -1.93006 0
M  V30 2010 O 181.618 0.579333 -2.65247 0
M  V30 2011 C 180.074 -1.98426 -3.00259 0
M  V30 2012 C 179.682 -3.484 -2.81641 0
M  V30 2013 C 181.426 -1.92993 -3.78092 0
M  V30 2014 C 179.333 -4.25464 -4.10773 0
M  V30 2015 H 178.263 -0.421351 -0.625283 0
M  V30 2016 H 180.914 -1.52085 -1.02676 0
M  V30 2017 H 179.296 -1.52736 -3.6536 0
M  V30 2018 H 180.47 -4.01973 -2.25287 0
M  V30 2019 H 178.785 -3.55245 -2.17232 0
M  V30 2020 H 181.382 -2.47844 -4.7379 0
M  V30 2021 H 181.725 -0.904281 -4.0636 0
M  V30 2022 H 182.258 -2.36595 -3.19793 0
M  V30 2023 H 178.997 -5.28566 -3.87683 0
M  V30 2024 H 178.517 -3.76667 -4.66779 0
M  V30 2025 H 180.196 -4.34812 -4.79111 0
M  V30 2026 N 180.328 1.1314 -1.09713 0
M  V30 2027 C 181.553 1.88862 -0.857081 0
M  V30 2028 C 181.978 1.78729 0.586304 0
M  V30 2029 O 181.336 1.13692 1.41222 0
M  V30 2030 C 181.384 3.36325 -1.30069 0
M  V30 2031 O 180.488 4.09815 -0.461007 0
M  V30 2032 H 179.829 0.587108 -0.310162 0
M  V30 2033 H 182.359 1.43129 -1.46203 0
M  V30 2034 H 182.369 3.87157 -1.28738 0
M  V30 2035 H 181.044 3.43017 -2.35185 0
M  V30 2036 H 179.621 3.68986 -0.538888 0
M  V30 2037 N 181.806 0.884767 1.30421 0
M  V30 2038 C 182.716 0.355398 2.31892 0
M  V30 2039 C 183.732 -0.542261 1.65335 0
M  V30 2040 O 184.908 -0.435432 1.96637 0
M  V30 2041 C 181.973 -0.421661 3.44126 0
M  V30 2042 C 181.034 0.505727 4.26311 0
M  V30 2043 C 180.267 -0.234343 5.33185 0
M  V30 2044 O 180.49 -1.46045 5.51386 0
M  V30 2045 O 179.424 0.415443 6.00465 0
M  V30 2046 H 183.25 1.19685 2.79122 0
M  V30 2047 H 180.835 0.648596 1.34587 0
M  V30 2048 H 182.717 -0.861641 4.12497 0
M  V30 2049 H 181.392 -1.23942 2.99032 0
M  V30 2050 H 180.299 0.994513 3.60639 0
M  V30 2051 H 181.632 1.28948 4.75009 0
M  V30 2052 N 183.284 -1.43765 0.645699 0
M  V30 2053 C 184.533 -2.01116 0.153412 0
M  V30 2054 C 184.846 -1.51493 -1.23731 0
M  V30 2055 O 186.052 -2.01067 -1.8244 0
M  V30 2056 C 184.508 -3.59206 0.223473 0
M  V30 2057 C 184.116 -4.17823 1.61642 0
M  V30 2058 C 185.86 -4.23972 -0.211597 0
M  V30 2059 C 183.767 -5.68183 1.64081 0
M  V30 2060 H 182.697 -0.752093 0.0535891 0
M  V30 2061 H 185.348 -1.6482 0.806633 0
M  V30 2062 H 183.73 -3.92867 -0.497118 0
M  V30 2063 H 184.904 -3.95674 2.36176 0
M  V30 2064 H 183.219 -3.65399 1.99681 0
M  V30 2065 H 185.816 -5.34275 -0.213112 0
M  V30 2066 H 186.159 -3.97352 -1.24165 0
M  V30 2067 H 186.692 -3.95166 0.456988 0
M  V30 2068 H 183.431 -5.99559 2.64971 0
M  V30 2069 H 182.951 -5.9241 0.938611 0
M  V30 2070 H 184.63 -6.32085 1.3812 0
M  V30 2071 N 184.763 -0.387143 -1.52771 0
M  V30 2072 C 186.009 0.196025 -2.0185 0
M  V30 2073 C 186.342 1.46641 -1.27319 0
M  V30 2074 O 185.617 1.90889 -0.373032 0
M  V30 2075 C 185.9 0.466136 -3.5707 0
M  V30 2076 C 185.753 -0.819385 -4.42274 0
M  V30 2077 C 187.072 1.25768 -4.21747 0
M  V30 2078 H 184.191 0.0697708 -0.73369 0
M  V30 2079 H 186.833 -0.516286 -1.82851 0
M  V30 2080 H 184.983 1.07293 -3.7339 0
M  V30 2081 H 186.655 -1.4563 -4.37709 0
M  V30 2082 H 184.898 -1.43517 -4.09372 0
M  V30 2083 H 185.569 -0.585065 -5.48891 0
M  V30 2084 H 188.045 0.744167 -4.09391 0
M  V30 2085 H 186.921 1.41541 -5.30337 0
M  V30 2086 H 187.182 2.27228 -3.79236 0
M  V30 2087 N 186.241 1.57166 -0.116904 0
M  V30 2088 C 187.518 1.86645 0.585049 0
M  V30 2089 C 187.898 1.0177 1.84949 0
M  V30 2090 O 187.246 0.0960379 2.28298 0
M  V30 2091 C 187.456 3.37736 0.879507 0
M  V30 2092 C 188.804 4.06289 1.23348 0
M  V30 2093 O 189.828 3.42743 0.969836 0
M  V30 2094 O 188.687 5.18455 1.7282 0
M  V30 2095 H 185.781 0.772593 0.295007 0
M  V30 2096 H 188.327 1.69025 -0.151249 0
M  V30 2097 H 187.099 3.91296 -0.0166136 0
M  V30 2098 H 186.722 3.6078 1.67103 0
M  V30 2099 N 187.719 -0.156864 1.56817 0
M  V30 2100 C 188.666 -1.19394 1.97519 0
M  V30 2101 C 189.636 -1.4322 0.841265 0
M  V30 2102 O 190.821 -1.55719 1.10255 0
M  V30 2103 C 187.961 -2.52483 2.35258 0
M  V30 2104 C 187.074 -2.35914 3.61896 0
M  V30 2105 C 186.209 -3.61969 3.88782 0
M  V30 2106 C 185.248 -3.40395 5.08722 0
M  V30 2107 N 184.385 -4.58556 5.31668 0
M  V30 2108 H 189.225 -0.839845 2.85921 0
M  V30 2109 H 186.762 -0.403264 1.41464 0
M  V30 2110 H 188.72 -3.30071 2.55165 0
M  V30 2111 H 187.35 -2.85859 1.49949 0
M  V30 2112 H 186.402 -1.49429 3.49821 0
M  V30 2113 H 187.714 -2.15926 4.49641 0
M  V30 2114 H 186.868 -4.47989 4.09135 0
M  V30 2115 H 185.607 -3.84951 2.9944 0
M  V30 2116 H 184.612 -2.52763 4.88253 0
M  V30 2117 H 185.837 -3.18822 5.99608 0
M  V30 2118 H 183.783 -4.81729 4.45279 0
M  V30 2119 H 183.7 -4.41535 6.13664 0
M  V30 2120 H 184.968 -5.45817 5.5651 0
M  V30 2121 N 189.197 -1.51736 -0.425897 0
M  V30 2122 C 190.16 -1.73271 -1.50032 0
M  V30 2123 C 191.16 -0.602639 -1.4908 0
M  V30 2124 O 192.35 -0.87033 -1.509 0
M  V30 2125 C 189.482 -1.79969 -2.89523 0
M  V30 2126 H 190.675 -2.69172 -1.32237 0
M  V30 2127 H 188.228 -1.41899 -0.65532 0
M  V30 2128 H 188.963 -0.859241 -3.1271 0
M  V30 2129 H 188.748 -2.62109 -2.91619 0
M  V30 2130 H 190.238 -1.9843 -3.67444 0
M  V30 2131 N 190.675 0.682077 -1.42076 0
M  V30 2132 C 191.905 1.46844 -1.45329 0
M  V30 2133 C 192.313 1.89102 -0.0609328 0
M  V30 2134 O 191.656 1.58238 0.933082 0
M  V30 2135 C 191.718 2.75375 -2.31104 0
M  V30 2136 C 191.382 2.55238 -3.79081 0
M  V30 2137 C 192.379 2.20309 -4.70914 0
M  V30 2138 C 190.064 2.70459 -4.2327 0
M  V30 2139 C 192.058 2.00859 -6.04925 0
M  V30 2140 C 189.745 2.50624 -5.57343 0
M  V30 2141 C 190.743 2.15876 -6.47986 0
M  V30 2142 O 190.431 1.96227 -7.79583 0
M  V30 2143 H 190.163 0.4586 -0.496651 0
M  V30 2144 H 192.717 0.846131 -1.87162 0
M  V30 2145 H 190.947 3.40061 -1.84107 0
M  V30 2146 H 192.636 3.37231 -2.25898 0
M  V30 2147 H 193.402 2.08153 -4.38061 0
M  V30 2148 H 189.281 2.96485 -3.53012 0
M  V30 2149 H 192.825 1.7366 -6.75639 0
M  V30 2150 H 188.722 2.62375 -5.89771 0
M  V30 2151 H 189.49 2.10883 -7.90867 0
M  V30 2152 N 192.153 1.28127 0.917671 0
M  V30 2153 C 193.569 1.05749 1.19538 0
M  V30 2154 C 193.769 -0.202633 2.00479 0
M  V30 2155 O 192.825 -0.905382 2.3571 0
M  V30 2156 C 194.138 2.30273 1.93378 0
M  V30 2157 C 195.686 2.35412 2.06277 0
M  V30 2158 C 196.161 3.59692 2.83524 0
M  V30 2159 N 197.652 3.60309 2.91087 0
M  V30 2160 C 198.387 4.53147 3.51348 0
M  V30 2161 N 197.883 5.563 4.12919 0
M  V30 2162 N 199.676 4.40751 3.48849 0
M  V30 2163 H 191.827 2.09024 0.377184 0
M  V30 2164 H 194.09 0.919798 0.22951 0
M  V30 2165 H 193.796 3.22055 1.41328 0
M  V30 2166 H 193.67 2.36378 2.93947 0
M  V30 2167 H 196.057 1.4413 2.57508 0
M  V30 2168 H 196.138 2.33304 1.04895 0
M  V30 2169 H 195.782 4.51316 2.32973 0
M  V30 2170 H 195.712 3.59054 3.85211 0
M  V30 2171 H 198.203 2.85714 2.47338 0
M  V30 2172 H 198.516 6.2329 4.56869 0
M  V30 2173 H 196.861 5.60131 4.11435 0
M  V30 2174 H 200.052 3.59367 2.99955 0
M  V30 2175 H 200.225 5.13291 3.9552 0
M  V30 2176 N 193.631 -1.12557 1.10312 0
M  V30 2177 C 194.859 -1.87864 0.866873 0
M  V30 2178 C 195.274 -1.79588 -0.582557 0
M  V30 2179 O 194.631 -1.16887 -1.40156 0
M  V30 2180 C 194.682 -3.37125 1.30496 0
M  V30 2181 O 194.403 -3.45201 2.69755 0
M  V30 2182 C 195.904 -4.29373 1.10243 0
M  V30 2183 H 193.124 -0.594452 0.311236 0
M  V30 2184 H 195.668 -1.42429 1.46745 0
M  V30 2185 H 193.823 -3.80109 0.748081 0
M  V30 2186 H 194.237 -4.38056 2.88457 0
M  V30 2187 H 195.711 -5.32394 1.45811 0
M  V30 2188 H 196.188 -4.39181 0.0409492 0
M  V30 2189 H 196.794 -3.92169 1.64571 0
M  V30 2190 N 195.109 -0.891671 -1.2995 0
M  V30 2191 C 196.339 -0.527893 -1.99742 0
M  V30 2192 C 196.747 0.88979 -1.66971 0
M  V30 2193 O 196.09 1.59766 -0.906667 0
M  V30 2194 C 196.152 -0.630804 -3.53922 0
M  V30 2195 C 195.816 -2.01401 -4.10228 0
M  V30 2196 C 196.813 -2.98422 -4.25724 0
M  V30 2197 C 194.498 -2.32121 -4.45449 0
M  V30 2198 C 196.492 -4.24293 -4.75662 0
M  V30 2199 C 194.179 -3.58237 -4.95086 0
M  V30 2200 C 195.177 -4.54137 -5.10146 0
M  V30 2201 O 194.865 -5.78014 -5.58708 0
M  V30 2202 H 194.597 -0.201953 -0.645129 0
M  V30 2203 H 197.151 -1.20076 -1.66646 0
M  V30 2204 H 195.381 0.0990616 -3.86573 0
M  V30 2205 H 197.07 -0.277338 -4.04951 0
M  V30 2206 H 197.836 -2.76001 -3.98809 0
M  V30 2207 H 193.715 -1.5824 -4.32991 0
M  V30 2208 H 197.259 -4.99153 -4.87332 0
M  V30 2209 H 193.156 -3.80491 -5.21437 0
M  V30 2210 H 193.924 -5.8049 -5.77039 0
M  V30 2211 N 196.587 1.43421 -0.653314 0
M  V30 2212 C 197.517 2.33487 0.0246656 0
M  V30 2213 C 198.498 1.49475 0.811863 0
M  V30 2214 O 199.683 1.78139 0.773322 0
M  V30 2215 C 196.813 3.32841 0.99166 0
M  V30 2216 C 195.767 4.26842 0.314568 0
M  V30 2217 C 195.093 5.16236 1.39302 0
M  V30 2218 C 196.393 5.16243 -0.793095 0
M  V30 2219 H 198.087 2.90427 -0.727481 0
M  V30 2220 H 195.633 1.39649 -0.351287 0
M  V30 2221 H 197.586 3.94747 1.47487 0
M  V30 2222 H 196.31 2.74158 1.77497 0
M  V30 2223 H 194.969 3.663 -0.148199 0
M  V30 2224 H 194.617 4.53891 2.16776 0
M  V30 2225 H 194.317 5.79948 0.945223 0
M  V30 2226 H 195.841 5.81015 1.87759 0
M  V30 2227 H 197.255 5.71958 -0.392039 0
M  V30 2228 H 195.652 5.88676 -1.16536 0
M  V30 2229 H 196.722 4.55927 -1.65103 0
M  V30 2230 N 198.065 0.39524 1.52563 0
M  V30 2231 C 198.975 -0.444232 2.30356 0
M  V30 2232 C 199.991 -1.06615 1.37511 0
M  V30 2233 O 201.167 -1.07067 1.70583 0
M  V30 2234 C 198.232 -1.55315 3.09964 0
M  V30 2235 C 197.293 -0.955734 4.18526 0
M  V30 2236 C 196.526 -2.01181 4.9433 0
M  V30 2237 O 196.749 -3.22781 4.70285 0
M  V30 2238 O 195.683 -1.62579 5.79527 0
M  V30 2239 H 199.509 0.189667 3.03107 0
M  V30 2240 H 197.094 0.1588 1.48554 0
M  V30 2241 H 198.976 -2.19724 3.59582 0
M  V30 2242 H 197.651 -2.17191 2.4002 0
M  V30 2243 H 196.558 -0.274743 3.7309 0
M  V30 2244 H 197.891 -0.381109 4.90722 0
M  V30 2245 N 199.544 -1.57102 0.125237 0
M  V30 2246 C 200.474 -2.18659 -0.819174 0
M  V30 2247 C 201.455 -1.12843 -1.27281 0
M  V30 2248 O 202.64 -1.41104 -1.33429 0
M  V30 2249 C 199.77 -2.79096 -2.06695 0
M  V30 2250 C 198.724 -3.90548 -1.75088 0
M  V30 2251 C 198.05 -4.37821 -3.06948 0
M  V30 2252 C 199.35 -5.12356 -1.01435 0
M  V30 2253 H 201.044 -2.9783 -0.306202 0
M  V30 2254 H 198.59 -1.4326 -0.145839 0
M  V30 2255 H 200.543 -3.2082 -2.73226 0
M  V30 2256 H 199.267 -1.97223 -2.60328 0
M  V30 2257 H 197.926 -3.49409 -1.10944 0
M  V30 2258 H 197.574 -3.52799 -3.58527 0
M  V30 2259 H 197.274 -5.12982 -2.86571 0
M  V30 2260 H 198.798 -4.822 -3.74587 0
M  V30 2261 H 200.212 -5.5106 -1.58132 0
M  V30 2262 H 198.609 -5.9314 -0.911319 0
M  V30 2263 H 199.679 -4.849 -0.00218681 0
M  V30 2264 N 201.022 0.148545 -1.56898 0
M  V30 2265 C 202.271 0.85984 -1.82454 0
M  V30 2266 C 202.584 1.82406 -0.706229 0
M  V30 2267 O 203.79 2.57938 -0.847349 0
M  V30 2268 C 202.246 1.57967 -3.2338 0
M  V30 2269 C 201.854 0.65794 -4.43142 0
M  V30 2270 C 203.598 2.27784 -3.58211 0
M  V30 2271 C 201.505 1.3793 -5.75091 0
M  V30 2272 H 200.435 0.324834 -0.68044 0
M  V30 2273 H 203.086 0.112588 -1.83154 0
M  V30 2274 H 201.468 2.37249 -3.17063 0
M  V30 2275 H 202.642 -0.0995497 -4.60692 0
M  V30 2276 H 200.957 0.0682643 -4.16344 0
M  V30 2277 H 203.554 2.8239 -4.54048 0
M  V30 2278 H 203.897 3.04204 -2.84193 0
M  V30 2279 H 204.43 1.55421 -3.66182 0
M  V30 2280 H 201.169 0.656982 -6.52199 0
M  V30 2281 H 200.689 2.10954 -5.61479 0
M  V30 2282 H 202.368 1.92063 -6.17835 0
M  V30 2283 N 202.5 1.5196 0.417844 0
M  V30 2284 C 203.41 1.77554 1.53336 0
M  V30 2285 C 204.426 0.660655 1.6097 0
M  V30 2286 O 205.602 0.945099 1.77848 0
M  V30 2287 C 202.667 1.91291 2.89152 0
M  V30 2288 C 201.728 3.15183 2.91475 0
M  V30 2289 C 200.961 3.28256 4.20813 0
M  V30 2290 O 201.184 2.46798 5.14244 0
M  V30 2291 O 200.118 4.21356 4.29817 0
M  V30 2292 H 203.944 2.7222 1.34647 0
M  V30 2293 H 201.529 1.36698 0.602828 0
M  V30 2294 H 203.411 2.02199 3.69721 0
M  V30 2295 H 202.086 0.998129 3.07927 0
M  V30 2296 H 200.993 3.09739 2.09791 0
M  V30 2297 H 202.326 4.06414 2.77648 0
M  V30 2298 N 203.978 -0.674533 1.42435 0
M  V30 2299 C 205.203 -1.46784 1.46524 0
M  V30 2300 C 205.628 -1.87938 0.078066 0
M  V30 2301 O 204.986 -1.56014 -0.92354 0
M  V30 2302 C 205.034 -2.69307 2.39805 0
M  V30 2303 O 204.138 -3.67587 1.86959 0
M  V30 2304 H 203.479 -0.440959 0.496439 0
M  V30 2305 H 206.009 -0.827326 1.87127 0
M  V30 2306 H 206.019 -3.17374 2.56393 0
M  V30 2307 H 204.694 -2.38692 3.40586 0
M  V30 2308 H 203.271 -3.2662 1.79927 0
M  V30 2309 N 205.456 -1.28612 -0.910864 0
M  V30 2310 C 206.704 -1.15705 -1.65701 0
M  V30 2311 C 207.025 0.29416 -1.92769 0
M  V30 2312 O 206.295 1.20331 -1.54588 0
M  V30 2313 H 204.875 -0.425216 -0.614167 0
M  V30 2314 H 207.537 -1.61381 -1.0928 0
M  V30 2315 H 206.633 -1.6988 -2.61815 0
M  V30 2316 N 206.934 1.1197 -1.10907 0
M  V30 2317 C 208.18 1.8386 -0.855773 0
M  V30 2318 C 208.513 1.84134 0.617103 0
M  V30 2319 O 207.788 1.29041 1.45529 0
M  V30 2320 C 208.071 3.31305 -1.411 0
M  V30 2321 C 207.924 3.39456 -2.9511 0
M  V30 2322 C 209.243 4.2721 -1.05736 0
M  V30 2323 H 206.362 0.667545 -0.312334 0
M  V30 2324 H 209.004 1.31331 -1.37303 0
M  V30 2325 H 207.154 3.76169 -0.97105 0
M  V30 2326 H 208.826 3.03191 -3.47668 0
M  V30 2327 H 207.069 2.79849 -3.31462 0
M  V30 2328 H 207.74 4.43209 -3.29044 0
M  V30 2329 H 210.216 3.90497 -1.43706 0
M  V30 2330 H 209.092 5.28775 -1.47269 0
M  V30 2331 H 209.353 4.42088 0.0325958 0
M  V30 2332 N 208.412 0.89855 1.29475 0
M  V30 2333 C 209.823 0.572537 1.77705 0
M  V30 2334 C 210.174 -0.911778 1.73727 0
M  V30 2335 O 209.299 -1.71288 1.32247 0
M  V30 2336 C 209.894 1.03252 3.22683 0
M  V30 2337 C 208.453 0.757687 3.68695 0
M  V30 2338 C 207.6 1.20787 2.49612 0
M  V30 2339 H 210.551 1.08139 1.16153 0
M  V30 2340 H 210.572 0.367307 3.78723 0
M  V30 2341 H 210.084 2.11285 3.25546 0
M  V30 2342 H 208.185 -0.310079 3.71308 0
M  V30 2343 H 208.298 1.35476 4.59547 0
M  V30 2344 H 206.662 0.626888 2.46865 0
M  V30 2345 H 207.445 2.29622 2.55203 0
M  V30 2346 N 209.89 -1.43072 0.660911 0
M  V30 2347 C 211.306 -1.56169 0.329173 0
M  V30 2348 C 211.506 -1.64317 -1.16629 0
M  V30 2349 O 210.562 -1.60245 -1.95135 0
M  V30 2350 C 211.875 -2.81873 1.04729 0
M  V30 2351 C 213.423 -2.95627 1.02828 0
M  V30 2352 C 213.898 -4.24174 1.72744 0
M  V30 2353 N 215.389 -4.31055 1.69545 0
M  V30 2354 C 216.124 -5.29304 2.20511 0
M  V30 2355 N 215.62 -6.33786 2.79799 0
M  V30 2356 N 217.413 -5.21008 2.10966 0
M  V30 2357 H 209.564 -1.36027 1.63127 0
M  V30 2358 H 211.827 -0.653823 0.686454 0
M  V30 2359 H 211.533 -2.81942 2.10242 0
M  V30 2360 H 211.407 -3.72338 0.603702 0
M  V30 2361 H 213.794 -2.95094 -0.0184742 0
M  V30 2362 H 213.875 -2.06431 1.51063 0
M  V30 2363 H 213.519 -4.25467 2.7738 0
M  V30 2364 H 213.449 -5.1228 1.2197 0
M  V30 2365 H 215.94 -3.56174 1.26288 0
M  V30 2366 H 216.253 -7.05086 3.16344 0
M  V30 2367 H 214.598 -6.34387 2.83863 0
M  V30 2368 H 217.789 -4.38301 1.64347 0
M  V30 2369 H 217.962 -5.97416 2.50993 0
M  V30 2370 N 211.368 -0.403325 -1.52352 0
M  V30 2371 C 212.278 0.432009 -2.30588 0
M  V30 2372 C 213.294 1.05884 -1.38075 0
M  V30 2373 O 214.47 1.06161 -1.71148 0
M  V30 2374 C 211.535 1.53669 -3.10784 0
M  V30 2375 C 210.596 0.933525 -4.19027 0
M  V30 2376 C 209.829 1.98557 -4.9539 0
M  V30 2377 O 210.052 3.20283 -4.71991 0
M  V30 2378 O 208.986 1.59504 -5.80381 0
M  V30 2379 H 212.812 -0.205739 -3.03002 0
M  V30 2380 H 210.397 -0.166675 -1.48467 0
M  V30 2381 H 212.279 2.17814 -3.60742 0
M  V30 2382 H 210.954 2.15915 -2.41169 0
M  V30 2383 H 209.861 0.254954 -3.7323 0
M  V30 2384 H 211.194 0.35508 -4.90918 0
M  V30 2385 N 212.846 1.57033 -0.133567 0
M  V30 2386 C 214.092 1.95976 0.521649 0
M  V30 2387 C 214.425 1.01779 1.65393 0
M  V30 2388 O 213.7 0.0576581 1.94415 0
M  V30 2389 C 213.983 3.44738 1.04057 0
M  V30 2390 C 213.836 4.49711 -0.0892897 0
M  V30 2391 C 215.155 3.95682 1.92675 0
M  V30 2392 H 212.274 0.712579 0.188149 0
M  V30 2393 H 214.916 1.88813 -0.212076 0
M  V30 2394 H 213.066 3.50973 1.66583 0
M  V30 2395 H 214.738 4.55565 -0.725152 0
M  V30 2396 H 212.981 4.27261 -0.750378 0
M  V30 2397 H 213.652 5.51099 0.315284 0
M  V30 2398 H 216.128 3.91841 1.39998 0
M  V30 2399 H 215.004 5.00262 2.25897 0
M  V30 2400 H 215.265 3.37239 2.85872 0
M  V30 2401 N 214.325 -0.140222 1.56975 0
M  V30 2402 C 215.288 -1.15689 1.97861 0
M  V30 2403 C 216.288 -1.3549 0.865974 0
M  V30 2404 O 217.478 -1.32367 1.13246 0
M  V30 2405 C 214.61 -2.51582 2.30042 0
M  V30 2406 H 215.803 -0.805971 2.88867 0
M  V30 2407 H 213.356 -0.383801 1.51515 0
M  V30 2408 H 214.091 -2.91632 1.41849 0
M  V30 2409 H 213.876 -2.38569 3.11171 0
M  V30 2410 H 215.366 -3.24792 2.62488 0
M  V30 2411 N 215.803 -1.52179 -0.40978 0
M  V30 2412 C 217.219 -1.40968 -0.74835 0
M  V30 2413 C 217.419 -0.513657 -1.94843 0
M  V30 2414 O 216.475 0.0208026 -2.52491 0
M  V30 2415 C 217.788 -2.83483 -1.0029 0
M  V30 2416 C 219.336 -2.92821 -1.10565 0
M  V30 2417 C 219.811 -4.36303 -1.39296 0
M  V30 2418 N 221.302 -4.39535 -1.46162 0
M  V30 2419 C 222.037 -5.47614 -1.70018 0
M  V30 2420 N 221.533 -6.65812 -1.91483 0
M  V30 2421 N 223.326 -5.35129 -1.72027 0
M  V30 2422 H 215.477 -2.0897 0.380186 0
M  V30 2423 H 217.74 -0.94185 0.107805 0
M  V30 2424 H 217.446 -3.51168 -0.193461 0
M  V30 2425 H 217.32 -3.24487 -1.92323 0
M  V30 2426 H 219.707 -2.25318 -1.90568 0
M  V30 2427 H 219.788 -2.55276 -0.16369 0
M  V30 2428 H 219.432 -5.04366 -0.598109 0
M  V30 2429 H 219.362 -4.71385 -2.34743 0
M  V30 2430 H 221.853 -3.54332 -1.31367 0
M  V30 2431 H 222.166 -7.43964 -2.09134 0
M  V30 2432 H 220.511 -6.68879 -1.88749 0
M  V30 2433 H 223.702 -4.41764 -1.54796 0
M  V30 2434 H 223.875 -6.19433 -1.9028 0
M  V30 2435 N 217.281 0.66697 -1.42791 0
M  V30 2436 C 218.53 1.42278 -1.42968 0
M  V30 2437 C 218.843 1.9553 -0.0524489 0
M  V30 2438 O 220.049 2.71414 0.068363 0
M  V30 2439 C 218.505 2.57418 -2.51524 0
M  V30 2440 C 218.113 2.10832 -3.9529 0
M  V30 2441 C 219.857 3.34878 -2.60877 0
M  V30 2442 C 217.764 3.23101 -4.95338 0
M  V30 2443 H 216.694 0.534533 -0.531781 0
M  V30 2444 H 219.345 0.721302 -1.68729 0
M  V30 2445 H 217.727 3.29971 -2.18941 0
M  V30 2446 H 218.901 1.4538 -4.37266 0
M  V30 2447 H 217.216 1.46289 -3.89857 0
M  V30 2448 H 219.813 4.18505 -3.32802 0
M  V30 2449 H 220.156 3.81993 -1.6549 0
M  V30 2450 H 220.689 2.69398 -2.92693 0
M  V30 2451 H 217.428 2.80969 -5.9223 0
M  V30 2452 H 216.948 3.87309 -4.57987 0
M  V30 2453 H 218.627 3.88447 -5.17415 0
M  V30 2454 N 218.759 1.29093 0.90403 0
M  V30 2455 C 220.005 1.16986 1.65656 0
M  V30 2456 C 220.338 -0.278925 1.92186 0
M  V30 2457 O 219.613 -1.2019 1.5292 0
M  V30 2458 C 219.896 1.97908 3.0084 0
M  V30 2459 C 219.749 3.50903 2.81403 0
M  V30 2460 C 221.068 1.80208 4.01513 0
M  V30 2461 H 218.187 0.426346 0.601164 0
M  V30 2462 H 220.829 1.58518 1.04747 0
M  V30 2463 H 218.979 1.62616 3.52829 0
M  V30 2464 H 220.651 3.96153 2.36348 0
M  V30 2465 H 218.894 3.76045 2.1627 0
M  V30 2466 H 219.565 4.02791 3.77443 0
M  V30 2467 H 222.041 2.11025 3.58619 0
M  V30 2468 H 220.917 2.39184 4.94047 0
M  V30 2469 H 221.178 0.756119 4.35586 0
M  V30 2470 N 220.237 -1.11381 1.11499 0
M  V30 2471 C 221.167 -2.19509 0.796125 0
M  V30 2472 C 222.148 -1.68458 -0.235796 0
M  V30 2473 O 223.333 -1.93947 -0.0991344 0
M  V30 2474 C 220.463 -3.46475 0.239205 0
M  V30 2475 C 219.417 -4.10744 1.20307 0
M  V30 2476 C 218.743 -5.32293 0.50683 0
M  V30 2477 C 220.043 -4.55597 2.55399 0
M  V30 2478 H 221.737 -2.46439 1.70024 0
M  V30 2479 H 219.283 -1.18446 0.818935 0
M  V30 2480 H 221.236 -4.214 0.00392006 0
M  V30 2481 H 219.96 -3.19006 -0.700206 0
M  V30 2482 H 218.619 -3.37813 1.42399 0
M  V30 2483 H 218.267 -5.01095 -0.437408 0
M  V30 2484 H 217.967 -5.76243 1.1497 0
M  V30 2485 H 219.491 -6.09956 0.280351 0
M  V30 2486 H 220.905 -5.21841 2.37391 0
M  V30 2487 H 219.302 -5.10363 3.15673 0
M  V30 2488 H 220.372 -3.69013 3.14575 0
M  V30 2489 N 221.715 -0.905404 -1.28997 0
M  V30 2490 C 223.126 -0.581953 -1.77398 0
M  V30 2491 C 223.477 0.902552 -1.74208 0
M  V30 2492 O 222.602 1.70584 -1.33154 0
M  V30 2493 C 223.197 -1.04961 -3.22131 0
M  V30 2494 C 221.756 -0.777229 -3.68288 0
M  V30 2495 C 220.903 -1.22109 -2.48967 0
M  V30 2496 H 223.854 -1.08754 -1.15578 0
M  V30 2497 H 223.875 -0.387387 -3.78523 0
M  V30 2498 H 223.387 -2.13008 -3.24421 0
M  V30 2499 H 221.488 0.290383 -3.71467 0
M  V30 2500 H 221.601 -1.37911 -4.58822 0
M  V30 2501 H 219.965 -0.639971 -2.46529 0
M  V30 2502 H 220.748 -2.30972 -2.53982 0
M  V30 2503 N 223.193 1.4272 -0.668489 0
M  V30 2504 C 224.123 2.335 -0.000100175 0
M  V30 2505 C 225.104 1.50328 0.795964 0
M  V30 2506 O 226.289 1.78949 0.754385 0
M  V30 2507 C 223.419 3.33874 0.956302 0
M  V30 2508 C 222.373 4.27152 0.269278 0
M  V30 2509 C 221.699 5.17684 1.33818 0
M  V30 2510 C 222.999 5.15373 -0.847805 0
M  V30 2511 H 224.693 2.89639 -0.758244 0
M  V30 2512 H 222.239 1.39269 -0.366079 0
M  V30 2513 H 224.192 3.9629 1.43292 0
M  V30 2514 H 222.916 2.76025 1.74579 0
M  V30 2515 H 221.575 3.66123 -0.187042 0
M  V30 2516 H 221.223 4.56165 2.1195 0
M  V30 2517 H 220.923 5.80918 0.883659 0
M  V30 2518 H 222.447 5.82974 1.81586 0
M  V30 2519 H 223.861 5.7151 -0.452681 0
M  V30 2520 H 222.258 5.87407 -1.22773 0
M  V30 2521 H 223.328 4.5415 -1.69929 0
M  V30 2522 N 224.671 0.411399 1.52136 0
M  V30 2523 C 225.619 -0.427633 2.28635 0
M  V30 2524 C 226.613 -1.04383 1.33419 0
M  V30 2525 O 227.819 -0.981772 1.50868 0
M  V30 2526 H 224.194 -0.156689 0.735495 0
M  V30 2527 H 226.165 0.238761 2.97443 0
M  V30 2528 C 224.914 -1.53082 3.12188 0
M  V30 2529 H 224.237 -1.06601 3.85326 0
M  V30 2530 H 225.677 -2.09167 3.68816 0
M  V30 2531 C 224.136 -2.49946 2.25895 0
M  V30 2532 O 224.666 -3.53884 1.90076 0
M  V30 2533 N 222.872 -2.2021 1.8962 0
M  V30 2534 H 222.419 -1.35719 2.18948 0
M  V30 2535 H 222.377 -2.85266 1.32176 0
M  V30 2536 N 226.149 -1.5696 0.141893 0
M  V30 2537 C 227.079 -2.19516 -0.795936 0
M  V30 2538 C 228.06 -1.14187 -1.26077 0
M  V30 2539 O 229.245 -1.42511 -1.31925 0
M  V30 2540 C 226.375 -2.81272 -2.03723 0
M  V30 2541 C 225.329 -3.92384 -1.70936 0
M  V30 2542 C 224.655 -4.41052 -3.02287 0
M  V30 2543 C 225.955 -5.13403 -0.959954 0
M  V30 2544 H 227.649 -2.98138 -0.274596 0
M  V30 2545 H 225.195 -1.43406 -0.130636 0
M  V30 2546 H 227.148 -3.237 -2.69808 0
M  V30 2547 H 225.872 -1.99973 -2.58221 0
M  V30 2548 H 224.531 -3.50566 -1.07232 0
M  V30 2549 H 224.179 -3.56582 -3.54765 0
M  V30 2550 H 223.879 -5.15993 -2.81114 0
M  V30 2551 H 225.403 -4.86146 -3.69451 0
M  V30 2552 H 226.817 -5.52706 -1.52279 0
M  V30 2553 H 225.214 -5.94073 -0.848357 0
M  V30 2554 H 226.284 -4.84875 0.0492434 0
M  V30 2555 N 227.627 0.131896 -1.57047 0
M  V30 2556 C 228.857 0.855219 -1.88068 0
M  V30 2557 C 229.265 1.74557 -0.729817 0
M  V30 2558 O 228.608 1.81083 0.308962 0
M  V30 2559 C 228.67 1.75119 -3.13964 0
M  V30 2560 C 228.334 1.03646 -4.45091 0
M  V30 2561 C 229.331 0.383276 -5.18485 0
M  V30 2562 C 227.016 1.02148 -4.91804 0
M  V30 2563 C 229.01 -0.275347 -6.36805 0
M  V30 2564 C 226.697 0.359047 -6.10044 0
M  V30 2565 C 227.695 -0.288222 -6.82392 0
M  V30 2566 O 227.383 -0.94011 -7.98384 0
M  V30 2567 H 227.115 0.251864 -0.627328 0
M  V30 2568 H 229.669 0.124782 -2.05021 0
M  V30 2569 H 227.899 2.52295 -2.9306 0
M  V30 2570 H 229.588 2.3478 -3.31109 0
M  V30 2571 H 230.354 0.386562 -4.83457 0
M  V30 2572 H 226.233 1.5147 -4.35405 0
M  V30 2573 H 229.777 -0.781148 -6.93213 0
M  V30 2574 H 225.674 0.35348 -6.44531 0
M  V30 2575 H 226.442 -0.84329 -8.14144 0
M  V30 2576 N 229.106 1.52395 0.401703 0
M  V30 2577 C 230.334 1.70676 1.16949 0
M  V30 2578 C 230.749 0.419503 1.8408 0
M  V30 2579 O 230.106 -0.605061 1.72178 0
M  V30 2580 C 230.157 2.84753 2.22706 0
M  V30 2581 O 229.878 4.08495 1.58314 0
M  V30 2582 C 231.379 3.14608 3.12309 0
M  V30 2583 H 228.599 0.571787 0.351142 0
M  V30 2584 H 231.143 1.98987 0.471652 0
M  V30 2585 H 229.298 2.58941 2.88147 0
M  V30 2586 H 229.712 4.72117 2.28485 0
M  V30 2587 H 231.186 3.97923 3.82572 0
M  V30 2588 H 231.663 2.28464 3.75101 0
M  V30 2589 H 232.269 3.42212 2.52529 0
M  V30 2590 N 230.584 -0.659388 1.43143 0
M  V30 2591 C 232 -0.974337 1.26407 0
M  V30 2592 C 232.2 -2.007 0.179341 0
M  V30 2593 O 231.256 -2.4856 -0.444295 0
M  V30 2594 C 232.569 -1.46447 2.62628 0
M  V30 2595 C 234.117 -1.58144 2.7011 0
M  V30 2596 C 234.592 -2.1055 4.06734 0
M  V30 2597 N 236.083 -2.17861 4.08767 0
M  V30 2598 C 236.818 -2.59519 5.1131 0
M  V30 2599 N 236.314 -3.00518 6.24228 0
M  V30 2600 N 238.107 -2.59404 4.98664 0
M  V30 2601 H 230.258 0.0240528 2.12386 0
M  V30 2602 H 232.521 -0.0518065 0.946583 0
M  V30 2603 H 232.227 -0.780123 3.42939 0
M  V30 2604 H 232.101 -2.44058 2.87603 0
M  V30 2605 H 234.488 -2.25682 1.90136 0
M  V30 2606 H 234.569 -0.589828 2.48907 0
M  V30 2607 H 234.213 -1.43616 4.87172 0
M  V30 2608 H 234.143 -3.10531 4.25298 0
M  V30 2609 H 236.634 -1.88975 3.27257 0
M  V30 2610 H 236.947 -3.31036 6.98309 0
M  V30 2611 H 235.292 -2.98337 6.2771 0
M  V30 2612 H 238.483 -2.26747 4.09516 0
M  V30 2613 H 238.656 -2.91548 5.78709 0
M  V30 2614 N 232.062 -1.29571 -0.897171 0
M  V30 2615 C 233.309 -1.17689 -1.6479 0
M  V30 2616 C 233.637 0.27107 -1.92602 0
M  V30 2617 O 232.892 1.21193 -1.53658 0
M  V30 2618 C 233.191 -1.9382 -3.00281 0
M  V30 2619 C 232.857 -3.43522 -2.92068 0
M  V30 2620 C 231.519 -3.84348 -2.89535 0
M  V30 2621 C 233.871 -4.38906 -2.81089 0
M  V30 2622 C 231.199 -5.18869 -2.73846 0
M  V30 2623 C 233.551 -5.73521 -2.66939 0
M  V30 2624 C 232.215 -6.13601 -2.62774 0
M  V30 2625 H 231.485 -0.430654 -0.603008 0
M  V30 2626 H 234.132 -1.60536 -1.04404 0
M  V30 2627 H 232.437 -1.4357 -3.64547 0
M  V30 2628 H 234.134 -1.82028 -3.57305 0
M  V30 2629 H 230.724 -3.11072 -2.94842 0
M  V30 2630 H 234.908 -4.08315 -2.82121 0
M  V30 2631 H 230.164 -5.4903 -2.69027 0
M  V30 2632 H 234.338 -6.47078 -2.57416 0
M  V30 2633 H 231.965 -7.17786 -2.50375 0
M  V30 2634 N 233.54 1.10788 -1.12088 0
M  V30 2635 C 234.787 1.82671 -0.873931 0
M  V30 2636 C 235.115 1.85004 0.600311 0
M  V30 2637 O 234.37 1.30365 1.45957 0
M  V30 2638 C 234.669 3.29294 -1.38926 0
M  V30 2639 C 234.335 3.47113 -2.87791 0
M  V30 2640 C 232.997 3.51684 -3.28439 0
M  V30 2641 C 235.349 3.52808 -3.83635 0
M  V30 2642 C 232.677 3.59513 -4.63646 0
M  V30 2643 C 235.029 3.62169 -5.18668 0
M  V30 2644 C 233.693 3.65003 -5.58864 0
M  V30 2645 H 232.963 0.668441 -0.319794 0
M  V30 2646 H 235.61 1.30613 -1.40045 0
M  V30 2647 H 233.915 3.83894 -0.783122 0
M  V30 2648 H 235.612 3.83416 -1.17443 0
M  V30 2649 H 232.202 3.4423 -2.5535 0
M  V30 2650 H 236.386 3.4853 -3.53328 0
M  V30 2651 H 231.642 3.59987 -4.94185 0
M  V30 2652 H 235.816 3.6552 -5.92763 0
M  V30 2653 H 233.443 3.70822 -6.63623 0
M  V30 2654 N 235.018 0.912232 1.28515 0
M  V30 2655 C 236.264 0.554851 1.95686 0
M  V30 2656 C 236.619 -0.89138 1.70506 0
M  V30 2657 O 235.912 -1.62529 1.01464 0
M  V30 2658 C 236.106 0.798392 3.48368 0
M  V30 2659 C 235.935 2.26674 3.88393 0
M  V30 2660 C 234.705 2.91657 4.12631 0
M  V30 2661 C 236.903 3.24303 3.99164 0
M  V30 2662 N 234.885 4.28805 4.39317 0
M  V30 2663 C 236.256 4.4661 4.30046 0
M  V30 2664 C 238.311 3.19723 3.81683 0
M  V30 2665 C 237.014 5.64915 4.45268 0
M  V30 2666 C 239.04 4.37325 3.98121 0
M  V30 2667 C 238.402 5.58406 4.29375 0
M  V30 2668 H 234.501 0.252876 0.739985 0
M  V30 2669 H 237.085 1.17565 1.55199 0
M  V30 2670 H 235.256 0.20688 3.87849 0
M  V30 2671 H 236.988 0.405193 4.02666 0
M  V30 2672 H 233.743 2.42393 4.06869 0
M  V30 2673 H 234.167 4.99712 4.56746 0
M  V30 2674 H 238.809 2.27191 3.56573 0
M  V30 2675 H 236.527 6.57927 4.6921 0
M  V30 2676 H 240.113 4.35282 3.86033 0
M  V30 2677 H 238.993 6.47889 4.41825 0
M  V30 2678 N 236.496 -1.42363 0.676048 0
M  V30 2679 C 237.724 -2.05859 0.207268 0
M  V30 2680 C 238.139 -1.50796 -1.13605 0
M  V30 2681 O 237.496 -0.648265 -1.70598 0
M  V30 2682 C 237.547 -3.61248 0.134975 0
M  V30 2683 O 237.268 -4.1427 1.42521 0
M  V30 2684 C 238.769 -4.41859 -0.357151 0
M  V30 2685 H 235.989 -0.663431 0.100503 0
M  V30 2686 H 238.533 -1.82479 0.923136 0
M  V30 2687 H 236.688 -3.83735 -0.531588 0
M  V30 2688 H 237.102 -5.0815 1.29939 0
M  V30 2689 H 238.576 -5.50847 -0.356641 0
M  V30 2690 H 239.053 -4.16536 -1.39264 0
M  V30 2691 H 239.659 -4.24392 0.27772 0
M  V30 2692 N 237.974 -0.419461 -1.51915 0
M  V30 2693 C 239.22 0.153166 -2.02221 0
M  V30 2694 C 239.553 1.43907 -1.30401 0
M  V30 2695 O 238.828 1.90055 -0.413438 0
M  V30 2696 C 239.111 0.390291 -3.57979 0
M  V30 2697 C 238.964 -0.913014 -4.40436 0
M  V30 2698 C 240.283 1.16794 -4.2432 0
M  V30 2699 H 237.402 0.0541924 -0.735005 0
M  V30 2700 H 240.044 -0.554955 -1.81715 0
M  V30 2701 H 238.194 0.993491 -3.75582 0
M  V30 2702 H 239.866 -1.54882 -4.34522 0
M  V30 2703 H 238.109 -1.52168 -4.06236 0
M  V30 2704 H 238.78 -0.701361 -5.47526 0
M  V30 2705 H 241.256 0.657161 -4.10878 0
M  V30 2706 H 240.132 1.3026 -5.3322 0
M  V30 2707 H 240.393 2.19132 -3.83971 0
M  V30 2708 N 239.452 1.56882 -0.150215 0
M  V30 2709 C 240.4 2.18214 0.805313 0
M  V30 2710 C 241.394 1.14006 1.25296 0
M  V30 2711 O 242.6 1.3225 1.22107 0
M  V30 2712 H 238.975 0.698762 0.277913 0
M  V30 2713 H 240.946 2.97231 0.263862 0
M  V30 2714 C 239.695 2.82065 2.03309 0
M  V30 2715 H 239.018 3.61968 1.69763 0
M  V30 2716 H 240.458 3.28477 2.68103 0
M  V30 2717 C 238.917 1.80739 2.84315 0
M  V30 2718 O 239.447 1.27983 3.80767 0
M  V30 2719 N 237.653 1.4997 2.48913 0
M  V30 2720 H 237.2 1.93062 1.70542 0
M  V30 2721 H 237.158 0.824217 3.03404 0
M  V30 2722 N 240.93 -0.123565 1.57115 0
M  V30 2723 C 241.893 -1.13583 1.99076 0
M  V30 2724 C 242.893 -1.34564 0.880296 0
M  V30 2725 O 244.083 -1.31158 1.14644 0
M  V30 2726 C 241.215 -2.49128 2.32698 0
M  V30 2727 H 242.408 -0.775287 2.89706 0
M  V30 2728 H 239.961 -0.36771 1.51913 0
M  V30 2729 H 240.696 -2.90111 1.44934 0
M  V30 2730 H 240.481 -2.35255 3.13684 0
M  V30 2731 H 241.971 -3.2199 2.65918 0
M  V30 2732 N 242.408 -1.52605 -0.393616 0
M  V30 2733 C 243.824 -1.41753 -0.733357 0
M  V30 2734 C 244.024 -0.534293 -1.94287 0
M  V30 2735 O 243.08 -0.0059787 -2.52499 0
M  V30 2736 C 244.393 -2.84531 -0.972772 0
M  V30 2737 C 245.941 -2.93978 -1.07453 0
M  V30 2738 C 246.416 -4.37756 -1.3466 0
M  V30 2739 N 247.907 -4.4106 -1.41492 0
M  V30 2740 C 248.642 -5.49387 -1.642 0
M  V30 2741 N 248.138 -6.67806 -1.8441 0
M  V30 2742 N 249.931 -5.36923 -1.66342 0
M  V30 2743 H 242.082 -2.08555 0.402328 0
M  V30 2744 H 244.345 -0.940654 0.117789 0
M  V30 2745 H 244.051 -3.51353 -0.156204 0
M  V30 2746 H 243.925 -3.26508 -1.88871 0
M  V30 2747 H 246.312 -2.27326 -1.88167 0
M  V30 2748 H 246.393 -2.55435 -0.136605 0
M  V30 2749 H 246.037 -5.04972 -0.544581 0
M  V30 2750 H 245.967 -4.73848 -2.2973 0
M  V30 2751 H 248.458 -3.55705 -1.27601 0
M  V30 2752 H 248.771 -7.46141 -2.01231 0
M  V30 2753 H 247.116 -6.70843 -1.81644 0
M  V30 2754 H 250.307 -4.43381 -1.50102 0
M  V30 2755 H 250.48 -6.21416 -1.837 0
M  V30 2756 N 243.887 0.651787 -1.4349 0
M  V30 2757 C 245.112 1.44434 -1.48841 0
M  V30 2758 C 245.537 1.8779 -0.107955 0
M  V30 2759 O 244.895 1.57464 0.898602 0
M  V30 2760 C 244.943 2.65458 -2.44059 0
M  V30 2761 O 244.047 3.64566 -1.92784 0
M  V30 2762 H 243.388 0.433005 -0.503391 0
M  V30 2763 H 245.918 0.797451 -1.88419 0
M  V30 2764 H 245.928 3.13255 -2.6141 0
M  V30 2765 H 244.603 2.33244 -3.4434 0
M  V30 2766 H 243.18 3.23716 -1.851 0
M  V30 2767 N 245.365 1.30045 0.890287 0
M  V30 2768 C 246.295 1.18541 2.01172 0
M  V30 2769 C 247.276 0.0773356 1.69924 0
M  V30 2770 O 248.461 0.25845 1.92473 0
M  V30 2771 C 245.591 0.870941 3.36202 0
M  V30 2772 C 244.545 1.93637 3.81692 0
M  V30 2773 C 243.871 1.475 5.13953 0
M  V30 2774 C 245.171 3.34666 4.00994 0
M  V30 2775 H 246.865 2.12359 2.11054 0
M  V30 2776 H 244.411 1.02238 1.01407 0
M  V30 2777 H 246.364 0.777141 4.14172 0
M  V30 2778 H 245.088 -0.102926 3.26438 0
M  V30 2779 H 243.747 2.01972 3.05946 0
M  V30 2780 H 243.395 0.489551 5.00612 0
M  V30 2781 H 243.095 2.1876 5.4536 0
M  V30 2782 H 244.619 1.39489 5.94454 0
M  V30 2783 H 246.033 3.2912 4.69417 0
M  V30 2784 H 244.43 4.03966 4.43769 0
M  V30 2785 H 245.5 3.76949 3.05021 0
M  V30 2786 N 246.843 -1.10192 1.12674 0
M  V30 2787 C 247.776 -2.15847 0.740625 0
M  V30 2788 C 248.754 -1.60352 -0.269421 0
M  V30 2789 O 249.938 -1.87796 -0.16278 0
M  V30 2790 C 247.065 -3.38562 0.096641 0
M  V30 2791 C 246.111 -4.12758 1.07391 0
M  V30 2792 S 246.944 -4.67997 2.60267 0
M  V30 2793 C 248.1 -5.94021 1.97206 0
M  V30 2794 H 248.333 -2.48266 1.63558 0
M  V30 2795 H 245.866 -1.22019 0.946087 0
M  V30 2796 H 247.824 -4.09621 -0.268535 0
M  V30 2797 H 246.485 -3.04377 -0.775462 0
M  V30 2798 H 245.678 -5.00755 0.570997 0
M  V30 2799 H 245.28 -3.47523 1.38216 0
M  V30 2800 H 247.572 -6.64589 1.31634 0
M  V30 2801 H 248.515 -6.48979 2.83253 0
M  V30 2802 H 248.923 -5.46169 1.42686 0
M  V30 2803 N 248.321 -0.919034 -1.28029 0
M  V30 2804 C 249.269 -0.401753 -2.29104 0
M  V30 2805 C 250.263 0.509354 -1.61561 0
M  V30 2806 O 251.469 0.390014 -1.75724 0
M  V30 2807 H 247.844 -0.111331 -0.743713 0
M  V30 2808 H 249.815 -1.2672 -2.70156 0
M  V30 2809 C 248.564 0.338148 -3.46052 0
M  V30 2810 H 247.887 -0.353732 -3.98232 0
M  V30 2811 H 249.327 0.664653 -4.18758 0
M  V30 2812 C 247.786 1.54798 -2.99231 0
M  V30 2813 O 248.316 2.64696 -3.02157 0
M  V30 2814 N 246.522 1.3968 -2.54829 0
M  V30 2815 H 246.069 0.502698 -2.52647 0
M  V30 2816 H 246.027 2.20755 -2.23863 0
M  V30 2817 N 249.799 1.42003 -0.683588 0
M  V30 2818 C 251.046 2.01413 -0.209514 0
M  V30 2819 C 251.374 1.54088 1.1869 0
M  V30 2820 O 250.629 0.737591 1.81268 0
M  V30 2821 C 250.928 3.56827 -0.202357 0
M  V30 2822 C 250.594 4.23617 -1.54464 0
M  V30 2823 C 249.256 4.41577 -1.91215 0
M  V30 2824 C 251.608 4.61178 -2.42826 0
M  V30 2825 C 248.936 4.9437 -3.15935 0
M  V30 2826 C 251.288 5.15355 -3.66867 0
M  V30 2827 C 249.952 5.31528 -4.03776 0
M  V30 2828 H 249.222 0.737023 -0.0766668 0
M  V30 2829 H 251.869 1.70067 -0.880312 0
M  V30 2830 H 250.174 3.87892 0.551969 0
M  V30 2831 H 251.871 4.00588 0.181793 0
M  V30 2832 H 248.461 4.10004 -1.24877 0
M  V30 2833 H 252.645 4.46968 -2.15717 0
M  V30 2834 H 247.901 5.05076 -3.44541 0
M  V30 2835 H 252.075 5.43402 -4.35531 0
M  V30 2836 H 249.702 5.72199 -5.00492 0
M  V30 2837 N 251.277 0.427512 1.51691 0
M  V30 2838 C 252.207 -0.3796 2.30394 0
M  V30 2839 C 253.188 -1.02982 1.35384 0
M  V30 2840 O 254.373 -1.03534 1.643 0
M  V30 2841 C 251.503 -1.48649 3.1388 0
M  V30 2842 C 250.457 -0.960294 4.17088 0
M  V30 2843 C 249.783 -2.16219 4.89033 0
M  V30 2844 C 251.083 -0.00153679 5.223 0
M  V30 2845 H 252.777 0.277164 2.98114 0
M  V30 2846 H 250.323 0.134739 1.43368 0
M  V30 2847 H 252.276 -2.05826 3.67714 0
M  V30 2848 H 251 -2.1714 2.43962 0
M  V30 2849 H 249.659 -0.410806 3.64291 0
M  V30 2850 H 249.307 -2.83307 4.15628 0
M  V30 2851 H 249.007 -1.81654 5.58816 0
M  V30 2852 H 250.531 -2.73968 5.45687 0
M  V30 2853 H 251.945 -0.482687 5.71264 0
M  V30 2854 H 250.342 0.256199 5.99553 0
M  V30 2855 H 251.412 0.938174 4.75738 0
M  V30 2856 N 252.755 -1.56801 0.158532 0
M  V30 2857 C 253.703 -2.18638 -0.793729 0
M  V30 2858 C 254.697 -1.14669 -1.24689 0
M  V30 2859 O 255.903 -1.32895 -1.21403 0
M  V30 2860 H 252.278 -0.700226 -0.274204 0
M  V30 2861 H 254.249 -2.97367 -0.248095 0
M  V30 2862 C 252.998 -2.83139 -2.0181 0
M  V30 2863 H 252.321 -3.62863 -1.67841 0
M  V30 2864 H 253.761 -3.29894 -2.66357 0
M  V30 2865 C 252.22 -1.82244 -2.83353 0
M  V30 2866 O 252.75 -1.3 -3.80083 0
M  V30 2867 N 250.956 -1.51288 -2.48114 0
M  V30 2868 H 250.503 -1.93964 -1.69516 0
M  V30 2869 H 250.461 -0.840296 -3.02963 0
M  V30 2870 N 254.233 0.115231 -1.57178 0
M  V30 2871 C 255.163 1.1423 -2.03651 0
M  V30 2872 C 256.144 1.42967 -0.921655 0
M  V30 2873 O 257.329 1.53343 -1.19162 0
M  V30 2874 C 254.459 2.4675 -2.44401 0
M  V30 2875 C 253.413 2.32467 -3.59365 0
M  V30 2876 C 252.739 3.69984 -3.86026 0
M  V30 2877 C 254.039 1.78203 -4.90959 0
M  V30 2878 H 255.733 0.755749 -2.89705 0
M  V30 2879 H 253.279 0.362093 -1.39373 0
M  V30 2880 H 255.232 3.18854 -2.75517 0
M  V30 2881 H 253.956 2.87302 -1.55322 0
M  V30 2882 H 252.615 1.62811 -3.28463 0
M  V30 2883 H 252.263 4.08028 -2.94147 0
M  V30 2884 H 251.963 3.61279 -4.63412 0
M  V30 2885 H 253.487 4.43587 -4.19599 0
M  V30 2886 H 254.901 2.40128 -5.20587 0
M  V30 2887 H 253.298 1.8031 -5.72371 0
M  V30 2888 H 254.368 0.739876 -4.79222 0
M  V30 2889 N 255.711 1.52812 0.385517 0
M  V30 2890 C 257.127 1.4214 0.725829 0
M  V30 2891 C 257.327 0.544589 1.94001 0
M  V30 2892 O 256.383 0.0193693 2.52493 0
M  V30 2893 C 257.696 2.85042 0.957668 0
M  V30 2894 C 259.244 2.94543 1.05892 0
M  V30 2895 C 259.719 4.38464 1.32337 0
M  V30 2896 N 261.21 4.41804 1.39151 0
M  V30 2897 C 261.945 5.5025 1.61285 0
M  V30 2898 N 261.441 6.68775 1.80866 0
M  V30 2899 N 263.234 5.37798 1.63492 0
M  V30 2900 H 255.385 2.08338 -0.413383 0
M  V30 2901 H 257.648 0.940016 -0.122775 0
M  V30 2902 H 257.354 3.51431 0.137568 0
M  V30 2903 H 257.228 3.27505 1.87137 0
M  V30 2904 H 259.615 2.28321 1.86959 0
M  V30 2905 H 259.696 2.55504 0.123057 0
M  V30 2906 H 259.34 5.05254 0.517793 0
M  V30 2907 H 259.27 4.75059 2.27214 0
M  V30 2908 H 261.761 3.56377 1.25713 0
M  V30 2909 H 262.074 7.47197 1.97271 0
M  V30 2910 H 260.419 6.71797 1.78083 0
M  V30 2911 H 263.61 4.44171 1.47749 0
M  V30 2912 H 263.783 6.22382 1.80402 0
M  V30 2913 N 257.189 -0.644168 1.43834 0
M  V30 2914 C 258.152 -1.73857 1.49353 0
M  V30 2915 C 259.152 -1.56315 0.377112 0
M  V30 2916 O 260.342 -1.62048 0.639226 0
M  V30 2917 C 257.474 -3.12819 1.35488 0
M  V30 2918 H 258.667 -1.70342 2.46827 0
M  V30 2919 H 256.22 -0.856652 1.30733 0
M  V30 2920 H 256.955 -3.2194 0.390569 0
M  V30 2921 H 256.74 -3.26958 2.16428 0
M  V30 2922 H 258.23 -3.92606 1.42302 0
M  V30 2923 N 258.668 -1.30515 -0.883378 0
M  V30 2924 C 259.945 -1.10086 -1.6168 0
M  V30 2925 C 260.325 0.349269 -2.08191 0
M  V30 2926 O 259.673 1.34105 -1.85008 0
M  V30 2927 C 259.883 -2.10315 -2.78511 0
M  V30 2928 C 261.231 -2.42119 -3.48803 0
M  V30 2929 O 262.255 -2.08638 -2.88702 0
M  V30 2930 O 261.114 -2.99396 -4.57192 0
M  V30 2931 H 258.208 -0.422907 -0.710689 0
M  V30 2932 H 260.754 -1.41947 -0.930015 0
M  V30 2933 H 259.526 -3.07917 -2.41459 0
M  V30 2934 H 259.149 -1.79282 -3.54886 0
M  V30 2935 N 260.146 1.09593 -1.13257 0
M  V30 2936 C 261.371 1.8604 -0.916732 0
M  V30 2937 C 261.796 1.80504 0.529146 0
M  V30 2938 O 261.154 1.18127 1.37534 0
M  V30 2939 C 261.202 3.32017 -1.40703 0
M  V30 2940 O 260.306 4.08141 -0.591153 0
M  V30 2941 H 259.647 0.576943 -0.328683 0
M  V30 2942 H 262.177 1.38405 -1.50682 0
M  V30 2943 H 262.187 3.82865 -1.4099 0
M  V30 2944 H 260.862 3.35361 -2.45979 0
M  V30 2945 H 259.439 3.67084 -0.656005 0
M  V30 2946 N 261.624 0.925811 1.2754 0
M  V30 2947 C 262.574 0.394488 2.24561 0
M  V30 2948 C 263.558 -0.500183 1.52928 0
M  V30 2949 O 264.75 -0.337936 1.73744 0
M  V30 2950 C 261.879 -0.353328 3.41477 0
M  V30 2951 C 260.965 0.557752 4.20416 0
M  V30 2952 N 261.356 1.67674 4.77199 0
M  V30 2953 C 259.654 0.360404 4.44541 0
M  V30 2954 C 260.355 2.24324 5.36706 0
M  V30 2955 N 259.331 1.53305 5.21535 0
M  V30 2956 H 263.133 1.2489 2.66045 0
M  V30 2957 H 260.647 0.779864 1.4245 0
M  V30 2958 H 262.644 -0.7509 4.10082 0
M  V30 2959 H 261.304 -1.20469 3.01525 0
M  V30 2960 H 262.315 2.05915 4.75204 0
M  V30 2961 H 258.992 -0.450454 4.15063 0
M  V30 2962 H 260.382 3.18521 5.91603 0
M  V30 2963 N 263.102 -1.41638 0.69111 0
M  V30 2964 C 264.065 -2.29178 0.0319786 0
M  V30 2965 C 265.065 -1.44153 -0.712496 0
M  V30 2966 O 266.255 -1.65354 -0.548053 0
M  V30 2967 C 263.387 -3.26952 -0.965161 0
M  V30 2968 H 264.58 -2.88959 0.802681 0
M  V30 2969 H 262.133 -1.4955 0.454356 0
M  V30 2970 H 262.868 -2.72142 -1.76378 0
M  V30 2971 H 262.653 -3.89685 -0.434522 0
M  V30 2972 H 264.143 -3.92561 -1.42428 0
M  V30 2973 N 264.58 -0.43555 -1.51462 0
M  V30 2974 C 265.512 0.41257 -2.25456 0
M  V30 2975 C 266.525 0.987822 -1.29406 0
M  V30 2976 O 267.714 0.882266 -1.55172 0
M  V30 2977 C 264.814 1.58894 -2.99342 0
M  V30 2978 C 263.987 1.13288 -4.22474 0
M  V30 2979 C 263.046 2.17917 -4.78956 0
M  V30 2980 O 262.072 1.77425 -5.40841 0
M  V30 2981 N 263.274 3.50382 -4.62832 0
M  V30 2982 H 266.039 -0.221603 -2.9888 0
M  V30 2983 H 263.6 -0.264342 -1.59727 0
M  V30 2984 H 265.592 2.28508 -3.34015 0
M  V30 2985 H 264.162 2.12849 -2.28941 0
M  V30 2986 H 263.382 0.263881 -3.93316 0
M  V30 2987 H 264.67 0.805542 -5.02383 0
M  V30 2988 H 264.068 3.86013 -4.13534 0
M  V30 2989 H 262.625 4.15895 -5.01871 0
M  V30 2990 N 266.058 1.56714 -0.166846 0
M  V30 2991 C 267.304 1.97813 0.473473 0
M  V30 2992 C 267.659 1.05095 1.61161 0
M  V30 2993 O 266.952 0.0897541 1.9139 0
M  V30 2994 C 267.146 3.42889 1.00806 0
M  V30 2995 C 266.975 4.49635 -0.0767392 0
M  V30 2996 C 265.745 5.02566 -0.524894 0
M  V30 2997 C 267.943 5.06793 -0.875504 0
M  V30 2998 N 265.925 5.9294 -1.59047 0
M  V30 2999 C 267.296 5.93565 -1.79111 0
M  V30 3000 C 269.351 4.89306 -0.921083 0
M  V30 3001 C 268.054 6.64721 -2.74843 0
M  V30 3002 C 270.08 5.61179 -1.86633 0
M  V30 3003 C 269.442 6.47675 -2.76942 0
M  V30 3004 H 265.541 0.769093 0.141489 0
M  V30 3005 H 268.125 1.92874 -0.266031 0
M  V30 3006 H 266.296 3.48382 1.7171 0
M  V30 3007 H 268.028 3.71008 1.61664 0
M  V30 3008 H 264.783 4.73439 -0.123432 0
M  V30 3009 H 265.207 6.42831 -2.12361 0
M  V30 3010 H 269.849 4.22136 -0.23692 0
M  V30 3011 H 267.567 7.31107 -3.44249 0
M  V30 3012 H 271.153 5.49636 -1.90764 0
M  V30 3013 H 270.033 7.02313 -3.48893 0
M  V30 3014 N 267.536 -0.106894 1.57237 0
M  V30 3015 C 268.446 -1.14911 2.0453 0
M  V30 3016 C 269.462 -1.44592 0.96795 0
M  V30 3017 O 270.638 -1.55468 1.2803 0
M  V30 3018 C 267.703 -2.45272 2.45036 0
M  V30 3019 C 266.764 -2.22879 3.66911 0
M  V30 3020 C 265.997 -3.47024 4.05475 0
M  V30 3021 O 266.22 -4.54804 3.44252 0
M  V30 3022 O 265.154 -3.3731 4.98504 0
M  V30 3023 H 268.98 -0.777461 2.9358 0
M  V30 3024 H 266.565 -0.318563 1.45964 0
M  V30 3025 H 268.447 -3.22055 2.71769 0
M  V30 3026 H 267.122 -2.81886 1.59129 0
M  V30 3027 H 266.029 -1.43915 3.45311 0
M  V30 3028 H 267.362 -1.91163 4.53561 0
M  V30 3029 N 269.014 -1.53014 -0.377408 0
M  V30 3030 C 270.263 -1.67845 -1.11853 0
M  V30 3031 C 270.576 -0.430625 -1.90801 0
M  V30 3032 O 271.782 -0.459261 -2.67587 0
M  V30 3033 C 270.238 -2.96668 -2.03756 0
M  V30 3034 C 269.846 -4.28671 -1.30175 0
M  V30 3035 C 271.59 -3.20865 -2.77932 0
M  V30 3036 C 269.497 -5.48591 -2.20911 0
M  V30 3037 H 268.427 -0.625343 -0.421263 0
M  V30 3038 H 271.078 -1.79514 -0.380409 0
M  V30 3039 H 269.46 -2.78773 -2.8125 0
M  V30 3040 H 270.634 -4.57157 -0.578259 0
M  V30 3041 H 268.949 -4.10825 -0.679108 0
M  V30 3042 H 271.546 -4.07642 -3.46024 0
M  V30 3043 H 271.889 -2.36424 -3.4265 0
M  V30 3044 H 272.422 -3.39379 -2.07525 0
M  V30 3045 H 269.161 -6.35474 -1.6079 0
M  V30 3046 H 268.681 -5.244 -2.91144 0
M  V30 3047 H 270.36 -5.8292 -2.80736 0
M  V30 3048 N 270.492 0.636531 -1.44174 0
M  V30 3049 C 271.424 1.7618 -1.46606 0
M  V30 3050 C 272.437 1.58768 -0.360091 0
M  V30 3051 O 273.626 1.67181 -0.625518 0
M  V30 3052 C 270.726 3.13833 -1.27915 0
M  V30 3053 C 269.899 3.57753 -2.51658 0
M  V30 3054 C 268.958 4.74265 -2.27945 0
M  V30 3055 O 267.984 4.82852 -3.01401 0
M  V30 3056 N 269.186 5.65604 -1.30662 0
M  V30 3057 H 271.951 1.74567 -2.43612 0
M  V30 3058 H 269.512 0.820924 -1.39544 0
M  V30 3059 H 271.504 3.8949 -1.09907 0
M  V30 3060 H 270.074 3.10121 -0.39293 0
M  V30 3061 H 269.294 2.72362 -2.84978 0
M  V30 3062 H 270.582 3.83847 -3.33974 0
M  V30 3063 H 269.98 5.61354 -0.699844 0
M  V30 3064 H 268.537 6.40913 -1.18634 0
M  V30 3065 N 271.97 1.30982 0.876444 0
M  V30 3066 C 272.902 1.13902 1.98894 0
M  V30 3067 C 273.915 0.0798815 1.62604 0
M  V30 3068 O 275.104 0.326743 1.75484 0
M  V30 3069 C 272.204 0.716699 3.31235 0
M  V30 3070 C 271.377 1.85945 3.95908 0
M  V30 3071 C 270.436 1.42426 5.06558 0
M  V30 3072 O 269.462 2.13287 5.27729 0
M  V30 3073 N 270.664 0.308025 5.79682 0
M  V30 3074 H 273.429 2.09724 2.14094 0
M  V30 3075 H 270.99 1.2323 1.05004 0
M  V30 3076 H 272.982 0.408403 4.02634 0
M  V30 3077 H 271.552 -0.149719 3.12241 0
M  V30 3078 H 270.772 2.33541 3.17573 0
M  V30 3079 H 272.06 2.62503 4.35855 0
M  V30 3080 H 271.458 -0.282241 5.64995 0
M  V30 3081 H 270.015 0.0592282 6.51773 0
M  V30 3082 N 273.449 -1.08991 1.13837 0
M  V30 3083 C 274.679 -1.84743 0.924859 0
M  V30 3084 C 275.087 -1.81629 -0.529874 0
M  V30 3085 O 274.43 -1.21397 -1.37872 0
M  V30 3086 C 274.492 -3.33568 1.34061 0
M  V30 3087 C 274.156 -3.60425 2.80968 0
M  V30 3088 C 275.153 -3.55771 3.79108 0
M  V30 3089 C 272.838 -3.88627 3.18236 0
M  V30 3090 C 274.832 -3.78939 5.12527 0
M  V30 3091 C 272.519 -4.11449 4.51833 0
M  V30 3092 C 273.517 -4.06598 5.48787 0
M  V30 3093 O 273.205 -4.28826 6.79973 0
M  V30 3094 H 272.937 -0.590258 0.329502 0
M  V30 3095 H 275.491 -1.38598 1.51591 0
M  V30 3096 H 273.721 -3.80442 0.692853 0
M  V30 3097 H 275.41 -3.90743 1.09886 0
M  V30 3098 H 276.176 -3.34005 3.51661 0
M  V30 3099 H 272.055 -3.91526 2.43369 0
M  V30 3100 H 275.599 -3.75068 5.88192 0
M  V30 3101 H 271.496 -4.32698 4.79002 0
M  V30 3102 H 272.264 -4.46264 6.86142 0
M  V30 3103 N 274.927 -0.932562 -1.27047 0
M  V30 3104 C 275.89 -0.440064 -2.24936 0
M  V30 3105 C 276.89 0.444071 -1.54547 0
M  V30 3106 O 278.08 0.244465 -1.72476 0
M  V30 3107 C 275.212 0.36678 -3.38921 0
M  V30 3108 H 276.405 -1.305 -2.70018 0
M  V30 3109 H 273.958 -0.713707 -1.39054 0
M  V30 3110 H 274.693 1.25033 -2.99228 0
M  V30 3111 H 274.478 -0.267204 -3.91188 0
M  V30 3112 H 275.968 0.701567 -4.11665 0
M  V30 3113 N 276.405 1.4127 -0.698611 0
M  V30 3114 C 277.335 2.33447 -0.049629 0
M  V30 3115 C 278.316 1.51982 0.763898 0
M  V30 3116 O 279.501 1.80509 0.716257 0
M  V30 3117 C 276.631 3.35828 0.885267 0
M  V30 3118 C 275.585 4.27627 0.178613 0
M  V30 3119 C 274.911 5.20406 1.22807 0
M  V30 3120 C 276.211 5.13459 -0.956933 0
M  V30 3121 H 277.905 2.87966 -0.81951 0
M  V30 3122 H 275.451 1.38461 -0.395538 0
M  V30 3123 H 277.404 3.9924 1.34854 0
M  V30 3124 H 276.128 2.79666 1.68685 0
M  V30 3125 H 274.787 3.65643 -0.26466 0
M  V30 3126 H 274.435 4.60558 2.02226 0
M  V30 3127 H 274.135 5.82661 0.760239 0
M  V30 3128 H 275.659 5.86695 1.69179 0
M  V30 3129 H 277.073 5.70421 -0.573805 0
M  V30 3130 H 275.47 5.8467 -1.35205 0
M  V30 3131 H 276.54 4.50443 -1.79524 0
M  V30 3132 N 277.883 0.443576 1.51229 0
M  V30 3133 C 278.846 -0.353132 2.26463 0
M  V30 3134 C 279.846 -0.944338 1.3015 0
M  V30 3135 O 281.036 -0.817813 1.5381 0
M  V30 3136 C 278.168 -1.50023 3.06114 0
M  V30 3137 H 279.361 0.3063 2.98332 0
M  V30 3138 H 276.914 0.196902 1.55055 0
M  V30 3139 H 277.649 -2.19553 2.38677 0
M  V30 3140 H 277.434 -1.08241 3.76864 0
M  V30 3141 H 278.924 -2.06296 3.63087 0
M  V30 3142 N 279.361 -1.56624 0.175154 0
M  V30 3143 C 280.61 -1.96173 -0.468921 0
M  V30 3144 C 280.923 -1.06401 -1.64128 0
M  V30 3145 O 282.129 -1.35648 -2.35185 0
M  V30 3146 C 280.585 -3.48833 -0.885633 0
M  V30 3147 C 280.193 -4.47237 0.261343 0
M  V30 3148 C 281.937 -3.97194 -1.49791 0
M  V30 3149 C 279.844 -5.9114 -0.175214 0
M  V30 3150 H 278.774 -0.732455 -0.178958 0
M  V30 3151 H 281.425 -1.81591 0.263997 0
M  V30 3152 H 279.807 -3.58848 -1.67464 0
M  V30 3153 H 280.981 -4.4894 1.03871 0
M  V30 3154 H 279.296 -4.08956 0.783827 0
M  V30 3155 H 281.893 -5.02167 -1.83665 0
M  V30 3156 H 282.236 -3.40351 -2.39722 0
M  V30 3157 H 282.769 -3.90212 -0.773267 0
M  V30 3158 H 279.508 -6.51865 0.689414 0
M  V30 3159 H 279.028 -5.92735 -0.91786 0
M  V30 3160 H 280.707 -6.44044 -0.617792 0
M  V30 3161 N 280.839 0.0985539 -1.57292 0
M  V30 3162 C 281.802 1.10402 -2.00858 0
M  V30 3163 C 282.802 1.33146 -0.901593 0
M  V30 3164 O 283.992 1.29318 -1.16716 0
M  V30 3165 C 281.124 2.45394 -2.36632 0
M  V30 3166 H 282.317 0.729099 -2.90902 0
M  V30 3167 H 279.87 0.343495 -1.52479 0
M  V30 3168 H 280.605 2.87769 -1.49531 0
M  V30 3169 H 280.39 2.30235 -3.17387 0
M  V30 3170 H 281.88 3.17718 -2.71007 0
M  V30 3171 N 282.317 1.53212 0.369288 0
M  V30 3172 C 283.733 1.42902 0.710712 0
M  V30 3173 C 283.933 0.565135 1.93413 0
M  V30 3174 O 282.989 0.0461484 2.52458 0
M  V30 3175 C 284.302 2.86042 0.927382 0
M  V30 3176 C 285.85 2.9565 1.02762 0
M  V30 3177 C 286.325 4.39843 1.27679 0
M  V30 3178 N 287.816 4.43256 1.34457 0
M  V30 3179 C 288.551 5.51929 1.55439 0
M  V30 3180 N 288.047 6.70655 1.73762 0
M  V30 3181 N 289.84 5.39502 1.57779 0
M  V30 3182 H 281.991 2.07888 -0.435457 0
M  V30 3183 H 284.254 0.938661 -0.132739 0
M  V30 3184 H 283.96 3.51557 0.100287 0
M  V30 3185 H 283.834 3.29472 1.83653 0
M  V30 3186 H 286.221 2.30291 1.84527 0
M  V30 3187 H 286.302 2.5562 0.0959504 0
M  V30 3188 H 285.946 5.05774 0.464175 0
M  V30 3189 H 285.876 4.77443 2.22162 0
M  V30 3190 H 288.367 3.5769 1.21926 0
M  V30 3191 H 288.68 7.49248 1.89335 0
M  V30 3192 H 287.025 6.73648 1.70948 0
M  V30 3193 H 290.216 4.45713 1.43029 0
M  V30 3194 H 290.389 6.2426 1.7379 0
M  V30 3195 N 283.795 -0.628877 1.44509 0
M  V30 3196 C 285.044 -1.38437 1.4669 0
M  V30 3197 C 285.357 -1.95322 0.104272 0
M  V30 3198 O 286.563 -2.715 0.00362163 0
M  V30 3199 C 285.019 -2.50659 2.5826 0
M  V30 3200 C 284.627 -2.00277 4.0074 0
M  V30 3201 C 286.371 -3.27844 2.69664 0
M  V30 3202 C 284.278 -3.09854 5.0373 0
M  V30 3203 H 283.208 -0.520245 0.545766 0
M  V30 3204 H 285.859 -0.676313 1.70582 0
M  V30 3205 H 284.241 -3.2405 2.27612 0
M  V30 3206 H 285.415 -1.33736 4.40966 0
M  V30 3207 H 283.73 -1.35901 3.93599 0
M  V30 3208 H 286.327 -4.09534 3.43781 0
M  V30 3209 H 286.67 -3.77471 1.75559 0
M  V30 3210 H 287.203 -2.61543 2.99733 0
M  V30 3211 H 283.942 -2.65168 5.99472 0
M  V30 3212 H 283.462 -3.7503 4.68095 0
M  V30 3213 H 285.141 -3.74592 5.27532 0
M  V30 3214 N 285.273 -1.31445 -0.869486 0
M  V30 3215 C 286.52 -1.21158 -1.62256 0
M  V30 3216 C 286.848 0.230155 -1.93133 0
M  V30 3217 O 286.103 1.17906 -1.56194 0
M  V30 3218 C 286.402 -2.00145 -2.96102 0
M  V30 3219 C 286.068 -3.4964 -2.84715 0
M  V30 3220 C 284.73 -3.90403 -2.81317 0
M  V30 3221 C 287.082 -4.44769 -2.71716 0
M  V30 3222 C 284.41 -5.24561 -2.62778 0
M  V30 3223 C 286.762 -5.79054 -2.54714 0
M  V30 3224 C 285.426 -6.19037 -2.49699 0
M  V30 3225 H 284.696 -0.443348 -0.593737 0
M  V30 3226 H 287.343 -1.62715 -1.00976 0
M  V30 3227 H 285.648 -1.5127 -3.6142 0
M  V30 3228 H 287.345 -1.89566 -3.53363 0
M  V30 3229 H 283.935 -3.17256 -2.88178 0
M  V30 3230 H 288.119 -4.14208 -2.73397 0
M  V30 3231 H 283.375 -5.54613 -2.57321 0
M  V30 3232 H 287.549 -6.52393 -2.43632 0
M  V30 3233 H 285.176 -7.22935 -2.35093 0
M  V30 3234 N 286.751 1.08385 -1.14413 0
M  V30 3235 C 287.698 2.15311 -0.831265 0
M  V30 3236 C 288.668 1.64751 0.211292 0
M  V30 3237 O 289.853 1.90627 0.0811674 0
M  V30 3238 C 286.993 3.43658 -0.315143 0
M  V30 3239 C 286.106 4.08064 -1.41802 0
M  V30 3240 C 285.241 5.24207 -0.859126 0
M  V30 3241 C 284.28 5.80554 -1.93967 0
M  V30 3242 N 283.417 6.88042 -1.39793 0
M  V30 3243 H 288.257 2.41415 -1.74708 0
M  V30 3244 H 285.794 1.18474 -0.871909 0
M  V30 3245 H 287.752 4.172 0.00230884 0
M  V30 3246 H 286.382 3.17839 0.56378 0
M  V30 3247 H 285.434 3.3228 -1.85187 0
M  V30 3248 H 286.746 4.45962 -2.23427 0
M  V30 3249 H 285.9 6.04689 -0.49359 0
M  V30 3250 H 284.639 4.87699 -0.011932 0
M  V30 3251 H 283.644 4.98725 -2.31415 0
M  V30 3252 H 284.869 6.19121 -2.79046 0
M  V30 3253 H 282.815 6.53493 -0.572919 0
M  V30 3254 H 282.732 7.24767 -2.15054 0
M  V30 3255 H 284 7.72255 -1.0603 0
M  V30 3256 N 288.23 0.939286 1.26551 0
M  V30 3257 C 289.14 0.453432 2.30176 0
M  V30 3258 C 290.156 -0.471649 1.67486 0
M  V30 3259 O 291.332 -0.35164 1.98306 0
M  V30 3260 C 288.397 -0.275326 3.45605 0
M  V30 3261 C 287.458 0.686084 4.23782 0
M  V30 3262 C 286.691 -0.00798994 5.33699 0
M  V30 3263 O 286.914 -1.22528 5.57085 0
M  V30 3264 O 285.848 0.669746 5.98162 0
M  V30 3265 H 289.674 1.31416 2.73795 0
M  V30 3266 H 287.259 0.705095 1.31715 0
M  V30 3267 H 289.141 -0.685911 4.1578 0
M  V30 3268 H 287.816 -1.11147 3.0402 0
M  V30 3269 H 286.723 1.14658 3.56096 0
M  V30 3270 H 288.056 1.48979 4.69112 0
M  V30 3271 N 289.708 -1.40897 0.706093 0
M  V30 3272 C 290.655 -2.30751 0.0474474 0
M  V30 3273 C 291.625 -1.47678 -0.76029 0
M  V30 3274 O 292.81 -1.76441 -0.726177 0
M  V30 3275 C 289.95 -3.33815 -0.875309 0
M  V30 3276 C 289.063 -4.31961 -0.0580623 0
M  V30 3277 C 288.198 -5.22093 -0.979425 0
M  V30 3278 C 287.237 -6.11902 -0.155706 0
M  V30 3279 N 286.374 -6.94482 -1.03144 0
M  V30 3280 H 291.214 -2.86513 0.819413 0
M  V30 3281 H 288.751 -1.41102 0.415783 0
M  V30 3282 H 290.709 -3.92129 -1.42446 0
M  V30 3283 H 289.339 -2.79579 -1.61356 0
M  V30 3284 H 288.391 -3.75507 0.608147 0
M  V30 3285 H 289.703 -4.95415 0.580082 0
M  V30 3286 H 288.857 -5.85292 -1.59744 0
M  V30 3287 H 287.596 -4.5889 -1.65141 0
M  V30 3288 H 286.601 -5.47742 0.475309 0
M  V30 3289 H 287.826 -6.77162 0.512635 0
M  V30 3290 H 285.772 -6.33877 -1.68924 0
M  V30 3291 H 285.689 -7.54665 -0.449108 0
M  V30 3292 H 286.957 -7.6214 -1.63593 0
M  V30 3293 N 291.186 -0.45159 -1.50991 0
M  V30 3294 C 292.426 0.109066 -2.04109 0
M  V30 3295 C 292.79 1.38716 -1.32747 0
M  V30 3296 O 293.991 2.02896 -1.76314 0
M  V30 3297 C 292.262 0.308354 -3.56067 0
M  V30 3298 S 293.821 0.830369 -4.30872 0
M  V30 3299 H 290.639 0.0251531 -0.710555 0
M  V30 3300 H 293.241 -0.614264 -1.85599 0
M  V30 3301 H 291.945 -0.627962 -4.05567 0
M  V30 3302 H 291.476 1.05836 -3.78896 0
M  V30 3303 H 293.491 2.10626 -4.49279 0
M  V30 3304 N 292.664 1.56529 -0.183458 0
M  V30 3305 C 294.075 1.83739 0.331177 0
M  V30 3306 C 294.426 1.10373 1.62211 0
M  V30 3307 O 293.551 0.36071 2.13373 0
M  V30 3308 C 294.146 3.33306 0.607646 0
M  V30 3309 C 292.705 3.60969 1.06668 0
M  V30 3310 C 291.852 2.77086 0.109029 0
M  V30 3311 H 294.803 1.53379 -0.407484 0
M  V30 3312 H 294.824 3.51444 1.45832 0
M  V30 3313 H 294.336 3.86677 -0.332086 0
M  V30 3314 H 292.437 3.13021 2.0211 0
M  V30 3315 H 292.55 4.69231 0.967447 0
M  V30 3316 H 290.914 2.47319 0.608714 0
M  V30 3317 H 291.697 3.33241 -0.82494 0
M  V30 3318 N 294.142 -0.090211 1.57342 0
M  V30 3319 C 295.388 -0.788838 1.8748 0
M  V30 3320 C 295.743 -1.76105 0.7749 0
M  V30 3321 O 295.036 -1.90302 -0.222663 0
M  V30 3322 C 295.23 -1.55222 3.21933 0
M  V30 3323 C 295.059 -0.655441 4.44898 0
M  V30 3324 C 293.829 -0.299325 5.04413 0
M  V30 3325 C 296.027 0.0397458 5.14285 0
M  V30 3326 N 294.009 0.605108 6.10911 0
M  V30 3327 C 295.38 0.802061 6.1479 0
M  V30 3328 C 297.435 0.113154 4.97771 0
M  V30 3329 C 296.138 1.63093 7.00566 0
M  V30 3330 C 298.164 0.928942 5.84059 0
M  V30 3331 C 297.526 1.67936 6.84088 0
M  V30 3332 H 293.625 -0.26467 0.735849 0
M  V30 3333 H 296.209 -0.0511453 1.94633 0
M  V30 3334 H 294.38 -2.26076 3.15823 0
M  V30 3335 H 296.112 -2.19843 3.39781 0
M  V30 3336 H 292.867 -0.648079 4.69145 0
M  V30 3337 H 293.291 1.05002 6.68808 0
M  V30 3338 H 297.933 -0.452676 4.2037 0
M  V30 3339 H 295.651 2.20781 7.77355 0
M  V30 3340 H 299.237 0.988478 5.73341 0
M  V30 3341 H 298.117 2.30044 7.49699 0
M  V30 3342 N 295.62 -1.53406 -0.361157 0
M  V30 3343 C 296.848 -1.73717 -1.12383 0
M  V30 3344 C 297.263 -0.468161 -1.82904 0
M  V30 3345 O 296.62 0.559198 -1.73722 0
M  V30 3346 C 296.671 -2.90558 -2.15078 0
M  V30 3347 O 296.392 -4.12549 -1.47428 0
M  V30 3348 C 297.893 -3.22777 -3.03858 0
M  V30 3349 H 295.113 -0.580896 -0.335858 0
M  V30 3350 H 297.657 -2.00167 -0.418728 0
M  V30 3351 H 295.812 -2.66489 -2.8118 0
M  V30 3352 H 296.226 -4.78009 -2.15887 0
M  V30 3353 H 297.7 -4.07927 -3.71887 0
M  V30 3354 H 298.177 -2.38329 -3.68912 0
M  V30 3355 H 298.783 -3.48787 -2.43367 0
M  V30 3356 N 297.098 0.621204 -1.44841 0
M  V30 3357 C 298.345 1.38055 -1.48145 0
M  V30 3358 C 298.673 1.94143 -0.117867 0
M  V30 3359 O 297.928 1.74713 0.881694 0
M  V30 3360 C 298.227 2.55675 -2.4973 0
M  V30 3361 C 297.893 2.17817 -3.94799 0
M  V30 3362 C 296.555 2.07205 -4.34303 0
M  V30 3363 C 298.907 1.88065 -4.86087 0
M  V30 3364 C 296.235 1.65045 -5.63007 0
M  V30 3365 C 298.587 1.47394 -6.15189 0
M  V30 3366 C 297.251 1.35331 -6.53637 0
M  V30 3367 H 296.521 0.505181 -0.542101 0
M  V30 3368 H 299.168 0.703477 -1.78111 0
M  V30 3369 H 297.473 3.2866 -2.13284 0
M  V30 3370 H 299.17 3.13904 -2.4953 0
M  V30 3371 H 295.76 2.26998 -3.63552 0
M  V30 3372 H 299.944 1.95168 -4.56315 0
M  V30 3373 H 295.2 1.54317 -5.91605 0
M  V30 3374 H 299.374 1.23415 -6.85377 0
M  V30 3375 H 297.001 1.02435 -7.53267 0
M  V30 3376 N 298.576 1.31904 0.862503 0
M  V30 3377 C 299.486 1.22161 2.00285 0
M  V30 3378 C 300.502 0.136785 1.73462 0
M  V30 3379 O 301.678 0.355994 1.98229 0
M  V30 3380 C 298.743 0.937093 3.33796 0
M  V30 3381 C 297.804 2.10957 3.73893 0
M  V30 3382 C 297.037 1.83853 5.01033 0
M  V30 3383 O 297.26 0.777274 5.65079 0
M  V30 3384 O 296.194 2.69741 5.38074 0
M  V30 3385 H 300.02 2.18008 2.11439 0
M  V30 3386 H 297.605 1.11716 0.991957 0
M  V30 3387 H 299.487 0.794583 4.13841 0
M  V30 3388 H 298.162 0.00871894 3.23699 0
M  V30 3389 H 297.069 2.30752 2.94456 0
M  V30 3390 H 298.402 3.02046 3.88625 0
M  V30 3391 N 300.054 -1.07777 1.14986 0
M  V30 3392 C 301.017 -2.13041 0.845358 0
M  V30 3393 C 302.017 -1.60071 -0.152931 0
M  V30 3394 O 303.207 -1.74033 0.0761879 0
M  V30 3395 C 300.339 -3.39896 0.261383 0
M  V30 3396 H 301.532 -2.41485 1.77834 0
M  V30 3397 H 299.085 -1.23595 0.956757 0
M  V30 3398 H 299.82 -3.17091 -0.68 0
M  V30 3399 H 299.605 -3.79642 0.980514 0
M  V30 3400 H 301.095 -4.17548 0.0657687 0
M  V30 3401 N 301.532 -0.945985 -1.26051 0
M  V30 3402 C 302.779 -0.596118 -1.93527 0
M  V30 3403 C 303.107 0.865559 -1.74179 0
M  V30 3404 O 302.362 1.63524 -1.0751 0
M  V30 3405 C 302.661 -0.890475 -3.46129 0
M  V30 3406 C 302.327 -2.3368 -3.85622 0
M  V30 3407 C 300.989 -2.73216 -3.96114 0
M  V30 3408 C 303.341 -3.27648 -4.05334 0
M  V30 3409 C 300.669 -4.05806 -4.2372 0
M  V30 3410 C 303.021 -4.59841 -4.3443 0
M  V30 3411 C 301.685 -4.99185 -4.43137 0
M  V30 3412 H 300.955 -0.218135 -0.708165 0
M  V30 3413 H 303.602 -1.1934 -1.49768 0
M  V30 3414 H 301.907 -0.210711 -3.91233 0
M  V30 3415 H 303.604 -0.598478 -3.96509 0
M  V30 3416 H 300.194 -2.02015 -3.78005 0
M  V30 3417 H 304.378 -2.98298 -3.96651 0
M  V30 3418 H 299.634 -4.35945 -4.28675 0
M  V30 3419 H 303.808 -5.32641 -4.48628 0
M  V30 3420 H 301.435 -6.01952 -4.64282 0
M  V30 3421 N 303.011 1.40521 -0.713556 0
M  V30 3422 C 303.941 2.33381 -0.0743864 0
M  V30 3423 C 304.922 1.52784 0.747735 0
M  V30 3424 O 306.107 1.81258 0.697071 0
M  V30 3425 C 303.237 3.36748 0.849598 0
M  V30 3426 C 302.191 4.27793 0.133247 0
M  V30 3427 C 301.517 5.21679 1.17281 0
M  V30 3428 C 302.817 5.12415 -1.01134 0
M  V30 3429 H 304.511 2.87081 -0.850007 0
M  V30 3430 H 302.057 1.38034 -0.410201 0
M  V30 3431 H 304.01 4.00648 1.30612 0
M  V30 3432 H 302.734 2.81439 1.65709 0
M  V30 3433 H 301.393 3.65342 -0.303426 0
M  V30 3434 H 301.041 4.62677 1.9733 0
M  V30 3435 H 300.741 5.83435 0.698397 0
M  V30 3436 H 302.265 5.88456 1.62947 0
M  V30 3437 H 303.679 5.69781 -0.634274 0
M  V30 3438 H 302.076 5.83203 -1.41399 0
M  V30 3439 H 303.146 4.48514 -1.84292 0
M  V30 3440 N 304.489 0.459591 1.5075 0
M  V30 3441 C 305.436 -0.340524 2.28274 0
M  V30 3442 C 306.406 -0.997371 1.32822 0
M  V30 3443 O 307.591 -1.01202 1.61749 0
M  V30 3444 C 304.731 -1.42317 3.14388 0
M  V30 3445 C 303.844 -0.782251 4.24859 0
M  V30 3446 C 302.979 -1.84182 4.98247 0
M  V30 3447 C 302.018 -1.18053 6.00608 0
M  V30 3448 N 301.155 -2.18244 6.67319 0
M  V30 3449 H 305.995 0.326899 2.96202 0
M  V30 3450 H 303.532 0.173057 1.46078 0
M  V30 3451 H 305.49 -2.06241 3.62658 0
M  V30 3452 H 304.12 -2.05992 2.4853 0
M  V30 3453 H 303.172 -0.0307404 3.80388 0
M  V30 3454 H 304.484 -0.259663 4.98124 0
M  V30 3455 H 303.638 -2.55714 5.50177 0
M  V30 3456 H 302.377 -2.39819 4.24662 0
M  V30 3457 H 301.382 -0.450776 5.47949 0
M  V30 3458 H 302.607 -0.631202 6.7616 0
M  V30 3459 H 300.553 -2.72919 5.96533 0
M  V30 3460 H 300.47 -1.70938 7.36421 0
M  V30 3461 H 301.738 -2.89191 7.23871 0
M  V30 3462 N 305.967 -1.56429 0.191757 0
M  V30 3463 C 307.197 -2.01574 -0.452928 0
M  V30 3464 C 307.605 -1.07107 -1.55964 0
M  V30 3465 O 306.948 -0.067534 -1.83576 0
M  V30 3466 C 307.01 -3.43121 -1.07278 0
M  V30 3467 C 306.674 -4.56879 -0.105214 0
M  V30 3468 C 307.671 -5.15379 0.684149 0
M  V30 3469 C 305.356 -5.023 0.00489824 0
M  V30 3470 C 307.35 -6.17746 1.57062 0
M  V30 3471 C 305.037 -6.04511 0.894935 0
M  V30 3472 C 306.035 -6.62108 1.67637 0
M  V30 3473 O 305.723 -7.62335 2.55149 0
M  V30 3474 H 305.455 -0.665554 -0.118379 0
M  V30 3475 H 308.009 -2.03245 0.296737 0
M  V30 3476 H 306.239 -3.38425 -1.87097 0
M  V30 3477 H 307.928 -3.72093 -1.62177 0
M  V30 3478 H 308.694 -4.81157 0.609365 0
M  V30 3479 H 304.573 -4.57168 -0.593156 0
M  V30 3480 H 308.117 -6.6263 2.181 0
M  V30 3481 H 304.014 -6.38157 0.970847 0
M  V30 3482 H 304.782 -7.79741 2.48892 0
M  V30 3483 N 307.445 0.0818655 -1.57387 0
M  V30 3484 C 308.408 1.08265 -2.02018 0
M  V30 3485 C 309.408 1.32183 -0.915664 0
M  V30 3486 O 310.598 1.28073 -1.18081 0
M  V30 3487 C 307.73 2.42871 -2.39221 0
M  V30 3488 H 308.923 0.698204 -2.91659 0
M  V30 3489 H 306.476 0.327303 -1.52835 0
M  V30 3490 H 307.211 2.86167 -1.52575 0
M  V30 3491 H 306.996 2.26855 -3.19811 0
M  V30 3492 H 308.486 3.14826 -2.74362 0
M  V30 3493 N 308.923 1.53595 0.353017 0
M  V30 3494 C 310.153 1.74058 1.11299 0
M  V30 3495 C 310.561 0.475205 1.83135 0
M  V30 3496 O 309.904 -0.562344 1.74881 0
M  V30 3497 C 309.966 2.85994 2.17825 0
M  V30 3498 C 309.63 4.25923 1.65647 0
M  V30 3499 C 310.627 5.07829 1.11383 0
M  V30 3500 C 308.312 4.72377 1.7078 0
M  V30 3501 C 310.306 6.34285 0.629439 0
M  V30 3502 C 307.993 5.98808 1.21953 0
M  V30 3503 C 308.991 6.79594 0.681265 0
M  V30 3504 O 308.679 8.03651 0.200248 0
M  V30 3505 H 308.411 0.585327 0.338183 0
M  V30 3506 H 310.965 2.01186 0.413927 0
M  V30 3507 H 309.195 2.54368 2.91262 0
M  V30 3508 H 310.884 2.94515 2.79313 0
M  V30 3509 H 311.65 4.73107 1.06746 0
M  V30 3510 H 307.529 4.0956 2.11617 0
M  V30 3511 H 311.073 6.97288 0.208636 0
M  V30 3512 H 306.97 6.33026 1.26287 0
M  V30 3513 H 307.738 8.1788 0.318416 0
M  V30 3514 N 310.401 -0.613514 1.45168 0
M  V30 3515 C 311.348 -1.72456 1.53387 0
M  V30 3516 C 312.318 -1.6169 0.380191 0
M  V30 3517 O 313.503 -1.81356 0.592836 0
M  V30 3518 C 310.643 -3.10753 1.50088 0
M  V30 3519 C 309.756 -3.32368 2.75963 0
M  V30 3520 C 308.891 -4.60737 2.64376 0
M  V30 3521 C 307.93 -4.7559 3.85332 0
M  V30 3522 N 307.067 -5.95253 3.72315 0
M  V30 3523 H 311.907 -1.64768 2.48305 0
M  V30 3524 H 309.444 -0.803503 1.23216 0
M  V30 3525 H 311.402 -3.90758 1.46164 0
M  V30 3526 H 310.032 -3.17413 0.587243 0
M  V30 3527 H 309.084 -2.4618 2.89999 0
M  V30 3528 H 310.396 -3.39218 3.65695 0
M  V30 3529 H 309.55 -5.48928 2.58385 0
M  V30 3530 H 308.289 -4.56275 1.72233 0
M  V30 3531 H 307.294 -3.85824 3.91688 0
M  V30 3532 H 308.519 -4.81854 4.78533 0
M  V30 3533 H 306.465 -5.91847 2.82937 0
M  V30 3534 H 306.382 -6.03236 4.55677 0
M  V30 3535 H 307.65 -6.85958 3.70246 0
M  V30 3536 N 311.879 -1.3236 -0.855495 0
M  V30 3537 C 313.127 -1.22629 -1.60644 0
M  V30 3538 C 313.448 0.212136 -1.93843 0
M  V30 3539 O 312.718 1.13666 -1.59552 0
M  V30 3540 H 311.298 -0.450882 -0.595579 0
M  V30 3541 H 313.96 -1.65871 -1.02337 0
M  V30 3542 H 313.056 -1.80832 -2.54374 0
M  V30 3543 N 313.357 1.07166 -1.15556 0
M  V30 3544 C 314.634 1.76546 -0.842069 0
M  V30 3545 C 315.014 2.00453 0.661939 0
M  V30 3546 O 314.362 1.62452 1.60691 0
M  V30 3547 C 314.572 3.07266 -1.65495 0
M  V30 3548 C 315.92 3.81578 -1.86234 0
M  V30 3549 O 316.944 3.17083 -1.62287 0
M  V30 3550 O 315.803 4.97419 -2.26355 0
M  V30 3551 H 312.897 0.766756 -0.309862 0
M  V30 3552 H 315.443 1.13514 -1.26145 0
M  V30 3553 H 314.215 2.85494 -2.67598 0
M  V30 3554 H 313.838 3.7803 -1.23203 0
M  V30 3555 N 314.835 0.952656 1.25548 0
M  V30 3556 C 316.084 0.602053 1.92505 0
M  V30 3557 C 316.397 -0.864663 1.75451 0
M  V30 3558 O 317.603 -1.32514 2.36965 0
M  V30 3559 C 316.059 1.02607 3.44963 0
M  V30 3560 C 315.667 2.51519 3.70732 0
M  V30 3561 C 317.411 0.747905 4.1786 0
M  V30 3562 C 315.318 2.87732 5.16686 0
M  V30 3563 H 314.248 0.22146 0.720744 0
M  V30 3564 H 316.899 1.15684 1.42441 0
M  V30 3565 H 315.281 0.399712 3.93978 0
M  V30 3566 H 316.455 3.19157 3.32378 0
M  V30 3567 H 314.77 2.76786 3.11092 0
M  V30 3568 H 317.367 0.994647 5.25367 0
M  V30 3569 H 317.71 -0.315629 4.15102 0
M  V30 3570 H 318.243 1.33452 3.74747 0
M  V30 3571 H 314.982 3.93095 5.24554 0
M  V30 3572 H 314.502 2.24765 5.56094 0
M  V30 3573 H 316.181 2.76817 5.84792 0
M  V30 3574 N 316.313 -1.40141 0.720998 0
M  V30 3575 C 317.243 -2.33339 0.0867621 0
M  V30 3576 C 318.224 -1.53178 -0.739622 0
M  V30 3577 O 319.409 -1.81625 -0.687449 0
M  V30 3578 C 316.539 -3.37194 -0.831728 0
M  V30 3579 C 315.493 -4.27857 -0.110558 0
M  V30 3580 C 314.819 -5.22294 -1.14513 0
M  V30 3581 C 316.119 -5.11872 1.0385 0
M  V30 3582 H 317.813 -2.86626 0.865219 0
M  V30 3583 H 315.359 -1.37814 0.417516 0
M  V30 3584 H 317.312 -4.01335 -1.28485 0
M  V30 3585 H 316.036 -2.82314 -1.64214 0
M  V30 3586 H 314.695 -3.65176 0.322797 0
M  V30 3587 H 314.343 -4.63717 -1.94874 0
M  V30 3588 H 314.043 -5.83797 -0.667446 0
M  V30 3589 H 315.567 -5.89312 -1.59824 0
M  V30 3590 H 316.981 -5.69436 0.664482 0
M  V30 3591 H 315.378 -5.82445 1.4449 0
M  V30 3592 H 316.448 -4.4753 1.86668 0
M  V30 3593 N 317.792 -0.46758 -1.50504 0
M  V30 3594 C 318.739 0.328413 -2.28452 0
M  V30 3595 C 319.709 0.990313 -1.33349 0
M  V30 3596 O 320.894 1.00343 -1.62284 0
M  V30 3597 C 318.034 1.40648 -3.15138 0
M  V30 3598 C 317.147 0.759709 -4.25267 0
M  V30 3599 C 316.282 1.81537 -4.99217 0
M  V30 3600 C 315.321 1.14866 -6.01226 0
M  V30 3601 N 314.458 2.14702 -6.68467 0
M  V30 3602 H 319.298 -0.342603 -2.96024 0
M  V30 3603 H 316.835 -0.180801 -1.45985 0
M  V30 3604 H 318.793 2.04315 -3.63746 0
M  V30 3605 H 317.423 2.04671 -2.49619 0
M  V30 3606 H 316.475 0.0105671 -3.80399 0
M  V30 3607 H 317.787 0.233243 -4.98254 0
M  V30 3608 H 316.941 2.52793 -5.51526 0
M  V30 3609 H 315.68 2.37564 -4.25928 0
M  V30 3610 H 314.685 0.42171 -5.4818 0
M  V30 3611 H 315.91 0.595334 -6.76485 0
M  V30 3612 H 313.856 2.69752 -5.97972 0
M  V30 3613 H 313.773 1.6703 -7.37317 0
M  V30 3614 H 315.041 2.85348 -7.25394 0
M  V30 3615 N 319.27 1.56325 -0.20005 0
M  V30 3616 C 320.18 2.22931 0.730668 0
M  V30 3617 C 321.196 1.22997 1.23076 0
M  V30 3618 O 322.372 1.55748 1.27689 0
M  V30 3619 C 319.437 2.87948 1.93098 0
M  V30 3620 C 318.498 4.03166 1.47497 0
M  V30 3621 C 317.731 4.65073 2.61807 0
M  V30 3622 O 317.954 4.25913 3.79413 0
M  V30 3623 O 316.888 5.54452 2.34237 0
M  V30 3624 H 320.714 3.03084 0.193391 0
M  V30 3625 H 318.299 1.49371 0.0294621 0
M  V30 3626 H 320.181 3.29063 2.6324 0
M  V30 3627 H 318.856 2.10771 2.45677 0
M  V30 3628 H 317.763 3.66664 0.742201 0
M  V30 3629 H 319.096 4.82022 0.995796 0
M  V30 3630 N 320.748 -0.0735177 1.57428 0
M  V30 3631 C 321.994 -0.774145 1.87443 0
M  V30 3632 C 322.327 -1.77311 0.792103 0
M  V30 3633 O 321.602 -1.93492 -0.197793 0
M  V30 3634 C 321.885 -1.48367 3.28115 0
M  V30 3635 C 321.738 -0.501227 4.46999 0
M  V30 3636 C 323.057 -2.429 3.66998 0
M  V30 3637 H 320.176 -0.279971 0.681752 0
M  V30 3638 H 322.818 -0.0373616 1.89963 0
M  V30 3639 H 320.968 -2.11171 3.26097 0
M  V30 3640 H 322.64 0.121468 4.6114 0
M  V30 3641 H 320.883 0.183593 4.33411 0
M  V30 3642 H 321.554 -1.03526 5.42205 0
M  V30 3643 H 324.03 -1.90175 3.70098 0
M  V30 3644 H 322.906 -2.89549 4.66318 0
M  V30 3645 H 323.167 -3.27628 2.96837 0
M  V30 3646 N 322.226 -1.5378 -0.344866 0
M  V30 3647 C 323.158 -1.77988 -1.44406 0
M  V30 3648 C 324.171 -0.661138 -1.48771 0
M  V30 3649 O 325.36 -0.937842 -1.51877 0
M  V30 3650 C 322.46 -1.86345 -2.8307 0
M  V30 3651 C 321.633 -3.16256 -3.0216 0
M  V30 3652 C 320.692 -3.15588 -4.21059 0
M  V30 3653 O 319.718 -3.89314 -4.15239 0
M  V30 3654 N 320.92 -2.37864 -5.29529 0
M  V30 3655 H 323.685 -2.72839 -1.24012 0
M  V30 3656 H 321.246 -1.52814 -0.534737 0
M  V30 3657 H 323.238 -1.83351 -3.60783 0
M  V30 3658 H 321.808 -0.986858 -2.96614 0
M  V30 3659 H 321.028 -3.32385 -2.11929 0
M  V30 3660 H 322.316 -4.0207 -3.11797 0
M  V30 3661 H 321.714 -1.77514 -5.37127 0
M  V30 3662 H 320.271 -2.40668 -6.05741 0
M  V30 3663 N 323.704 0.605807 -1.45491 0
M  V30 3664 C 324.95 1.36679 -1.49823 0
M  V30 3665 C 325.283 1.93693 -0.140175 0
M  V30 3666 O 324.558 1.75158 0.845581 0
M  V30 3667 C 324.841 2.51337 -2.57879 0
M  V30 3668 C 324.694 1.99508 -4.03134 0
M  V30 3669 C 326.013 3.53463 -2.62205 0
M  V30 3670 H 323.132 0.495617 -0.545466 0
M  V30 3671 H 325.774 0.682732 -1.7731 0
M  V30 3672 H 323.924 3.09691 -2.34571 0
M  V30 3673 H 325.596 1.45789 -4.37656 0
M  V30 3674 H 323.839 1.30496 -4.13707 0
M  V30 3675 H 324.51 2.82169 -4.74431 0
M  V30 3676 H 326.986 3.04953 -2.83095 0
M  V30 3677 H 325.862 4.31178 -3.39672 0
M  V30 3678 H 326.123 4.09197 -1.67363 0
M  V30 3679 O 325.221 1.43044 0.749719 0
M  V30 3680 H 325.912 1.3401 1.3986 0
M  V30 END ATOM
M  V30 BEGIN BOND
M  V30 END BOND
M  V30 END CTAB
M  END
$$$$
