drugbank_target|P51788 Chloride channel protein 2 (DB01046; DB05514)
 OpenBabel12092119393D

  0  0  0     0  0            999 V3000
M  V30 BEGIN CTAB
M  V30 COUNTS 13977 14138 0 0 0
M  V30 BEGIN ATOM
M  V30 1 H -0.908 1.98254 -0.117106 0
M  V30 2 N 0 1.576 0 0
M  V30 3 C 0.933 2.03868 1.02534 0
M  V30 4 C 1.911 0.928543 1.3348 0
M  V30 5 O 3.095 1.19667 1.45644 0
M  V30 6 C 0.222 2.43627 2.35294 0
M  V30 7 C -0.732 3.65373 2.2001 0
M  V30 8 S 0.101 5.13292 1.52614 0
M  V30 9 C 1.257 5.56322 2.86805 0
M  V30 10 H 1.49 2.90518 0.631377 0
M  V30 11 H -0.977 1.52953 0.210867 0
M  V30 12 H 0.981 2.67203 3.11629 0
M  V30 13 H -0.358 1.57376 2.7183 0
M  V30 14 H -1.165 3.90944 3.18086 0
M  V30 15 H -1.563 3.418 1.51819 0
M  V30 16 H 0.729 5.58782 3.83104 0
M  V30 17 H 1.672 6.56266 2.65933 0
M  V30 18 H 2.08 4.83886 2.90714 0
M  V30 19 N 1.4781 -0.272755 1.55222 0
M  V30 20 C 2.4411 -1.32041 1.87344 0
M  V30 21 C 3.4411 -1.42342 0.74803 0
M  V30 22 O 4.6311 -1.41488 1.0162 0
M  V30 23 C 1.7631 -2.70173 2.07893 0
M  V30 24 H 2.9561 -1.04789 2.80997 0
M  V30 25 H 0.5091 -0.51083 1.47717 0
M  V30 26 H 1.2441 -3.02605 1.16622 0
M  V30 27 H 1.0291 -2.64082 2.89833 0
M  V30 28 H 2.5191 -3.45869 2.34017 0
M  V30 29 N 2.9562 -1.48159 -0.537278 0
M  V30 30 C 3.9192 -1.61665 -1.62472 0
M  V30 31 C 4.9192 -0.490395 -1.5314 0
M  V30 32 O 6.1092 -0.755998 -1.5694 0
M  V30 33 C 3.2412 -1.57997 -3.02076 0
M  V30 34 H 4.4342 -2.58621 -1.51839 0
M  V30 35 H 1.9872 -1.36647 -0.758771 0
M  V30 36 H 2.7222 -0.624913 -3.18222 0
M  V30 37 H 2.5072 -2.39755 -3.10258 0
M  V30 38 H 3.9972 -1.70627 -3.81151 0
M  V30 39 N 4.4343 0.785586 -1.36625 0
M  V30 40 C 5.3973 1.87999 -1.31107 0
M  V30 41 C 6.3973 1.59316 -0.217959 0
M  V30 42 O 7.5873 1.67656 -0.472977 0
M  V30 43 C 4.7193 3.24861 -1.03334 0
M  V30 44 H 5.9123 1.94307 -2.2844 0
M  V30 45 H 3.4653 0.983813 -1.21453 0
M  V30 46 H 4.2003 3.24235 -0.0647432 0
M  V30 47 H 3.9853 3.4707 -1.82441 0
M  V30 48 H 5.4753 4.04929 -1.02088 0
M  V30 49 N 5.9124 1.20967 1.01018 0
M  V30 50 C 6.8754 0.965918 2.07853 0
M  V30 51 C 7.8754 -0.0610545 1.60684 0
M  V30 52 O 9.0654 0.175681 1.73312 0
M  V30 53 C 6.1974 0.455513 3.37843 0
M  V30 54 H 7.3904 1.91365 2.3091 0
M  V30 55 H 4.9434 1.02594 1.17916 0
M  V30 56 H 5.6784 -0.497381 3.20463 0
M  V30 57 H 5.4634 1.19622 3.73407 0
M  V30 58 H 6.9534 0.304667 4.16487 0
M  V30 59 N 7.3905 -1.2043 1.01659 0
M  V30 60 C 8.3535 -2.21433 0.591616 0
M  V30 61 C 9.3535 -1.57203 -0.338226 0
M  V30 62 O 10.5435 -1.73737 -0.126918 0
M  V30 63 C 7.6755 -3.40628 -0.136058 0
M  V30 64 H 8.8685 -2.60545 1.48514 0
M  V30 65 H 6.4215 -1.33893 0.806379 0
M  V30 66 H 7.1565 -3.07019 -1.04449 0
M  V30 67 H 6.9415 -3.88475 0.531917 0
M  V30 68 H 8.4315 -4.15475 -0.420735 0
M  V30 69 N 8.8686 -0.792821 -1.36206 0
M  V30 70 C 9.7786 -0.194808 -2.3379 0
M  V30 71 C 10.7946 0.654869 -1.61206 0
M  V30 72 O 11.9706 0.569856 -1.9317 0
M  V30 73 C 9.0356 0.657721 -3.40404 0
M  V30 74 C 8.0966 -0.210849 -4.28782 0
M  V30 75 C 7.3296 0.601086 -5.30304 0
M  V30 76 O 7.5526 1.83682 -5.40016 0
M  V30 77 O 6.4866 -0.000808277 -6.019 0
M  V30 78 H 10.3126 -1.00172 -2.86704 0
M  V30 79 H 7.8976 -0.554341 -1.38735 0
M  V30 80 H 9.7796 1.14375 -4.05581 0
M  V30 81 H 8.4546 1.44247 -2.89784 0
M  V30 82 H 7.3616 -0.743714 -3.66633 0
M  V30 83 H 8.6946 -0.959195 -4.82763 0
M  V30 84 N 10.3467 1.47872 -0.545128 0
M  V30 85 C 11.2567 2.33633 0.212746 0
M  V30 86 C 12.2727 1.4744 0.923983 0
M  V30 87 O 13.4487 1.80393 0.895572 0
M  V30 88 C 10.5137 3.23884 1.23693 0
M  V30 89 C 9.5747 4.25961 0.534417 0
M  V30 90 C 8.8077 5.11899 1.5098 0
M  V30 91 O 9.0307 5.00077 2.7437 0
M  V30 92 O 7.9647 5.92831 1.0409 0
M  V30 93 H 11.7907 2.99714 -0.490416 0
M  V30 94 H 9.3757 1.46235 -0.305871 0
M  V30 95 H 11.2577 3.79666 1.82843 0
M  V30 96 H 9.9327 2.60446 1.92222 0
M  V30 97 H 8.8397 3.73972 -0.0979679 0
M  V30 98 H 10.1727 4.92079 -0.109213 0
M  V30 99 N 11.8248 0.280983 1.55075 0
M  V30 100 C 13.0728 -0.333455 1.9933 0
M  V30 101 C 13.3938 -1.55937 1.17085 0
M  V30 102 O 12.6638 -1.94143 0.261805 0
M  V30 103 H 11.2438 -0.126197 0.736263 0
M  V30 104 H 13.9058 0.387678 1.91005 0
M  V30 105 H 13.0018 -0.619292 3.05894 0
M  V30 106 N 13.3029 -1.57598 0.00835791 0
M  V30 107 C 14.2359 -2.04409 -1.01451 0
M  V30 108 C 15.2139 -0.935609 -1.32985 0
M  V30 109 O 16.3979 -1.20437 -1.45007 0
M  V30 110 C 13.5249 -2.44872 -2.33999 0
M  V30 111 C 12.5709 -3.66535 -2.18069 0
M  V30 112 S 13.4039 -5.14095 -1.4989 0
M  V30 113 C 14.5599 -5.57835 -2.8385 0
M  V30 114 H 14.7929 -2.90849 -0.615961 0
M  V30 115 H 12.3259 -1.53063 -0.202752 0
M  V30 116 H 14.2839 -2.68852 -3.10208 0
M  V30 117 H 12.9449 -1.58815 -2.70992 0
M  V30 118 H 12.1379 -3.92626 -3.16008 0
M  V30 119 H 11.7399 -3.426 -1.50004 0
M  V30 120 H 14.0319 -5.60806 -3.80136 0
M  V30 121 H 14.9749 -6.57667 -2.62449 0
M  V30 122 H 15.3829 -4.85421 -2.88144 0
M  V30 123 N 14.781 0.264519 -1.55364 0
M  V30 124 C 15.691 1.34902 -1.91934 0
M  V30 125 C 16.707 1.53595 -0.817593 0
M  V30 126 O 17.883 1.67558 -1.11742 0
M  V30 127 C 14.948 2.68676 -2.19121 0
M  V30 128 C 14.009 2.58657 -3.4263 0
M  V30 129 C 13.242 3.86051 -3.68511 0
M  V30 130 O 13.465 4.87126 -2.96757 0
M  V30 131 O 12.399 3.85744 -4.62045 0
M  V30 132 H 16.225 1.06883 -2.8427 0
M  V30 133 H 13.81 0.463775 -1.42019 0
M  V30 134 H 15.692 3.47759 -2.37995 0
M  V30 135 H 14.367 2.96463 -1.29966 0
M  V30 136 H 13.274 1.7792 -3.29082 0
M  V30 137 H 14.607 2.35818 -4.32031 0
M  V30 138 N 16.2591 1.48442 0.529413 0
M  V30 139 C 17.6701 1.5002 1.11134 0
M  V30 140 C 18.0211 0.27031 1.94329 0
M  V30 141 O 17.1461 -0.622507 2.07253 0
M  V30 142 C 17.7411 2.71834 2.02217 0
M  V30 143 C 16.3001 2.76283 2.55627 0
M  V30 144 C 15.4471 2.43542 1.326 0
M  V30 145 H 18.3981 1.5555 0.314641 0
M  V30 146 H 18.4191 2.50384 2.8651 0
M  V30 147 H 17.9311 3.61331 1.41639 0
M  V30 148 H 16.0321 1.90995 3.19924 0
M  V30 149 H 16.1451 3.77725 2.94721 0
M  V30 150 H 14.5091 1.94709 1.64196 0
M  V30 151 H 15.2921 3.3528 0.737734 0
M  V30 152 N 17.7372 -0.778329 1.37039 0
M  V30 153 C 19.1532 -1.07796 1.17695 0
M  V30 154 C 19.3532 -2.01498 0.00860115 0
M  V30 155 O 18.4092 -2.43901 -0.653352 0
M  V30 156 C 19.7222 -1.68178 2.49272 0
M  V30 157 C 21.2702 -1.80467 2.55735 0
M  V30 158 C 21.7452 -2.44263 3.87427 0
M  V30 159 N 23.2362 -2.51721 3.88833 0
M  V30 160 C 23.9712 -3.01919 4.87476 0
M  V30 161 N 23.4672 -3.5234 5.96513 0
M  V30 162 N 25.2602 -3.00733 4.74885 0
M  V30 163 H 17.4112 -0.156032 2.11826 0
M  V30 164 H 19.6742 -0.131844 0.938787 0
M  V30 165 H 19.3802 -1.06796 3.35093 0
M  V30 166 H 19.2542 -2.67554 2.65885 0
M  V30 167 H 21.6412 -2.40984 1.70325 0
M  V30 168 H 21.7222 -0.798656 2.43013 0
M  V30 169 H 21.3662 -1.84388 4.73248 0
M  V30 170 H 21.2962 -3.45458 3.9745 0
M  V30 171 H 23.7872 -2.1603 3.10063 0
M  V30 172 H 24.1002 -3.89027 6.67741 0
M  V30 173 H 22.4452 -3.50462 6.00168 0
M  V30 174 H 25.6362 -2.60638 3.88826 0
M  V30 175 H 25.8092 -3.39545 5.51918 0
M  V30 176 N 19.2153 -1.21501 -1.00376 0
M  V30 177 C 20.1783 -0.976927 -2.07337 0
M  V30 178 C 21.1783 0.0525322 -1.60714 0
M  V30 179 O 22.3683 -0.184869 -1.73216 0
M  V30 180 C 19.5003 -0.473423 -3.37597 0
M  V30 181 H 20.6933 -1.92587 -2.29892 0
M  V30 182 H 18.2463 -1.03217 -1.17371 0
M  V30 183 H 18.9813 0.480379 -3.20722 0
M  V30 184 H 18.7663 -1.216 -3.72768 0
M  V30 185 H 20.2563 -0.32675 -4.1632 0
M  V30 186 N 20.6934 1.19889 -1.02296 0
M  V30 187 C 21.6234 2.25141 -0.619174 0
M  V30 188 C 22.6044 1.66051 0.368915 0
M  V30 189 O 23.7894 1.92546 0.252941 0
M  V30 190 C 20.9194 3.4728 0.0368783 0
M  V30 191 C 19.8734 4.19005 -0.872865 0
M  V30 192 C 19.1994 5.34637 -0.0822402 0
M  V30 193 C 20.4994 4.74452 -2.18387 0
M  V30 194 H 22.1934 2.59171 -1.49903 0
M  V30 195 H 19.7394 1.24579 -0.722222 0
M  V30 196 H 21.6924 4.20098 0.330958 0
M  V30 197 H 20.4164 3.12433 0.95149 0
M  V30 198 H 19.0754 3.48061 -1.15105 0
M  V30 199 H 18.7234 4.96034 0.83422 0
M  V30 200 H 18.4234 5.83557 -0.688149 0
M  V30 201 H 19.9474 6.10255 0.205238 0
M  V30 202 H 21.3614 5.39055 -1.95172 0
M  V30 203 H 19.7584 5.33834 -2.74119 0
M  V30 204 H 20.8284 3.92844 -2.84257 0
M  V30 205 N 22.1715 0.800033 1.35784 0
M  V30 206 C 23.1035 0.163596 2.28615 0
M  V30 207 C 24.1165 -0.633317 1.49976 0
M  V30 208 O 25.3055 -0.466754 1.72289 0
M  V30 209 C 22.4055 -0.790958 3.29541 0
M  V30 210 C 21.5785 -0.0418255 4.3738 0
M  V30 211 C 20.6375 -0.91389 5.18203 0
M  V30 212 O 19.6635 -0.367234 5.68014 0
M  V30 213 N 20.8655 -2.23682 5.35674 0
M  V30 214 H 23.6305 0.96105 2.83873 0
M  V30 215 H 21.1915 0.654894 1.48063 0
M  V30 216 H 23.1835 -1.37844 3.80501 0
M  V30 217 H 21.7535 -1.48925 2.74846 0
M  V30 218 H 20.9735 0.726813 3.87442 0
M  V30 219 H 22.2615 0.474719 5.06581 0
M  V30 220 H 21.6595 -2.70497 4.96838 0
M  V30 221 H 20.2165 -2.77369 5.89839 0
M  V30 222 N 23.6496 -1.47581 0.552962 0
M  V30 223 C 24.8796 -2.06575 0.0320091 0
M  V30 224 C 25.2876 -1.4067 -1.26525 0
M  V30 225 O 24.6306 -0.495808 -1.76883 0
M  V30 226 C 24.6926 -3.58705 -0.238913 0
M  V30 227 C 24.3566 -4.46625 0.968272 0
M  V30 228 C 25.3536 -4.85 1.87274 0
M  V30 229 C 23.0386 -4.88201 1.18175 0
M  V30 230 C 25.0326 -5.63745 2.9744 0
M  V30 231 C 22.7196 -5.66712 2.28651 0
M  V30 232 C 23.7176 -6.04394 3.18114 0
M  V30 233 O 23.4056 -6.81324 4.26676 0
M  V30 234 H 23.1376 -0.674763 0.0408689 0
M  V30 235 H 25.6916 -1.90634 0.764719 0
M  V30 236 H 23.9216 -3.72844 -1.02588 0
M  V30 237 H 25.6106 -3.99735 -0.704731 0
M  V30 238 H 26.3766 -4.53482 1.71984 0
M  V30 239 H 22.2556 -4.58339 0.494593 0
M  V30 240 H 25.7996 -5.93077 3.67296 0
M  V30 241 H 21.6966 -5.97642 2.43915 0
M  V30 242 H 22.4646 -6.99712 4.24671 0
M  V30 243 N 25.1277 -0.289203 -1.54924 0
M  V30 244 C 26.0377 0.601863 -2.26748 0
M  V30 245 C 27.0537 1.15834 -1.2984 0
M  V30 246 O 28.2297 1.18564 -1.62802 0
M  V30 247 C 25.2947 1.76299 -2.98529 0
M  V30 248 C 24.3557 1.24178 -4.10948 0
M  V30 249 C 23.5887 2.34757 -4.79296 0
M  V30 250 O 23.8117 3.54411 -4.46933 0
M  V30 251 O 22.7457 2.02115 -5.66951 0
M  V30 252 H 26.5717 0.0195879 -3.03694 0
M  V30 253 H 24.1567 -0.0560868 -1.49295 0
M  V30 254 H 26.0387 2.43973 -3.43592 0
M  V30 255 H 24.7137 2.33209 -2.24488 0
M  V30 256 H 23.6207 0.531104 -3.70311 0
M  V30 257 H 24.9537 0.718252 -4.86931 0
M  V30 258 N 26.6058 1.57591 -0.0167156 0
M  V30 259 C 27.5378 2.06343 0.997753 0
M  V30 260 C 28.5508 0.984469 1.29661 0
M  V30 261 O 29.7398 1.26093 1.26344 0
M  V30 262 C 26.8398 2.46255 2.32834 0
M  V30 263 C 26.0128 3.77083 2.21646 0
M  V30 264 C 25.0718 4.0368 3.37534 0
M  V30 265 O 24.0978 4.7411 3.14973 0
M  V30 266 N 25.2998 3.52881 4.60929 0
M  V30 267 H 28.0648 2.93997 0.581875 0
M  V30 268 H 25.6258 1.61002 0.170316 0
M  V30 269 H 27.6178 2.61149 3.09166 0
M  V30 270 H 26.1878 1.64032 2.66106 0
M  V30 271 H 25.4078 3.72106 1.30119 0
M  V30 272 H 26.6958 4.62822 2.11361 0
M  V30 273 H 26.0938 2.95878 4.82154 0
M  V30 274 H 24.6508 3.73076 5.34469 0
M  V30 275 N 28.0839 -0.256276 1.55502 0
M  V30 276 C 29.3119 -1.00342 1.8094 0
M  V30 277 C 29.7269 -1.79307 0.59114 0
M  V30 278 O 29.0839 -1.77114 -0.440081 0
M  V30 279 C 29.1349 -1.94875 3.04476 0
M  V30 280 O 28.8559 -1.19107 4.21598 0
M  V30 281 C 30.3569 -2.81266 3.42644 0
M  V30 282 H 27.5769 -0.295685 0.602338 0
M  V30 283 H 30.1209 -0.281998 2.02546 0
M  V30 284 H 28.2759 -2.62457 2.84947 0
M  V30 285 H 28.6899 -1.82969 4.91551 0
M  V30 286 H 30.1639 -3.43362 4.32211 0
M  V30 287 H 30.6409 -3.51897 2.62802 0
M  V30 288 H 31.2469 -2.1915 3.64491 0
M  V30 289 N 29.562 -1.4872 -0.521534 0
M  V30 290 C 30.492 -1.66771 -1.63431 0
M  V30 291 C 31.473 -0.516499 -1.62069 0
M  V30 292 O 32.658 -0.750013 -1.79132 0
M  V30 293 C 29.788 -1.71515 -3.01993 0
M  V30 294 C 28.742 -2.86222 -3.18216 0
M  V30 295 C 28.068 -2.76061 -4.57924 0
M  V30 296 C 29.368 -4.27419 -3.00184 0
M  V30 297 H 31.062 -2.59932 -1.48579 0
M  V30 298 H 28.608 -1.25089 -0.713358 0
M  V30 299 H 30.561 -1.82731 -3.7972 0
M  V30 300 H 29.285 -0.749393 -3.17886 0
M  V30 301 H 27.944 -2.74575 -2.42908 0
M  V30 302 H 27.592 -1.77437 -4.70665 0
M  V30 303 H 27.292 -3.53037 -4.69722 0
M  V30 304 H 28.816 -2.89256 -5.37739 0
M  V30 305 H 30.23 -4.39855 -3.67697 0
M  V30 306 H 28.627 -5.05458 -3.2347 0
M  V30 307 H 29.697 -4.43293 -1.96518 0
M  V30 308 N 31.0401 0.771051 -1.3745 0
M  V30 309 C 31.9731 1.89166 -1.27638 0
M  V30 310 C 32.9511 1.61842 -0.156782 0
M  V30 311 O 34.1351 1.85569 -0.331111 0
M  V30 312 C 31.2621 3.24405 -0.973621 0
M  V30 313 C 30.3081 3.70638 -2.1102 0
M  V30 314 S 31.1411 3.84228 -3.73 0
M  V30 315 C 32.2971 5.22313 -3.44876 0
M  V30 316 H 32.5301 1.972 -2.22485 0
M  V30 317 H 30.0631 0.932224 -1.23081 0
M  V30 318 H 32.0211 4.02514 -0.805766 0
M  V30 319 H 30.6821 3.14071 -0.0426279 0
M  V30 320 H 29.8751 4.68685 -1.85338 0
M  V30 321 H 29.4771 2.99632 -2.23822 0
M  V30 322 H 31.7691 6.07505 -2.99908 0
M  V30 323 H 32.7121 5.53008 -4.42253 0
M  V30 324 H 33.1201 4.90284 -2.79789 0
M  V30 325 N 32.5182 1.22032 0.997298 0
M  V30 326 C 33.7482 1.06686 1.76923 0
M  V30 327 C 34.1562 -0.385838 1.85224 0
M  V30 328 O 33.4992 -1.27929 1.31833 0
M  V30 329 C 33.5612 1.59802 3.22031 0
M  V30 330 C 33.2252 3.08362 3.37286 0
M  V30 331 C 34.2222 4.05835 3.24952 0
M  V30 332 C 31.9072 3.47727 3.6248 0
M  V30 333 C 33.9012 5.4066 3.37588 0
M  V30 334 C 31.5882 4.82701 3.74757 0
M  V30 335 C 32.5862 5.78977 3.62319 0
M  V30 336 O 32.2742 7.11502 3.74193 0
M  V30 337 H 32.0062 0.374767 0.562606 0
M  V30 338 H 34.5602 1.61991 1.26286 0
M  V30 339 H 32.7902 0.989003 3.73839 0
M  V30 340 H 34.4792 1.40184 3.80924 0
M  V30 341 H 35.2452 3.76766 3.05405 0
M  V30 342 H 31.1242 2.73317 3.7124 0
M  V30 343 H 34.6682 6.15788 3.27796 0
M  V30 344 H 30.5652 5.11453 3.9381 0
M  V30 345 H 31.3332 7.19019 3.91093 0
M  V30 346 N 33.9963 -1.19345 1.0293 0
M  V30 347 C 35.2443 -1.88665 0.724574 0
M  V30 348 C 35.5653 -1.80036 -0.749144 0
M  V30 349 O 34.8353 -1.2111 -1.53978 0
M  V30 350 H 33.4153 -0.698406 0.265025 0
M  V30 351 H 36.0773 -1.44885 1.30362 0
M  V30 352 H 35.1733 -2.94987 1.01926 0
M  V30 353 N 35.4744 -0.807222 -1.35358 0
M  V30 354 C 36.8904 -0.491038 -1.51858 0
M  V30 355 C 37.0904 0.987648 -1.75635 0
M  V30 356 O 36.1464 1.77265 -1.79815 0
M  V30 357 C 37.4594 -1.33695 -2.69344 0
M  V30 358 C 39.0074 -1.33246 -2.83222 0
M  V30 359 C 39.4824 -2.1625 -4.03733 0
M  V30 360 N 40.9734 -2.1379 -4.10911 0
M  V30 361 C 41.7084 -2.74772 -5.03277 0
M  V30 362 N 41.2044 -3.44684 -6.0097 0
M  V30 363 N 42.9974 -2.6441 -4.96028 0
M  V30 364 H 35.1484 -1.76485 -1.18181 0
M  V30 365 H 37.4114 -0.751199 -0.578276 0
M  V30 366 H 37.1174 -2.38634 -2.58354 0
M  V30 367 H 36.9914 -0.990618 -3.6396 0
M  V30 368 H 39.3784 -0.290911 -2.93663 0
M  V30 369 H 39.4594 -1.71866 -1.89461 0
M  V30 370 H 39.1034 -3.20445 -3.94052 0
M  V30 371 H 39.0334 -1.74989 -4.96675 0
M  V30 372 H 41.5244 -1.62923 -3.40976 0
M  V30 373 H 41.8374 -3.88501 -6.68047 0
M  V30 374 H 40.1824 -3.48788 -6.01142 0
M  V30 375 H 43.3734 -2.0938 -4.18662 0
M  V30 376 H 43.5464 -3.12225 -5.6782 0
M  V30 377 N 36.9525 1.47285 -0.560781 0
M  V30 378 C 38.1825 2.06555 -0.0429638 0
M  V30 379 C 38.5905 1.41339 1.25777 0
M  V30 380 O 37.9335 0.505182 1.76617 0
M  V30 381 C 37.9955 3.58827 0.219887 0
M  V30 382 C 37.6595 4.46105 -0.991944 0
M  V30 383 C 38.6565 4.84 -1.89843 0
M  V30 384 C 36.3415 4.87567 -1.20762 0
M  V30 385 C 38.3355 5.6216 -3.00425 0
M  V30 386 C 36.0225 5.65491 -2.31653 0
M  V30 387 C 37.0205 6.02699 -3.21315 0
M  V30 388 O 36.7085 6.79052 -4.30283 0
M  V30 389 H 36.4405 0.674537 -0.0444468 0
M  V30 390 H 38.9945 1.90225 -0.774818 0
M  V30 391 H 37.2245 3.73383 1.00609 0
M  V30 392 H 38.9135 4.00103 0.683522 0
M  V30 393 H 39.6795 4.52564 -1.74387 0
M  V30 394 H 35.5585 4.5807 -0.518893 0
M  V30 395 H 39.1025 5.9112 -3.70436 0
M  V30 396 H 34.9995 5.9634 -2.47081 0
M  V30 397 H 35.7675 6.9745 -4.28376 0
M  V30 398 N 38.4306 0.297415 1.54768 0
M  V30 399 C 39.6586 -0.315623 2.04478 0
M  V30 400 C 40.0736 -1.47792 1.17486 0
M  V30 401 O 39.4306 -1.81404 0.19971 0
M  V30 402 C 39.4816 -0.7753 3.53088 0
M  V30 403 O 39.2026 0.340732 4.36773 0
M  V30 404 C 40.7036 -1.45386 4.18781 0
M  V30 405 H 37.9236 -0.0690887 0.667434 0
M  V30 406 H 40.4676 0.436003 1.99798 0
M  V30 407 H 38.6226 -1.47696 3.58141 0
M  V30 408 H 39.0366 -0.0165035 5.24497 0
M  V30 409 H 40.5106 -1.72669 5.24299 0
M  V30 410 H 40.9876 -2.39275 3.68299 0
M  V30 411 H 41.5936 -0.795475 4.17795 0
M  V30 412 N 39.9087 -1.5758 0.0250728 0
M  V30 413 C 40.8407 -2.06869 -0.986796 0
M  V30 414 C 41.8537 -0.991332 -1.29137 0
M  V30 415 O 43.0427 -1.26761 -1.25674 0
M  V30 416 C 40.1427 -2.47486 -2.31525 0
M  V30 417 C 39.3157 -3.78253 -2.19643 0
M  V30 418 C 38.3747 -4.05464 -3.35388 0
M  V30 419 O 37.4007 -4.75774 -3.12454 0
M  V30 420 N 38.6027 -3.55321 -4.59051 0
M  V30 421 H 41.3677 -2.94302 -0.566276 0
M  V30 422 H 38.9287 -1.6109 -0.161776 0
M  V30 423 H 40.9207 -2.62785 -3.07776 0
M  V30 424 H 39.4907 -1.65441 -2.65232 0
M  V30 425 H 38.7107 -3.7279 -1.28144 0
M  V30 426 H 39.9987 -4.63936 -2.08903 0
M  V30 427 H 39.3967 -2.98431 -4.80578 0
M  V30 428 H 37.9537 -3.75905 -5.32483 0
M  V30 429 N 41.3868 0.248026 -1.55636 0
M  V30 430 C 42.6638 0.998988 -1.68165 0
M  V30 431 C 43.0438 2.03409 -0.564621 0
M  V30 432 O 42.3918 2.24378 0.432076 0
M  V30 433 C 42.6018 1.63334 -3.0842 0
M  V30 434 C 43.9498 2.13562 -3.66983 0
M  V30 435 O 44.9738 1.73277 -3.11213 0
M  V30 436 O 43.8328 2.87526 -4.64749 0
M  V30 437 H 40.9268 0.464933 -0.683935 0
M  V30 438 H 43.4728 0.241902 -1.67967 0
M  V30 439 H 42.2448 0.884583 -3.8117 0
M  V30 440 H 41.8678 2.45666 -3.12624 0
M  V30 441 N 42.8649 1.48995 0.513639 0
M  V30 442 C 43.7949 1.67636 1.62544 0
M  V30 443 C 44.7759 0.525087 1.61793 0
M  V30 444 O 45.9609 0.759502 1.78732 0
M  V30 445 C 43.0909 1.73114 3.01079 0
M  V30 446 C 42.0449 2.87905 3.16693 0
M  V30 447 C 41.3709 2.78486 4.56453 0
M  V30 448 C 42.6709 4.29005 2.97913 0
M  V30 449 H 44.3649 2.60716 1.47198 0
M  V30 450 H 41.9109 1.25465 0.706714 0
M  V30 451 H 43.8639 1.84742 3.78746 0
M  V30 452 H 42.5879 0.766241 3.17484 0
M  V30 453 H 41.2469 2.75859 2.41448 0
M  V30 454 H 40.8949 1.7993 4.69717 0
M  V30 455 H 40.5949 3.55523 4.67843 0
M  V30 456 H 42.1189 2.92104 5.36197 0
M  V30 457 H 43.5329 4.41798 3.65359 0
M  V30 458 H 41.9299 5.07166 3.20785 0
M  V30 459 H 42.9999 4.44329 1.94165 0
M  V30 460 N 44.343 -0.763751 1.37857 0
M  V30 461 C 45.591 -1.51957 1.33243 0
M  V30 462 C 45.912 -1.94835 -0.0801709 0
M  V30 463 O 45.182 -1.66894 -1.02582 0
M  V30 464 H 43.762 -0.563626 0.49024 0
M  V30 465 H 46.424 -0.908504 1.7243 0
M  V30 466 H 45.52 -2.41523 1.97669 0
M  V30 467 N 45.8211 -1.22559 -0.990812 0
M  V30 468 C 46.7841 -0.998863 -2.0629 0
M  V30 469 C 47.7841 0.0354834 -1.60761 0
M  V30 470 O 48.9741 -0.203231 -1.7301 0
M  V30 471 C 46.1061 -0.509203 -3.37076 0
M  V30 472 H 47.2991 -1.95014 -2.27837 0
M  V30 473 H 44.8521 -1.04456 -1.16269 0
M  V30 474 H 45.5871 0.446335 -3.21214 0
M  V30 475 H 45.3721 -1.25547 -3.71457 0
M  V30 476 H 46.8621 -0.370888 -4.1595 0
M  V30 477 N 47.2992 1.18797 -1.03562 0
M  V30 478 C 48.5462 1.8865 -0.736023 0
M  V30 479 C 48.8742 1.80041 0.735889 0
M  V30 480 O 48.1292 1.19179 1.55225 0
M  V30 481 C 48.4282 3.38692 -1.14117 0
M  V30 482 C 48.0942 3.67504 -2.6125 0
M  V30 483 C 46.7562 3.75078 -3.01447 0
M  V30 484 C 49.1082 3.80293 -3.56408 0
M  V30 485 C 46.4362 3.92915 -4.35701 0
M  V30 486 C 48.7882 3.99645 -4.90374 0
M  V30 487 C 47.4522 4.05453 -5.30249 0
M  V30 488 H 46.7222 0.690321 -0.26933 0
M  V30 489 H 49.3692 1.40641 -1.29971 0
M  V30 490 H 47.6742 3.88645 -0.496202 0
M  V30 491 H 49.3712 3.91072 -0.886789 0
M  V30 492 H 45.9612 3.62223 -2.29113 0
M  V30 493 H 50.1452 3.73779 -3.26501 0
M  V30 494 H 45.4012 3.95653 -4.66121 0
M  V30 495 H 49.5752 4.08482 -5.64017 0
M  V30 496 H 47.2022 4.19027 -6.34288 0
M  V30 497 N 48.7773 0.814389 1.34928 0
M  V30 498 C 49.7403 0.235759 2.27984 0
M  V30 499 C 50.7403 -0.581412 1.49921 0
M  V30 500 O 51.9303 -0.398758 1.69575 0
M  V30 501 C 49.0623 -0.670433 3.34242 0
M  V30 502 H 50.2553 1.05659 2.80671 0
M  V30 503 H 47.8083 0.585614 1.44915 0
M  V30 504 H 48.5433 -1.51466 2.86755 0
M  V30 505 H 48.3283 -0.0860822 3.92005 0
M  V30 506 H 49.8183 -1.06935 4.03676 0
M  V30 507 N 50.2554 -1.46986 0.568584 0
M  V30 508 C 51.2024 -2.30153 -0.172707 0
M  V30 509 C 52.1724 -1.39759 -0.897586 0
M  V30 510 O 53.3574 -1.68716 -0.891044 0
M  V30 511 C 50.4974 -3.23952 -1.1895 0
M  V30 512 C 49.6104 -4.29441 -0.469517 0
M  V30 513 C 48.7454 -5.1038 -1.47259 0
M  V30 514 C 47.7844 -6.07632 -0.738225 0
M  V30 515 N 46.9214 -6.8149 -1.68868 0
M  V30 516 H 51.7614 -2.93019 0.542596 0
M  V30 517 H 49.2984 -1.44422 0.279401 0
M  V30 518 H 51.2564 -3.76767 -1.79173 0
M  V30 519 H 49.8864 -2.62926 -1.87269 0
M  V30 520 H 48.9384 -3.79594 0.247467 0
M  V30 521 H 50.2504 -4.98689 0.105241 0
M  V30 522 H 49.4044 -5.67402 -2.14803 0
M  V30 523 H 48.1434 -4.4106 -2.08128 0
M  V30 524 H 47.1484 -5.49778 -0.0489293 0
M  V30 525 H 48.3734 -6.78966 -0.135129 0
M  V30 526 H 46.3194 -6.14891 -2.28573 0
M  V30 527 H 46.2364 -7.46948 -1.16636 0
M  V30 528 H 47.5044 -7.43078 -2.3549 0
M  V30 529 N 51.7335 -0.305618 -1.54608 0
M  V30 530 C 52.6435 0.57778 -2.27374 0
M  V30 531 C 53.6595 1.14451 -1.31061 0
M  V30 532 O 54.8355 1.16831 -1.6405 0
M  V30 533 C 51.9005 1.73123 -3.00382 0
M  V30 534 C 50.9615 1.19812 -4.12242 0
M  V30 535 C 50.1945 2.2966 -4.81759 0
M  V30 536 O 50.4175 3.49651 -4.50666 0
M  V30 537 O 49.3515 1.96091 -5.69062 0
M  V30 538 H 53.1775 -0.012624 -3.03697 0
M  V30 539 H 50.7625 -0.0719184 -1.49227 0
M  V30 540 H 52.6445 2.40315 -3.4616 0
M  V30 541 H 51.3195 2.30815 -2.26949 0
M  V30 542 H 50.2265 0.491798 -3.70853 0
M  V30 543 H 51.5595 0.666566 -4.87666 0
M  V30 544 N 53.2116 1.57565 -0.0334293 0
M  V30 545 C 54.1216 2.13943 0.962572 0
M  V30 546 C 55.1376 1.09276 1.35406 0
M  V30 547 O 56.3136 1.41355 1.4346 0
M  V30 548 C 53.3786 2.65887 2.22497 0
M  V30 549 C 52.4396 3.85286 1.8935 0
M  V30 550 C 51.6726 4.34743 3.09571 0
M  V30 551 O 51.8956 3.83352 4.22371 0
M  V30 552 O 50.8296 5.26538 2.91618 0
M  V30 553 H 54.6556 2.99333 0.513169 0
M  V30 554 H 52.2406 1.4822 0.18743 0
M  V30 555 H 54.1226 2.99346 2.96598 0
M  V30 556 H 52.7976 1.83578 2.6661 0
M  V30 557 H 51.7046 3.56746 1.1262 0
M  V30 558 H 53.0376 4.68771 1.5005 0
M  V30 559 N 54.6897 -0.239769 1.55765 0
M  V30 560 C 55.6527 -1.28038 1.90103 0
M  V30 561 C 56.6527 -1.40723 0.778055 0
M  V30 562 O 57.8427 -1.39301 1.04599 0
M  V30 563 C 54.9747 -2.65702 2.13577 0
M  V30 564 H 56.1677 -0.988048 2.83157 0
M  V30 565 H 53.7207 -0.479382 1.48767 0
M  V30 566 H 54.4557 -3.00063 1.23015 0
M  V30 567 H 54.2407 -2.57875 2.95369 0
M  V30 568 H 55.7307 -3.40828 2.41301 0
M  V30 569 N 56.1678 -1.49265 -0.50573 0
M  V30 570 C 57.1308 -1.65075 -1.59006 0
M  V30 571 C 58.1308 -0.522768 -1.52065 0
M  V30 572 O 59.3208 -0.789117 -1.55302 0
M  V30 573 C 56.4528 -1.64369 -2.98656 0
M  V30 574 H 57.6458 -2.61784 -1.46319 0
M  V30 575 H 55.1988 -1.38226 -0.729616 0
M  V30 576 H 55.9338 -0.692272 -3.16825 0
M  V30 577 H 55.7188 -2.46282 -3.05103 0
M  V30 578 H 57.2088 -1.78674 -3.77446 0
M  V30 579 N 57.6459 0.756429 -1.3826 0
M  V30 580 C 59.0619 1.0591 -1.19395 0
M  V30 581 C 59.2619 2.01459 -0.0406567 0
M  V30 582 O 58.3179 2.44909 0.614467 0
M  V30 583 C 59.6309 1.64191 -2.51916 0
M  V30 584 C 61.1789 1.76376 -2.58574 0
M  V30 585 C 61.6539 2.38069 -3.91264 0
M  V30 586 N 63.1449 2.45503 -3.92788 0
M  V30 587 C 63.8799 2.94126 -4.92217 0
M  V30 588 N 63.3759 3.42805 -6.02043 0
M  V30 589 N 65.1689 2.9314 -4.7961 0
M  V30 590 H 57.3199 0.122313 -2.12048 0
M  V30 591 H 59.5829 0.116892 -0.940766 0
M  V30 592 H 59.2889 1.01451 -3.3675 0
M  V30 593 H 59.1629 2.6329 -2.70108 0
M  V30 594 H 61.5499 2.38244 -1.74137 0
M  V30 595 H 61.6309 0.759894 -2.44252 0
M  V30 596 H 61.2749 1.76835 -4.76121 0
M  V30 597 H 61.2049 3.39091 -4.02895 0
M  V30 598 H 63.6959 2.1107 -3.13461 0
M  V30 599 H 64.0089 3.78354 -6.73846 0
M  V30 600 H 62.3539 3.4087 -6.05667 0
M  V30 601 H 65.5449 2.54419 -3.92923 0
M  V30 602 H 65.7179 3.30721 -5.5725 0
M  V30 603 N 59.124 1.23083 0.984299 0
M  V30 604 C 60.373 1.05466 1.71929 0
M  V30 605 C 60.686 -0.409211 1.91272 0
M  V30 606 O 61.892 -0.705226 2.62181 0
M  V30 607 C 60.348 1.83874 3.09384 0
M  V30 608 C 59.956 3.34566 2.97943 0
M  V30 609 C 61.7 1.74734 3.8687 0
M  V30 610 C 59.607 4.05381 4.30605 0
M  V30 611 H 58.537 0.391039 0.644674 0
M  V30 612 H 61.188 1.47013 1.09815 0
M  V30 613 H 59.57 1.35131 3.72231 0
M  V30 614 H 60.744 3.90767 2.44209 0
M  V30 615 H 59.059 3.44476 2.33934 0
M  V30 616 H 61.656 2.24957 4.85076 0
M  V30 617 H 61.999 0.709372 4.10212 0
M  V30 618 H 62.532 2.21067 3.30717 0
M  V30 619 H 59.271 5.09467 4.1246 0
M  V30 620 H 58.791 3.53967 4.84218 0
M  V30 621 H 60.47 4.11458 4.99311 0
M  V30 622 N 60.6021 -1.18246 1.0419 0
M  V30 623 C 62.0181 -1.40269 0.761366 0
M  V30 624 C 62.2181 -1.90777 -0.648578 0
M  V30 625 O 61.2741 -2.0929 -1.41258 0
M  V30 626 C 62.5871 -2.40237 1.8085 0
M  V30 627 C 64.1351 -2.53961 1.82955 0
M  V30 628 C 64.6101 -3.57194 2.86664 0
M  V30 629 N 66.1011 -3.64702 2.85563 0
M  V30 630 C 66.8361 -4.44309 3.6246 0
M  V30 631 N 66.3321 -5.27514 4.49111 0
M  V30 632 N 68.1251 -4.39084 3.50944 0
M  V30 633 H 60.2761 -0.837882 1.95175 0
M  V30 634 H 62.5391 -0.430608 0.84456 0
M  V30 635 H 62.2451 -2.10176 2.81991 0
M  V30 636 H 62.1191 -3.39601 1.64168 0
M  V30 637 H 64.5061 -2.83338 0.824855 0
M  V30 638 H 64.5871 -1.54706 2.03715 0
M  V30 639 H 64.2311 -3.28558 3.87314 0
M  V30 640 H 64.1611 -4.5613 2.6316 0
M  V30 641 H 66.6521 -3.05289 2.22727 0
M  V30 642 H 66.9651 -5.85411 5.04493 0
M  V30 643 H 65.3101 -5.2693 4.53178 0
M  V30 644 H 68.5011 -3.7313 2.82651 0
M  V30 645 H 68.6741 -5.00883 4.11121 0
M  V30 646 N 62.0802 -0.821533 -1.34494 0
M  V30 647 C 63.0102 -0.257138 -2.3208 0
M  V30 648 C 63.9912 0.625645 -1.58176 0
M  V30 649 O 65.1762 0.552811 -1.86166 0
M  V30 650 C 62.3062 0.582958 -3.42372 0
M  V30 651 C 61.2602 -0.202571 -4.2752 0
M  V30 652 C 60.5862 0.760179 -5.29269 0
M  V30 653 C 61.8862 -1.40998 -5.02908 0
M  V30 654 H 63.5802 -1.07247 -2.79532 0
M  V30 655 H 61.1262 -0.517163 -1.34393 0
M  V30 656 H 63.0792 0.987972 -4.09655 0
M  V30 657 H 61.8032 1.43133 -2.93565 0
M  V30 658 H 60.4622 -0.588936 -3.61838 0
M  V30 659 H 60.1102 1.60447 -4.76724 0
M  V30 660 H 59.8102 0.238809 -5.87115 0
M  V30 661 H 61.3342 1.16308 -5.9942 0
M  V30 662 H 62.7482 -1.07905 -5.63054 0
M  V30 663 H 61.1452 -1.86689 -5.70322 0
M  V30 664 H 62.2152 -2.1889 -4.32684 0
M  V30 665 N 63.5583 1.46682 -0.576371 0
M  V30 666 C 64.8063 2.02013 -0.0594163 0
M  V30 667 C 65.1273 1.45101 1.30271 0
M  V30 668 O 64.3973 0.633317 1.8538 0
M  V30 669 H 62.9773 0.746759 -0.0189745 0
M  V30 670 H 65.6393 1.79862 -0.750717 0
M  V30 671 H 64.7353 3.12097 0.014345 0
M  V30 672 N 65.0364 0.313813 1.54444 0
M  V30 673 C 66.2844 -0.291099 1.99993 0
M  V30 674 C 66.6054 -1.53418 1.20366 0
M  V30 675 O 65.8754 -1.93544 0.302927 0
M  V30 676 H 64.4554 -0.110552 0.738774 0
M  V30 677 H 67.1174 0.428106 1.9014 0
M  V30 678 H 66.2134 -0.554268 3.07139 0
M  V30 679 N 66.5145 -1.57545 0.0417849 0
M  V30 680 C 67.9255 -1.80011 -0.495259 0
M  V30 681 C 68.2765 -0.953199 -1.71489 0
M  V30 682 O 67.4015 -0.167138 -2.15754 0
M  V30 683 C 67.9965 -3.26482 -0.905265 0
M  V30 684 C 66.5555 -3.499 -1.38734 0
M  V30 685 C 65.7025 -2.74979 -0.358056 0
M  V30 686 H 68.6535 -1.56425 0.267736 0
M  V30 687 H 68.6745 -3.36887 -1.76882 0
M  V30 688 H 68.1865 -3.88096 -0.017401 0
M  V30 689 H 66.2875 -2.93553 -2.29471 0
M  V30 690 H 66.4005 -4.58615 -1.38598 0
M  V30 691 H 64.7645 -2.40834 -0.828912 0
M  V30 692 H 65.5475 -3.39315 0.521561 0
M  V30 693 N 67.9926 0.231505 -1.5589 0
M  V30 694 C 68.9026 1.308 -1.94752 0
M  V30 695 C 69.9186 1.51826 -0.849989 0
M  V30 696 O 71.0946 1.6515 -1.15271 0
M  V30 697 C 68.1596 2.63968 -2.24771 0
M  V30 698 C 67.2206 2.51331 -3.48039 0
M  V30 699 C 66.4536 3.78148 -3.76616 0
M  V30 700 O 66.6766 4.80722 -3.07022 0
M  V30 701 O 65.6106 3.75857 -4.70123 0
M  V30 702 H 69.4366 1.0083 -2.86474 0
M  V30 703 H 67.0216 0.433547 -1.42971 0
M  V30 704 H 68.9036 3.42633 -2.45318 0
M  V30 705 H 67.5786 2.9364 -1.36225 0
M  V30 706 H 66.4856 1.709 -3.32782 0
M  V30 707 H 67.8186 2.26601 -4.36936 0
M  V30 708 N 69.4707 1.49531 0.497807 0
M  V30 709 C 70.8817 1.52344 1.07927 0
M  V30 710 C 71.2327 0.311469 1.93712 0
M  V30 711 O 70.3577 -0.578405 2.08527 0
M  V30 712 C 70.9527 2.76062 1.96405 0
M  V30 713 C 69.5117 2.81643 2.49709 0
M  V30 714 C 68.6587 2.46299 1.27404 0
M  V30 715 H 71.6097 1.56182 0.281576 0
M  V30 716 H 71.6307 2.56405 2.81135 0
M  V30 717 H 71.1427 3.64254 1.33943 0
M  V30 718 H 69.2437 1.97739 3.15801 0
M  V30 719 H 69.3567 3.83891 2.86643 0
M  V30 720 H 67.7207 1.98148 1.60029 0
M  V30 721 H 68.5037 3.36769 0.66645 0
M  V30 722 N 70.9488 -0.749086 1.3866 0
M  V30 723 C 72.1948 -1.50959 1.36319 0
M  V30 724 C 72.5498 -1.92347 -0.0452451 0
M  V30 725 O 71.8428 -1.6289 -1.00884 0
M  V30 726 C 72.0368 -2.7712 2.25697 0
M  V30 727 C 71.8658 -2.48067 3.7509 0
M  V30 728 C 70.6358 -2.41062 4.44091 0
M  V30 729 C 72.8338 -2.14544 4.67414 0
M  V30 730 N 70.8158 -2.04331 5.78897 0
M  V30 731 C 72.1868 -1.88141 5.90765 0
M  V30 732 C 74.2418 -2.00892 4.55573 0
M  V30 733 C 72.9448 -1.49463 7.036 0
M  V30 734 C 74.9708 -1.63616 5.68317 0
M  V30 735 C 74.3328 -1.38088 6.90732 0
M  V30 736 H 70.4318 -0.551804 0.554108 0
M  V30 737 H 73.0158 -0.871886 1.74087 0
M  V30 738 H 71.1868 -3.38693 1.9011 0
M  V30 739 H 72.9188 -3.4321 2.1445 0
M  V30 740 H 69.6738 -2.57685 3.9736 0
M  V30 741 H 70.0978 -1.88598 6.502 0
M  V30 742 H 74.7398 -2.19301 3.61479 0
M  V30 743 H 72.4578 -1.29794 7.97608 0
M  V30 744 H 76.0438 -1.53678 5.61137 0
M  V30 745 H 74.9238 -1.09674 7.76493 0
M  V30 746 N 72.4269 -1.23603 -0.977757 0
M  V30 747 C 73.3739 -1.01954 -2.07061 0
M  V30 748 C 74.3439 0.0638697 -1.65977 0
M  V30 749 O 75.5289 -0.0887624 -1.90593 0
M  V30 750 C 72.6689 -0.619658 -3.39491 0
M  V30 751 C 71.7819 -1.77547 -3.93829 0
M  V30 752 C 70.9169 -1.32212 -5.14484 0
M  V30 753 C 69.9559 -2.44852 -5.60994 0
M  V30 754 N 69.0929 -2.00456 -6.72876 0
M  V30 755 H 73.9329 -1.95495 -2.24913 0
M  V30 756 H 71.4699 -0.973861 -1.10247 0
M  V30 757 H 73.4279 -0.368898 -4.15566 0
M  V30 758 H 72.0579 0.278752 -3.21594 0
M  V30 759 H 71.1099 -2.14016 -3.14486 0
M  V30 760 H 72.4219 -2.62219 -4.24314 0
M  V30 761 H 71.5759 -1.02965 -5.97899 0
M  V30 762 H 70.3149 -0.445808 -4.85658 0
M  V30 763 H 69.3199 -2.74871 -4.76157 0
M  V30 764 H 70.5449 -3.33024 -5.91837 0
M  V30 765 H 68.4909 -1.15208 -6.45804 0
M  V30 766 H 68.4079 -2.78687 -7.02759 0
M  V30 767 H 69.6759 -1.7432 -7.59758 0
M  V30 768 N 73.905 1.17692 -1.04816 0
M  V30 769 C 75.153 1.87488 -0.754497 0
M  V30 770 C 75.474 1.81205 0.720407 0
M  V30 771 O 74.744 1.23544 1.52032 0
M  V30 772 H 73.324 0.694101 -0.276102 0
M  V30 773 H 75.986 1.42793 -1.32651 0
M  V30 774 H 75.082 2.93328 -1.06606 0
M  V30 775 N 75.3831 0.828654 1.34056 0
M  V30 776 C 76.7941 0.477534 1.8049 0
M  V30 777 C 77.1451 -1.00258 1.6865 0
M  V30 778 O 76.2701 -1.78057 1.22982 0
M  V30 779 C 76.8651 0.860018 3.27703 0
M  V30 780 C 75.4241 0.561185 3.72193 0
M  V30 781 C 74.5711 1.07385 2.55663 0
M  V30 782 H 77.5221 1.0183 1.21722 0
M  V30 783 H 77.5431 0.166038 3.80138 0
M  V30 784 H 77.0551 1.93731 3.36288 0
M  V30 785 H 75.1561 -0.506465 3.69142 0
M  V30 786 H 75.2691 1.10926 4.66082 0
M  V30 787 H 73.6331 0.495149 2.49841 0
M  V30 788 H 74.4161 2.15771 2.67016 0
M  V30 789 N 76.8612 -1.46375 0.584142 0
M  V30 790 C 78.2722 -1.86031 0.157959 0
M  V30 791 C 78.6232 -1.48753 -1.27933 0
M  V30 792 O 77.7482 -0.903098 -1.96655 0
M  V30 793 C 78.3432 -3.37642 0.279892 0
M  V30 794 C 76.9022 -3.76289 -0.09143 0
M  V30 795 C 76.0492 -2.7039 0.615178 0
M  V30 796 H 79.0002 -1.37509 0.792274 0
M  V30 797 H 79.0212 -3.77275 -0.494364 0
M  V30 798 H 78.5332 -3.64742 1.32607 0
M  V30 799 H 76.6342 -3.54806 -1.13769 0
M  V30 800 H 76.7472 -4.78246 0.285886 0
M  V30 801 H 75.1112 -2.5464 0.0552833 0
M  V30 802 H 75.8942 -3.0033 1.66303 0
M  V30 803 N 78.3393 -0.321999 -1.54275 0
M  V30 804 C 79.5643 0.285791 -2.05422 0
M  V30 805 C 79.9893 1.45124 -1.19669 0
M  V30 806 O 79.3473 1.80132 -0.205441 0
M  V30 807 C 79.3953 0.69956 -3.53749 0
M  V30 808 O 78.4993 1.8021 -3.70942 0
M  V30 809 H 77.8403 0.0518962 -0.661969 0
M  V30 810 H 80.3703 -0.469954 -1.9913 0
M  V30 811 H 80.3803 0.982649 -3.9599 0
M  V30 812 H 79.0553 -0.152864 -4.15619 0
M  V30 813 H 77.6323 1.51794 -3.40607 0
M  V30 814 N 79.8174 1.5752 -0.0501392 0
M  V30 815 C 81.0424 1.97376 0.636997 0
M  V30 816 C 81.4674 0.927466 1.63645 0
M  V30 817 O 80.8254 -0.10941 1.8097 0
M  V30 818 C 80.8734 3.36304 1.30123 0
M  V30 819 O 79.9774 3.34156 2.41689 0
M  V30 820 H 79.3184 0.642998 0.165679 0
M  V30 821 H 81.8484 2.04258 -0.118233 0
M  V30 822 H 81.8584 3.73008 1.65315 0
M  V30 823 H 80.5334 4.11993 0.568746 0
M  V30 824 H 79.1104 3.09196 2.08451 0
M  V30 825 N 81.2955 -0.223234 1.56011 0
M  V30 826 C 82.7115 -0.572856 1.48965 0
M  V30 827 C 82.9115 -1.87225 0.74492 0
M  V30 828 O 81.9675 -2.50899 0.283896 0
M  V30 829 C 83.2805 -0.653646 2.9351 0
M  V30 830 C 84.8285 -0.744386 3.0402 0
M  V30 831 C 85.3035 -0.856535 4.49919 0
M  V30 832 N 86.7945 -0.9208 4.53955 0
M  V30 833 C 87.5295 -1.02726 5.64123 0
M  V30 834 N 87.0255 -1.09777 6.84047 0
M  V30 835 N 88.8185 -1.06226 5.51971 0
M  V30 836 H 80.9695 0.629462 2.02858 0
M  V30 837 H 83.2325 0.220621 0.921971 0
M  V30 838 H 82.9385 0.231518 3.50937 0
M  V30 839 H 82.8125 -1.51781 3.45315 0
M  V30 840 H 85.1995 -1.61999 2.46658 0
M  V30 841 H 85.2805 0.14541 2.55386 0
M  V30 842 H 84.9245 0.0146069 5.07898 0
M  V30 843 H 84.8545 -1.76172 4.96257 0
M  V30 844 H 87.3455 -0.876694 3.6759 0
M  V30 845 H 87.6585 -1.17872 7.63758 0
M  V30 846 H 86.0035 -1.06693 6.86762 0
M  V30 847 H 89.1945 -1.00382 4.5721 0
M  V30 848 H 89.3675 -1.14177 6.37862 0
M  V30 849 N 82.7736 -1.49793 -0.48987 0
M  V30 850 C 83.7366 -1.66752 -1.57246 0
M  V30 851 C 84.7366 -0.538867 -1.51502 0
M  V30 852 O 85.9266 -0.805545 -1.54456 0
M  V30 853 C 83.0586 -1.67528 -2.96896 0
M  V30 854 H 84.2516 -2.63321 -1.43534 0
M  V30 855 H 81.8046 -1.38992 -0.714914 0
M  V30 856 H 82.5396 -0.725837 -3.16073 0
M  V30 857 H 82.3246 -2.49504 -3.02473 0
M  V30 858 H 83.8146 -1.82667 -3.7553 0
M  V30 859 N 84.2517 0.741722 -1.39055 0
M  V30 860 C 85.2147 1.83733 -1.37021 0
M  V30 861 C 86.2147 1.58542 -0.268534 0
M  V30 862 O 87.4047 1.66067 -0.526076 0
M  V30 863 C 84.5367 3.2141 -1.13617 0
M  V30 864 H 85.7297 1.86941 -2.34506 0
M  V30 865 H 83.2827 0.944676 -1.24521 0
M  V30 866 H 84.0177 3.23865 -0.167863 0
M  V30 867 H 83.8027 3.4109 -1.93391 0
M  V30 868 H 85.2927 4.01477 -1.14918 0
M  V30 869 N 85.7298 1.2412 0.971189 0
M  V30 870 C 87.1408 1.07236 1.52831 0
M  V30 871 C 87.4918 -0.357352 1.92918 0
M  V30 872 O 86.6168 -1.24528 1.76979 0
M  V30 873 C 87.2118 1.94043 2.77728 0
M  V30 874 C 85.7708 1.81394 3.29808 0
M  V30 875 C 84.9178 1.89189 2.02738 0
M  V30 876 H 87.8688 1.37648 0.789864 0
M  V30 877 H 87.8898 1.47066 3.5093 0
M  V30 878 H 87.4018 2.98093 2.4852 0
M  V30 879 H 85.5028 0.801634 3.63874 0
M  V30 880 H 85.6158 2.65294 3.98944 0
M  V30 881 H 83.9798 1.32877 2.17292 0
M  V30 882 H 84.7628 2.94812 1.759 0
M  V30 883 N 87.2079 -1.17134 1.05439 0
M  V30 884 C 88.1179 -2.24878 0.668365 0
M  V30 885 C 89.1339 -1.71186 -0.311687 0
M  V30 886 O 90.3099 -2.00738 -0.163161 0
M  V30 887 C 87.3749 -3.46662 0.051648 0
M  V30 888 C 86.4359 -4.15429 1.08246 0
M  V30 889 C 85.6689 -5.31399 0.495082 0
M  V30 890 O 85.8919 -5.66153 -0.694743 0
M  V30 891 O 84.8259 -5.89187 1.23056 0
M  V30 892 H 88.6519 -2.60189 1.56637 0
M  V30 893 H 86.2369 -1.24482 0.826104 0
M  V30 894 H 88.1189 -4.20394 -0.290966 0
M  V30 895 H 86.7939 -3.13142 -0.819971 0
M  V30 896 H 85.7009 -3.43704 1.47711 0
M  V30 897 H 87.0339 -4.52982 1.92532 0
M  V30 898 N 88.686 -0.835752 -1.33615 0
M  V30 899 C 89.616 -0.281739 -2.31794 0
M  V30 900 C 90.597 0.608833 -1.58831 0
M  V30 901 O 91.782 0.533035 -1.86741 0
M  V30 902 C 88.912 0.546612 -3.42971 0
M  V30 903 C 87.866 -0.247904 -4.27281 0
M  V30 904 C 87.192 0.704001 -5.30045 0
M  V30 905 C 88.492 -1.46324 -5.01385 0
M  V30 906 H 90.186 -1.10206 -2.78379 0
M  V30 907 H 87.732 -0.531388 -1.33837 0
M  V30 908 H 89.685 0.944467 -4.1068 0
M  V30 909 H 88.409 1.40011 -2.95067 0
M  V30 910 H 87.068 -0.627281 -3.61194 0
M  V30 911 H 86.716 1.55381 -4.78399 0
M  V30 912 H 86.416 0.176524 -5.87335 0
M  V30 913 H 87.94 1.09944 -6.0062 0
M  V30 914 H 89.354 -1.13871 -5.61877 0
M  V30 915 H 87.751 -1.92728 -5.6831 0
M  V30 916 H 88.821 -2.23467 -4.30338 0
M  V30 917 N 90.1641 1.46063 -0.591896 0
M  V30 918 C 91.0941 2.33172 0.123673 0
M  V30 919 C 92.0751 1.45897 0.87453 0
M  V30 920 O 93.2601 1.74698 0.848181 0
M  V30 921 C 90.3901 3.28336 1.13194 0
M  V30 922 C 89.3441 4.25124 0.495324 0
M  V30 923 C 88.6701 5.09863 1.61071 0
M  V30 924 C 89.9701 5.19143 -0.573425 0
M  V30 925 H 91.6641 2.93252 -0.603646 0
M  V30 926 H 89.2101 1.41014 -0.291741 0
M  V30 927 H 91.1631 3.88137 1.64097 0
M  V30 928 H 89.8871 2.66383 1.88965 0
M  V30 929 H 88.5461 3.66599 0.00729452 0
M  V30 930 H 88.1941 4.44288 2.35832 0
M  V30 931 H 87.8941 5.75417 1.19035 0
M  V30 932 H 89.4181 5.72529 2.12233 0
M  V30 933 H 90.8321 5.73106 -0.1491 0
M  V30 934 H 89.2291 5.93089 -0.914636 0
M  V30 935 H 90.2991 4.62519 -1.45617 0
M  V30 936 N 91.6422 0.330177 1.54103 0
M  V30 937 C 92.5522 -0.541534 2.28264 0
M  V30 938 C 93.5682 -1.12351 1.32866 0
M  V30 939 O 94.7442 -1.14206 1.65888 0
M  V30 940 C 91.8092 -1.68322 3.03098 0
M  V30 941 C 90.8702 -1.13238 4.14096 0
M  V30 942 C 90.1032 -2.21966 4.85352 0
M  V30 943 O 90.3262 -3.42437 4.56172 0
M  V30 944 O 89.2602 -1.87013 5.7211 0
M  V30 945 H 93.0862 0.060938 3.03639 0
M  V30 946 H 90.6712 0.09565 1.49093 0
M  V30 947 H 92.5532 -2.34777 3.49939 0
M  V30 948 H 91.2282 -2.27176 2.30593 0
M  V30 949 H 90.1352 -0.432736 3.71589 0
M  V30 950 H 91.4682 -0.588898 4.88664 0
M  V30 951 N 93.1203 -1.57491 0.0584922 0
M  V30 952 C 94.3503 -1.9701 -0.622134 0
M  V30 953 C 94.7583 -0.935034 -1.6448 0
M  V30 954 O 94.1013 0.0882904 -1.83488 0
M  V30 955 C 94.1633 -3.32794 -1.35972 0
M  V30 956 C 93.8273 -4.54343 -0.492043 0
M  V30 957 C 94.8243 -5.19323 0.244901 0
M  V30 958 C 92.5093 -5.00534 -0.420821 0
M  V30 959 C 94.5033 -6.28835 1.04143 0
M  V30 960 C 92.1903 -6.09921 0.379389 0
M  V30 961 C 93.1883 -6.73933 1.10919 0
M  V30 962 O 92.8763 -7.81216 1.89623 0
M  V30 963 H 92.6083 -0.653127 -0.174359 0
M  V30 964 H 95.1623 -2.05029 0.123418 0
M  V30 965 H 93.3923 -3.21351 -2.15105 0
M  V30 966 H 95.0813 -3.5701 -1.93129 0
M  V30 967 H 95.8473 -4.8459 0.19939 0
M  V30 968 H 91.7263 -4.50496 -0.978474 0
M  V30 969 H 95.2703 -6.7873 1.61157 0
M  V30 970 H 91.1673 -6.44089 0.426512 0
M  V30 971 H 91.9353 -7.98029 1.81913 0
M  V30 972 N 94.5984 0.214957 -1.56127 0
M  V30 973 C 95.8464 0.936518 -1.79091 0
M  V30 974 C 96.1674 1.84606 -0.628148 0
M  V30 975 O 95.4374 1.92664 0.35462 0
M  V30 976 H 94.0174 0.3488 -0.660566 0
M  V30 977 H 96.6794 0.22523 -1.93594 0
M  V30 978 H 95.7754 1.53943 -2.71492 0
M  V30 979 N 96.0765 1.50051 0.48192 0
M  V30 980 C 97.4925 1.37237 0.814756 0
M  V30 981 C 97.6925 0.420109 1.97072 0
M  V30 982 O 96.7485 -0.141246 2.52105 0
M  V30 983 C 98.0615 2.78375 1.13701 0
M  V30 984 C 99.6095 2.87213 1.2441 0
M  V30 985 C 100.084 4.29161 1.59954 0
M  V30 986 N 101.575 4.32061 1.66967 0
M  V30 987 C 102.31 5.38879 1.95952 0
M  V30 988 N 101.806 6.55918 2.23031 0
M  V30 989 N 103.599 5.26312 1.97363 0
M  V30 990 H 95.7505 2.10546 -0.28005 0
M  V30 991 H 98.0135 0.945921 -0.0627454 0
M  V30 992 H 97.7195 3.49845 0.360787 0
M  V30 993 H 97.5935 3.14941 2.07586 0
M  V30 994 H 99.9805 2.15969 2.01101 0
M  V30 995 H 100.061 2.54204 0.285299 0
M  V30 996 H 99.7055 5.00938 0.838067 0
M  V30 997 H 99.6355 4.59648 2.56966 0
M  V30 998 H 102.126 3.47661 1.48123 0
M  V30 999 H 102.439 7.33139 2.44391 0
M  V30 1000 H 100.784 6.59112 2.20447 0
M  V30 1001 H 103.975 4.33876 1.75697 0
M  V30 1002 H 104.148 6.09649 2.19618 0
M  V30 1003 N 97.5546 -0.734337 1.39446 0
M  V30 1004 C 98.7796 -1.52866 1.40167 0
M  V30 1005 C 99.2046 -1.881 -0.00171513 0
M  V30 1006 O 98.5626 -1.51957 -0.988879 0
M  V30 1007 C 98.6106 -2.79235 2.28167 0
M  V30 1008 O 97.7146 -3.75185 1.71201 0
M  V30 1009 H 97.0556 -0.461618 0.477289 0
M  V30 1010 H 99.5856 -0.905949 1.8345 0
M  V30 1011 H 99.5956 -3.27963 2.42702 0
M  V30 1012 H 98.2706 -2.52923 3.30156 0
M  V30 1013 H 96.8476 -3.33958 1.65912 0
M  V30 1014 N 99.0327 -1.24633 -0.964593 0
M  V30 1015 C 100.449 -1.01239 -1.2338 0
M  V30 1016 C 100.649 0.2769 -1.99588 0
M  V30 1017 O 99.7047 0.992241 -2.32187 0
M  V30 1018 C 101.018 -2.22937 -2.01791 0
M  V30 1019 C 102.566 -2.27594 -2.14872 0
M  V30 1020 C 103.041 -3.48921 -2.96678 0
M  V30 1021 N 104.532 -3.49257 -3.04259 0
M  V30 1022 C 105.267 -4.39795 -3.67924 0
M  V30 1023 N 104.763 -5.40591 -4.33281 0
M  V30 1024 N 106.556 -4.275 -3.64966 0
M  V30 1025 H 98.7067 -2.0748 -0.454502 0
M  V30 1026 H 100.97 -0.910647 -0.26349 0
M  V30 1027 H 100.676 -3.16587 -1.53184 0
M  V30 1028 H 100.55 -2.25306 -3.02518 0
M  V30 1029 H 102.937 -1.34473 -2.6268 0
M  V30 1030 H 103.018 -2.2925 -1.13482 0
M  V30 1031 H 102.662 -4.42359 -2.49562 0
M  V30 1032 H 102.592 -3.4451 -3.98272 0
M  V30 1033 H 105.083 -2.76337 -2.57771 0
M  V30 1034 H 105.396 -6.05904 -4.79687 0
M  V30 1035 H 103.741 -5.44475 -4.3194 0
M  V30 1036 H 106.932 -3.47987 -3.13086 0
M  V30 1037 H 107.105 -4.98258 -4.14298 0
M  V30 1038 N 100.511 1.16574 -1.06058 0
M  V30 1039 C 101.751 1.88723 -0.78504 0
M  V30 1040 C 102.115 1.79706 0.676006 0
M  V30 1041 O 103.316 2.46757 1.06603 0
M  V30 1042 C 101.587 3.34338 -1.26304 0
M  V30 1043 S 103.146 4.24366 -1.1162 0
M  V30 1044 H 99.9638 0.651448 -0.284846 0
M  V30 1045 H 102.566 1.40732 -1.35701 0
M  V30 1046 H 101.27 3.38439 -2.32136 0
M  V30 1047 H 100.801 3.87378 -0.685719 0
M  V30 1048 H 102.816 4.96179 -0.0456539 0
M  V30 1049 N 101.989 0.842826 1.3317 0
M  V30 1050 C 102.952 0.284065 2.27433 0
M  V30 1051 C 103.952 -0.54948 1.5112 0
M  V30 1052 O 105.142 -0.362699 1.70382 0
M  V30 1053 C 102.274 -0.599384 3.35589 0
M  V30 1054 H 103.467 1.11589 2.78366 0
M  V30 1055 H 101.02 0.616221 1.4364 0
M  V30 1056 H 101.755 -1.45349 2.89904 0
M  V30 1057 H 101.54 -0.00291266 3.921 0
M  V30 1058 H 103.03 -0.983488 4.05854 0
M  V30 1059 N 103.467 -1.45747 0.599634 0
M  V30 1060 C 104.883 -1.57424 0.26264 0
M  V30 1061 C 105.083 -1.59222 -1.23493 0
M  V30 1062 O 104.139 -1.51825 -2.01756 0
M  V30 1063 C 105.452 -2.86061 0.926795 0
M  V30 1064 C 107 -2.99722 0.901967 0
M  V30 1065 C 107.475 -4.31119 1.54598 0
M  V30 1066 N 108.966 -4.37858 1.5111 0
M  V30 1067 C 109.701 -5.3818 1.97863 0
M  V30 1068 N 109.197 -6.45083 2.52666 0
M  V30 1069 N 110.99 -5.29487 1.88679 0
M  V30 1070 H 103.141 -1.42823 1.57211 0
M  V30 1071 H 105.404 -0.68235 0.658105 0
M  V30 1072 H 105.11 -2.90605 1.98095 0
M  V30 1073 H 104.984 -3.74563 0.445238 0
M  V30 1074 H 107.371 -2.9475 -0.143617 0
M  V30 1075 H 107.452 -2.12652 1.42171 0
M  V30 1076 H 107.096 -4.36849 2.59085 0
M  V30 1077 H 107.026 -5.16992 1.00132 0
M  V30 1078 H 109.517 -3.61209 1.11068 0
M  V30 1079 H 109.83 -7.17869 2.86155 0
M  V30 1080 H 108.175 -6.45856 2.56701 0
M  V30 1081 H 111.366 -4.44877 1.4561 0
M  V30 1082 H 111.539 -6.07524 2.25429 0
M  V30 1083 N 104.945 -0.338344 -1.53925 0
M  V30 1084 C 106.185 0.260168 -2.02737 0
M  V30 1085 C 106.549 1.48181 -1.22092 0
M  V30 1086 O 107.75 2.15416 -1.60777 0
M  V30 1087 C 106.021 0.571627 -3.52799 0
M  V30 1088 S 107.58 1.14769 -4.23525 0
M  V30 1089 H 104.398 0.077791 -0.706732 0
M  V30 1090 H 107 -0.474899 -1.89644 0
M  V30 1091 H 105.704 -0.325392 -4.09108 0
M  V30 1092 H 105.235 1.3365 -3.70002 0
M  V30 1093 H 107.25 2.43372 -4.32417 0
M  V30 1094 N 106.423 1.57458 -0.0668435 0
M  V30 1095 C 107.839 1.56947 0.289772 0
M  V30 1096 C 108.039 1.07584 1.70376 0
M  V30 1097 O 107.095 0.739486 2.41429 0
M  V30 1098 C 108.408 3.0052 0.103943 0
M  V30 1099 C 109.956 3.12517 0.173857 0
M  V30 1100 C 110.431 4.57997 0.0163682 0
M  V30 1101 N 111.922 4.63144 0.0721352 0
M  V30 1102 C 112.657 5.73394 -0.0253794 0
M  V30 1103 N 112.153 6.92576 -0.176133 0
M  V30 1104 N 113.946 5.62091 0.0313305 0
M  V30 1105 H 106.097 1.87863 -0.991027 0
M  V30 1106 H 108.36 0.86583 -0.38606 0
M  V30 1107 H 108.066 3.40729 -0.871572 0
M  V30 1108 H 107.94 3.67304 0.858366 0
M  V30 1109 H 110.327 2.72197 1.13985 0
M  V30 1110 H 110.408 2.48381 -0.611586 0
M  V30 1111 H 110.052 4.99005 -0.946374 0
M  V30 1112 H 109.982 5.20158 0.821153 0
M  V30 1113 H 112.473 3.77436 0.187263 0
M  V30 1114 H 112.786 7.72418 -0.242821 0
M  V30 1115 H 111.131 6.94678 -0.211429 0
M  V30 1116 H 114.322 4.67867 0.147773 0
M  V30 1117 H 114.495 6.47982 -0.048121 0
M  V30 1118 N 107.901 -0.206675 1.56239 0
M  V30 1119 C 109.147 -0.930218 1.80208 0
M  V30 1120 C 109.48 -1.83387 0.638981 0
M  V30 1121 O 108.755 -1.91119 -0.361066 0
M  V30 1122 C 109.038 -1.75641 3.1436 0
M  V30 1123 C 108.891 -0.878257 4.41142 0
M  V30 1124 C 110.21 -2.73129 3.45092 0
M  V30 1125 H 107.329 -0.336742 0.655571 0
M  V30 1126 H 109.971 -0.198222 1.88963 0
M  V30 1127 H 108.121 -2.38048 3.07027 0
M  V30 1128 H 109.793 -0.269787 4.6051 0
M  V30 1129 H 108.036 -0.184385 4.33408 0
M  V30 1130 H 108.707 -1.49106 5.3148 0
M  V30 1131 H 111.183 -2.20856 3.52649 0
M  V30 1132 H 110.059 -3.28028 4.40101 0
M  V30 1133 H 110.32 -3.51606 2.68003 0
M  V30 1134 N 109.379 -1.50304 -0.473955 0
M  V30 1135 C 110.619 -1.62786 -1.23612 0
M  V30 1136 C 110.983 -0.319786 -1.89318 0
M  V30 1137 O 112.184 -0.320012 -2.66888 0
M  V30 1138 C 110.455 -2.77351 -2.25414 0
M  V30 1139 S 112.014 -3.09948 -3.10608 0
M  V30 1140 H 108.832 -0.573895 -0.419721 0
M  V30 1141 H 111.434 -1.88076 -0.533623 0
M  V30 1142 H 110.138 -3.70879 -1.75719 0
M  V30 1143 H 109.669 -2.54137 -3.00296 0
M  V30 1144 H 111.684 -2.53553 -4.26527 0
M  V30 1145 N 110.857 0.726932 -1.39834 0
M  V30 1146 C 112.082 1.52121 -1.40976 0
M  V30 1147 C 112.507 1.88098 -0.00826029 0
M  V30 1148 O 111.865 1.52479 0.980807 0
M  V30 1149 C 111.913 2.78021 -2.29644 0
M  V30 1150 O 111.017 3.74272 -1.73188 0
M  V30 1151 H 110.358 0.45908 -0.479731 0
M  V30 1152 H 112.888 0.896207 -1.83927 0
M  V30 1153 H 112.898 3.26671 -2.44438 0
M  V30 1154 H 111.573 2.51169 -3.31492 0
M  V30 1155 H 110.15 3.33073 -1.6768 0
M  V30 1156 N 112.336 1.25143 0.95797 0
M  V30 1157 C 113.582 1.09855 1.70469 0
M  V30 1158 C 113.915 -0.360187 1.90831 0
M  V30 1159 O 113.19 -1.26568 1.47685 0
M  V30 1160 C 113.473 1.8497 3.08963 0
M  V30 1161 C 113.326 3.38652 2.96032 0
M  V30 1162 C 114.645 1.63016 4.08795 0
M  V30 1163 H 111.764 0.400465 0.618706 0
M  V30 1164 H 114.406 1.53933 1.11376 0
M  V30 1165 H 112.556 1.47505 3.59409 0
M  V30 1166 H 114.228 3.85772 2.52938 0
M  V30 1167 H 112.471 3.66534 2.32025 0
M  V30 1168 H 113.142 3.8642 3.94187 0
M  V30 1169 H 115.618 1.95625 3.67247 0
M  V30 1170 H 114.494 2.18015 5.03747 0
M  V30 1171 H 114.755 0.570692 4.38401 0
M  V30 1172 N 113.814 -1.1601 1.06675 0
M  V30 1173 C 115.23 -1.38622 0.790948 0
M  V30 1174 C 115.43 -1.92109 -0.607965 0
M  V30 1175 O 114.486 -2.12239 -1.36787 0
M  V30 1176 C 115.799 -2.36347 1.85905 0
M  V30 1177 C 117.347 -2.50023 1.88301 0
M  V30 1178 C 117.822 -3.51033 2.94176 0
M  V30 1179 N 119.313 -3.58563 2.93235 0
M  V30 1180 C 120.048 -4.36521 3.71803 0
M  V30 1181 N 119.544 -5.17869 4.602 0
M  V30 1182 N 121.337 -4.31541 3.60178 0
M  V30 1183 H 113.488 -0.796294 1.96908 0
M  V30 1184 H 115.751 -0.412597 0.853503 0
M  V30 1185 H 115.457 -2.04147 2.86386 0
M  V30 1186 H 115.331 -3.36042 1.71334 0
M  V30 1187 H 117.718 -2.81524 0.884769 0
M  V30 1188 H 117.799 -1.5035 2.06951 0
M  V30 1189 H 117.443 -3.20268 3.94196 0
M  V30 1190 H 117.373 -4.50445 2.72776 0
M  V30 1191 H 119.864 -3.00496 2.29152 0
M  V30 1192 H 120.177 -5.74578 5.16797 0
M  V30 1193 H 118.522 -5.17199 4.64253 0
M  V30 1194 H 121.713 -3.67051 2.90502 0
M  V30 1195 H 121.886 -4.9205 4.21653 0
M  V30 1196 N 115.292 -0.849877 -1.32721 0
M  V30 1197 C 116.532 -0.457146 -1.99222 0
M  V30 1198 C 116.896 0.968038 -1.6581 0
M  V30 1199 O 118.097 1.46507 -2.25364 0
M  V30 1200 C 116.368 -0.683966 -3.50794 0
M  V30 1201 S 117.927 -0.388095 -4.3708 0
M  V30 1202 H 114.745 -0.171464 -0.690015 0
M  V30 1203 H 117.347 -1.10155 -1.61512 0
M  V30 1204 H 116.051 -1.72038 -3.726 0
M  V30 1205 H 115.582 -0.0258086 -3.93392 0
M  V30 1206 H 117.597 0.787791 -4.89906 0
M  V30 1207 N 116.77 1.45427 -0.607355 0
M  V30 1208 C 117.72 2.27612 0.133038 0
M  V30 1209 C 118.704 1.37307 0.838785 0
M  V30 1210 O 119.896 1.61299 0.728813 0
M  V30 1211 C 117.025 3.24173 1.12991 0
M  V30 1212 C 116.111 4.21965 0.425011 0
M  V30 1213 N 116.502 5.02982 -0.533217 0
M  V30 1214 C 114.8 4.40899 0.672593 0
M  V30 1215 C 115.501 5.73931 -0.947518 0
M  V30 1216 N 114.477 5.42819 -0.291321 0
M  V30 1217 H 118.279 2.87649 -0.602935 0
M  V30 1218 H 115.793 1.56576 -0.431006 0
M  V30 1219 H 117.79 3.81783 1.67473 0
M  V30 1220 H 116.45 2.65696 1.86644 0
M  V30 1221 H 117.461 5.09843 -0.90995 0
M  V30 1222 H 114.138 3.93547 1.39382 0
M  V30 1223 H 115.528 6.49037 -1.73782 0
M  V30 1224 N 118.248 0.346503 1.53744 0
M  V30 1225 C 119.195 -0.508914 2.25119 0
M  V30 1226 C 120.165 -1.09315 1.25058 0
M  V30 1227 O 121.35 -1.12921 1.53797 0
M  V30 1228 C 118.49 -1.65246 3.02965 0
M  V30 1229 C 117.603 -1.09525 4.17886 0
M  V30 1230 C 116.738 -2.20634 4.83212 0
M  V30 1231 C 115.777 -1.62279 5.90196 0
M  V30 1232 N 114.914 -2.67143 6.49291 0
M  V30 1233 H 119.754 0.106283 2.9781 0
M  V30 1234 H 117.291 0.0642227 1.4696 0
M  V30 1235 H 119.249 -2.32574 3.4636 0
M  V30 1236 H 117.879 -2.2386 2.32565 0
M  V30 1237 H 116.931 -0.312818 3.79112 0
M  V30 1238 H 118.243 -0.628444 4.94825 0
M  V30 1239 H 117.397 -2.95821 5.29693 0
M  V30 1240 H 116.136 -2.70659 4.05703 0
M  V30 1241 H 115.141 -0.855989 5.43096 0
M  V30 1242 H 116.366 -1.13102 6.69615 0
M  V30 1243 H 114.312 -3.16417 5.74645 0
M  V30 1244 H 114.229 -2.25093 7.21713 0
M  V30 1245 H 115.497 -3.4209 7.00425 0
M  V30 1246 N 119.726 -1.57421 0.075193 0
M  V30 1247 C 120.973 -1.93618 -0.593146 0
M  V30 1248 C 121.301 -0.955484 -1.69413 0
M  V30 1249 O 120.556 0.0283251 -1.9568 0
M  V30 1250 C 120.855 -3.36428 -1.20626 0
M  V30 1251 C 120.521 -4.50307 -0.231078 0
M  V30 1252 C 119.183 -4.81186 0.0371936 0
M  V30 1253 C 121.535 -5.19374 0.435888 0
M  V30 1254 C 118.863 -5.78466 0.979461 0
M  V30 1255 C 121.215 -6.17665 1.3665 0
M  V30 1256 C 119.879 -6.46958 1.6432 0
M  V30 1257 H 119.149 -0.708499 -0.217047 0
M  V30 1258 H 121.796 -1.90937 0.146793 0
M  V30 1259 H 120.101 -3.35592 -2.02201 0
M  V30 1260 H 121.798 -3.61727 -1.73073 0
M  V30 1261 H 118.388 -4.26227 -0.450357 0
M  V30 1262 H 122.572 -4.95711 0.241748 0
M  V30 1263 H 117.828 -5.99487 1.20106 0
M  V30 1264 H 122.002 -6.70284 1.88924 0
M  V30 1265 H 119.629 -7.2215 2.37494 0
M  V30 1266 N 121.204 0.198386 -1.56346 0
M  V30 1267 C 122.134 1.24865 -1.9731 0
M  V30 1268 C 123.115 1.47651 -0.844576 0
M  V30 1269 O 124.3 1.59444 -1.10866 0
M  V30 1270 C 121.43 2.59358 -2.30977 0
M  V30 1271 C 120.384 2.5119 -3.46537 0
M  V30 1272 C 119.71 3.89926 -3.65871 0
M  V30 1273 C 121.01 2.03977 -4.80823 0
M  V30 1274 H 122.704 0.908252 -2.85291 0
M  V30 1275 H 120.25 0.435462 -1.37258 0
M  V30 1276 H 122.203 3.33011 -2.58228 0
M  V30 1277 H 120.927 2.95132 -1.39874 0
M  V30 1278 H 119.586 1.79993 -3.19371 0
M  V30 1279 H 119.234 4.23046 -2.72105 0
M  V30 1280 H 118.934 3.85336 -4.4361 0
M  V30 1281 H 120.458 4.65205 -3.95495 0
M  V30 1282 H 121.872 2.67386 -5.07127 0
M  V30 1283 H 120.269 2.10397 -5.62008 0
M  V30 1284 H 121.339 0.992861 -4.74626 0
M  V30 1285 N 122.682 1.50554 0.465978 0
M  V30 1286 C 123.928 1.62038 1.21949 0
M  V30 1287 C 124.261 0.322116 1.9151 0
M  V30 1288 O 123.536 -0.676723 1.82348 0
M  V30 1289 C 123.819 2.80421 2.25912 0
M  V30 1290 C 123.672 4.20144 1.60622 0
M  V30 1291 C 124.991 2.94354 3.27176 0
M  V30 1292 H 122.11 0.589752 0.441998 0
M  V30 1293 H 124.752 1.82956 0.51257 0
M  V30 1294 H 122.902 2.62717 2.86203 0
M  V30 1295 H 124.574 4.49449 1.03889 0
M  V30 1296 H 122.817 4.24165 0.909211 0
M  V30 1297 H 123.488 4.98914 2.36196 0
M  V30 1298 H 125.964 3.10578 2.76913 0
M  V30 1299 H 124.84 3.788 3.97242 0
M  V30 1300 H 125.101 2.05186 3.916 0
M  V30 1301 N 124.16 -0.719506 1.40217 0
M  V30 1302 C 125.385 -1.51371 1.4178 0
M  V30 1303 C 125.81 -1.88091 0.0182355 0
M  V30 1304 O 125.168 -1.52997 -0.972707 0
M  V30 1305 C 125.216 -2.768 2.31115 0
M  V30 1306 O 124.32 -3.73349 1.7517 0
M  V30 1307 H 123.661 -0.456529 0.482159 0
M  V30 1308 H 126.191 -0.88644 1.844 0
M  V30 1309 H 126.201 -3.25371 2.46167 0
M  V30 1310 H 124.876 -2.49407 3.3282 0
M  V30 1311 H 123.453 -3.32179 1.69444 0
M  V30 1312 N 125.638 -1.25649 -0.95132 0
M  V30 1313 C 127.054 -1.02542 -1.223 0
M  V30 1314 C 127.254 0.255715 -1.99871 0
M  V30 1315 O 126.31 0.967558 -2.33226 0
M  V30 1316 C 127.623 -2.25065 -1.99415 0
M  V30 1317 C 129.171 -2.29861 -2.12446 0
M  V30 1318 C 129.646 -3.52048 -2.92961 0
M  V30 1319 N 131.137 -3.52465 -3.00538 0
M  V30 1320 C 131.872 -4.43672 -3.63239 0
M  V30 1321 N 131.368 -5.45157 -4.27523 0
M  V30 1322 N 133.161 -4.31346 -3.60412 0
M  V30 1323 H 125.312 -2.07951 -0.432471 0
M  V30 1324 H 127.575 -0.91339 -0.253816 0
M  V30 1325 H 127.281 -3.18194 -1.49817 0
M  V30 1326 H 127.155 -2.28502 -3.00111 0
M  V30 1327 H 129.542 -1.37252 -2.61239 0
M  V30 1328 H 129.623 -2.3044 -1.11044 0
M  V30 1329 H 129.267 -4.44981 -2.44856 0
M  V30 1330 H 129.197 -3.48715 -3.94596 0
M  V30 1331 H 131.688 -2.79056 -2.54826 0
M  V30 1332 H 132.001 -6.10958 -4.73234 0
M  V30 1333 H 130.346 -5.49025 -4.26141 0
M  V30 1334 H 133.537 -3.51288 -3.09377 0
M  V30 1335 H 133.71 -5.02624 -4.0899 0
M  V30 1336 N 127.117 1.15442 -1.07289 0
M  V30 1337 C 128.363 1.86489 -0.796846 0
M  V30 1338 C 128.696 1.82078 0.675371 0
M  V30 1339 O 127.971 1.24346 1.4956 0
M  V30 1340 C 128.254 3.35626 -1.30489 0
M  V30 1341 C 128.107 3.48673 -2.84161 0
M  V30 1342 C 129.426 4.30357 -0.920907 0
M  V30 1343 H 126.545 0.677144 -0.290939 0
M  V30 1344 H 129.187 1.35633 -1.33056 0
M  V30 1345 H 127.337 3.79068 -0.850883 0
M  V30 1346 H 129.009 3.14099 -3.37846 0
M  V30 1347 H 127.252 2.90253 -3.22391 0
M  V30 1348 H 127.923 4.53453 -3.14777 0
M  V30 1349 H 130.399 3.94871 -1.3121 0
M  V30 1350 H 129.275 5.33193 -1.30372 0
M  V30 1351 H 129.536 4.4176 0.173226 0
M  V30 1352 N 128.595 0.856903 1.32268 0
M  V30 1353 C 129.843 0.460474 1.96784 0
M  V30 1354 C 130.164 -0.987701 1.68135 0
M  V30 1355 O 129.434 -1.69058 0.989765 0
M  V30 1356 H 128.014 0.167289 0.728027 0
M  V30 1357 H 130.676 1.09383 1.61312 0
M  V30 1358 H 129.772 0.60739 3.06133 0
M  V30 1359 N 130.073 -1.45103 0.615059 0
M  V30 1360 C 130.983 -2.34382 -0.101034 0
M  V30 1361 C 131.999 -1.51681 -0.852585 0
M  V30 1362 O 133.175 -1.8446 -0.808484 0
M  V30 1363 C 130.24 -3.29417 -1.08099 0
M  V30 1364 C 129.301 -4.28025 -0.330577 0
M  V30 1365 C 128.534 -5.1852 -1.26385 0
M  V30 1366 O 128.757 -5.12598 -2.50198 0
M  V30 1367 O 127.691 -5.97122 -0.756866 0
M  V30 1368 H 131.517 -2.97033 0.632855 0
M  V30 1369 H 129.102 -1.4461 0.375293 0
M  V30 1370 H 130.984 -3.87958 -1.6452 0
M  V30 1371 H 129.659 -2.69321 -1.79577 0
M  V30 1372 H 128.566 -3.73078 0.276283 0
M  V30 1373 H 129.899 -4.90997 0.343866 0
M  V30 1374 N 131.551 -0.354651 -1.53558 0
M  V30 1375 C 132.828 0.294281 -1.93374 0
M  V30 1376 C 133.208 1.67313 -1.28723 0
M  V30 1377 O 132.556 2.24179 -0.442247 0
M  V30 1378 C 132.766 0.355445 -3.47185 0
M  V30 1379 C 134.114 0.601007 -4.20325 0
M  V30 1380 O 135.138 0.437106 -3.53508 0
M  V30 1381 O 133.997 0.919322 -5.38712 0
M  V30 1382 H 131.091 0.174033 -0.808481 0
M  V30 1383 H 133.637 -0.406638 -1.64756 0
M  V30 1384 H 132.409 -0.611729 -3.86489 0
M  V30 1385 H 132.032 1.1027 -3.82003 0
M  V30 1386 N 133.029 1.57378 -0.0835403 0
M  V30 1387 C 134.275 1.95025 0.577664 0
M  V30 1388 C 134.63 0.964049 1.66505 0
M  V30 1389 O 133.923 -0.0118235 1.91596 0
M  V30 1390 C 134.117 3.37063 1.1884 0
M  V30 1391 C 133.946 4.49409 0.16171 0
M  V30 1392 C 132.716 5.04642 -0.257756 0
M  V30 1393 C 134.914 5.10722 -0.605634 0
M  V30 1394 N 132.896 6.00537 -1.27393 0
M  V30 1395 C 134.267 6.02225 -1.47395 0
M  V30 1396 C 136.322 4.93501 -0.660418 0
M  V30 1397 C 135.025 6.78355 -2.39221 0
M  V30 1398 C 137.051 5.70283 -1.56623 0
M  V30 1399 C 136.413 6.61444 -2.4222 0
M  V30 1400 H 132.512 0.760512 0.182058 0
M  V30 1401 H 135.096 1.94013 -0.163419 0
M  V30 1402 H 133.267 3.3879 1.89936 0
M  V30 1403 H 134.999 3.61917 1.81103 0
M  V30 1404 H 131.754 4.73428 0.127702 0
M  V30 1405 H 132.178 6.53184 -1.77987 0
M  V30 1406 H 136.82 4.22798 -0.0128221 0
M  V30 1407 H 134.538 7.48327 -3.05011 0
M  V30 1408 H 138.124 5.58976 -1.61361 0
M  V30 1409 H 137.004 7.1982 -3.11174 0
M  V30 1410 N 134.507 -0.190092 1.56449 0
M  V30 1411 C 135.756 -0.907912 1.80111 0
M  V30 1412 C 136.069 -1.84214 0.657619 0
M  V30 1413 O 137.275 -2.60094 0.778663 0
M  V30 1414 C 135.731 -1.66485 3.19078 0
M  V30 1415 C 135.339 -0.7752 4.41242 0
M  V30 1416 C 137.083 -2.37201 3.52045 0
M  V30 1417 C 134.99 -1.53129 5.71231 0
M  V30 1418 H 133.92 -0.34276 0.671589 0
M  V30 1419 H 136.571 -0.161109 1.82791 0
M  V30 1420 H 134.953 -2.45572 3.10661 0
M  V30 1421 H 136.127 -0.0226298 4.60794 0
M  V30 1422 H 134.442 -0.178627 4.16017 0
M  V30 1423 H 137.039 -2.94329 4.46402 0
M  V30 1424 H 137.382 -3.11632 2.76028 0
M  V30 1425 H 137.915 -1.65075 3.61932 0
M  V30 1426 H 134.654 -0.82967 6.50228 0
M  V30 1427 H 134.174 -2.25767 5.55688 0
M  V30 1428 H 135.853 -2.08377 6.12526 0
M  V30 1429 N 135.985 -1.50799 -0.457987 0
M  V30 1430 C 137.232 -1.62442 -1.20908 0
M  V30 1431 C 137.56 -0.330865 -1.91665 0
M  V30 1432 O 136.815 0.68401 -1.83357 0
M  V30 1433 C 137.114 -2.76358 -2.2663 0
M  V30 1434 C 136.78 -4.16378 -1.73033 0
M  V30 1435 C 135.442 -4.54473 -1.58138 0
M  V30 1436 C 137.794 -5.03836 -1.33413 0
M  V30 1437 C 135.122 -5.77754 -1.02065 0
M  V30 1438 C 137.474 -6.27676 -0.78778 0
M  V30 1439 C 136.138 -6.64562 -0.625561 0
M  V30 1440 H 135.408 -0.594417 -0.442435 0
M  V30 1441 H 138.055 -1.84772 -0.503136 0
M  V30 1442 H 136.36 -2.48167 -3.03184 0
M  V30 1443 H 138.057 -2.82568 -2.84528 0
M  V30 1444 H 134.647 -3.86331 -1.85598 0
M  V30 1445 H 138.831 -4.75026 -1.4375 0
M  V30 1446 H 134.087 -6.04997 -0.882547 0
M  V30 1447 H 138.261 -6.94797 -0.472177 0
M  V30 1448 H 135.888 -7.59965 -0.188926 0
M  V30 1449 N 137.463 0.71206 -1.40597 0
M  V30 1450 C 138.393 1.83889 -1.43899 0
M  V30 1451 C 139.374 1.67442 -0.299504 0
M  V30 1452 O 140.559 1.87421 -0.508624 0
M  V30 1453 C 137.689 3.21877 -1.30431 0
M  V30 1454 C 136.643 3.53002 -2.42019 0
M  V30 1455 C 135.969 4.90172 -2.13626 0
M  V30 1456 C 137.269 3.53643 -3.84362 0
M  V30 1457 H 138.963 1.81383 -2.38203 0
M  V30 1458 H 136.509 0.871237 -1.14654 0
M  V30 1459 H 138.462 4.00404 -1.31357 0
M  V30 1460 H 137.186 3.24968 -0.326049 0
M  V30 1461 H 135.845 2.76818 -2.40349 0
M  V30 1462 H 135.493 4.89869 -1.14182 0
M  V30 1463 H 135.193 5.11962 -2.88389 0
M  V30 1464 H 136.717 5.71028 -2.1624 0
M  V30 1465 H 138.131 4.22203 -3.87837 0
M  V30 1466 H 136.528 3.86961 -4.58673 0
M  V30 1467 H 137.598 2.52954 -4.13693 0
M  V30 1468 N 138.941 1.26152 0.944643 0
M  V30 1469 C 140.187 1.11657 1.69294 0
M  V30 1470 C 140.52 -0.339926 1.91202 0
M  V30 1471 O 139.795 -1.24994 1.49019 0
M  V30 1472 C 140.078 1.88236 3.06984 0
M  V30 1473 C 139.931 3.41772 2.92424 0
M  V30 1474 C 141.25 1.67343 4.07043 0
M  V30 1475 H 138.369 0.407004 0.614424 0
M  V30 1476 H 141.011 1.55106 1.09737 0
M  V30 1477 H 139.161 1.51308 3.57824 0
M  V30 1478 H 140.833 3.88433 2.48832 0
M  V30 1479 H 139.076 3.68974 2.28124 0
M  V30 1480 H 139.747 3.90579 3.90067 0
M  V30 1481 H 142.223 1.99509 3.65151 0
M  V30 1482 H 141.099 2.23346 5.01406 0
M  V30 1483 H 141.36 0.617158 4.37771 0
M  V30 1484 N 140.419 -1.14872 1.07899 0
M  V30 1485 C 141.349 -2.2193 0.725887 0
M  V30 1486 C 142.33 -1.67622 -0.28927 0
M  V30 1487 O 143.515 -1.93533 -0.160787 0
M  V30 1488 C 140.645 -3.47061 0.128856 0
M  V30 1489 C 139.599 -4.14363 1.07178 0
M  V30 1490 C 138.925 -5.33636 0.337229 0
M  V30 1491 C 140.225 -4.63492 2.40775 0
M  V30 1492 H 141.919 -2.51724 1.62097 0
M  V30 1493 H 139.465 -1.20991 0.780838 0
M  V30 1494 H 141.418 -4.21199 -0.130147 0
M  V30 1495 H 140.142 -3.16617 -0.80134 0
M  V30 1496 H 138.801 -3.42173 1.3158 0
M  V30 1497 H 138.449 -4.99449 -0.596606 0
M  V30 1498 H 138.149 -5.79609 0.965788 0
M  V30 1499 H 139.673 -6.10539 0.0861567 0
M  V30 1500 H 141.087 -5.2913 2.20669 0
M  V30 1501 H 139.484 -5.20148 2.99276 0
M  V30 1502 H 140.554 -3.78834 3.02676 0
M  V30 1503 N 141.898 -0.863906 -1.31812 0
M  V30 1504 C 142.828 -0.330843 -2.31144 0
M  V30 1505 C 143.809 0.575005 -1.60087 0
M  V30 1506 O 144.994 0.493304 -1.8783 0
M  V30 1507 C 142.124 0.47374 -3.44054 0
M  V30 1508 C 141.078 -0.338481 -4.26659 0
M  V30 1509 C 140.404 0.591412 -5.31419 0
M  V30 1510 C 141.704 -1.56926 -4.98168 0
M  V30 1511 H 143.398 -1.16086 -2.75979 0
M  V30 1512 H 140.944 -0.559657 -1.32679 0
M  V30 1513 H 142.897 0.857143 -4.12591 0
M  V30 1514 H 141.621 1.33721 -2.9797 0
M  V30 1515 H 140.28 -0.703754 -3.59782 0
M  V30 1516 H 139.928 1.45199 -4.81587 0
M  V30 1517 H 139.628 0.0519022 -5.87577 0
M  V30 1518 H 141.152 0.97179 -6.02817 0
M  V30 1519 H 142.566 -1.25764 -5.59336 0
M  V30 1520 H 140.963 -2.04739 -5.64094 0
M  V30 1521 H 142.033 -2.32544 -4.25501 0
M  V30 1522 N 143.376 1.44774 -0.622745 0
M  V30 1523 C 144.624 2.01721 -0.123655 0
M  V30 1524 C 144.945 1.49172 1.25589 0
M  V30 1525 O 144.215 0.691974 1.83272 0
M  V30 1526 H 142.795 0.745777 -0.0427225 0
M  V30 1527 H 145.457 1.77382 -0.807559 0
M  V30 1528 H 144.553 3.11984 -0.0849534 0
M  V30 1529 N 144.854 0.36279 1.53368 0
M  V30 1530 C 145.784 -0.476976 2.28576 0
M  V30 1531 C 146.765 -1.08631 1.30894 0
M  V30 1532 O 147.95 -1.10409 1.59761 0
M  V30 1533 C 145.08 -1.61828 3.07293 0
M  V30 1534 C 144.034 -1.13633 4.1264 0
M  V30 1535 C 143.36 -2.36766 4.79423 0
M  V30 1536 C 144.66 -0.223061 5.21823 0
M  V30 1537 H 146.354 0.150474 2.99022 0
M  V30 1538 H 143.9 0.0738103 1.43811 0
M  V30 1539 H 145.853 -2.21237 3.58653 0
M  V30 1540 H 144.577 -2.27292 2.34533 0
M  V30 1541 H 143.236 -0.564945 3.62221 0
M  V30 1542 H 142.884 -3.0068 4.03238 0
M  V30 1543 H 142.584 -2.05192 5.50609 0
M  V30 1544 H 144.108 -2.96865 5.33576 0
M  V30 1545 H 145.522 -0.724545 5.68703 0
M  V30 1546 H 143.919 0.001678 6.001 0
M  V30 1547 H 144.989 0.735553 4.79289 0
M  V30 1548 N 146.332 -1.57332 0.0918853 0
M  V30 1549 C 147.262 -2.16872 -0.865371 0
M  V30 1550 C 148.243 -1.10118 -1.29646 0
M  V30 1551 O 149.428 -1.38242 -1.36392 0
M  V30 1552 C 146.558 -2.74649 -2.12569 0
M  V30 1553 C 145.512 -3.86747 -1.83333 0
M  V30 1554 C 144.838 -4.31212 -3.16166 0
M  V30 1555 C 146.138 -5.10089 -1.1228 0
M  V30 1556 H 147.832 -2.97114 -0.369307 0
M  V30 1557 H 145.378 -1.42918 -0.176194 0
M  V30 1558 H 147.331 -3.14952 -2.7997 0
M  V30 1559 H 146.055 -1.91657 -2.64452 0
M  V30 1560 H 144.714 -3.46978 -1.18331 0
M  V30 1561 H 144.362 -3.45115 -3.6593 0
M  V30 1562 H 144.062 -5.06788 -2.97388 0
M  V30 1563 H 145.586 -4.74146 -3.84731 0
M  V30 1564 H 147 -5.47582 -1.69785 0
M  V30 1565 H 145.397 -5.91073 -1.03693 0
M  V30 1566 H 146.467 -4.84786 -0.105041 0
M  V30 1567 N 147.81 0.181792 -1.56548 0
M  V30 1568 C 148.743 1.25366 -1.90679 0
M  V30 1569 C 149.721 1.43299 -0.768376 0
M  V30 1570 O 150.905 1.58475 -1.02068 0
M  V30 1571 C 148.032 2.61826 -2.1486 0
M  V30 1572 C 147.078 2.60688 -3.37556 0
M  V30 1573 S 147.911 2.10804 -4.92262 0
M  V30 1574 C 149.067 3.49062 -5.19525 0
M  V30 1575 H 149.3 0.962277 -2.81296 0
M  V30 1576 H 146.833 0.385892 -1.495 0
M  V30 1577 H 148.791 3.40371 -2.29473 0
M  V30 1578 H 147.452 2.88169 -1.24969 0
M  V30 1579 H 146.645 3.61058 -3.51643 0
M  V30 1580 H 146.247 1.90232 -3.22006 0
M  V30 1581 H 148.539 4.45003 -5.10861 0
M  V30 1582 H 149.482 3.39859 -6.2121 0
M  V30 1583 H 149.89 3.4459 -4.47122 0
M  V30 1584 N 149.288 1.51039 0.449983 0
M  V30 1585 C 150.251 1.70863 1.5277 0
M  V30 1586 C 151.251 0.578846 1.5002 0
M  V30 1587 O 152.441 0.846213 1.52266 0
M  V30 1588 C 149.573 1.75341 2.9235 0
M  V30 1589 H 150.766 2.67034 1.36502 0
M  V30 1590 H 148.319 1.40838 0.677812 0
M  V30 1591 H 149.054 0.809383 3.14037 0
M  V30 1592 H 148.839 2.57436 2.95752 0
M  V30 1593 H 150.329 1.92559 3.70555 0
M  V30 1594 N 150.766 -0.704594 1.40972 0
M  V30 1595 C 151.696 -1.83124 1.44872 0
M  V30 1596 C 152.677 -1.67281 0.30838 0
M  V30 1597 O 153.862 -1.87149 0.518556 0
M  V30 1598 C 150.992 -3.21181 1.32136 0
M  V30 1599 C 149.946 -3.51714 2.43888 0
M  V30 1600 C 149.272 -4.89032 2.16222 0
M  V30 1601 C 150.572 -3.516 3.86232 0
M  V30 1602 H 152.266 -1.80117 2.39161 0
M  V30 1603 H 149.812 -0.865145 1.15114 0
M  V30 1604 H 151.765 -3.99702 1.33479 0
M  V30 1605 H 150.489 -3.24791 0.343279 0
M  V30 1606 H 149.148 -2.75539 2.41813 0
M  V30 1607 H 148.796 -4.89256 1.16778 0
M  V30 1608 H 148.496 -5.10426 2.911 0
M  V30 1609 H 150.02 -5.69873 2.19265 0
M  V30 1610 H 151.434 -4.2014 3.9007 0
M  V30 1611 H 149.831 -3.84523 4.60719 0
M  V30 1612 H 150.901 -2.50757 4.15029 0
M  V30 1613 N 152.244 -1.26651 -0.937939 0
M  V30 1614 C 153.49 -1.12553 -1.687 0
M  V30 1615 C 153.823 0.329782 -1.91379 0
M  V30 1616 O 153.098 1.24202 -1.4968 0
M  V30 1617 C 153.381 -1.89862 -3.05981 0
M  V30 1618 C 153.234 -3.43318 -2.90607 0
M  V30 1619 C 154.553 -1.69499 -4.0615 0
M  V30 1620 H 151.672 -0.410257 -0.612257 0
M  V30 1621 H 154.314 -1.55685 -1.08913 0
M  V30 1622 H 152.464 -1.53204 -3.57017 0
M  V30 1623 H 154.136 -3.89747 -2.46769 0
M  V30 1624 H 152.379 -3.70179 -2.26164 0
M  V30 1625 H 153.05 -3.92642 -3.8799 0
M  V30 1626 H 155.526 -2.01442 -3.64088 0
M  V30 1627 H 154.402 -2.26002 -5.00214 0
M  V30 1628 H 154.663 -0.640365 -4.37438 0
M  V30 1629 N 153.722 1.14298 -1.08507 0
M  V30 1630 C 154.947 1.8976 -0.837001 0
M  V30 1631 C 155.372 1.78097 0.605228 0
M  V30 1632 O 154.73 1.12188 1.4242 0
M  V30 1633 C 154.778 3.37685 -1.26495 0
M  V30 1634 O 153.882 4.10281 -0.417514 0
M  V30 1635 H 153.223 0.590365 -0.303917 0
M  V30 1636 H 155.753 1.44672 -1.44676 0
M  V30 1637 H 155.763 3.88501 -1.24625 0
M  V30 1638 H 154.438 3.45492 -2.31534 0
M  V30 1639 H 153.015 3.69536 -0.499722 0
M  V30 1640 N 155.201 0.870884 1.31352 0
M  V30 1641 C 156.447 0.492314 1.97352 0
M  V30 1642 C 156.802 -0.945174 1.67583 0
M  V30 1643 O 156.095 -1.65674 0.962423 0
M  V30 1644 C 156.289 0.687157 3.50732 0
M  V30 1645 C 156.118 2.14203 3.95407 0
M  V30 1646 C 154.888 2.78382 4.21701 0
M  V30 1647 C 157.086 3.1144 4.09279 0
M  V30 1648 N 155.068 4.14611 4.52737 0
M  V30 1649 C 156.439 4.32702 4.44037 0
M  V30 1650 C 158.494 3.07418 3.91661 0
M  V30 1651 C 157.197 5.50463 4.63015 0
M  V30 1652 C 159.223 4.24438 4.11833 0
M  V30 1653 C 158.585 5.44463 4.46923 0
M  V30 1654 H 154.684 0.229206 0.747655 0
M  V30 1655 H 157.268 1.12568 1.5886 0
M  V30 1656 H 155.439 0.083384 3.8831 0
M  V30 1657 H 157.171 0.276883 4.03752 0
M  V30 1658 H 153.926 2.29326 4.14375 0
M  V30 1659 H 154.35 4.84928 4.72413 0
M  V30 1660 H 158.992 2.15732 3.6362 0
M  V30 1661 H 156.71 6.42666 4.89904 0
M  V30 1662 H 160.296 4.2278 3.99685 0
M  V30 1663 H 159.176 6.33504 4.62214 0
M  V30 1664 N 156.679 -1.44442 0.630414 0
M  V30 1665 C 157.925 -2.02351 0.134816 0
M  V30 1666 C 158.258 -1.4947 -1.23986 0
M  V30 1667 O 157.533 -0.678475 -1.82283 0
M  V30 1668 C 157.816 -3.59898 0.120707 0
M  V30 1669 C 157.669 -4.23063 1.52767 0
M  V30 1670 C 158.988 -4.36585 -0.555127 0
M  V30 1671 H 156.107 -0.73527 0.0504646 0
M  V30 1672 H 158.749 -1.72022 0.806751 0
M  V30 1673 H 156.899 -3.85868 -0.451477 0
M  V30 1674 H 158.571 -4.08202 2.14869 0
M  V30 1675 H 156.814 -3.80586 2.08175 0
M  V30 1676 H 157.485 -5.32071 1.46984 0
M  V30 1677 H 159.961 -4.16044 -0.0685429 0
M  V30 1678 H 158.837 -5.46294 -0.534185 0
M  V30 1679 H 159.098 -4.11138 -1.62535 0
M  V30 1680 N 158.157 -0.370918 -1.53173 0
M  V30 1681 C 159.09 0.516727 -2.22273 0
M  V30 1682 C 160.068 1.07877 -1.21661 0
M  V30 1683 O 161.252 1.13389 -1.50583 0
M  V30 1684 C 158.379 1.71346 -2.92161 0
M  V30 1685 C 157.425 1.27838 -4.0689 0
M  V30 1686 S 158.258 0.275217 -5.34792 0
M  V30 1687 C 159.414 1.47816 -6.08195 0
M  V30 1688 H 159.647 -0.0701054 -2.97217 0
M  V30 1689 H 157.18 -0.155038 -1.5362 0
M  V30 1690 H 159.138 2.39988 -3.3304 0
M  V30 1691 H 157.799 2.27156 -2.16931 0
M  V30 1692 H 156.992 2.17141 -4.54825 0
M  V30 1693 H 156.594 0.671105 -3.6793 0
M  V30 1694 H 158.886 2.40831 -6.33251 0
M  V30 1695 H 159.829 1.04008 -7.0042 0
M  V30 1696 H 160.237 1.68663 -5.38714 0
M  V30 1697 N 159.635 1.57281 -0.100228 0
M  V30 1698 C 160.912 1.86014 0.604812 0
M  V30 1699 C 161.292 0.998025 1.86018 0
M  V30 1700 O 160.64 0.0718184 2.28387 0
M  V30 1701 C 160.85 3.36784 0.915278 0
M  V30 1702 C 162.198 4.04957 1.27651 0
M  V30 1703 O 163.222 3.41695 1.00613 0
M  V30 1704 O 162.081 5.16593 1.7831 0
M  V30 1705 H 159.175 0.76942 0.303185 0
M  V30 1706 H 161.721 1.69176 -0.133313 0
M  V30 1707 H 160.493 3.91292 0.0248896 0
M  V30 1708 H 160.116 3.58987 1.70921 0
M  V30 1709 N 161.113 -0.173488 1.56642 0
M  V30 1710 C 162.343 -0.904781 1.85734 0
M  V30 1711 C 162.751 -1.76431 0.68328 0
M  V30 1712 O 162.094 -1.802 -0.356865 0
M  V30 1713 C 162.156 -1.83382 3.09211 0
M  V30 1714 C 161.82 -1.15411 4.42187 0
M  V30 1715 C 162.817 -0.520609 5.17287 0
M  V30 1716 C 160.502 -1.15151 4.88923 0
M  V30 1717 C 162.496 0.106412 6.37311 0
M  V30 1718 C 160.183 -0.520664 6.08878 0
M  V30 1719 C 161.181 0.107196 6.82916 0
M  V30 1720 O 160.869 0.728102 8.00596 0
M  V30 1721 H 160.601 -0.268408 0.62043 0
M  V30 1722 H 163.155 -0.179096 2.04618 0
M  V30 1723 H 161.385 -2.59976 2.86268 0
M  V30 1724 H 163.074 -2.43476 3.24768 0
M  V30 1725 H 163.84 -0.514606 4.82262 0
M  V30 1726 H 159.719 -1.62961 4.31236 0
M  V30 1727 H 163.263 0.597081 6.9504 0
M  V30 1728 H 159.16 -0.524242 6.43368 0
M  V30 1729 H 159.928 0.627138 8.16094 0
M  V30 1730 N 162.591 -1.51276 -0.441967 0
M  V30 1731 C 163.554 -1.7167 -1.51862 0
M  V30 1732 C 164.554 -0.586793 -1.49711 0
M  V30 1733 O 165.744 -0.854276 -1.51815 0
M  V30 1734 C 162.876 -1.76889 -2.91416 0
M  V30 1735 H 164.069 -2.67754 -1.35084 0
M  V30 1736 H 161.622 -1.41196 -0.670333 0
M  V30 1737 H 162.357 -0.826026 -3.13604 0
M  V30 1738 H 162.142 -2.59001 -2.94382 0
M  V30 1739 H 163.632 -1.94522 -3.69528 0
M  V30 1740 N 164.069 0.697108 -1.41344 0
M  V30 1741 C 165.318 1.45279 -1.39918 0
M  V30 1742 C 165.631 1.95597 -0.0109624 0
M  V30 1743 O 166.837 2.71208 0.125919 0
M  V30 1744 C 165.293 2.62695 -2.46007 0
M  V30 1745 C 164.901 2.19169 -3.90729 0
M  V30 1746 C 166.645 3.40336 -2.53715 0
M  V30 1747 C 164.552 3.33535 -4.88373 0
M  V30 1748 H 163.482 0.545692 -0.520323 0
M  V30 1749 H 166.133 0.756929 -1.67161 0
M  V30 1750 H 164.515 3.34541 -2.11892 0
M  V30 1751 H 165.689 1.54623 -4.34083 0
M  V30 1752 H 164.004 1.54525 -3.86666 0
M  V30 1753 H 166.601 4.2547 -3.2385 0
M  V30 1754 H 166.944 3.85418 -1.5735 0
M  V30 1755 H 167.477 2.75546 -2.86913 0
M  V30 1756 H 164.216 2.93468 -5.86137 0
M  V30 1757 H 163.736 3.96936 -4.49668 0
M  V30 1758 H 165.415 3.99335 -5.09059 0
M  V30 1759 N 165.547 1.27147 0.931209 0
M  V30 1760 C 166.51 1.09615 2.01289 0
M  V30 1761 C 167.51 0.0412581 1.60747 0
M  V30 1762 O 168.7 0.285545 1.71844 0
M  V30 1763 C 165.832 0.669447 3.34262 0
M  V30 1764 H 167.025 2.05662 2.18273 0
M  V30 1765 H 164.578 1.09885 1.11153 0
M  V30 1766 H 165.313 -0.292572 3.22978 0
M  V30 1767 H 165.098 1.43127 3.65044 0
M  V30 1768 H 166.588 0.568921 4.13706 0
M  V30 1769 N 167.025 -1.13721 1.09112 0
M  V30 1770 C 167.988 -2.17222 0.731241 0
M  V30 1771 C 168.988 -1.59035 -0.237566 0
M  V30 1772 O 170.178 -1.74192 -0.0161704 0
M  V30 1773 C 167.31 -3.40804 0.0808443 0
M  V30 1774 H 168.503 -2.50573 1.64783 0
M  V30 1775 H 166.056 -1.28493 0.889897 0
M  V30 1776 H 166.791 -3.1304 -0.847127 0
M  V30 1777 H 166.576 -3.84306 0.777896 0
M  V30 1778 H 168.066 -4.1731 -0.155657 0
M  V30 1779 N 168.503 -0.877838 -1.30888 0
M  V30 1780 C 169.743 -0.499301 -1.98208 0
M  V30 1781 C 170.107 0.932649 -1.67826 0
M  V30 1782 O 171.308 1.41694 -2.28421 0
M  V30 1783 C 169.579 -0.758221 -3.49265 0
M  V30 1784 S 171.138 -0.480719 -4.36159 0
M  V30 1785 H 167.956 -0.186062 -0.686223 0
M  V30 1786 H 170.558 -1.13556 -1.59139 0
M  V30 1787 H 169.262 -1.79903 -3.68867 0
M  V30 1788 H 168.793 -0.109247 -3.93248 0
M  V30 1789 H 170.808 0.683698 -4.91467 0
M  V30 1790 N 169.982 1.44106 -0.638065 0
M  V30 1791 C 170.912 2.33448 0.0494287 0
M  V30 1792 C 171.893 1.48606 0.827672 0
M  V30 1793 O 173.078 1.77308 0.792173 0
M  V30 1794 C 170.208 3.31771 1.02691 0
M  V30 1795 C 169.162 4.26485 0.359823 0
M  V30 1796 C 168.488 5.14729 1.44769 0
M  V30 1797 C 169.788 5.17056 -0.738296 0
M  V30 1798 H 171.482 2.91183 -0.696636 0
M  V30 1799 H 169.028 1.40014 -0.336456 0
M  V30 1800 H 170.981 3.93161 1.51666 0
M  V30 1801 H 169.705 2.7226 1.80395 0
M  V30 1802 H 168.364 3.66437 -0.10934 0
M  V30 1803 H 168.012 4.51566 2.21578 0
M  V30 1804 H 167.712 5.78913 1.00668 0
M  V30 1805 H 169.236 5.78991 1.93911 0
M  V30 1806 H 170.65 5.72342 -0.331354 0
M  V30 1807 H 169.047 5.89879 -1.10286 0
M  V30 1808 H 170.117 4.57652 -1.60258 0
M  V30 1809 N 171.46 0.379036 1.52974 0
M  V30 1810 C 172.392 -0.495963 2.2377 0
M  V30 1811 C 173.405 -1.03517 1.25651 0
M  V30 1812 O 174.594 -0.939249 1.51791 0
M  V30 1813 C 171.694 -1.69894 2.93239 0
M  V30 1814 C 170.867 -1.2889 4.17979 0
M  V30 1815 C 169.926 -2.35543 4.70538 0
M  V30 1816 O 168.952 -1.97375 5.33883 0
M  V30 1817 N 170.154 -3.67318 4.49508 0
M  V30 1818 H 172.919 0.110523 2.99496 0
M  V30 1819 H 170.48 0.204878 1.60598 0
M  V30 1820 H 172.472 -2.40747 3.25304 0
M  V30 1821 H 171.042 -2.212 2.20883 0
M  V30 1822 H 170.262 -0.409676 3.92065 0
M  V30 1823 H 171.55 -0.991443 4.99047 0
M  V30 1824 H 170.948 -4.01095 3.98923 0
M  V30 1825 H 169.505 -4.34235 4.8609 0
M  V30 1826 N 172.938 -1.57226 0.108567 0
M  V30 1827 C 173.901 -2.13602 -0.831082 0
M  V30 1828 C 174.901 -1.06841 -1.20173 0
M  V30 1829 O 176.091 -1.32666 -1.12895 0
M  V30 1830 C 173.223 -2.66769 -2.12243 0
M  V30 1831 H 174.416 -2.97951 -0.341317 0
M  V30 1832 H 171.969 -1.55667 -0.14057 0
M  V30 1833 H 172.704 -1.85977 -2.65675 0
M  V30 1834 H 172.489 -3.44839 -1.86625 0
M  V30 1835 H 173.979 -3.10332 -2.79435 0
M  V30 1836 N 174.416 0.165178 -1.56732 0
M  V30 1837 C 175.348 1.22911 -1.93457 0
M  V30 1838 C 176.361 1.40152 -0.828333 0
M  V30 1839 O 177.55 1.40046 -1.10677 0
M  V30 1840 C 174.65 2.59686 -2.17753 0
M  V30 1841 C 173.823 2.63663 -3.48999 0
M  V30 1842 C 172.882 3.81845 -3.62051 0
M  V30 1843 O 171.908 3.67559 -4.34613 0
M  V30 1844 N 173.11 4.98557 -2.97357 0
M  V30 1845 H 175.875 0.917118 -2.85323 0
M  V30 1846 H 173.436 0.354895 -1.57962 0
M  V30 1847 H 175.428 3.37225 -2.23743 0
M  V30 1848 H 173.998 2.83251 -1.32242 0
M  V30 1849 H 173.218 1.72173 -3.54612 0
M  V30 1850 H 174.506 2.63336 -4.35352 0
M  V30 1851 H 173.904 5.13065 -2.38287 0
M  V30 1852 H 172.461 5.73936 -3.08934 0
M  V30 1853 N 175.894 1.51508 0.433938 0
M  V30 1854 C 176.826 1.69266 1.54537 0
M  V30 1855 C 177.839 0.573276 1.52373 0
M  V30 1856 O 179.028 0.847698 1.57087 0
M  V30 1857 C 176.128 1.69524 2.93453 0
M  V30 1858 C 175.301 2.98101 3.20085 0
M  V30 1859 C 174.36 2.90502 4.38742 0
M  V30 1860 O 173.386 3.64442 4.3723 0
M  V30 1861 N 174.588 2.06586 5.42496 0
M  V30 1862 H 177.353 2.65145 1.39708 0
M  V30 1863 H 174.914 1.49437 0.622922 0
M  V30 1864 H 176.906 1.62004 3.70859 0
M  V30 1865 H 175.476 0.812245 3.01863 0
M  V30 1866 H 174.696 3.19464 2.30947 0
M  V30 1867 H 175.984 3.83207 3.34708 0
M  V30 1868 H 175.382 1.45896 5.46563 0
M  V30 1869 H 173.939 2.04943 6.18742 0
M  V30 1870 N 177.372 -0.689602 1.41712 0
M  V30 1871 C 178.618 -1.45041 1.42599 0
M  V30 1872 C 178.973 -1.92366 0.0363764 0
M  V30 1873 O 178.266 -1.67022 -0.938844 0
M  V30 1874 C 178.46 -2.67298 2.37247 0
M  V30 1875 C 178.289 -2.31935 3.85274 0
M  V30 1876 C 177.059 -2.2201 4.53916 0
M  V30 1877 C 179.257 -1.94526 4.76093 0
M  V30 1878 N 177.239 -1.79594 5.87043 0
M  V30 1879 C 178.61 -1.62915 5.98213 0
M  V30 1880 C 180.665 -1.81388 4.63684 0
M  V30 1881 C 179.368 -1.19486 7.09306 0
M  V30 1882 C 181.394 -1.39364 5.74745 0
M  V30 1883 C 180.756 -1.08668 6.95967 0
M  V30 1884 H 176.855 -0.527806 0.577014 0
M  V30 1885 H 179.439 -0.797266 1.77628 0
M  V30 1886 H 177.61 -3.30325 2.04304 0
M  V30 1887 H 179.342 -3.33806 2.28814 0
M  V30 1888 H 176.097 -2.406 4.07932 0
M  V30 1889 H 176.521 -1.60851 6.57614 0
M  V30 1890 H 181.163 -2.03772 3.70455 0
M  V30 1891 H 178.881 -0.958477 8.02396 0
M  V30 1892 H 182.467 -1.2974 5.6715 0
M  V30 1893 H 181.347 -0.766417 7.80446 0
M  V30 1894 N 178.85 -1.27639 -0.924453 0
M  V30 1895 C 179.783 -1.04966 -2.02626 0
M  V30 1896 C 180.761 0.0309505 -1.62571 0
M  V30 1897 O 181.945 -0.114846 -1.8815 0
M  V30 1898 C 179.072 -0.59292 -3.3347 0
M  V30 1899 C 178.118 -1.66858 -3.92506 0
M  V30 1900 S 178.951 -3.2619 -4.24689 0
M  V30 1901 C 180.107 -2.82325 -5.58609 0
M  V30 1902 H 180.34 -1.98252 -2.21547 0
M  V30 1903 H 177.873 -1.11506 -1.06798 0
M  V30 1904 H 179.831 -0.336086 -4.09122 0
M  V30 1905 H 178.492 0.319939 -3.12466 0
M  V30 1906 H 177.685 -1.30038 -4.86935 0
M  V30 1907 H 177.287 -1.87766 -3.2345 0
M  V30 1908 H 179.579 -2.2783 -6.38044 0
M  V30 1909 H 180.522 -3.75511 -6.00331 0
M  V30 1910 H 180.93 -2.21367 -5.19285 0
M  V30 1911 N 180.328 1.1314 -1.09713 0
M  V30 1912 C 181.553 1.88862 -0.857081 0
M  V30 1913 C 181.978 1.78729 0.586304 0
M  V30 1914 O 181.336 1.13692 1.41222 0
M  V30 1915 C 181.384 3.36325 -1.30069 0
M  V30 1916 O 180.488 4.09815 -0.461007 0
M  V30 1917 H 179.829 0.587108 -0.310162 0
M  V30 1918 H 182.359 1.43129 -1.46203 0
M  V30 1919 H 182.369 3.87157 -1.28738 0
M  V30 1920 H 181.044 3.43017 -2.35185 0
M  V30 1921 H 179.621 3.68986 -0.538888 0
M  V30 1922 N 181.806 0.884767 1.30421 0
M  V30 1923 C 183.222 0.57874 1.48737 0
M  V30 1924 C 183.422 -0.883567 1.81095 0
M  V30 1925 O 182.478 -1.6648 1.89844 0
M  V30 1926 C 183.791 1.49171 2.61091 0
M  V30 1927 C 185.339 1.49532 2.74971 0
M  V30 1928 C 185.814 2.39421 3.90438 0
M  V30 1929 N 187.305 2.37383 3.97748 0
M  V30 1930 C 188.04 3.03647 4.86401 0
M  V30 1931 N 187.536 3.79136 5.79852 0
M  V30 1932 N 189.329 2.9288 4.79768 0
M  V30 1933 H 181.48 1.83075 1.0769 0
M  V30 1934 H 183.743 0.783637 0.533495 0
M  V30 1935 H 183.449 2.53291 2.44001 0
M  V30 1936 H 183.323 1.20113 3.57565 0
M  V30 1937 H 185.71 0.46163 2.91467 0
M  V30 1938 H 185.791 1.8262 1.79119 0
M  V30 1939 H 185.435 3.42874 3.74699 0
M  V30 1940 H 185.365 2.03649 4.85628 0
M  V30 1941 H 187.856 1.82525 3.30897 0
M  V30 1942 H 188.169 4.26789 6.4426 0
M  V30 1943 H 186.514 3.83243 5.79784 0
M  V30 1944 H 189.705 2.33433 4.05742 0
M  V30 1945 H 189.878 3.448 5.4865 0
M  V30 1946 N 183.284 -1.43765 0.645699 0
M  V30 1947 C 184.532 -2.01499 0.155731 0
M  V30 1948 C 184.853 -1.51151 -1.232 0
M  V30 1949 O 184.123 -0.721044 -1.82148 0
M  V30 1950 H 182.703 -0.745003 0.0545817 0
M  V30 1951 H 185.365 -1.76075 0.835677 0
M  V30 1952 H 184.461 -3.1181 0.134577 0
M  V30 1953 N 184.763 -0.387143 -1.52771 0
M  V30 1954 C 185.693 0.440551 -2.29306 0
M  V30 1955 C 186.674 1.06535 -1.32606 0
M  V30 1956 O 187.859 1.07853 -1.61497 0
M  V30 1957 C 184.989 1.56919 -3.09829 0
M  V30 1958 C 183.943 1.07054 -4.14395 0
M  V30 1959 C 183.269 2.29109 -4.83129 0
M  V30 1960 C 184.569 0.140015 -5.22112 0
M  V30 1961 H 186.263 -0.198026 -2.98744 0
M  V30 1962 H 183.809 -0.09668 -1.43675 0
M  V30 1963 H 185.762 2.15503 -3.62128 0
M  V30 1964 H 184.486 2.23532 -2.3812 0
M  V30 1965 H 183.145 0.507247 -3.63074 0
M  V30 1966 H 182.793 2.94227 -4.0797 0
M  V30 1967 H 182.493 1.96406 -5.53804 0
M  V30 1968 H 184.017 2.88339 -5.38231 0
M  V30 1969 H 185.431 0.633978 -5.69784 0
M  V30 1970 H 183.828 -0.0971485 -6.00021 0
M  V30 1971 H 184.898 -0.811711 -4.78058 0
M  V30 1972 N 186.241 1.57166 -0.116904 0
M  V30 1973 C 187.189 2.16457 0.851418 0
M  V30 1974 C 188.183 1.11323 1.27686 0
M  V30 1975 O 189.389 1.2963 1.24884 0
M  V30 1976 H 185.764 0.69271 0.292672 0
M  V30 1977 H 187.735 2.96605 0.32685 0
M  V30 1978 C 186.484 2.77689 2.09246 0
M  V30 1979 H 185.807 3.58285 1.77402 0
M  V30 1980 H 187.247 3.22716 2.7501 0
M  V30 1981 C 185.706 1.74667 2.88085 0
M  V30 1982 O 186.236 1.19877 3.83396 0
M  V30 1983 N 184.442 1.44656 2.52038 0
M  V30 1984 H 183.989 1.89402 1.74599 0
M  V30 1985 H 183.947 0.759675 3.05084 0
M  V30 1986 N 187.719 -0.156864 1.56817 0
M  V30 1987 C 188.947 -0.886316 1.86955 0
M  V30 1988 C 189.362 -1.75185 0.703975 0
M  V30 1989 O 188.719 -1.79555 -0.326552 0
M  V30 1990 C 188.77 -1.75117 3.16253 0
M  V30 1991 O 188.491 -0.920537 4.2832 0
M  V30 1992 C 189.992 -2.58905 3.59837 0
M  V30 1993 H 187.212 -0.25678 0.619923 0
M  V30 1994 H 189.756 -0.152615 2.0393 0
M  V30 1995 H 187.911 -2.43805 3.01062 0
M  V30 1996 H 188.325 -1.51337 5.02192 0
M  V30 1997 H 189.799 -3.1518 4.53172 0
M  V30 1998 H 190.276 -3.34472 2.84649 0
M  V30 1999 H 190.882 -1.95526 3.7769 0
M  V30 2000 N 189.197 -1.51736 -0.425897 0
M  V30 2001 C 190.422 -1.69082 -1.20108 0
M  V30 2002 C 190.847 -0.392398 -1.83962 0
M  V30 2003 O 190.205 0.64858 -1.69302 0
M  V30 2004 C 190.253 -2.81604 -2.25237 0
M  V30 2005 O 189.357 -2.46004 -3.30992 0
M  V30 2006 H 188.698 -0.563408 -0.35138 0
M  V30 2007 H 191.228 -1.98358 -0.501512 0
M  V30 2008 H 191.238 -3.06025 -2.69838 0
M  V30 2009 H 189.913 -3.75817 -1.78142 0
M  V30 2010 H 188.49 -2.32195 -2.91787 0
M  V30 2011 N 190.675 0.682077 -1.42076 0
M  V30 2012 C 191.924 1.43786 -1.41451 0
M  V30 2013 C 192.237 1.95574 -0.0317074 0
M  V30 2014 O 193.443 2.71326 0.0971462 0
M  V30 2015 C 191.899 2.60071 -2.48779 0
M  V30 2016 C 191.507 2.15013 -3.93031 0
M  V30 2017 C 193.251 3.37626 -2.57311 0
M  V30 2018 C 191.158 3.28336 -4.91883 0
M  V30 2019 H 190.088 0.540143 -0.526082 0
M  V30 2020 H 192.739 0.739157 -1.67955 0
M  V30 2021 H 191.121 3.32275 -2.15429 0
M  V30 2022 H 192.295 1.5001 -4.35699 0
M  V30 2023 H 190.61 1.50416 -3.88284 0
M  V30 2024 H 193.207 4.22012 -3.28345 0
M  V30 2025 H 193.55 3.83727 -1.61429 0
M  V30 2026 H 194.083 2.72488 -2.89819 0
M  V30 2027 H 190.822 2.87234 -5.89217 0
M  V30 2028 H 190.342 3.92145 -4.53853 0
M  V30 2029 H 192.021 3.93913 -5.13265 0
M  V30 2030 N 192.153 1.28127 0.917671 0
M  V30 2031 C 193.083 1.14248 2.03641 0
M  V30 2032 C 194.064 0.0412748 1.7005 0
M  V30 2033 O 195.249 0.217566 1.92977 0
M  V30 2034 C 192.379 0.799431 3.37974 0
M  V30 2035 C 191.333 1.85497 3.85713 0
M  V30 2036 C 190.659 1.36565 5.16966 0
M  V30 2037 C 191.959 3.26085 4.08002 0
M  V30 2038 H 193.653 2.07835 2.15511 0
M  V30 2039 H 191.199 1.00064 1.03553 0
M  V30 2040 H 193.152 0.689114 4.15727 0
M  V30 2041 H 191.876 -0.172145 3.26146 0
M  V30 2042 H 190.535 1.95437 3.10161 0
M  V30 2043 H 190.183 0.383253 5.01538 0
M  V30 2044 H 189.883 2.07143 5.49878 0
M  V30 2045 H 191.407 1.26848 5.97279 0
M  V30 2046 H 192.821 3.19089 4.76293 0
M  V30 2047 H 191.218 3.94462 4.52238 0
M  V30 2048 H 192.288 3.70394 3.12948 0
M  V30 2049 N 193.631 -1.12557 1.10312 0
M  V30 2050 C 194.561 -2.20341 0.772798 0
M  V30 2051 C 195.542 -1.68198 -0.25365 0
M  V30 2052 O 196.727 -1.93831 -0.119699 0
M  V30 2053 C 193.857 -3.46709 0.202443 0
M  V30 2054 C 192.811 -4.11996 1.15943 0
M  V30 2055 C 192.137 -5.328 0.450345 0
M  V30 2056 C 193.437 -4.5828 2.50552 0
M  V30 2057 H 195.131 -2.48229 1.674 0
M  V30 2058 H 192.677 -1.19308 0.806326 0
M  V30 2059 H 194.63 -4.2138 -0.0407752 0
M  V30 2060 H 193.354 -3.18245 -0.734001 0
M  V30 2061 H 192.013 -3.39305 1.38808 0
M  V30 2062 H 191.661 -5.00602 -0.490531 0
M  V30 2063 H 191.361 -5.7743 1.08851 0
M  V30 2064 H 192.885 -6.10219 0.215642 0
M  V30 2065 H 194.299 -5.2433 2.31843 0
M  V30 2066 H 192.696 -5.13683 3.10242 0
M  V30 2067 H 193.766 -3.72329 3.10643 0
M  V30 2068 N 195.109 -0.891671 -1.2995 0
M  V30 2069 C 196.041 -0.320695 -2.26945 0
M  V30 2070 C 197.054 0.528497 -1.53983 0
M  V30 2071 O 198.243 0.346959 -1.75096 0
M  V30 2072 C 195.343 0.562066 -3.34207 0
M  V30 2073 C 194.516 -0.259576 -4.36629 0
M  V30 2074 C 193.575 0.554739 -5.23268 0
M  V30 2075 O 192.601 -0.0249311 -5.69195 0
M  V30 2076 N 193.803 1.8625 -5.4981 0
M  V30 2077 H 196.568 -1.15432 -2.76578 0
M  V30 2078 H 194.129 -0.755336 -1.432 0
M  V30 2079 H 196.121 1.11304 -3.89093 0
M  V30 2080 H 194.691 1.29637 -2.84452 0
M  V30 2081 H 193.911 -0.991986 -3.81514 0
M  V30 2082 H 195.199 -0.822564 -5.02107 0
M  V30 2083 H 194.597 2.35628 -5.14292 0
M  V30 2084 H 193.154 2.36078 -6.07545 0
M  V30 2085 N 196.587 1.43421 -0.653314 0
M  V30 2086 C 197.817 2.05864 -0.174238 0
M  V30 2087 C 198.225 1.49052 1.16534 0
M  V30 2088 O 197.568 0.616481 1.73047 0
M  V30 2089 C 197.63 3.59499 -0.00875873 0
M  V30 2090 C 197.294 4.38893 -1.27364 0
M  V30 2091 C 198.291 4.70947 -2.20239 0
M  V30 2092 C 195.976 4.789 -1.51525 0
M  V30 2093 C 197.97 5.41916 -3.35568 0
M  V30 2094 C 195.657 5.49614 -2.67147 0
M  V30 2095 C 196.655 5.81044 -3.58994 0
M  V30 2096 O 196.343 6.50313 -4.72597 0
M  V30 2097 H 196.075 0.670345 -0.0872549 0
M  V30 2098 H 198.629 1.84913 -0.894226 0
M  V30 2099 H 196.859 3.79025 0.7666 0
M  V30 2100 H 198.548 4.0364 0.427687 0
M  V30 2101 H 199.314 4.40558 -2.02815 0
M  V30 2102 H 195.193 4.53843 -0.809158 0
M  V30 2103 H 198.737 5.66365 -4.07279 0
M  V30 2104 H 194.634 5.79419 -2.84505 0
M  V30 2105 H 195.402 6.68795 -4.71864 0
M  V30 2106 N 198.065 0.39524 1.52563 0
M  V30 2107 C 198.995 -0.428384 2.29537 0
M  V30 2108 C 199.976 -1.05831 1.33169 0
M  V30 2109 O 201.161 -1.06995 1.62067 0
M  V30 2110 C 198.291 -1.55274 3.10656 0
M  V30 2111 C 197.245 -1.04855 4.14957 0
M  V30 2112 C 196.571 -2.26543 4.84337 0
M  V30 2113 C 197.871 -0.112324 5.22179 0
M  V30 2114 H 199.565 0.213867 2.98635 0
M  V30 2115 H 197.111 0.104298 1.43622 0
M  V30 2116 H 199.064 -2.1358 3.63265 0
M  V30 2117 H 197.788 -2.22266 2.39302 0
M  V30 2118 H 196.447 -0.487985 3.63338 0
M  V30 2119 H 196.095 -2.92059 4.09525 0
M  V30 2120 H 195.795 -1.93466 5.54837 0
M  V30 2121 H 197.319 -2.85481 5.39753 0
M  V30 2122 H 198.733 -0.603752 5.70112 0
M  V30 2123 H 197.13 0.128968 5.99961 0
M  V30 2124 H 198.2 0.837052 4.77621 0
M  V30 2125 N 199.544 -1.57102 0.125237 0
M  V30 2126 C 200.507 -2.14471 -0.80838 0
M  V30 2127 C 201.507 -1.0811 -1.19033 0
M  V30 2128 O 202.697 -1.33856 -1.11482 0
M  V30 2129 C 199.829 -2.69005 -2.09402 0
M  V30 2130 H 201.022 -2.98297 -0.309696 0
M  V30 2131 H 198.575 -1.55807 -0.124051 0
M  V30 2132 H 199.31 -1.88785 -2.63687 0
M  V30 2133 H 199.095 -3.46799 -1.82957 0
M  V30 2134 H 200.585 -3.13278 -2.76128 0
M  V30 2135 N 201.022 0.148545 -1.56898 0
M  V30 2136 C 202.268 0.857877 -1.84424 0
M  V30 2137 C 202.623 1.7886 -0.709006 0
M  V30 2138 O 201.916 1.89344 0.293139 0
M  V30 2139 C 202.11 1.67064 -3.1595 0
M  V30 2140 C 201.939 0.82011 -4.42159 0
M  V30 2141 C 200.709 0.486328 -5.02954 0
M  V30 2142 C 202.907 0.151155 -5.14078 0
M  V30 2143 N 200.889 -0.377956 -6.12735 0
M  V30 2144 C 202.26 -0.573333 -6.17343 0
M  V30 2145 C 204.315 0.0716685 -4.97848 0
M  V30 2146 C 203.018 -1.3698 -7.06137 0
M  V30 2147 C 205.044 -0.711532 -5.87104 0
M  V30 2148 C 204.406 -1.42431 -6.8985 0
M  V30 2149 H 200.505 0.291798 -0.725519 0
M  V30 2150 H 203.089 0.123347 -1.94309 0
M  V30 2151 H 201.26 2.37642 -3.07215 0
M  V30 2152 H 202.992 2.32302 -3.31388 0
M  V30 2153 H 199.747 0.821753 -4.66416 0
M  V30 2154 H 200.171 -0.801077 -6.72244 0
M  V30 2155 H 204.813 0.608381 -4.184 0
M  V30 2156 H 202.531 -1.91778 -7.85014 0
M  V30 2157 H 206.117 -0.775005 -5.76615 0
M  V30 2158 H 204.997 -2.02061 -7.57721 0
M  V30 2159 N 202.5 1.5196 0.417844 0
M  V30 2160 C 203.746 1.65836 1.16732 0
M  V30 2161 C 204.079 0.382881 1.90388 0
M  V30 2162 O 203.354 -0.618368 1.84408 0
M  V30 2163 C 203.637 2.87466 2.16876 0
M  V30 2164 C 203.49 4.25041 1.47174 0
M  V30 2165 C 204.809 3.04613 3.17646 0
M  V30 2166 H 201.928 0.603515 0.423011 0
M  V30 2167 H 204.57 1.84494 0.454105 0
M  V30 2168 H 202.72 2.71689 2.777 0
M  V30 2169 H 204.392 4.52527 0.895376 0
M  V30 2170 H 202.635 4.26843 0.773806 0
M  V30 2171 H 203.306 5.06176 2.20204 0
M  V30 2172 H 205.782 3.1923 2.66892 0
M  V30 2173 H 204.658 3.91247 3.8499 0
M  V30 2174 H 204.919 2.17541 3.84874 0
M  V30 2175 N 203.978 -0.674533 1.42435 0
M  V30 2176 C 205.206 -1.46283 1.46317 0
M  V30 2177 C 205.621 -1.88653 0.0745836 0
M  V30 2178 O 204.978 -1.58151 -0.91074 0
M  V30 2179 C 205.029 -2.71178 2.3905 0
M  V30 2180 O 204.75 -2.30586 3.72507 0
M  V30 2181 C 206.251 -3.64738 2.51955 0
M  V30 2182 H 203.471 -0.450104 0.497642 0
M  V30 2183 H 206.015 -0.828792 1.86953 0
M  V30 2184 H 204.17 -3.3077 2.01667 0
M  V30 2185 H 204.584 -3.11241 4.22172 0
M  V30 2186 H 206.058 -4.49096 3.20962 0
M  V30 2187 H 206.535 -4.10656 1.55752 0
M  V30 2188 H 207.141 -3.11038 2.90061 0
M  V30 2189 N 205.456 -1.28612 -0.910864 0
M  V30 2190 C 206.686 -1.1862 -1.69153 0
M  V30 2191 C 207.094 0.257324 -1.87442 0
M  V30 2192 O 206.437 1.18543 -1.40332 0
M  V30 2193 C 206.499 -1.81606 -3.10257 0
M  V30 2194 C 206.163 -3.30864 -3.15243 0
M  V30 2195 C 207.16 -4.27256 -2.96223 0
M  V30 2196 C 204.845 -3.71871 -3.37664 0
M  V30 2197 C 206.839 -5.62631 -2.99541 0
M  V30 2198 C 204.526 -5.07371 -3.40614 0
M  V30 2199 C 205.524 -6.02561 -3.21573 0
M  V30 2200 O 205.212 -7.35589 -3.2429 0
M  V30 2201 H 204.944 -0.412633 -0.535453 0
M  V30 2202 H 207.498 -1.70306 -1.14827 0
M  V30 2203 H 205.728 -1.24418 -3.66138 0
M  V30 2204 H 207.417 -1.66092 -3.70362 0
M  V30 2205 H 208.183 -3.9691 -2.78725 0
M  V30 2206 H 204.062 -2.98241 -3.5153 0
M  V30 2207 H 207.606 -6.36907 -2.84597 0
M  V30 2208 H 203.503 -5.37366 -3.57642 0
M  V30 2209 H 204.271 -7.44252 -3.40633 0
M  V30 2210 N 206.934 1.1197 -1.10907 0
M  V30 2211 C 208.345 1.65114 -0.871446 0
M  V30 2212 C 208.696 1.86885 0.597353 0
M  V30 2213 O 207.821 1.59896 1.45816 0
M  V30 2214 C 208.416 2.99944 -1.5754 0
M  V30 2215 C 206.975 3.50018 -1.38435 0
M  V30 2216 C 206.122 2.24941 -1.62164 0
M  V30 2217 H 209.073 0.956851 -1.2661 0
M  V30 2218 H 209.094 3.66651 -1.01721 0
M  V30 2219 H 208.606 2.84067 -2.64438 0
M  V30 2220 H 206.707 3.71071 -0.337214 0
M  V30 2221 H 206.82 4.29165 -2.12965 0
M  V30 2222 H 205.184 2.3229 -1.04467 0
M  V30 2223 H 205.967 2.11612 -2.70324 0
M  V30 2224 N 208.412 0.89855 1.29475 0
M  V30 2225 C 209.658 0.524658 1.95896 0
M  V30 2226 C 209.991 -0.926468 1.70676 0
M  V30 2227 O 209.266 -1.65665 1.01908 0
M  V30 2228 C 209.549 0.81633 3.50725 0
M  V30 2229 C 209.402 2.31907 3.85408 0
M  V30 2230 C 210.721 0.302038 4.39062 0
M  V30 2231 H 207.84 0.19209 0.711527 0
M  V30 2232 H 210.482 1.12502 1.53112 0
M  V30 2233 H 208.632 0.305369 3.87298 0
M  V30 2234 H 210.304 2.89949 3.58786 0
M  V30 2235 H 208.547 2.78027 3.32992 0
M  V30 2236 H 209.218 2.47373 4.93468 0
M  V30 2237 H 211.694 0.739551 4.09475 0
M  V30 2238 H 210.57 0.535331 5.46283 0
M  V30 2239 H 210.831 -0.797216 4.34853 0
M  V30 2240 N 209.89 -1.43072 0.660911 0
M  V30 2241 C 211.136 -2.0202 0.177708 0
M  V30 2242 C 211.469 -1.52066 -1.20787 0
M  V30 2243 O 210.744 -0.716987 -1.80802 0
M  V30 2244 C 211.027 -3.59561 0.197019 0
M  V30 2245 C 210.88 -4.19727 1.61706 0
M  V30 2246 C 212.199 -4.37664 -0.462396 0
M  V30 2247 H 209.318 -0.734034 0.0660494 0
M  V30 2248 H 211.96 -1.70272 0.843058 0
M  V30 2249 H 210.11 -3.86739 -0.369527 0
M  V30 2250 H 211.782 -4.03553 2.23479 0
M  V30 2251 H 210.025 -3.76084 2.16201 0
M  V30 2252 H 210.696 -5.28834 1.58237 0
M  V30 2253 H 213.172 -4.16095 0.0197215 0
M  V30 2254 H 212.048 -5.47305 -0.418188 0
M  V30 2255 H 212.309 -4.14493 -1.53778 0
M  V30 2256 N 211.368 -0.403325 -1.52352 0
M  V30 2257 C 212.298 0.416205 -2.29761 0
M  V30 2258 C 213.279 1.05123 -1.33728 0
M  V30 2259 O 214.464 1.06134 -1.62632 0
M  V30 2260 C 211.594 1.53624 -3.11475 0
M  V30 2261 C 210.548 1.02653 -4.15507 0
M  V30 2262 C 209.874 2.23971 -4.85532 0
M  V30 2263 C 211.174 0.08463 -5.22231 0
M  V30 2264 H 212.868 -0.229701 -2.98518 0
M  V30 2265 H 210.414 -0.111913 -1.43564 0
M  V30 2266 H 212.367 2.1165 -3.64393 0
M  V30 2267 H 211.091 2.20994 -2.40477 0
M  V30 2268 H 209.75 0.46871 -3.63591 0
M  V30 2269 H 209.398 2.89883 -4.11068 0
M  V30 2270 H 209.098 1.90521 -5.55856 0
M  V30 2271 H 210.622 2.82614 -5.41259 0
M  V30 2272 H 212.036 0.573509 -5.70424 0
M  V30 2273 H 210.433 -0.160783 -5.99885 0
M  V30 2274 H 211.503 -0.86237 -4.7717 0
M  V30 2275 N 212.846 1.57033 -0.133567 0
M  V30 2276 C 214.095 1.94861 0.520768 0
M  V30 2277 C 214.408 1.02012 1.66892 0
M  V30 2278 O 215.614 1.29365 2.38699 0
M  V30 2279 C 214.07 3.46362 0.977809 0
M  V30 2280 C 213.678 4.47773 -0.142674 0
M  V30 2281 C 215.422 3.93083 1.60269 0
M  V30 2282 C 213.329 5.90468 0.331883 0
M  V30 2283 H 212.259 0.727453 0.198315 0
M  V30 2284 H 214.91 1.82227 -0.215759 0
M  V30 2285 H 213.292 3.54282 1.7692 0
M  V30 2286 H 214.466 4.51536 -0.919317 0
M  V30 2287 H 212.781 4.10891 -0.675124 0
M  V30 2288 H 215.378 4.97121 1.96914 0
M  V30 2289 H 215.721 3.33876 2.48662 0
M  V30 2290 H 216.254 3.88025 0.876453 0
M  V30 2291 H 212.993 6.53463 -0.516341 0
M  V30 2292 H 212.513 5.90094 1.07469 0
M  V30 2293 H 214.192 6.42179 0.788332 0
M  V30 2294 N 214.325 -0.140222 1.56975 0
M  V30 2295 C 215.553 -0.866437 1.87884 0
M  V30 2296 C 215.968 -1.74428 0.722517 0
M  V30 2297 O 215.325 -1.79891 -0.30749 0
M  V30 2298 C 215.376 -1.71753 3.18093 0
M  V30 2299 O 215.097 -0.875056 4.29272 0
M  V30 2300 C 216.598 -2.55074 3.62563 0
M  V30 2301 H 213.818 -0.25019 0.622612 0
M  V30 2302 H 216.362 -0.130977 2.0408 0
M  V30 2303 H 214.517 -2.40598 3.03631 0
M  V30 2304 H 214.931 -1.46002 5.03769 0
M  V30 2305 H 216.405 -3.10356 4.5649 0
M  V30 2306 H 216.882 -3.31434 2.88181 0
M  V30 2307 H 217.488 -1.91509 3.79743 0
M  V30 2308 N 215.803 -1.52179 -0.40978 0
M  V30 2309 C 217.05 -1.66206 -1.15679 0
M  V30 2310 C 217.378 -0.391674 -1.90516 0
M  V30 2311 O 216.633 0.62533 -1.8544 0
M  V30 2312 C 216.932 -2.83428 -2.17723 0
M  V30 2313 C 216.598 -4.21672 -1.59699 0
M  V30 2314 C 215.26 -4.59274 -1.43599 0
M  V30 2315 C 217.612 -5.07825 -1.17317 0
M  V30 2316 C 214.94 -5.80709 -0.836328 0
M  V30 2317 C 217.292 -6.29864 -0.587691 0
M  V30 2318 C 215.956 -6.66216 -0.413818 0
M  V30 2319 H 215.226 -0.608192 -0.423301 0
M  V30 2320 H 217.873 -1.86279 -0.444097 0
M  V30 2321 H 216.178 -2.57687 -2.95135 0
M  V30 2322 H 217.875 -2.91477 -2.75394 0
M  V30 2323 H 214.465 -3.9204 -1.73213 0
M  V30 2324 H 218.649 -4.79359 -1.28565 0
M  V30 2325 H 213.905 -6.07498 -0.689626 0
M  V30 2326 H 218.079 -6.95948 -0.250894 0
M  V30 2327 H 215.706 -7.60182 0.0529471 0
M  V30 2328 N 217.281 0.66697 -1.42791 0
M  V30 2329 C 218.506 1.46004 -1.47301 0
M  V30 2330 C 218.931 1.87894 -0.0880317 0
M  V30 2331 O 218.289 1.56502 0.915253 0
M  V30 2332 C 218.337 2.68031 -2.41229 0
M  V30 2333 O 217.441 3.6659 -1.88906 0
M  V30 2334 H 216.782 0.43832 -0.49877 0
M  V30 2335 H 219.312 0.817391 -1.87563 0
M  V30 2336 H 219.322 3.1601 -2.58073 0
M  V30 2337 H 217.997 2.36883 -3.41847 0
M  V30 2338 H 216.574 3.25661 -1.81656 0
M  V30 2339 N 218.759 1.29093 0.90403 0
M  V30 2340 C 219.722 1.1386 1.98919 0
M  V30 2341 C 220.722 0.0753457 1.60623 0
M  V30 2342 O 221.912 0.321931 1.71199 0
M  V30 2343 C 219.044 0.740198 3.32767 0
M  V30 2344 H 220.237 2.10246 2.13861 0
M  V30 2345 H 217.79 1.12218 1.08797 0
M  V30 2346 H 218.525 -0.223997 3.23525 0
M  V30 2347 H 218.31 1.50838 3.61926 0
M  V30 2348 H 219.8 0.656546 4.12407 0
M  V30 2349 N 220.237 -1.11381 1.11499 0
M  V30 2350 C 221.485 -1.8277 0.862524 0
M  V30 2351 C 221.806 -1.85097 -0.613534 0
M  V30 2352 O 221.076 -1.32198 -1.4457 0
M  V30 2353 H 219.656 -0.676823 0.316101 0
M  V30 2354 H 222.318 -1.34816 1.4075 0
M  V30 2355 H 221.414 -2.86614 1.23527 0
M  V30 2356 N 221.715 -0.905404 -1.28997 0
M  V30 2357 C 222.962 -0.534248 -1.95325 0
M  V30 2358 C 223.29 0.920535 -1.71337 0
M  V30 2359 O 222.545 1.66861 -1.02254 0
M  V30 2360 C 222.844 -0.779906 -3.48787 0
M  V30 2361 C 222.51 -2.21293 -3.92861 0
M  V30 2362 C 221.172 -2.60475 -4.04606 0
M  V30 2363 C 223.524 -3.14587 -4.15553 0
M  V30 2364 C 220.852 -3.9212 -4.36416 0
M  V30 2365 C 223.204 -4.45787 -4.48839 0
M  V30 2366 C 221.868 -4.84834 -4.58794 0
M  V30 2367 H 221.138 -0.195495 -0.714747 0
M  V30 2368 H 223.785 -1.14514 -1.53488 0
M  V30 2369 H 222.09 -0.0861365 -3.91705 0
M  V30 2370 H 223.787 -0.472029 -3.98212 0
M  V30 2371 H 220.377 -1.89887 -3.84241 0
M  V30 2372 H 224.561 -2.85528 -4.0594 0
M  V30 2373 H 219.817 -4.22086 -4.42327 0
M  V30 2374 H 223.991 -5.18098 -4.65346 0
M  V30 2375 H 221.618 -5.86877 -4.83197 0
M  V30 2376 N 223.193 1.4272 -0.668489 0
M  V30 2377 C 224.421 2.05966 -0.196348 0
M  V30 2378 C 224.836 1.50191 1.14403 0
M  V30 2379 O 224.193 0.639208 1.7094 0
M  V30 2380 C 224.244 3.61314 -0.115815 0
M  V30 2381 O 223.965 4.1502 -1.40322 0
M  V30 2382 C 225.466 4.41663 0.380579 0
M  V30 2383 H 222.686 0.663954 -0.0969829 0
M  V30 2384 H 225.23 1.82966 -0.913446 0
M  V30 2385 H 223.385 3.83448 0.551931 0
M  V30 2386 H 223.799 5.08832 -1.27243 0
M  V30 2387 H 225.273 5.5065 0.385848 0
M  V30 2388 H 225.75 4.15792 1.41471 0
M  V30 2389 H 226.356 4.24534 -0.255209 0
M  V30 2390 N 224.671 0.411399 1.52136 0
M  V30 2391 C 225.603 -0.448386 2.24771 0
M  V30 2392 C 226.616 -1.00828 1.27818 0
M  V30 2393 O 227.805 -0.906841 1.53749 0
M  V30 2394 C 224.905 -1.63636 2.96777 0
M  V30 2395 C 224.078 -1.19995 4.20618 0
M  V30 2396 C 223.137 -2.25509 4.75428 0
M  V30 2397 O 222.163 -1.86007 5.3795 0
M  V30 2398 N 223.365 -3.577 4.57199 0
M  V30 2399 H 226.13 0.174025 2.99194 0
M  V30 2400 H 223.691 0.238897 1.60128 0
M  V30 2401 H 225.683 -2.33793 3.30338 0
M  V30 2402 H 224.253 -2.16465 2.25526 0
M  V30 2403 H 223.473 -0.326421 3.92846 0
M  V30 2404 H 224.761 -0.885365 5.01038 0
M  V30 2405 H 224.159 -3.92543 4.07341 0
M  V30 2406 H 222.716 -4.23827 4.95191 0
M  V30 2407 N 226.149 -1.5696 0.141893 0
M  V30 2408 C 227.398 -1.95135 -0.510427 0
M  V30 2409 C 227.711 -1.02896 -1.66348 0
M  V30 2410 O 228.917 -1.30629 -2.38009 0
M  V30 2411 C 227.373 -3.46876 -0.959427 0
M  V30 2412 C 226.981 -4.47691 0.166419 0
M  V30 2413 C 228.725 -3.93927 -1.58183 0
M  V30 2414 C 226.632 -5.90636 -0.300565 0
M  V30 2415 H 225.562 -0.728494 -0.194454 0
M  V30 2416 H 228.213 -1.8211 0.22542 0
M  V30 2417 H 226.595 -3.55215 -1.75038 0
M  V30 2418 H 227.769 -4.51043 0.94325 0
M  V30 2419 H 226.084 -4.10527 0.696905 0
M  V30 2420 H 228.681 -4.98158 -1.94275 0
M  V30 2421 H 229.024 -3.3519 -2.46888 0
M  V30 2422 H 229.557 -3.88484 -0.855863 0
M  V30 2423 H 226.296 -6.5318 0.550989 0
M  V30 2424 H 225.816 -5.90655 -1.04338 0
M  V30 2425 H 227.495 -6.42588 -0.754265 0
M  V30 2426 N 227.627 0.131896 -1.57047 0
M  V30 2427 C 228.557 1.16384 -2.02428 0
M  V30 2428 C 229.538 1.43936 -0.90644 0
M  V30 2429 O 230.723 1.54599 -1.17528 0
M  V30 2430 C 227.853 2.49328 -2.4177 0
M  V30 2431 C 226.807 2.36266 -3.56879 0
M  V30 2432 C 226.133 3.74057 -3.8208 0
M  V30 2433 C 227.433 1.834 -4.89042 0
M  V30 2434 H 229.127 0.786433 -2.88887 0
M  V30 2435 H 226.673 0.376855 -1.38981 0
M  V30 2436 H 228.626 3.21759 -2.7212 0
M  V30 2437 H 227.35 2.88934 -1.52266 0
M  V30 2438 H 226.009 1.66286 -3.26718 0
M  V30 2439 H 225.657 4.11125 -2.89803 0
M  V30 2440 H 225.357 3.66174 -4.59554 0
M  V30 2441 H 226.881 4.48012 -4.1487 0
M  V30 2442 H 228.295 2.45636 -5.18011 0
M  V30 2443 H 226.692 1.8637 -5.70426 0
M  V30 2444 H 227.762 0.790662 -4.7841 0
M  V30 2445 N 229.106 1.52395 0.401703 0
M  V30 2446 C 230.069 1.75636 1.47257 0
M  V30 2447 C 231.069 0.62628 1.48103 0
M  V30 2448 O 232.259 0.894227 1.49497 0
M  V30 2449 C 229.391 1.84553 2.86624 0
M  V30 2450 H 230.584 2.71241 1.27938 0
M  V30 2451 H 228.137 1.42923 0.632662 0
M  V30 2452 H 228.872 0.908882 3.11303 0
M  V30 2453 H 228.657 2.66715 2.87412 0
M  V30 2454 H 230.147 2.04251 3.64241 0
M  V30 2455 N 230.584 -0.659388 1.43143 0
M  V30 2456 C 231.995 -1.24041 1.39537 0
M  V30 2457 C 232.346 -1.95963 0.0963364 0
M  V30 2458 O 231.471 -2.00892 -0.804438 0
M  V30 2459 C 232.066 -2.25601 2.52764 0
M  V30 2460 C 230.625 -2.79195 2.52443 0
M  V30 2461 C 229.772 -1.53743 2.30778 0
M  V30 2462 H 232.723 -0.451792 1.52133 0
M  V30 2463 H 232.744 -3.07651 2.23899 0
M  V30 2464 H 232.256 -1.73226 3.47296 0
M  V30 2465 H 230.357 -3.35649 1.61773 0
M  V30 2466 H 230.47 -3.2716 3.50004 0
M  V30 2467 H 228.834 -1.80869 1.79328 0
M  V30 2468 H 229.617 -1.03312 3.27386 0
M  V30 2469 N 232.062 -1.29571 -0.897171 0
M  V30 2470 C 232.994 -1.10724 -2.00681 0
M  V30 2471 C 234.007 -0.0540026 -1.6271 0
M  V30 2472 O 235.196 -0.298783 -1.75982 0
M  V30 2473 C 232.296 -0.663912 -3.32333 0
M  V30 2474 C 231.469 -1.79622 -3.98816 0
M  V30 2475 C 230.528 -1.34349 -5.0876 0
M  V30 2476 O 229.554 -2.04864 -5.31055 0
M  V30 2477 N 230.756 -0.215764 -5.80099 0
M  V30 2478 H 233.521 -2.06291 -2.17403 0
M  V30 2479 H 231.082 -1.21544 -1.06951 0
M  V30 2480 H 233.074 -0.344295 -4.03233 0
M  V30 2481 H 231.644 0.199375 -3.11964 0
M  V30 2482 H 230.864 -2.28459 -3.21248 0
M  V30 2483 H 232.152 -2.55535 -4.39976 0
M  V30 2484 H 231.55 0.372091 -5.64475 0
M  V30 2485 H 230.107 0.0444707 -6.51785 0
M  V30 2486 N 233.54 1.10788 -1.12088 0
M  V30 2487 C 234.503 2.15207 -0.788577 0
M  V30 2488 C 235.503 1.59609 0.195317 0
M  V30 2489 O 236.693 1.74174 -0.0300193 0
M  V30 2490 C 233.825 3.4047 -0.171174 0
M  V30 2491 H 235.018 2.46116 -1.71368 0
M  V30 2492 H 232.571 1.26089 -0.923652 0
M  V30 2493 H 233.306 3.15176 0.763832 0
M  V30 2494 H 233.091 3.82109 -0.879514 0
M  V30 2495 H 234.581 4.17576 0.04496 0
M  V30 2496 N 235.018 0.912232 1.28515 0
M  V30 2497 C 236.264 0.545405 1.95328 0
M  V30 2498 C 236.597 -0.908313 1.71649 0
M  V30 2499 O 235.872 -1.64575 1.03659 0
M  V30 2500 C 236.155 0.853483 3.4984 0
M  V30 2501 C 236.008 2.35982 3.82926 0
M  V30 2502 C 237.327 0.348589 4.38717 0
M  V30 2503 H 234.446 0.199626 0.709449 0
M  V30 2504 H 237.088 1.1412 1.5191 0
M  V30 2505 H 235.238 0.34643 3.86952 0
M  V30 2506 H 236.91 2.93738 3.55691 0
M  V30 2507 H 235.153 2.81543 3.30024 0
M  V30 2508 H 235.824 2.52593 4.90816 0
M  V30 2509 H 238.3 0.78294 4.08668 0
M  V30 2510 H 237.176 0.593242 5.45685 0
M  V30 2511 H 237.437 -0.751049 4.35674 0
M  V30 2512 N 236.496 -1.42363 0.676048 0
M  V30 2513 C 237.744 -2.01123 0.198437 0
M  V30 2514 C 238.065 -1.53731 -1.19966 0
M  V30 2515 O 237.335 -0.759518 -1.80577 0
M  V30 2516 H 235.915 -0.743678 0.0703721 0
M  V30 2517 H 238.577 -1.74263 0.872837 0
M  V30 2518 H 237.673 -3.11454 0.200686 0
M  V30 2519 N 237.974 -0.419461 -1.51915 0
M  V30 2520 C 239.199 0.154572 -2.06823 0
M  V30 2521 C 239.624 1.3722 -1.28656 0
M  V30 2522 O 238.982 1.78461 -0.319583 0
M  V30 2523 C 239.03 0.473172 -3.57482 0
M  V30 2524 O 238.134 1.56255 -3.81652 0
M  V30 2525 H 237.475 0.0096924 -0.663929 0
M  V30 2526 H 240.005 -0.595642 -1.95738 0
M  V30 2527 H 240.015 0.728825 -4.01438 0
M  V30 2528 H 238.69 -0.416873 -4.13805 0
M  V30 2529 H 237.267 1.29825 -3.49571 0
M  V30 2530 N 239.452 1.56882 -0.150215 0
M  V30 2531 C 240.7 1.9584 0.499105 0
M  V30 2532 C 241.021 1.03623 1.65188 0
M  V30 2533 O 240.291 0.0984084 1.95653 0
M  V30 2534 H 238.871 0.723119 0.187373 0
M  V30 2535 H 241.533 1.9358 -0.226466 0
M  V30 2536 H 240.629 2.99638 0.873122 0
M  V30 2537 N 240.93 -0.123565 1.57115 0
M  V30 2538 C 242.179 -0.830704 1.83799 0
M  V30 2539 C 242.492 -1.81259 0.735158 0
M  V30 2540 O 243.698 -2.56558 0.888278 0
M  V30 2541 C 242.154 -1.52802 3.25852 0
M  V30 2542 C 241.762 -0.587356 4.44133 0
M  V30 2543 C 243.506 -2.22056 3.61789 0
M  V30 2544 C 241.413 -1.28764 5.77212 0
M  V30 2545 H 240.343 -0.313967 0.685522 0
M  V30 2546 H 242.994 -0.0834359 1.8331 0
M  V30 2547 H 241.376 -2.32175 3.20797 0
M  V30 2548 H 242.55 0.172829 4.60476 0
M  V30 2549 H 240.865 -0.00201892 4.164 0
M  V30 2550 H 243.462 -2.75131 4.58483 0
M  V30 2551 H 243.805 -2.99644 2.88997 0
M  V30 2552 H 244.338 -1.49576 3.68608 0
M  V30 2553 H 241.077 -0.55314 6.53162 0
M  V30 2554 H 240.597 -2.01995 5.64764 0
M  V30 2555 H 242.276 -1.8221 6.20813 0
M  V30 2556 N 242.408 -1.52605 -0.393616 0
M  V30 2557 C 243.819 -1.59417 -0.971761 0
M  V30 2558 C 244.17 -0.444173 -1.91106 0
M  V30 2559 O 243.295 0.433382 -2.12016 0
M  V30 2560 C 243.89 -2.88936 -1.76921 0
M  V30 2561 C 242.449 -2.98175 -2.29714 0
M  V30 2562 C 241.596 -2.54491 -1.10135 0
M  V30 2563 H 244.547 -1.57751 -0.173317 0
M  V30 2564 H 244.568 -2.75163 -2.62804 0
M  V30 2565 H 244.08 -3.72616 -1.08532 0
M  V30 2566 H 242.181 -2.19024 -3.01429 0
M  V30 2567 H 242.294 -4.02726 -2.59517 0
M  V30 2568 H 240.658 -2.08702 -1.45999 0
M  V30 2569 H 241.441 -3.4056 -0.432874 0
M  V30 2570 N 243.887 0.651787 -1.4349 0
M  V30 2571 C 244.797 1.79368 -1.5121 0
M  V30 2572 C 245.813 1.69361 -0.399093 0
M  V30 2573 O 246.989 1.90505 -0.653431 0
M  V30 2574 C 244.054 3.15653 -1.43401 0
M  V30 2575 C 243.115 3.37446 -2.65384 0
M  V30 2576 C 242.348 4.67229 -2.57939 0
M  V30 2577 O 242.571 5.46676 -1.62792 0
M  V30 2578 O 241.505 4.90773 -3.48462 0
M  V30 2579 H 245.331 1.7581 -2.47638 0
M  V30 2580 H 242.916 0.810447 -1.25507 0
M  V30 2581 H 244.798 3.96935 -1.41494 0
M  V30 2582 H 243.473 3.19798 -0.501085 0
M  V30 2583 H 242.38 2.55923 -2.72863 0
M  V30 2584 H 243.713 3.38148 -3.57654 0
M  V30 2585 N 245.365 1.30045 0.890287 0
M  V30 2586 C 246.298 1.10301 1.99772 0
M  V30 2587 C 247.276 0.0121631 1.62595 0
M  V30 2588 O 248.46 0.16469 1.87779 0
M  V30 2589 C 245.587 0.681125 3.31781 0
M  V30 2590 C 244.633 1.77206 3.87944 0
M  V30 2591 S 245.466 3.37335 4.15891 0
M  V30 2592 C 246.622 2.97036 5.50927 0
M  V30 2593 H 246.855 2.04057 2.16213 0
M  V30 2594 H 244.388 1.14299 1.03804 0
M  V30 2595 H 246.346 0.444439 4.08087 0
M  V30 2596 H 245.007 -0.236981 3.13205 0
M  V30 2597 H 244.2 1.42903 4.83316 0
M  V30 2598 H 243.802 1.96275 3.18358 0
M  V30 2599 H 246.094 2.44666 6.31779 0
M  V30 2600 H 247.037 3.91296 5.90164 0
M  V30 2601 H 247.445 2.35057 5.13233 0
M  V30 2602 N 246.843 -1.10192 1.12674 0
M  V30 2603 C 247.79 -2.16606 0.796906 0
M  V30 2604 C 248.76 -1.64394 -0.237476 0
M  V30 2605 O 249.945 -1.90474 -0.111484 0
M  V30 2606 C 247.085 -3.44116 0.26043 0
M  V30 2607 C 246.198 -4.10268 1.35293 0
M  V30 2608 C 245.333 -5.25507 0.775621 0
M  V30 2609 C 244.372 -5.83567 1.84706 0
M  V30 2610 N 243.509 -6.90179 1.28829 0
M  V30 2611 H 248.349 -2.44163 1.70846 0
M  V30 2612 H 245.886 -1.19846 0.85295 0
M  V30 2613 H 247.844 -4.17143 -0.0686814 0
M  V30 2614 H 246.474 -3.16901 -0.614274 0
M  V30 2615 H 245.526 -3.35184 1.79877 0
M  V30 2616 H 246.838 -4.4946 2.16303 0
M  V30 2617 H 245.992 -6.05398 0.397327 0
M  V30 2618 H 244.731 -4.87656 -0.0656581 0
M  V30 2619 H 243.736 -5.02344 2.23452 0
M  V30 2620 H 244.961 -6.23482 2.69161 0
M  V30 2621 H 242.907 -6.54322 0.468881 0
M  V30 2622 H 242.824 -7.28097 2.03497 0
M  V30 2623 H 244.092 -7.73844 0.937311 0
M  V30 2624 N 248.321 -0.919034 -1.28029 0
M  V30 2625 C 249.549 -0.570971 -1.98866 0
M  V30 2626 C 249.964 0.848996 -1.68634 0
M  V30 2627 O 249.321 1.56307 -0.942036 0
M  V30 2628 C 249.372 -0.776876 -3.53054 0
M  V30 2629 O 249.093 -2.14097 -3.82222 0
M  V30 2630 C 250.594 -0.436356 -4.41147 0
M  V30 2631 H 247.814 -0.217175 -0.634883 0
M  V30 2632 H 250.358 -1.23368 -1.63097 0
M  V30 2633 H 248.513 -0.161085 -3.87065 0
M  V30 2634 H 248.927 -2.18455 -4.76841 0
M  V30 2635 H 250.401 -0.63117 -5.4838 0
M  V30 2636 H 250.878 0.627686 -4.34692 0
M  V30 2637 H 251.484 -1.02991 -4.12641 0
M  V30 2638 N 249.799 1.42003 -0.683588 0
M  V30 2639 C 251.048 2.00638 -0.206681 0
M  V30 2640 C 251.361 1.5472 1.19671 0
M  V30 2641 O 252.567 2.05833 1.77045 0
M  V30 2642 C 251.023 3.58487 -0.318632 0
M  V30 2643 C 250.631 4.1339 -1.72663 0
M  V30 2644 C 252.375 4.24384 0.0991141 0
M  V30 2645 C 250.282 5.63633 -1.79087 0
M  V30 2646 H 249.212 0.750408 -0.0735107 0
M  V30 2647 H 251.863 1.62624 -0.850048 0
M  V30 2648 H 250.245 3.94047 0.392781 0
M  V30 2649 H 251.419 3.89273 -2.46583 0
M  V30 2650 H 249.734 3.59976 -2.09299 0
M  V30 2651 H 252.331 5.34652 0.0713833 0
M  V30 2652 H 252.674 4.00505 1.13586 0
M  V30 2653 H 253.207 3.93816 -0.561599 0
M  V30 2654 H 249.946 5.92323 -2.80774 0
M  V30 2655 H 249.466 5.89714 -1.09535 0
M  V30 2656 H 251.145 6.28201 -1.5483 0
M  V30 2657 N 251.277 0.427512 1.51691 0
M  V30 2658 C 252.207 -0.3796 2.30394 0
M  V30 2659 C 253.188 -1.02982 1.35384 0
M  V30 2660 O 254.373 -1.03534 1.643 0
M  V30 2661 C 251.503 -1.48649 3.1388 0
M  V30 2662 C 250.457 -0.960294 4.17088 0
M  V30 2663 C 249.783 -2.16219 4.89033 0
M  V30 2664 C 251.083 -0.00153679 5.223 0
M  V30 2665 H 252.777 0.277164 2.98114 0
M  V30 2666 H 250.323 0.134739 1.43368 0
M  V30 2667 H 252.276 -2.05826 3.67714 0
M  V30 2668 H 251 -2.1714 2.43962 0
M  V30 2669 H 249.659 -0.410806 3.64291 0
M  V30 2670 H 249.307 -2.83307 4.15628 0
M  V30 2671 H 249.007 -1.81654 5.58816 0
M  V30 2672 H 250.531 -2.73968 5.45687 0
M  V30 2673 H 251.945 -0.482687 5.71264 0
M  V30 2674 H 250.342 0.256199 5.99553 0
M  V30 2675 H 251.412 0.938174 4.75738 0
M  V30 2676 N 252.755 -1.56801 0.158532 0
M  V30 2677 C 254.171 -1.5837 -0.197774 0
M  V30 2678 C 254.371 -1.17334 -1.63814 0
M  V30 2679 O 253.427 -0.878988 -2.36707 0
M  V30 2680 C 254.74 -3.00615 0.0714459 0
M  V30 2681 C 256.288 -3.12999 0.00864533 0
M  V30 2682 C 256.763 -4.57313 0.250685 0
M  V30 2683 N 258.254 -4.62777 0.198014 0
M  V30 2684 C 258.989 -5.72271 0.359642 0
M  V30 2685 N 258.485 -6.90371 0.579625 0
M  V30 2686 N 260.278 -5.61318 0.296438 0
M  V30 2687 H 252.429 -1.81765 1.09887 0
M  V30 2688 H 254.692 -0.841849 0.435884 0
M  V30 2689 H 254.398 -3.35068 1.06874 0
M  V30 2690 H 254.272 -3.71683 -0.642757 0
M  V30 2691 H 256.659 -2.7838 -0.979217 0
M  V30 2692 H 256.74 -2.44393 0.755359 0
M  V30 2693 H 256.384 -4.92639 1.2357 0
M  V30 2694 H 256.314 -5.24061 -0.516489 0
M  V30 2695 H 258.805 -3.77885 0.0331115 0
M  V30 2696 H 259.118 -7.69689 0.69275 0
M  V30 2697 H 257.463 -6.92264 0.616087 0
M  V30 2698 H 260.654 -4.67932 0.125258 0
M  V30 2699 H 260.827 -6.46599 0.425831 0
M  V30 2700 N 254.233 0.115231 -1.57178 0
M  V30 2701 C 255.481 0.820727 -1.84685 0
M  V30 2702 C 255.802 1.80237 -0.744279 0
M  V30 2703 O 255.072 1.94529 0.231375 0
M  V30 2704 H 253.652 0.306084 -0.681411 0
M  V30 2705 H 256.314 0.101656 -1.94635 0
M  V30 2706 H 255.41 1.36366 -2.80733 0
M  V30 2707 N 255.711 1.52812 0.385517 0
M  V30 2708 C 256.957 1.68275 1.13188 0
M  V30 2709 C 257.29 0.423179 1.89533 0
M  V30 2710 O 256.565 -0.579113 1.85679 0
M  V30 2711 C 256.848 2.92001 2.1073 0
M  V30 2712 C 256.701 4.28067 1.38125 0
M  V30 2713 C 258.02 3.11283 3.11113 0
M  V30 2714 H 255.139 0.612352 0.410115 0
M  V30 2715 H 257.781 1.85415 0.414869 0
M  V30 2716 H 255.931 2.77519 2.71874 0
M  V30 2717 H 257.603 4.54324 0.799187 0
M  V30 2718 H 255.846 4.28388 0.683092 0
M  V30 2719 H 256.517 5.10733 2.09417 0
M  V30 2720 H 258.993 3.2482 2.6006 0
M  V30 2721 H 257.869 3.99325 3.76605 0
M  V30 2722 H 258.13 2.25656 3.80173 0
M  V30 2723 N 257.189 -0.644168 1.43834 0
M  V30 2724 C 258.435 -1.40603 1.46146 0
M  V30 2725 C 258.768 -1.93997 0.0887717 0
M  V30 2726 O 258.043 -1.72854 -0.891724 0
M  V30 2727 C 258.326 -2.58086 2.51124 0
M  V30 2728 C 258.179 -2.10126 3.97702 0
M  V30 2729 C 259.498 -3.60291 2.52742 0
M  V30 2730 H 256.617 -0.509905 0.532134 0
M  V30 2731 H 259.259 -0.729502 1.75437 0
M  V30 2732 H 257.409 -3.15801 2.26278 0
M  V30 2733 H 259.081 -1.57342 4.33637 0
M  V30 2734 H 257.324 -1.41419 4.10101 0
M  V30 2735 H 257.995 -2.94649 4.66783 0
M  V30 2736 H 260.471 -3.12352 2.7491 0
M  V30 2737 H 259.347 -4.40032 3.28121 0
M  V30 2738 H 259.608 -4.1349 1.56455 0
M  V30 2739 N 258.668 -1.30515 -0.883378 0
M  V30 2740 C 259.598 -1.19607 -2.00541 0
M  V30 2741 C 260.579 -0.086346 -1.69881 0
M  V30 2742 O 261.764 -0.268654 -1.92333 0
M  V30 2743 C 258.894 -0.888758 -3.35736 0
M  V30 2744 C 257.848 -1.95659 -3.8066 0
M  V30 2745 C 257.174 -1.50224 -5.13164 0
M  V30 2746 C 258.474 -3.36788 -3.99213 0
M  V30 2747 H 260.168 -2.13476 -2.09925 0
M  V30 2748 H 257.714 -1.02775 -1.00863 0
M  V30 2749 H 259.667 -0.799094 -4.13754 0
M  V30 2750 H 258.391 0.0856125 -3.26488 0
M  V30 2751 H 257.05 -2.03591 -3.04871 0
M  V30 2752 H 256.698 -0.516092 -5.00345 0
M  V30 2753 H 256.398 -2.2165 -5.44192 0
M  V30 2754 H 257.922 -1.42639 -5.93706 0
M  V30 2755 H 259.336 -3.31605 -4.67665 0
M  V30 2756 H 257.733 -4.06314 -4.41621 0
M  V30 2757 H 258.803 -3.78561 -3.03017 0
M  V30 2758 N 260.146 1.09593 -1.13257 0
M  V30 2759 C 261.093 2.1618 -0.808381 0
M  V30 2760 C 262.063 1.64517 0.228754 0
M  V30 2761 O 263.248 1.9053 0.101381 0
M  V30 2762 C 260.388 3.43973 -0.278675 0
M  V30 2763 C 259.501 4.09545 -1.37466 0
M  V30 2764 C 258.636 5.25088 -0.803479 0
M  V30 2765 C 257.675 5.82579 -1.87799 0
M  V30 2766 N 256.812 6.89486 -1.32488 0
M  V30 2767 H 261.652 2.43254 -1.72138 0
M  V30 2768 H 259.189 1.19392 -0.859294 0
M  V30 2769 H 261.147 4.17174 0.0465583 0
M  V30 2770 H 259.777 3.17223 0.597459 0
M  V30 2771 H 258.829 3.34226 -1.81652 0
M  V30 2772 H 260.141 4.48307 -2.18684 0
M  V30 2773 H 259.295 6.05178 -0.429427 0
M  V30 2774 H 258.034 4.87684 0.0397956 0
M  V30 2775 H 257.039 5.01152 -2.26113 0
M  V30 2776 H 258.264 6.22045 -2.72463 0
M  V30 2777 H 256.21 6.54064 -0.503575 0
M  V30 2778 H 256.127 7.27007 -2.07355 0
M  V30 2779 H 257.395 7.73336 -0.978336 0
M  V30 2780 N 261.624 0.925811 1.2754 0
M  V30 2781 C 262.534 0.428993 2.30644 0
M  V30 2782 C 263.55 -0.489387 1.66976 0
M  V30 2783 O 264.726 -0.372653 1.97922 0
M  V30 2784 C 261.791 -0.311967 3.45294 0
M  V30 2785 C 260.852 0.641098 4.24486 0
M  V30 2786 C 260.085 -0.0645955 5.33661 0
M  V30 2787 O 260.308 -1.28429 5.55754 0
M  V30 2788 O 259.242 0.606265 5.98839 0
M  V30 2789 H 263.068 1.28504 2.75173 0
M  V30 2790 H 260.653 0.691086 1.32455 0
M  V30 2791 H 262.535 -0.729972 4.15029 0
M  V30 2792 H 261.21 -1.14365 3.02824 0
M  V30 2793 H 260.117 1.10874 3.57292 0
M  V30 2794 H 261.45 1.43995 4.70666 0
M  V30 2795 N 263.102 -1.41638 0.69111 0
M  V30 2796 C 264.332 -2.0533 0.228758 0
M  V30 2797 C 264.74 -1.52089 -1.12541 0
M  V30 2798 O 264.083 -0.662145 -1.71351 0
M  V30 2799 C 264.145 -3.59349 0.10407 0
M  V30 2800 C 263.809 -4.35362 1.38956 0
M  V30 2801 C 264.806 -4.64942 2.32648 0
M  V30 2802 C 262.491 -4.74714 1.64169 0
M  V30 2803 C 264.485 -5.32828 3.49818 0
M  V30 2804 C 262.172 -5.42338 2.81625 0
M  V30 2805 C 263.17 -5.71322 3.74273 0
M  V30 2806 O 262.858 -6.37554 4.89673 0
M  V30 2807 H 262.59 -0.667796 0.104997 0
M  V30 2808 H 265.144 -1.82477 0.942938 0
M  V30 2809 H 263.374 -3.80924 -0.665839 0
M  V30 2810 H 265.063 -4.04633 -0.320519 0
M  V30 2811 H 265.829 -4.35025 2.14425 0
M  V30 2812 H 261.708 -4.51538 0.929202 0
M  V30 2813 H 265.252 -5.55368 4.22152 0
M  V30 2814 H 261.149 -5.71673 2.99768 0
M  V30 2815 H 261.917 -6.56049 4.8943 0
M  V30 2816 N 264.58 -0.43555 -1.51462 0
M  V30 2817 C 265.51 0.367376 -2.30592 0
M  V30 2818 C 266.491 1.02263 -1.35928 0
M  V30 2819 O 267.676 1.02661 -1.64847 0
M  V30 2820 C 264.806 1.46983 -3.14664 0
M  V30 2821 C 263.76 0.938161 -4.17591 0
M  V30 2822 C 263.086 2.13622 -4.90173 0
M  V30 2823 C 264.386 -0.0261621 -5.22293 0
M  V30 2824 H 266.08 -0.292969 -2.97963 0
M  V30 2825 H 263.626 -0.14234 -1.43295 0
M  V30 2826 H 265.579 2.03873 -3.688 0
M  V30 2827 H 264.303 2.15843 -2.4511 0
M  V30 2828 H 262.962 0.391481 -3.64504 0
M  V30 2829 H 262.61 2.81098 -4.17124 0
M  V30 2830 H 262.31 1.78688 -5.59772 0
M  V30 2831 H 263.834 2.7107 -5.47132 0
M  V30 2832 H 265.248 0.452384 -5.71512 0
M  V30 2833 H 263.645 -0.287992 -5.99409 0
M  V30 2834 H 264.715 -0.963391 -4.75233 0
M  V30 2835 N 266.058 1.56714 -0.166846 0
M  V30 2836 C 267.286 2.0112 0.485644 0
M  V30 2837 C 267.701 1.04705 1.57106 0
M  V30 2838 O 267.058 0.0471923 1.82439 0
M  V30 2839 C 267.109 3.45361 1.06808 0
M  V30 2840 O 266.83 4.38092 0.0259995 0
M  V30 2841 C 268.331 4.05145 1.79924 0
M  V30 2842 H 265.551 0.65931 0.124704 0
M  V30 2843 H 268.095 2.02746 -0.267262 0
M  V30 2844 H 266.25 3.44524 1.7715 0
M  V30 2845 H 266.664 5.22519 0.455398 0
M  V30 2846 H 268.138 5.08009 2.15942 0
M  V30 2847 H 268.615 3.46982 2.69258 0
M  V30 2848 H 269.221 4.09672 1.14234 0
M  V30 2849 N 267.536 -0.106894 1.57237 0
M  V30 2850 C 268.466 -1.13148 2.04254 0
M  V30 2851 C 269.447 -1.42476 0.929224 0
M  V30 2852 O 270.632 -1.52709 1.19973 0
M  V30 2853 C 267.762 -2.4545 2.45706 0
M  V30 2854 C 266.716 -2.30558 3.60592 0
M  V30 2855 C 266.042 -3.67931 3.87983 0
M  V30 2856 C 267.342 -1.75597 4.91897 0
M  V30 2857 H 269.036 -0.740374 2.90101 0
M  V30 2858 H 266.582 -0.354696 1.39563 0
M  V30 2859 H 268.535 -3.17389 2.77205 0
M  V30 2860 H 267.259 -2.86475 1.56843 0
M  V30 2861 H 265.918 -1.61067 3.29322 0
M  V30 2862 H 265.566 -4.06462 2.96306 0
M  V30 2863 H 265.266 -3.58817 4.65322 0
M  V30 2864 H 266.79 -4.41356 4.21945 0
M  V30 2865 H 268.204 -2.37364 5.21854 0
M  V30 2866 H 266.601 -1.77272 5.73319 0
M  V30 2867 H 267.671 -0.714451 4.79608 0
M  V30 2868 N 269.014 -1.53014 -0.377408 0
M  V30 2869 C 269.961 -1.78616 -1.46168 0
M  V30 2870 C 270.931 -0.629917 -1.53692 0
M  V30 2871 O 272.116 -0.870861 -1.69766 0
M  V30 2872 C 269.256 -1.97123 -2.8326 0
M  V30 2873 C 268.369 -3.24831 -2.84796 0
M  V30 2874 C 267.504 -3.33591 -4.13389 0
M  V30 2875 C 266.543 -4.55377 -4.09021 0
M  V30 2876 N 265.68 -4.61355 -5.29241 0
M  V30 2877 H 270.52 -2.71142 -1.23637 0
M  V30 2878 H 268.057 -1.34326 -0.599577 0
M  V30 2879 H 270.015 -2.05839 -3.62886 0
M  V30 2880 H 268.645 -1.07946 -3.04216 0
M  V30 2881 H 267.697 -3.25128 -1.97474 0
M  V30 2882 H 269.009 -4.14523 -2.77439 0
M  V30 2883 H 268.163 -3.41554 -5.01424 0
M  V30 2884 H 266.902 -2.41894 -4.23484 0
M  V30 2885 H 265.907 -4.47527 -3.19373 0
M  V30 2886 H 267.132 -5.48402 -4.00539 0
M  V30 2887 H 265.078 -3.72554 -5.39944 0
M  V30 2888 H 264.995 -5.44935 -5.24006 0
M  V30 2889 H 266.263 -4.73586 -6.19141 0
M  V30 2890 N 270.492 0.636531 -1.44174 0
M  V30 2891 C 271.72 1.42353 -1.50144 0
M  V30 2892 C 272.135 1.88389 -0.124575 0
M  V30 2893 O 271.492 1.6051 0.868489 0
M  V30 2894 C 271.543 2.64744 -2.46156 0
M  V30 2895 O 271.264 2.20629 -3.7849 0
M  V30 2896 C 272.765 3.57929 -2.61537 0
M  V30 2897 H 269.985 0.436752 -0.5094 0
M  V30 2898 H 272.529 0.778933 -1.89084 0
M  V30 2899 H 270.684 3.25307 -2.10366 0
M  V30 2900 H 271.098 2.99938 -4.30276 0
M  V30 2901 H 272.572 4.40428 -3.32757 0
M  V30 2902 H 273.049 4.06382 -1.66585 0
M  V30 2903 H 273.655 3.03238 -2.98206 0
M  V30 2904 N 271.97 1.30982 0.876444 0
M  V30 2905 C 273.217 1.20296 1.62896 0
M  V30 2906 C 273.545 -0.240395 1.93009 0
M  V30 2907 O 272.8 -1.18733 1.55567 0
M  V30 2908 C 273.099 1.98572 2.9716 0
M  V30 2909 C 272.765 3.48125 2.86566 0
M  V30 2910 C 271.427 3.88905 2.83383 0
M  V30 2911 C 273.779 4.43322 2.74071 0
M  V30 2912 C 271.107 5.2316 2.65556 0
M  V30 2913 C 273.459 5.77695 2.57781 0
M  V30 2914 C 272.123 6.17704 2.52979 0
M  V30 2915 H 271.393 0.440193 0.59608 0
M  V30 2916 H 274.04 1.62177 1.01837 0
M  V30 2917 H 272.345 1.49352 3.62217 0
M  V30 2918 H 274.042 1.8769 3.54364 0
M  V30 2919 H 270.632 3.15723 2.89856 0
M  V30 2920 H 274.816 4.12752 2.75589 0
M  V30 2921 H 270.072 5.53241 2.60259 0
M  V30 2922 H 274.246 6.51091 2.47089 0
M  V30 2923 H 271.873 7.21678 2.38924 0
M  V30 2924 N 273.449 -1.08991 1.13837 0
M  V30 2925 C 274.698 -1.80631 0.897509 0
M  V30 2926 C 275.011 -1.86872 -0.57777 0
M  V30 2927 O 276.217 -2.54866 -0.935701 0
M  V30 2928 C 274.673 -3.24517 1.55618 0
M  V30 2929 C 274.281 -3.26529 3.0673 0
M  V30 2930 C 276.025 -4.00882 1.3962 0
M  V30 2931 C 273.932 -4.64965 3.65461 0
M  V30 2932 H 272.862 -0.67691 0.332129 0
M  V30 2933 H 275.513 -1.2246 1.3666 0
M  V30 2934 H 273.895 -3.82778 1.01476 0
M  V30 2935 H 275.069 -2.78008 3.67489 0
M  V30 2936 H 273.384 -2.63656 3.22296 0
M  V30 2937 H 275.981 -5.03167 1.80906 0
M  V30 2938 H 276.324 -4.14896 0.341578 0
M  V30 2939 H 276.857 -3.49075 1.90766 0
M  V30 2940 H 273.596 -4.56153 4.70749 0
M  V30 2941 H 273.116 -5.13792 3.09481 0
M  V30 2942 H 274.795 -5.3394 3.654 0
M  V30 2943 N 274.927 -0.932562 -1.27047 0
M  V30 2944 C 275.89 -0.440064 -2.24936 0
M  V30 2945 C 276.89 0.444071 -1.54547 0
M  V30 2946 O 278.08 0.244465 -1.72476 0
M  V30 2947 C 275.212 0.36678 -3.38921 0
M  V30 2948 H 276.405 -1.305 -2.70018 0
M  V30 2949 H 273.958 -0.713707 -1.39054 0
M  V30 2950 H 274.693 1.25033 -2.99228 0
M  V30 2951 H 274.478 -0.267204 -3.91188 0
M  V30 2952 H 275.968 0.701567 -4.11665 0
M  V30 2953 N 276.405 1.4127 -0.698611 0
M  V30 2954 C 277.352 2.30773 -0.0352094 0
M  V30 2955 C 278.322 1.47273 0.768111 0
M  V30 2956 O 279.507 1.76053 0.735524 0
M  V30 2957 C 276.647 3.33346 0.893 0
M  V30 2958 C 275.76 4.31924 0.0809695 0
M  V30 2959 C 274.895 5.21566 1.0071 0
M  V30 2960 C 273.934 6.11811 0.188155 0
M  V30 2961 N 273.071 6.93926 1.06825 0
M  V30 2962 H 277.911 2.86943 -0.804207 0
M  V30 2963 H 275.448 1.4132 -0.408294 0
M  V30 2964 H 277.406 3.91368 1.44523 0
M  V30 2965 H 276.036 2.78719 1.62836 0
M  V30 2966 H 275.088 3.75825 -0.588224 0
M  V30 2967 H 276.4 4.95716 -0.553801 0
M  V30 2968 H 275.554 5.84437 1.62845 0
M  V30 2969 H 274.293 4.58008 1.67572 0
M  V30 2970 H 273.298 5.47986 -0.446254 0
M  V30 2971 H 274.523 6.77425 -0.476716 0
M  V30 2972 H 272.469 6.32973 1.72283 0
M  V30 2973 H 272.386 7.54416 0.489123 0
M  V30 2974 H 273.654 7.61262 1.67632 0
M  V30 2975 N 277.883 0.443576 1.51229 0
M  V30 2976 C 279.129 -0.120975 2.02439 0
M  V30 2977 C 279.462 -1.41815 1.32674 0
M  V30 2978 O 278.737 -1.89373 0.443622 0
M  V30 2979 C 279.02 -0.333291 3.58554 0
M  V30 2980 C 278.873 0.982968 4.38928 0
M  V30 2981 C 280.192 -1.10028 4.26124 0
M  V30 2982 H 277.311 -0.0424923 0.735774 0
M  V30 2983 H 279.953 0.583794 1.80809 0
M  V30 2984 H 278.103 -0.933614 3.77115 0
M  V30 2985 H 279.775 1.61775 4.32003 0
M  V30 2986 H 278.018 1.58611 4.03763 0
M  V30 2987 H 278.689 0.788379 5.46341 0
M  V30 2988 H 281.165 -0.591711 4.11871 0
M  V30 2989 H 280.041 -1.21761 5.35225 0
M  V30 2990 H 280.302 -2.12996 3.87408 0
M  V30 2991 N 279.361 -1.56624 0.175154 0
M  V30 2992 C 280.61 -1.96173 -0.468921 0
M  V30 2993 C 280.923 -1.06401 -1.64128 0
M  V30 2994 O 282.129 -1.35648 -2.35185 0
M  V30 2995 C 280.585 -3.48833 -0.885633 0
M  V30 2996 C 280.193 -4.47237 0.261343 0
M  V30 2997 C 281.937 -3.97194 -1.49791 0
M  V30 2998 C 279.844 -5.9114 -0.175214 0
M  V30 2999 H 278.774 -0.732455 -0.178958 0
M  V30 3000 H 281.425 -1.81591 0.263997 0
M  V30 3001 H 279.807 -3.58848 -1.67464 0
M  V30 3002 H 280.981 -4.4894 1.03871 0
M  V30 3003 H 279.296 -4.08956 0.783827 0
M  V30 3004 H 281.893 -5.02167 -1.83665 0
M  V30 3005 H 282.236 -3.40351 -2.39722 0
M  V30 3006 H 282.769 -3.90212 -0.773267 0
M  V30 3007 H 279.508 -6.51865 0.689414 0
M  V30 3008 H 279.028 -5.92735 -0.91786 0
M  V30 3009 H 280.707 -6.44044 -0.617792 0
M  V30 3010 N 280.839 0.0985539 -1.57292 0
M  V30 3011 C 282.087 0.801092 -1.85545 0
M  V30 3012 C 282.408 1.79438 -0.763353 0
M  V30 3013 O 281.678 1.94763 0.21073 0
M  V30 3014 H 280.258 0.29884 -0.684619 0
M  V30 3015 H 282.92 0.0810064 -1.94732 0
M  V30 3016 H 282.016 1.3338 -2.82163 0
M  V30 3017 N 282.317 1.53212 0.369288 0
M  V30 3018 C 283.247 1.82365 1.45826 0
M  V30 3019 C 284.228 0.676907 1.56051 0
M  V30 3020 O 285.413 0.926401 1.70679 0
M  V30 3021 C 282.543 2.01023 2.83208 0
M  V30 3022 C 281.497 3.1678 2.8781 0
M  V30 3023 C 280.823 3.20724 4.27832 0
M  V30 3024 C 282.123 4.55447 2.55667 0
M  V30 3025 H 283.817 2.73559 1.21678 0
M  V30 3026 H 281.363 1.3163 0.583911 0
M  V30 3027 H 283.316 2.20001 3.59413 0
M  V30 3028 H 282.04 1.06536 3.08736 0
M  V30 3029 H 280.699 2.97616 2.14056 0
M  V30 3030 H 280.347 2.23882 4.50429 0
M  V30 3031 H 280.047 3.98496 4.31827 0
M  V30 3032 H 281.571 3.41881 5.05915 0
M  V30 3033 H 282.985 4.74611 3.21586 0
M  V30 3034 H 281.382 5.35432 2.70984 0
M  V30 3035 H 282.452 4.60812 1.5093 0
M  V30 3036 N 283.795 -0.628877 1.44509 0
M  V30 3037 C 285.023 -1.41554 1.50897 0
M  V30 3038 C 285.438 -1.8832 0.134564 0
M  V30 3039 O 284.795 -1.60969 -0.859965 0
M  V30 3040 C 284.846 -2.63435 2.47556 0
M  V30 3041 O 284.567 -2.18619 3.79654 0
M  V30 3042 C 286.068 -3.56537 2.63431 0
M  V30 3043 H 283.288 -0.434044 0.511709 0
M  V30 3044 H 285.832 -0.768895 1.89495 0
M  V30 3045 H 283.987 -3.24187 2.12089 0
M  V30 3046 H 284.401 -2.97652 4.31861 0
M  V30 3047 H 285.875 -4.38657 3.35088 0
M  V30 3048 H 286.352 -4.05493 1.68738 0
M  V30 3049 H 286.958 -3.01653 2.9981 0
M  V30 3050 N 285.273 -1.31445 -0.869486 0
M  V30 3051 C 286.513 -1.22458 -1.63656 0
M  V30 3052 C 286.877 0.213846 -1.90805 0
M  V30 3053 O 288.078 0.427212 -2.65383 0
M  V30 3054 C 286.349 -2.04564 -2.93067 0
M  V30 3055 S 287.908 -2.12445 -3.83944 0
M  V30 3056 H 284.726 -0.436145 -0.561514 0
M  V30 3057 H 287.328 -1.66114 -1.03085 0
M  V30 3058 H 286.032 -3.0816 -2.71045 0
M  V30 3059 H 285.563 -1.6163 -3.58663 0
M  V30 3060 H 287.578 -1.26312 -4.79854 0
M  V30 3061 N 286.751 1.08385 -1.14413 0
M  V30 3062 C 287.714 2.13486 -0.834048 0
M  V30 3063 C 288.714 1.59988 0.161418 0
M  V30 3064 O 289.904 1.74071 -0.0669575 0
M  V30 3065 C 287.036 3.4003 -0.243354 0
M  V30 3066 H 288.229 2.42425 -1.7655 0
M  V30 3067 H 285.782 1.24101 -0.950189 0
M  V30 3068 H 286.517 3.16726 0.696807 0
M  V30 3069 H 286.302 3.80157 -0.960367 0
M  V30 3070 H 287.792 4.17577 -0.0436242 0
M  V30 3071 N 288.23 0.939286 1.26551 0
M  V30 3072 C 289.16 0.465044 2.28822 0
M  V30 3073 C 290.141 -0.480692 1.63167 0
M  V30 3074 O 291.326 -0.382955 1.90387 0
M  V30 3075 C 288.456 -0.27234 3.46231 0
M  V30 3076 C 287.41 0.58666 4.2396 0
M  V30 3077 C 286.736 -0.280573 5.33963 0
M  V30 3078 C 288.036 1.85704 4.88171 0
M  V30 3079 H 289.73 1.31979 2.68741 0
M  V30 3080 H 287.276 0.636061 1.29191 0
M  V30 3081 H 289.229 -0.615133 4.16886 0
M  V30 3082 H 287.953 -1.16121 3.0526 0
M  V30 3083 H 286.612 0.91232 3.55067 0
M  V30 3084 H 286.26 -1.16874 4.89234 0
M  V30 3085 H 285.96 0.29076 5.8688 0
M  V30 3086 H 287.484 -0.618678 6.07458 0
M  V30 3087 H 288.898 1.58161 5.51052 0
M  V30 3088 H 287.295 2.37279 5.51197 0
M  V30 3089 H 288.365 2.56957 4.11219 0
M  V30 3090 N 289.708 -1.40897 0.706093 0
M  V30 3091 C 290.956 -2.00657 0.241054 0
M  V30 3092 C 291.277 -1.56241 -1.16678 0
M  V30 3093 O 290.547 -0.79765 -1.78926 0
M  V30 3094 H 289.127 -0.742018 0.0861308 0
M  V30 3095 H 291.789 -1.72372 0.909604 0
M  V30 3096 H 290.885 -3.10958 0.266705 0
M  V30 3097 N 291.186 -0.45159 -1.50991 0
M  V30 3098 C 292.411 0.110667 -2.07105 0
M  V30 3099 C 292.836 1.3446 -1.31538 0
M  V30 3100 O 292.194 1.77743 -0.357365 0
M  V30 3101 C 292.242 0.397238 -3.58405 0
M  V30 3102 O 291.346 1.48124 -3.84881 0
M  V30 3103 H 290.687 -0.00439271 -0.663985 0
M  V30 3104 H 293.217 -0.637026 -1.9443 0
M  V30 3105 H 293.227 0.64351 -4.02893 0
M  V30 3106 H 291.902 -0.504553 -4.12828 0
M  V30 3107 H 290.479 1.22381 -3.52246 0
M  V30 3108 N 292.664 1.56529 -0.183458 0
M  V30 3109 C 293.912 1.96855 0.457452 0
M  V30 3110 C 294.233 1.07104 1.62953 0
M  V30 3111 O 293.503 0.139887 1.954 0
M  V30 3112 H 292.083 0.72693 0.171992 0
M  V30 3113 H 294.745 1.93056 -0.267476 0
M  V30 3114 H 293.841 3.01423 0.809368 0
M  V30 3115 N 294.142 -0.090211 1.57342 0
M  V30 3116 C 295.075 -1.14035 1.97664 0
M  V30 3117 C 296.053 -1.38576 0.850616 0
M  V30 3118 O 297.237 -1.52255 1.11134 0
M  V30 3119 C 294.364 -2.48854 2.2976 0
M  V30 3120 C 293.41 -2.40564 3.52181 0
M  V30 3121 S 294.243 -1.81745 5.03715 0
M  V30 3122 C 295.399 -3.18178 5.38993 0
M  V30 3123 H 295.632 -0.796636 2.86428 0
M  V30 3124 H 293.165 -0.298072 1.51496 0
M  V30 3125 H 295.123 -3.26413 2.48927 0
M  V30 3126 H 293.784 -2.80393 1.41558 0
M  V30 3127 H 292.977 -3.39942 3.72096 0
M  V30 3128 H 292.579 -1.71135 3.32549 0
M  V30 3129 H 294.871 -4.14461 5.35937 0
M  V30 3130 H 295.814 -3.03062 6.39968 0
M  V30 3131 H 296.222 -3.17935 4.66452 0
M  V30 3132 N 295.62 -1.53406 -0.361157 0
M  V30 3133 C 297.031 -1.61442 -0.937728 0
M  V30 3134 C 297.382 -0.48461 -1.90121 0
M  V30 3135 O 296.507 0.388312 -2.12888 0
M  V30 3136 C 297.102 -2.92624 -1.70753 0
M  V30 3137 C 295.661 -3.02981 -2.23337 0
M  V30 3138 C 294.808 -2.5677 -1.04712 0
M  V30 3139 H 297.759 -1.58083 -0.139816 0
M  V30 3140 H 297.78 -2.80675 -2.56908 0
M  V30 3141 H 297.292 -3.74834 -1.00604 0
M  V30 3142 H 295.393 -2.25368 -2.96715 0
M  V30 3143 H 295.506 -4.0814 -2.50916 0
M  V30 3144 H 293.87 -2.11752 -1.41539 0
M  V30 3145 H 294.653 -3.41402 -0.360539 0
M  V30 3146 N 297.098 0.621204 -1.44841 0
M  V30 3147 C 298.028 1.74366 -1.55303 0
M  V30 3148 C 299.009 1.65199 -0.405385 0
M  V30 3149 O 300.194 1.83807 -0.626787 0
M  V30 3150 C 297.324 3.12931 -1.50637 0
M  V30 3151 C 296.278 3.36896 -2.63979 0
M  V30 3152 C 295.604 4.75594 -2.44366 0
M  V30 3153 C 296.904 3.28483 -4.06074 0
M  V30 3154 H 298.598 1.65867 -2.49256 0
M  V30 3155 H 296.144 0.796558 -1.19962 0
M  V30 3156 H 298.097 3.9124 -1.56555 0
M  V30 3157 H 296.821 3.22237 -0.532057 0
M  V30 3158 H 295.48 2.60972 -2.57467 0
M  V30 3159 H 295.128 4.81616 -1.45105 0
M  V30 3160 H 294.828 4.92586 -3.20364 0
M  V30 3161 H 296.352 5.5612 -2.52117 0
M  V30 3162 H 297.766 3.96684 -4.13902 0
M  V30 3163 H 296.163 3.57008 -4.82354 0
M  V30 3164 H 297.233 2.26133 -4.28943 0
M  V30 3165 N 298.576 1.31904 0.862503 0
M  V30 3166 C 299.824 1.21776 1.61292 0
M  V30 3167 C 300.145 -0.222413 1.93727 0
M  V30 3168 O 299.415 -1.1451 1.58947 0
M  V30 3169 H 297.995 0.447717 0.597962 0
M  V30 3170 H 300.657 1.65326 1.03215 0
M  V30 3171 H 299.753 1.7948 2.5533 0
M  V30 3172 N 300.054 -1.07777 1.14986 0
M  V30 3173 C 301.001 -2.14867 0.842672 0
M  V30 3174 C 301.971 -1.6486 -0.202552 0
M  V30 3175 O 303.156 -1.90668 -0.0710568 0
M  V30 3176 C 300.296 -3.43486 0.333363 0
M  V30 3177 C 299.409 -4.07306 1.43965 0
M  V30 3178 C 298.544 -5.23744 0.886914 0
M  V30 3179 C 297.583 -5.79517 1.97043 0
M  V30 3180 N 296.72 -6.87291 1.4344 0
M  V30 3181 H 301.56 -2.40485 1.75986 0
M  V30 3182 H 299.097 -1.1801 0.878179 0
M  V30 3183 H 301.055 -4.17195 0.0198163 0
M  V30 3184 H 299.685 -3.18133 -0.546916 0
M  V30 3185 H 298.737 -3.31293 1.86946 0
M  V30 3186 H 300.049 -4.44771 2.25788 0
M  V30 3187 H 299.203 -6.04419 0.525651 0
M  V30 3188 H 297.942 -4.87685 0.0377957 0
M  V30 3189 H 296.947 -4.97491 2.34057 0
M  V30 3190 H 298.172 -6.17632 2.82325 0
M  V30 3191 H 296.118 -6.5318 0.607567 0
M  V30 3192 H 296.035 -7.23617 2.18895 0
M  V30 3193 H 297.303 -7.71682 1.10124 0
M  V30 3194 N 301.532 -0.945985 -1.26051 0
M  V30 3195 C 302.442 -0.465633 -2.29933 0
M  V30 3196 C 303.458 0.462761 -1.67733 0
M  V30 3197 O 304.634 0.341118 -1.9849 0
M  V30 3198 C 301.699 0.256994 -3.45746 0
M  V30 3199 C 300.76 -0.708549 -4.23412 0
M  V30 3200 C 299.993 -0.0203135 -5.33696 0
M  V30 3201 O 300.216 1.19571 -5.57726 0
M  V30 3202 O 299.15 -0.701459 -5.97799 0
M  V30 3203 H 302.976 -1.32866 -2.73094 0
M  V30 3204 H 300.561 -0.712071 -1.31339 0
M  V30 3205 H 302.443 0.663852 -4.16138 0
M  V30 3206 H 301.118 1.09533 -3.04605 0
M  V30 3207 H 300.025 -1.16545 -3.55483 0
M  V30 3208 H 301.358 -1.51465 -4.68315 0
M  V30 3209 N 303.011 1.40521 -0.713556 0
M  V30 3210 C 304.259 2.00527 -0.251692 0
M  V30 3211 C 304.58 1.56857 1.15848 0
M  V30 3212 O 303.85 0.807127 1.785 0
M  V30 3213 H 302.43 0.741551 -0.0900646 0
M  V30 3214 H 305.092 1.71887 -0.918733 0
M  V30 3215 H 304.188 3.10813 -0.283192 0
M  V30 3216 N 304.489 0.459591 1.5075 0
M  V30 3217 C 305.9 0.00171547 1.867 0
M  V30 3218 C 306.251 -1.39934 1.37525 0
M  V30 3219 O 305.376 -2.03523 0.735349 0
M  V30 3220 C 305.971 -0.00366298 3.388 0
M  V30 3221 C 304.53 -0.406026 3.74204 0
M  V30 3222 C 303.677 0.38673 2.7459 0
M  V30 3223 H 306.628 0.674413 1.43657 0
M  V30 3224 H 306.649 -0.808371 3.71814 0
M  V30 3225 H 306.161 1.01617 3.74561 0
M  V30 3226 H 304.262 -1.43063 3.4404 0
M  V30 3227 H 304.375 -0.115362 4.78961 0
M  V30 3228 H 302.739 -0.158019 2.54209 0
M  V30 3229 H 303.522 1.40585 3.13194 0
M  V30 3230 N 305.967 -1.56429 0.191757 0
M  V30 3231 C 307.214 -1.97485 -0.447891 0
M  V30 3232 C 307.542 -1.07852 -1.61859 0
M  V30 3233 O 306.797 -0.116903 -1.95351 0
M  V30 3234 C 307.096 -3.44449 -0.953384 0
M  V30 3235 C 306.762 -4.50781 0.103586 0
M  V30 3236 C 305.424 -4.79584 0.394023 0
M  V30 3237 C 307.776 -5.1471 0.819946 0
M  V30 3238 C 305.104 -5.69607 1.40585 0
M  V30 3239 C 307.456 -6.05827 1.8209 0
M  V30 3240 C 306.12 -6.32987 2.11857 0
M  V30 3241 H 305.39 -0.722648 -0.163895 0
M  V30 3242 H 308.037 -1.89322 0.28802 0
M  V30 3243 H 306.342 -3.49666 -1.76751 0
M  V30 3244 H 308.039 -3.73569 -1.45765 0
M  V30 3245 H 304.629 -4.28394 -0.132951 0
M  V30 3246 H 308.813 -4.92552 0.608789 0
M  V30 3247 H 304.069 -5.88926 1.64243 0
M  V30 3248 H 308.243 -6.54424 2.38123 0
M  V30 3249 H 305.87 -7.02544 2.90407 0
M  V30 3250 N 307.445 0.0818655 -1.57387 0
M  V30 3251 C 308.691 0.784074 -1.8703 0
M  V30 3252 C 309.024 1.77729 -0.782689 0
M  V30 3253 O 308.299 1.93384 0.208051 0
M  V30 3254 C 308.582 1.50105 -3.27323 0
M  V30 3255 C 308.435 0.524925 -4.46727 0
M  V30 3256 C 309.754 2.44843 -3.65705 0
M  V30 3257 H 306.873 0.283582 -0.680257 0
M  V30 3258 H 309.515 0.0474352 -1.89941 0
M  V30 3259 H 307.665 2.12897 -3.24972 0
M  V30 3260 H 309.337 -0.0970111 -4.61198 0
M  V30 3261 H 307.58 -0.160606 -4.33503 0
M  V30 3262 H 308.251 1.064 -5.41648 0
M  V30 3263 H 310.727 1.92135 -3.69085 0
M  V30 3264 H 309.603 2.92018 -4.64776 0
M  V30 3265 H 309.864 3.29197 -2.95096 0
M  V30 3266 N 308.923 1.53595 0.353017 0
M  V30 3267 C 309.873 1.77299 1.43349 0
M  V30 3268 C 310.857 0.627884 1.48143 0
M  V30 3269 O 312.049 0.88697 1.53173 0
M  V30 3270 C 309.178 1.97757 2.80619 0
M  V30 3271 C 308.264 3.18305 2.80254 0
M  V30 3272 N 308.655 4.39967 2.49526 0
M  V30 3273 C 306.953 3.19283 3.11407 0
M  V30 3274 C 307.654 5.21772 2.57156 0
M  V30 3275 N 306.63 4.58269 2.92388 0
M  V30 3276 H 310.432 2.68963 1.18474 0
M  V30 3277 H 307.946 1.52391 0.561306 0
M  V30 3278 H 309.943 2.1287 3.58458 0
M  V30 3279 H 308.603 1.07329 3.06448 0
M  V30 3280 H 309.614 4.67482 2.22893 0
M  V30 3281 H 306.291 2.3879 3.4247 0
M  V30 3282 H 307.681 6.2885 2.36638 0
M  V30 3283 N 310.401 -0.613514 1.45168 0
M  V30 3284 C 311.65 -1.36874 1.4815 0
M  V30 3285 C 311.963 -1.952 0.124982 0
M  V30 3286 O 313.169 -2.71481 0.0324176 0
M  V30 3287 C 311.625 -2.47905 2.60904 0
M  V30 3288 C 311.233 -1.96016 4.02842 0
M  V30 3289 C 312.977 -3.24965 2.73126 0
M  V30 3290 C 310.884 -3.04494 5.06988 0
M  V30 3291 H 309.814 -0.514428 0.551253 0
M  V30 3292 H 312.465 -0.658182 1.7129 0
M  V30 3293 H 310.847 -3.21618 2.31037 0
M  V30 3294 H 312.021 -1.29051 4.4236 0
M  V30 3295 H 310.336 -1.31719 3.95018 0
M  V30 3296 H 312.933 -4.05865 3.48106 0
M  V30 3297 H 313.276 -3.75588 1.79553 0
M  V30 3298 H 313.809 -2.5835 3.0249 0
M  V30 3299 H 310.548 -2.58795 6.0225 0
M  V30 3300 H 310.068 -3.70044 4.72046 0
M  V30 3301 H 311.747 -3.68976 5.31475 0
M  V30 3302 N 311.879 -1.3236 -0.855495 0
M  V30 3303 C 312.842 -1.21164 -1.94556 0
M  V30 3304 C 313.842 -0.134908 -1.60233 0
M  V30 3305 O 315.032 -0.385249 -1.69887 0
M  V30 3306 C 312.164 -0.863192 -3.29791 0
M  V30 3307 H 313.357 -2.18038 -2.05911 0
M  V30 3308 H 310.91 -1.16179 -1.04557 0
M  V30 3309 H 311.645 0.103769 -3.24134 0
M  V30 3310 H 311.43 -1.64166 -3.56078 0
M  V30 3311 H 312.92 -0.809156 -4.09686 0
M  V30 3312 N 313.357 1.07166 -1.15556 0
M  V30 3313 C 314.582 1.84053 -0.955988 0
M  V30 3314 C 315.007 1.81586 0.490739 0
M  V30 3315 O 314.365 1.21018 1.34997 0
M  V30 3316 C 314.413 3.28957 -1.47714 0
M  V30 3317 O 313.517 4.06795 -0.677593 0
M  V30 3318 H 312.858 0.569842 -0.340847 0
M  V30 3319 H 315.388 1.35178 -1.53584 0
M  V30 3320 H 315.398 3.79788 -1.4908 0
M  V30 3321 H 314.073 3.30068 -2.53037 0
M  V30 3322 H 312.65 3.6561 -0.733721 0
M  V30 3323 N 314.835 0.952656 1.25548 0
M  V30 3324 C 315.768 0.415525 2.24385 0
M  V30 3325 C 316.746 -0.502046 1.54655 0
M  V30 3326 O 317.93 -0.436875 1.83368 0
M  V30 3327 C 315.057 -0.401734 3.36309 0
M  V30 3328 C 314.103 0.455949 4.24056 0
M  V30 3329 S 314.936 1.88698 5.01152 0
M  V30 3330 C 316.092 1.07809 6.16545 0
M  V30 3331 H 316.325 1.25315 2.69599 0
M  V30 3332 H 313.858 0.756587 1.34592 0
M  V30 3333 H 315.816 -0.867329 4.01233 0
M  V30 3334 H 314.477 -1.21416 2.89684 0
M  V30 3335 H 313.67 -0.170776 5.03711 0
M  V30 3336 H 313.272 0.856675 3.64056 0
M  V30 3337 H 315.564 0.325816 6.76716 0
M  V30 3338 H 316.507 1.84849 6.83547 0
M  V30 3339 H 316.915 0.60909 5.61204 0
M  V30 3340 N 316.313 -1.40141 0.720998 0
M  V30 3341 C 317.553 -2.02644 0.267335 0
M  V30 3342 C 317.917 -1.55948 -1.12001 0
M  V30 3343 O 319.118 -2.10552 -1.67097 0
M  V30 3344 C 317.389 -3.55679 0.350281 0
M  V30 3345 S 318.948 -4.38793 -0.0256004 0
M  V30 3346 H 315.766 -0.703105 0.105664 0
M  V30 3347 H 318.368 -1.71175 0.944416 0
M  V30 3348 H 317.072 -3.87157 1.36153 0
M  V30 3349 H 316.603 -3.91883 -0.345096 0
M  V30 3350 H 318.618 -4.803 -1.24604 0
M  V30 3351 N 317.792 -0.46758 -1.50504 0
M  V30 3352 C 318.755 0.317059 -2.26996 0
M  V30 3353 C 319.755 0.923513 -1.31635 0
M  V30 3354 O 320.945 0.793239 -1.55091 0
M  V30 3355 C 318.077 1.45134 -3.08462 0
M  V30 3356 H 319.27 -0.353723 -2.97807 0
M  V30 3357 H 316.823 -0.221545 -1.54722 0
M  V30 3358 H 317.558 2.15728 -2.4214 0
M  V30 3359 H 317.343 1.02232 -3.78538 0
M  V30 3360 H 318.833 2.00493 -3.66323 0
M  V30 3361 N 319.27 1.56325 -0.20005 0
M  V30 3362 C 320.233 2.18084 0.705132 0
M  V30 3363 C 321.233 1.13666 1.1374 0
M  V30 3364 O 322.423 1.39023 1.04968 0
M  V30 3365 C 319.555 2.78689 1.96329 0
M  V30 3366 H 320.748 2.99435 0.167023 0
M  V30 3367 H 318.301 1.56221 0.0495725 0
M  V30 3368 H 319.036 2.0115 2.5438 0
M  V30 3369 H 318.821 3.55133 1.66202 0
M  V30 3370 H 320.311 3.26096 2.60866 0
M  V30 3371 N 320.748 -0.0735177 1.57428 0
M  V30 3372 C 321.678 -1.0879 2.06608 0
M  V30 3373 C 322.659 -1.40473 0.959237 0
M  V30 3374 O 323.844 -1.5013 1.23185 0
M  V30 3375 C 320.974 -2.40183 2.50857 0
M  V30 3376 C 319.928 -2.22858 3.65402 0
M  V30 3377 C 319.254 -3.59619 3.957 0
M  V30 3378 C 320.554 -1.65123 4.95511 0
M  V30 3379 H 322.248 -0.678673 2.91607 0
M  V30 3380 H 319.794 -0.325013 1.40284 0
M  V30 3381 H 321.747 -3.11437 2.83874 0
M  V30 3382 H 320.471 -2.83083 1.62885 0
M  V30 3383 H 319.13 -1.54045 3.32664 0
M  V30 3384 H 318.778 -4.00086 3.04861 0
M  V30 3385 H 318.478 -3.48866 4.72828 0
M  V30 3386 H 320.002 -4.32306 4.31212 0
M  V30 3387 H 321.416 -2.26241 5.26771 0
M  V30 3388 H 319.813 -1.65071 5.7695 0
M  V30 3389 H 320.883 -0.612559 4.81015 0
M  V30 3390 N 322.226 -1.5378 -0.344866 0
M  V30 3391 C 323.156 -1.84662 -1.42906 0
M  V30 3392 C 324.137 -0.701648 -1.54955 0
M  V30 3393 O 325.322 -0.953438 -1.69184 0
M  V30 3394 C 322.452 -2.05503 -2.79974 0
M  V30 3395 C 321.406 -3.21318 -2.82734 0
M  V30 3396 C 320.732 -3.2749 -4.22675 0
M  V30 3397 C 322.032 -4.59456 -2.48389 0
M  V30 3398 H 323.726 -2.75461 -1.17311 0
M  V30 3399 H 321.272 -1.32542 -0.562896 0
M  V30 3400 H 323.225 -2.25691 -3.55867 0
M  V30 3401 H 321.949 -1.11434 -3.07002 0
M  V30 3402 H 320.608 -3.00984 -2.09294 0
M  V30 3403 H 320.256 -2.31019 -4.4681 0
M  V30 3404 H 319.956 -4.05316 -4.25433 0
M  V30 3405 H 321.48 -3.49887 -5.00412 0
M  V30 3406 H 322.894 -4.79667 -3.13995 0
M  V30 3407 H 321.291 -5.39675 -2.62432 0
M  V30 3408 H 322.361 -4.63155 -1.4358 0
M  V30 3409 N 323.704 0.605807 -1.45491 0
M  V30 3410 C 324.929 1.39625 -1.53361 0
M  V30 3411 C 325.354 1.87351 -0.167645 0
M  V30 3412 O 324.712 1.60243 0.848051 0
M  V30 3413 C 324.76 2.57559 -2.5238 0
M  V30 3414 O 323.864 3.58248 -2.04285 0
M  V30 3415 H 323.205 0.416771 -0.516912 0
M  V30 3416 H 325.735 0.737103 -1.90861 0
M  V30 3417 H 325.745 3.0478 -2.71244 0
M  V30 3418 H 324.42 2.22171 -3.51586 0
M  V30 3419 H 322.997 3.17664 -1.95305 0
M  V30 3420 N 325.182 1.32811 0.848464 0
M  V30 3421 C 326.129 1.22265 1.95755 0
M  V30 3422 C 327.099 0.103413 1.65778 0
M  V30 3423 O 328.284 0.280033 1.88734 0
M  V30 3424 C 325.424 0.958014 3.31536 0
M  V30 3425 C 324.537 2.16262 3.73971 0
M  V30 3426 C 323.672 1.83295 4.98575 0
M  V30 3427 C 322.711 3.00041 5.33518 0
M  V30 3428 N 321.848 2.67125 6.49299 0
M  V30 3429 H 326.688 2.17128 2.04107 0
M  V30 3430 H 324.225 1.07982 0.998913 0
M  V30 3431 H 326.183 0.785052 4.09747 0
M  V30 3432 H 324.813 0.046159 3.22767 0
M  V30 3433 H 323.865 2.44565 2.91362 0
M  V30 3434 H 325.177 3.03572 3.95785 0
M  V30 3435 H 324.331 1.62586 5.84509 0
M  V30 3436 H 323.07 0.932078 4.7871 0
M  V30 3437 H 322.075 3.21374 4.46093 0
M  V30 3438 H 323.3 3.90869 5.55336 0
M  V30 3439 H 321.246 1.79586 6.3094 0
M  V30 3440 H 321.163 3.47965 6.71161 0
M  V30 3441 H 322.431 2.49861 7.3837 0
M  V30 3442 N 326.66 -1.06551 1.16123 0
M  V30 3443 C 327.907 -1.79302 0.941126 0
M  V30 3444 C 328.235 -1.87105 -0.531235 0
M  V30 3445 O 327.49 -1.35692 -1.41018 0
M  V30 3446 C 327.789 -3.23911 1.51052 0
M  V30 3447 C 327.455 -3.36193 3.00475 0
M  V30 3448 C 326.117 -3.39252 3.41265 0
M  V30 3449 C 328.469 -3.38326 3.96465 0
M  V30 3450 C 325.797 -3.42057 4.76669 0
M  V30 3451 C 328.149 -3.4267 5.31752 0
M  V30 3452 C 326.813 -3.4401 5.72026 0
M  V30 3453 H 326.083 -0.656111 0.344382 0
M  V30 3454 H 328.73 -1.25325 1.44796 0
M  V30 3455 H 327.035 -3.80723 0.925063 0
M  V30 3456 H 328.732 -3.78793 1.31593 0
M  V30 3457 H 325.322 -3.34516 2.6795 0
M  V30 3458 H 329.506 -3.35176 3.6602 0
M  V30 3459 H 324.762 -3.41398 5.07206 0
M  V30 3460 H 328.936 -3.43268 6.05921 0
M  V30 3461 H 326.563 -3.45937 6.76928 0
M  V30 3462 N 328.138 -0.959301 -1.25041 0
M  V30 3463 C 329.068 -0.501388 -2.28053 0
M  V30 3464 C 330.049 0.454673 -1.63911 0
M  V30 3465 O 331.234 0.352618 -1.90972 0
M  V30 3466 C 328.364 0.217224 -3.4662 0
M  V30 3467 C 327.318 -0.654034 -4.22973 0
M  V30 3468 C 326.644 0.195589 -5.34342 0
M  V30 3469 C 327.944 -1.93447 -4.85155 0
M  V30 3470 H 329.638 -1.36238 -2.66608 0
M  V30 3471 H 327.184 -0.656534 -1.28163 0
M  V30 3472 H 329.137 0.548732 -4.17812 0
M  V30 3473 H 327.861 1.1125 -3.07068 0
M  V30 3474 H 326.52 -0.968693 -3.5357 0
M  V30 3475 H 326.168 1.09076 -4.91031 0
M  V30 3476 H 325.868 -0.384091 -5.86343 0
M  V30 3477 H 327.392 0.521958 -6.08365 0
M  V30 3478 H 328.806 -1.66908 -5.48466 0
M  V30 3479 H 327.203 -2.46018 -5.47353 0
M  V30 3480 H 328.273 -2.63466 -4.07079 0
M  V30 3481 N 329.616 1.39756 -0.72842 0
M  V30 3482 C 330.841 2.05472 -0.282159 0
M  V30 3483 C 331.266 1.54549 1.07221 0
M  V30 3484 O 330.624 0.686372 1.67805 0
M  V30 3485 C 330.672 3.59462 -0.286264 0
M  V30 3486 O 329.776 4.05918 0.728298 0
M  V30 3487 H 329.117 0.651226 -0.129618 0
M  V30 3488 H 331.647 1.78915 -0.992499 0
M  V30 3489 H 331.657 4.07798 -0.128373 0
M  V30 3490 H 330.332 3.95889 -1.27456 0
M  V30 3491 H 328.909 3.69012 0.537081 0
M  V30 3492 N 331.094 0.475555 1.50254 0
M  V30 3493 C 332.024 -0.30611 2.31485 0
M  V30 3494 C 333.005 -0.986228 1.38591 0
M  V30 3495 O 334.19 -0.982541 1.67511 0
M  V30 3496 C 331.32 -1.38588 3.1845 0
M  V30 3497 C 330.274 -0.827115 4.19932 0
M  V30 3498 C 329.6 -2.00551 4.95665 0
M  V30 3499 C 330.9 0.16463 5.2204 0
M  V30 3500 H 332.594 0.371866 2.97082 0
M  V30 3501 H 330.14 0.180282 1.42867 0
M  V30 3502 H 332.093 -1.94023 3.74076 0
M  V30 3503 H 330.817 -2.09269 2.50747 0
M  V30 3504 H 329.476 -0.294702 3.65414 0
M  V30 3505 H 329.124 -2.6994 4.2443 0
M  V30 3506 H 328.824 -1.63784 5.64313 0
M  V30 3507 H 330.348 -2.56468 5.54127 0
M  V30 3508 H 331.762 -0.300699 5.72511 0
M  V30 3509 H 330.159 0.446813 5.98434 0
M  V30 3510 H 331.229 1.08905 4.72512 0
M  V30 3511 N 332.573 -1.56217 0.208337 0
M  V30 3512 C 333.82 -1.97949 -0.42692 0
M  V30 3513 C 334.148 -1.09562 -1.60706 0
M  V30 3514 O 333.403 -0.137616 -1.95216 0
M  V30 3515 C 333.702 -3.45441 -0.916797 0
M  V30 3516 C 333.368 -4.50646 0.151391 0
M  V30 3517 C 332.03 -4.79139 0.444867 0
M  V30 3518 C 334.382 -5.13811 0.874492 0
M  V30 3519 C 331.71 -5.68084 1.46619 0
M  V30 3520 C 334.062 -6.03861 1.88506 0
M  V30 3521 C 332.726 -6.30704 2.18559 0
M  V30 3522 H 331.996 -0.724345 -0.156221 0
M  V30 3523 H 334.643 -1.89006 0.308084 0
M  V30 3524 H 332.948 -3.51521 -1.73032 0
M  V30 3525 H 334.645 -3.75094 -1.41794 0
M  V30 3526 H 331.235 -4.28511 -0.0875068 0
M  V30 3527 H 335.419 -4.91879 0.660996 0
M  V30 3528 H 330.675 -5.87151 1.7048 0
M  V30 3529 H 334.849 -6.51861 2.45051 0
M  V30 3530 H 332.476 -6.99424 2.97843 0
M  V30 3531 N 334.051 0.0651679 -1.57465 0
M  V30 3532 C 335.299 0.761555 -1.87202 0
M  V30 3533 C 335.62 1.77778 -0.801243 0
M  V30 3534 O 334.89 1.95166 0.16937 0
M  V30 3535 H 333.47 0.284251 -0.690804 0
M  V30 3536 H 336.132 0.0396827 -1.9486 0
M  V30 3537 H 335.228 1.27365 -2.84929 0
M  V30 3538 N 335.529 1.53961 0.336706 0
M  V30 3539 C 336.777 1.71197 1.07405 0
M  V30 3540 C 337.098 0.481475 1.88962 0
M  V30 3541 O 336.368 -0.504585 1.8929 0
M  V30 3542 H 334.948 0.631185 0.399517 0
M  V30 3543 H 337.61 1.91232 0.376323 0
M  V30 3544 H 336.706 2.58587 1.74755 0
M  V30 3545 N 337.007 -0.598083 1.45811 0
M  V30 3546 C 338.256 -1.35295 1.49594 0
M  V30 3547 C 338.569 -1.95057 0.145679 0
M  V30 3548 O 339.775 -2.71431 0.0612099 0
M  V30 3549 C 338.231 -2.45124 2.63519 0
M  V30 3550 C 337.839 -1.91732 4.04899 0
M  V30 3551 C 339.583 -3.2205 2.76558 0
M  V30 3552 C 337.49 -2.991 5.1019 0
M  V30 3553 H 336.42 -0.508552 0.556679 0
M  V30 3554 H 339.071 -0.639977 1.71978 0
M  V30 3555 H 337.453 -3.19149 2.34435 0
M  V30 3556 H 338.627 -1.24352 4.43704 0
M  V30 3557 H 336.942 -1.27522 3.96393 0
M  V30 3558 H 339.539 -4.0215 3.52391 0
M  V30 3559 H 339.882 -3.73663 1.83526 0
M  V30 3560 H 340.415 -2.55127 3.05213 0
M  V30 3561 H 337.154 -2.52393 6.04961 0
M  V30 3562 H 336.674 -3.65017 4.75944 0
M  V30 3563 H 338.353 -3.63318 5.35359 0
M  V30 3564 N 338.485 -1.33259 -0.841409 0
M  V30 3565 C 339.715 -1.2742 -1.62628 0
M  V30 3566 C 340.123 0.157604 -1.88542 0
M  V30 3567 O 339.466 1.10938 -1.46419 0
M  V30 3568 C 339.528 -1.97797 -3.00194 0
M  V30 3569 C 339.192 -3.47109 -2.97261 0
M  V30 3570 C 340.189 -4.42358 -2.73159 0
M  V30 3571 C 337.874 -3.89247 -3.17478 0
M  V30 3572 C 339.868 -5.77718 -2.69296 0
M  V30 3573 C 337.555 -5.24713 -3.13241 0
M  V30 3574 C 338.553 -6.1876 -2.89181 0
M  V30 3575 O 338.241 -7.51745 -2.84843 0
M  V30 3576 H 337.973 -0.440436 -0.512827 0
M  V30 3577 H 340.527 -1.76153 -1.05638 0
M  V30 3578 H 338.757 -1.43652 -3.59028 0
M  V30 3579 H 340.446 -1.8549 -3.61038 0
M  V30 3580 H 341.212 -4.11127 -2.57294 0
M  V30 3581 H 337.091 -3.16456 -3.35226 0
M  V30 3582 H 340.635 -6.51097 -2.50436 0
M  V30 3583 H 336.532 -5.55569 -3.28654 0
M  V30 3584 H 337.3 -7.61262 -3.00702 0
M  V30 3585 N 339.963 1.05934 -1.16686 0
M  V30 3586 C 340.873 2.17014 -0.891183 0
M  V30 3587 C 341.889 1.73453 0.137907 0
M  V30 3588 O 343.065 2.01361 -0.039592 0
M  V30 3589 C 340.13 3.44384 -0.400099 0
M  V30 3590 C 339.191 4.02433 -1.49486 0
M  V30 3591 C 338.424 5.23723 -1.02711 0
M  V30 3592 O 338.647 5.7027 0.121716 0
M  V30 3593 O 337.581 5.7382 -1.81699 0
M  V30 3594 H 341.407 2.43113 -1.82015 0
M  V30 3595 H 338.992 1.15541 -0.947132 0
M  V30 3596 H 340.874 4.21189 -0.133392 0
M  V30 3597 H 339.549 3.19802 0.500817 0
M  V30 3598 H 338.456 3.27102 -1.81535 0
M  V30 3599 H 339.789 4.31317 -2.37121 0
M  V30 3600 N 341.441 0.965919 1.2453 0
M  V30 3601 C 342.389 0.486506 2.27455 0
M  V30 3602 C 343.383 -0.449041 1.6334 0
M  V30 3603 O 344.589 -0.324527 1.7705 0
M  V30 3604 H 340.964 0.138857 0.739069 0
M  V30 3605 H 342.935 1.3666 2.65267 0
M  V30 3606 C 341.684 -0.209481 3.47068 0
M  V30 3607 H 341.007 0.50129 3.96645 0
M  V30 3608 H 342.447 -0.508775 4.20936 0
M  V30 3609 C 340.906 -1.43586 3.0477 0
M  V30 3610 O 341.436 -2.53299 3.11773 0
M  V30 3611 N 339.642 -1.30126 2.59838 0
M  V30 3612 H 339.189 -0.408583 2.54339 0
M  V30 3613 H 339.147 -2.12294 2.31902 0
M  V30 3614 N 342.919 -1.39368 0.735821 0
M  V30 3615 C 343.829 -2.34395 0.0979693 0
M  V30 3616 C 344.845 -1.58361 -0.720968 0
M  V30 3617 O 346.021 -1.90648 -0.649245 0
M  V30 3618 C 343.086 -3.37393 -0.797916 0
M  V30 3619 C 342.147 -4.29287 0.0333662 0
M  V30 3620 C 341.38 -5.27365 -0.819854 0
M  V30 3621 O 341.603 -5.31959 -2.05855 0
M  V30 3622 O 340.537 -6.01389 -0.248079 0
M  V30 3623 H 344.363 -2.90601 0.882315 0
M  V30 3624 H 341.948 -1.40909 0.4965 0
M  V30 3625 H 343.83 -4.00505 -1.31048 0
M  V30 3626 H 342.505 -2.83571 -1.56106 0
M  V30 3627 H 341.412 -3.69395 0.591475 0
M  V30 3628 H 342.745 -4.86317 0.758752 0
M  V30 3629 N 344.397 -0.483516 -1.5 0
M  V30 3630 C 345.622 0.0667119 -2.07293 0
M  V30 3631 C 346.047 1.3164 -1.3436 0
M  V30 3632 O 345.405 1.76945 -0.394987 0
M  V30 3633 C 345.453 0.321126 -3.59167 0
M  V30 3634 O 344.557 1.39927 -3.87936 0
M  V30 3635 H 343.898 -0.0184758 -0.663743 0
M  V30 3636 H 346.428 -0.678125 -1.93035 0
M  V30 3637 H 346.438 0.557906 -4.04168 0
M  V30 3638 H 345.113 -0.592007 -4.11665 0
M  V30 3639 H 343.69 1.14882 -3.54763 0
M  V30 3640 N 345.875 1.56104 -0.216619 0
M  V30 3641 C 347.291 1.58995 0.13886 0
M  V30 3642 C 347.491 1.23333 1.59346 0
M  V30 3643 O 346.547 0.966234 2.33281 0
M  V30 3644 C 347.86 3.00143 -0.182968 0
M  V30 3645 C 349.408 3.12751 -0.124807 0
M  V30 3646 C 349.883 4.56068 -0.420241 0
M  V30 3647 N 351.374 4.61723 -0.369634 0
M  V30 3648 C 352.109 5.70542 -0.571789 0
M  V30 3649 N 351.605 6.87744 -0.835453 0
M  V30 3650 N 353.398 5.59831 -0.504563 0
M  V30 3651 H 345.549 1.77562 -1.16557 0
M  V30 3652 H 347.812 0.825091 -0.466828 0
M  V30 3653 H 347.518 3.30871 -1.19237 0
M  V30 3654 H 347.392 3.73813 0.504367 0
M  V30 3655 H 349.779 2.81822 0.875223 0
M  V30 3656 H 349.86 2.41421 -0.845544 0
M  V30 3657 H 349.504 4.87713 -1.41769 0
M  V30 3658 H 349.434 5.25617 0.321631 0
M  V30 3659 H 351.925 3.77502 -0.173338 0
M  V30 3660 H 352.238 7.66587 -0.977938 0
M  V30 3661 H 350.583 6.895 -0.872592 0
M  V30 3662 H 353.774 4.67145 -0.298842 0
M  V30 3663 H 353.947 6.44573 -0.665519 0
M  V30 3664 N 347.353 -0.0568162 1.57498 0
M  V30 3665 C 348.301 -1.08452 2.05769 0
M  V30 3666 C 349.295 -1.39164 0.965903 0
M  V30 3667 O 350.501 -1.38395 1.15095 0
M  V30 3668 H 346.876 -0.367148 0.656282 0
M  V30 3669 H 348.847 -0.651368 2.91204 0
M  V30 3670 C 347.596 -2.38543 2.52968 0
M  V30 3671 H 346.919 -2.15765 3.36579 0
M  V30 3672 H 348.359 -3.08863 2.90481 0
M  V30 3673 C 346.818 -3.05562 1.41893 0
M  V30 3674 O 347.348 -3.94262 0.769442 0
M  V30 3675 N 345.554 -2.6643 1.16032 0
M  V30 3676 H 345.101 -1.94387 1.6903 0
M  V30 3677 H 345.059 -3.11593 0.419219 0
M  V30 3678 N 348.832 -1.54138 -0.328536 0
M  V30 3679 C 350.06 -1.76062 -1.08673 0
M  V30 3680 C 350.475 -0.506852 -1.81869 0
M  V30 3681 O 349.832 0.522223 -1.74869 0
M  V30 3682 C 349.883 -2.95054 -2.08866 0
M  V30 3683 O 349.604 -4.15583 -1.38644 0
M  V30 3684 C 351.105 -3.2915 -2.96943 0
M  V30 3685 H 348.325 -0.587889 -0.323461 0
M  V30 3686 H 350.869 -2.0101 -0.376175 0
M  V30 3687 H 349.024 -2.72394 -2.75464 0
M  V30 3688 H 349.438 -4.82481 -2.05699 0
M  V30 3689 H 350.912 -4.15723 -3.63151 0
M  V30 3690 H 351.389 -2.461 -3.63774 0
M  V30 3691 H 351.995 -3.53871 -2.35914 0
M  V30 3692 N 350.31 0.590341 -1.46126 0
M  V30 3693 C 351.22 1.72793 -1.58681 0
M  V30 3694 C 352.236 1.67516 -0.470566 0
M  V30 3695 O 353.412 1.87562 -0.733642 0
M  V30 3696 C 350.477 3.09287 -1.5666 0
M  V30 3697 C 349.538 3.25886 -2.79458 0
M  V30 3698 C 348.771 4.55869 -2.77524 0
M  V30 3699 O 348.994 5.3928 -1.85832 0
M  V30 3700 O 347.928 4.75552 -3.68964 0
M  V30 3701 H 351.754 1.65149 -2.54872 0
M  V30 3702 H 349.339 0.756486 -1.28832 0
M  V30 3703 H 351.221 3.90577 -1.58202 0
M  V30 3704 H 349.896 3.17385 -0.636271 0
M  V30 3705 H 348.803 2.44119 -2.83472 0
M  V30 3706 H 350.136 3.22675 -3.71674 0
M  V30 3707 N 351.788 1.33704 0.83433 0
M  V30 3708 C 352.721 1.18675 1.94914 0
M  V30 3709 C 353.699 0.0811145 1.62398 0
M  V30 3710 O 354.883 0.244186 1.86912 0
M  V30 3711 C 352.01 0.821231 3.28593 0
M  V30 3712 C 351.056 1.93501 3.80079 0
M  V30 3713 S 351.889 3.54671 4.01209 0
M  V30 3714 C 353.045 3.20136 5.37833 0
M  V30 3715 H 353.278 2.13043 2.07364 0
M  V30 3716 H 350.811 1.18598 0.988624 0
M  V30 3717 H 352.769 0.617123 4.05835 0
M  V30 3718 H 351.43 -0.103927 3.13928 0
M  V30 3719 H 350.623 1.63273 4.76821 0
M  V30 3720 H 350.225 2.09601 3.09747 0
M  V30 3721 H 352.517 2.71242 6.20833 0
M  V30 3722 H 353.46 4.15975 5.73036 0
M  V30 3723 H 353.868 2.56613 5.02802 0
M  V30 3724 N 353.266 -1.05314 1.17247 0
M  V30 3725 C 354.196 -2.1498 0.911362 0
M  V30 3726 C 355.177 -1.69471 -0.146169 0
M  V30 3727 O 356.362 -1.942 0.003812 0
M  V30 3728 C 353.492 -3.4472 0.422528 0
M  V30 3729 C 352.446 -4.03789 1.4191 0
M  V30 3730 C 351.772 -5.28858 0.788274 0
M  V30 3731 C 353.072 -4.41418 2.7919 0
M  V30 3732 H 354.766 -2.3708 1.82848 0
M  V30 3733 H 352.312 -1.13938 0.880569 0
M  V30 3734 H 354.265 -4.20787 0.227289 0
M  V30 3735 H 352.989 -3.22269 -0.530123 0
M  V30 3736 H 351.648 -3.2979 1.60106 0
M  V30 3737 H 351.296 -5.02709 -0.171173 0
M  V30 3738 H 350.996 -5.69338 1.45353 0
M  V30 3739 H 352.52 -6.07612 0.603282 0
M  V30 3740 H 353.934 -5.08524 2.64719 0
M  V30 3741 H 352.331 -4.92913 3.42282 0
M  V30 3742 H 353.401 -3.51819 3.33693 0
M  V30 3743 N 354.744 -0.972509 -1.24016 0
M  V30 3744 C 355.707 -0.511403 -2.23422 0
M  V30 3745 C 356.707 0.394679 -1.55881 0
M  V30 3746 O 357.897 0.189469 -1.73167 0
M  V30 3747 C 355.029 0.258769 -3.39916 0
M  V30 3748 H 356.222 -1.39024 -2.6573 0
M  V30 3749 H 353.775 -0.757585 -1.36713 0
M  V30 3750 H 354.51 1.1545 -3.03054 0
M  V30 3751 H 354.295 -0.391522 -3.9014 0
M  V30 3752 H 355.785 0.570244 -4.13688 0
M  V30 3753 N 356.222 1.38976 -0.743202 0
M  V30 3754 C 357.185 2.28901 -0.117014 0
M  V30 3755 C 358.185 1.46698 0.658503 0
M  V30 3756 O 359.375 1.67274 0.486305 0
M  V30 3757 C 356.507 3.30309 0.84315 0
M  V30 3758 H 357.7 2.8578 -0.909373 0
M  V30 3759 H 355.253 1.47761 -0.509547 0
M  V30 3760 H 355.988 2.785 1.66157 0
M  V30 3761 H 355.773 3.91029 0.289594 0
M  V30 3762 H 357.263 3.97577 1.2776 0
M  V30 3763 N 357.7 0.491464 1.49741 0
M  V30 3764 C 358.663 -0.280906 2.27472 0
M  V30 3765 C 359.663 -0.902454 1.33088 0
M  V30 3766 O 360.853 -0.768465 1.56334 0
M  V30 3767 C 357.985 -1.40209 3.10732 0
M  V30 3768 H 359.178 0.401056 2.97206 0
M  V30 3769 H 356.731 0.246131 1.5435 0
M  V30 3770 H 357.466 -2.11849 2.45541 0
M  V30 3771 H 357.251 -0.961969 3.80117 0
M  V30 3772 H 358.741 -1.9464 3.69466 0
M  V30 3773 N 359.178 -1.55987 0.224894 0
M  V30 3774 C 360.418 -2.00293 -0.407706 0
M  V30 3775 C 360.782 -1.1093 -1.56711 0
M  V30 3776 O 361.983 -1.44597 -2.26595 0
M  V30 3777 C 360.254 -3.47675 -0.82805 0
M  V30 3778 S 361.813 -4.14 -1.45429 0
M  V30 3779 H 358.631 -0.699152 -0.129256 0
M  V30 3780 H 361.233 -1.92609 0.334967 0
M  V30 3781 H 359.937 -4.10392 0.0253964 0
M  V30 3782 H 359.468 -3.59239 -1.60345 0
M  V30 3783 H 361.483 -4.13465 -2.74337 0
M  V30 3784 N 360.656 0.0484629 -1.57525 0
M  V30 3785 C 361.619 1.03956 -2.04269 0
M  V30 3786 C 362.619 1.30211 -0.943496 0
M  V30 3787 O 363.809 1.25539 -1.20771 0
M  V30 3788 C 360.941 2.37742 -2.44319 0
M  V30 3789 H 362.134 0.636182 -2.93075 0
M  V30 3790 H 359.687 0.294811 -1.53494 0
M  V30 3791 H 360.422 2.82866 -1.5861 0
M  V30 3792 H 360.207 2.20021 -3.24551 0
M  V30 3793 H 361.697 3.08936 -2.80978 0
M  V30 3794 N 362.134 1.5431 0.320358 0
M  V30 3795 C 363.38 1.72924 1.05949 0
M  V30 3796 C 363.713 0.503185 1.87568 0
M  V30 3797 O 362.988 -0.499839 1.87968 0
M  V30 3798 C 363.271 3.00676 1.98156 0
M  V30 3799 C 363.124 4.3354 1.19845 0
M  V30 3800 C 364.443 3.24198 2.9763 0
M  V30 3801 H 361.562 0.629195 0.383774 0
M  V30 3802 H 364.204 1.87008 0.335854 0
M  V30 3803 H 362.354 2.888 2.59859 0
M  V30 3804 H 364.026 4.57305 0.605773 0
M  V30 3805 H 362.269 4.309 0.500784 0
M  V30 3806 H 362.94 5.19156 1.87567 0
M  V30 3807 H 365.416 3.35557 2.4605 0
M  V30 3808 H 364.292 4.14938 3.59329 0
M  V30 3809 H 364.553 2.41577 3.7026 0
M  V30 3810 N 363.613 -0.582584 1.46437 0
M  V30 3811 C 364.861 -1.33814 1.51453 0
M  V30 3812 C 365.182 -1.94277 0.167792 0
M  V30 3813 O 364.452 -1.78566 -0.805677 0
M  V30 3814 H 363.032 -0.496838 0.557818 0
M  V30 3815 H 365.694 -0.682281 1.82568 0
M  V30 3816 H 364.79 -2.14479 2.26728 0
M  V30 3817 N 365.091 -1.34144 -0.827227 0
M  V30 3818 C 366.337 -1.26446 -1.58554 0
M  V30 3819 C 366.67 0.1664 -1.93486 0
M  V30 3820 O 365.945 1.1107 -1.59667 0
M  V30 3821 C 366.228 -2.15111 -2.8879 0
M  V30 3822 C 366.081 -3.66712 -2.60465 0
M  V30 3823 C 367.4 -2.03311 -3.90324 0
M  V30 3824 H 364.519 -0.46067 -0.575284 0
M  V30 3825 H 367.161 -1.64356 -0.953269 0
M  V30 3826 H 365.311 -1.8291 -3.42748 0
M  V30 3827 H 366.983 -4.09259 -2.1285 0
M  V30 3828 H 365.226 -3.88014 -1.93978 0
M  V30 3829 H 365.897 -4.24112 -3.53317 0
M  V30 3830 H 368.373 -2.31574 -3.45706 0
M  V30 3831 H 367.249 -2.67582 -4.79261 0
M  V30 3832 H 367.51 -1.00879 -4.30437 0
M  V30 3833 N 366.569 1.04691 -1.17803 0
M  V30 3834 C 367.817 1.7743 -0.967617 0
M  V30 3835 C 368.138 1.88359 0.504574 0
M  V30 3836 O 367.408 1.40402 1.36617 0
M  V30 3837 H 365.988 0.657242 -0.355024 0
M  V30 3838 H 368.65 1.2638 -1.48371 0
M  V30 3839 H 367.746 2.78924 -1.40027 0
M  V30 3840 N 368.047 0.979072 1.23499 0
M  V30 3841 C 369.287 0.655228 1.93613 0
M  V30 3842 C 369.651 -0.796336 1.74707 0
M  V30 3843 O 370.852 -1.23094 2.38959 0
M  V30 3844 C 369.123 1.03337 3.42135 0
M  V30 3845 S 370.682 0.825793 4.3096 0
M  V30 3846 H 367.5 0.240004 0.669267 0
M  V30 3847 H 370.102 1.25843 1.49612 0
M  V30 3848 H 368.806 2.08646 3.53405 0
M  V30 3849 H 368.337 0.421397 3.91137 0
M  V30 3850 H 370.352 -0.290991 4.95346 0
M  V30 3851 N 369.525 -1.3858 0.750561 0
M  V30 3852 C 370.765 -2.02032 0.310258 0
M  V30 3853 C 371.129 -1.58288 -1.08668 0
M  V30 3854 O 372.33 -2.14049 -1.62593 0
M  V30 3855 C 370.601 -3.54856 0.425647 0
M  V30 3856 S 372.16 -4.38748 0.0674797 0
M  V30 3857 H 368.978 -0.700705 0.120554 0
M  V30 3858 H 371.58 -1.69134 0.980512 0
M  V30 3859 H 370.284 -3.84182 1.44335 0
M  V30 3860 H 369.815 -3.92527 -0.261894 0
M  V30 3861 H 371.83 -4.82835 -1.14388 0
M  V30 3862 N 371.003 -0.499398 -1.49478 0
M  V30 3863 C 372.25 0.0456899 -2.02448 0
M  V30 3864 C 372.578 1.37142 -1.37921 0
M  V30 3865 O 371.833 1.89111 -0.503544 0
M  V30 3866 C 372.132 0.248424 -3.56536 0
M  V30 3867 C 371.798 -0.999107 -4.39692 0
M  V30 3868 C 370.46 -1.34108 -4.62135 0
M  V30 3869 C 372.812 -1.82842 -4.88076 0
M  V30 3870 C 370.14 -2.51191 -5.30208 0
M  V30 3871 C 372.492 -2.99076 -5.57437 0
M  V30 3872 C 371.156 -3.33655 -5.78127 0
M  V30 3873 H 370.426 0.0167191 -0.740811 0
M  V30 3874 H 373.073 -0.65923 -1.79795 0
M  V30 3875 H 371.378 1.03586 -3.77859 0
M  V30 3876 H 373.075 0.684605 -3.95113 0
M  V30 3877 H 369.665 -0.722729 -4.22463 0
M  V30 3878 H 373.849 -1.57737 -4.70566 0
M  V30 3879 H 369.105 -2.78221 -5.44429 0
M  V30 3880 H 373.279 -3.63664 -5.93904 0
M  V30 3881 H 370.906 -4.24483 -6.30649 0
M  V30 3882 N 372.481 1.55866 -0.233164 0
M  V30 3883 C 373.444 2.1953 0.658715 0
M  V30 3884 C 374.444 1.16053 1.11303 0
M  V30 3885 O 375.634 1.41218 1.01996 0
M  V30 3886 C 372.766 2.82791 1.90373 0
M  V30 3887 H 373.959 2.99721 0.10347 0
M  V30 3888 H 371.512 1.56291 0.0164245 0
M  V30 3889 H 372.247 2.06501 2.50056 0
M  V30 3890 H 372.032 3.58578 1.58632 0
M  V30 3891 H 373.522 3.31556 2.53891 0
M  V30 3892 N 373.959 -0.0401083 1.57549 0
M  V30 3893 C 374.922 -1.02871 2.04817 0
M  V30 3894 C 375.922 -1.29708 0.950388 0
M  V30 3895 O 377.112 -1.24897 1.21435 0
M  V30 3896 C 374.244 -2.36443 2.45576 0
M  V30 3897 H 375.437 -0.620631 2.93408 0
M  V30 3898 H 372.99 -0.286667 1.53649 0
M  V30 3899 H 373.725 -2.82021 1.60108 0
M  V30 3900 H 373.51 -2.18296 3.25713 0
M  V30 3901 H 375 -3.07441 2.82612 0
M  V30 3902 N 375.437 -1.54477 -0.31217 0
M  V30 3903 C 376.848 -1.64344 -0.885891 0
M  V30 3904 C 377.199 -0.54485 -1.88483 0
M  V30 3905 O 376.324 0.320387 -2.14015 0
M  V30 3906 C 376.919 -2.97908 -1.61357 0
M  V30 3907 C 375.478 -3.09933 -2.13585 0
M  V30 3908 C 374.625 -2.59971 -0.964897 0
M  V30 3909 H 377.576 -1.58448 -0.0894528 0
M  V30 3910 H 377.597 -2.88706 -2.47848 0
M  V30 3911 H 377.109 -3.77845 -0.886277 0
M  V30 3912 H 375.21 -2.34694 -2.89395 0
M  V30 3913 H 375.323 -4.15916 -2.37804 0
M  V30 3914 H 373.687 -2.16147 -1.34731 0
M  V30 3915 H 374.47 -3.42376 -0.251742 0
M  V30 3916 N 376.915 0.57481 -1.46744 0
M  V30 3917 C 378.164 1.32898 -1.51727 0
M  V30 3918 C 378.477 1.948 -0.176692 0
M  V30 3919 O 379.683 2.71299 -0.104385 0
M  V30 3920 C 378.139 2.40901 -2.67385 0
M  V30 3921 C 377.747 1.85266 -4.07898 0
M  V30 3922 C 379.491 3.17609 -2.81646 0
M  V30 3923 C 377.398 2.90945 -5.14883 0
M  V30 3924 H 376.328 0.499631 -0.564699 0
M  V30 3925 H 378.979 0.612536 -1.72975 0
M  V30 3926 H 377.361 3.15379 -2.39483 0
M  V30 3927 H 378.535 1.17278 -4.45626 0
M  V30 3928 H 376.85 1.21199 -3.98371 0
M  V30 3929 H 379.447 3.96493 -3.58744 0
M  V30 3930 H 379.79 3.70696 -1.89448 0
M  V30 3931 H 380.323 2.50239 -3.09233 0
M  V30 3932 H 377.062 2.42736 -6.089 0
M  V30 3933 H 376.582 3.57398 -4.81691 0
M  V30 3934 H 378.261 3.54755 -5.41071 0
M  V30 3935 N 378.394 1.34581 0.820102 0
M  V30 3936 C 379.642 1.26845 1.57336 0
M  V30 3937 C 379.963 -0.160667 1.94337 0
M  V30 3938 O 379.233 -1.09396 1.6251 0
M  V30 3939 H 377.813 0.466514 0.583415 0
M  V30 3940 H 380.475 1.68526 0.979027 0
M  V30 3941 H 379.571 1.87513 2.4949 0
M  V30 3942 N 379.872 -1.04064 1.18357 0
M  V30 3943 C 381.12 -1.76915 0.977013 0
M  V30 3944 C 381.441 -1.88624 -0.494577 0
M  V30 3945 O 380.711 -1.41125 -1.3587 0
M  V30 3946 H 379.291 -0.65535 0.358504 0
M  V30 3947 H 381.953 -1.25592 1.49039 0
M  V30 3948 H 381.049 -2.78178 1.41504 0
M  V30 3949 N 381.35 -0.985608 -1.22978 0
M  V30 3950 C 382.596 -0.65836 -1.91816 0
M  V30 3951 C 382.929 0.806692 -1.76653 0
M  V30 3952 O 382.204 1.58252 -1.13078 0
M  V30 3953 C 382.487 -1.056 -3.44268 0
M  V30 3954 C 382.34 -2.57906 -3.68516 0
M  V30 3955 C 383.659 -0.603781 -4.35939 0
M  V30 3956 H 380.778 -0.24065 -0.696604 0
M  V30 3957 H 383.42 -1.22783 -1.44998 0
M  V30 3958 H 381.57 -0.571445 -3.84274 0
M  V30 3959 H 383.242 -3.13976 -3.3796 0
M  V30 3960 H 381.485 -3.00305 -3.13048 0
M  V30 3961 H 382.156 -2.80779 -4.75255 0
M  V30 3962 H 384.632 -1.01987 -4.03408 0
M  V30 3963 H 383.508 -0.910383 -5.41298 0
M  V30 3964 H 383.769 0.495761 -4.39312 0
M  V30 3965 N 382.828 1.3818 -0.7579 0
M  V30 3966 C 383.758 2.33027 -0.148597 0
M  V30 3967 C 384.739 1.55085 0.69875 0
M  V30 3968 O 385.924 1.83384 0.639053 0
M  V30 3969 C 383.054 3.3928 0.742034 0
M  V30 3970 C 382.008 4.28 -0.00291946 0
M  V30 3971 C 381.334 5.25146 1.00625 0
M  V30 3972 C 382.634 5.08938 -1.17385 0
M  V30 3973 H 384.328 2.84231 -0.940909 0
M  V30 3974 H 381.874 1.36659 -0.453908 0
M  V30 3975 H 383.827 4.046 1.17799 0
M  V30 3976 H 382.551 2.86569 1.56671 0
M  V30 3977 H 381.21 3.64192 -0.419504 0
M  V30 3978 H 380.858 4.68721 1.8251 0
M  V30 3979 H 380.558 5.85361 0.512428 0
M  V30 3980 H 382.082 5.93342 1.44143 0
M  V30 3981 H 383.496 5.67474 -0.815224 0
M  V30 3982 H 381.893 5.7841 -1.59882 0
M  V30 3983 H 382.963 4.42424 -1.98468 0
M  V30 3984 N 384.306 0.507319 1.49211 0
M  V30 3985 C 385.553 -0.0349529 2.0247 0
M  V30 3986 C 385.881 -1.36409 1.38647 0
M  V30 3987 O 385.136 -1.88841 0.513566 0
M  V30 3988 C 385.435 -0.229513 3.56662 0
M  V30 3989 C 385.101 1.02241 4.39156 0
M  V30 3990 C 383.763 1.36557 4.61417 0
M  V30 3991 C 386.115 1.85428 4.871 0
M  V30 3992 C 383.443 2.53999 5.28868 0
M  V30 3993 C 385.795 3.02028 5.55843 0
M  V30 3994 C 384.459 3.36717 5.76349 0
M  V30 3995 H 383.729 -0.0127902 0.74089 0
M  V30 3996 H 386.376 0.668756 1.79443 0
M  V30 3997 H 384.681 -1.0158 3.78403 0
M  V30 3998 H 386.378 -0.663641 3.9547 0
M  V30 3999 H 382.968 0.745124 4.22073 0
M  V30 4000 H 387.152 1.6023 4.69723 0
M  V30 4001 H 382.408 2.81105 5.42946 0
M  V30 4002 H 386.582 3.66808 5.91967 0
M  V30 4003 H 384.209 4.27821 6.28389 0
M  V30 4004 N 385.784 -1.5574 0.241426 0
M  V30 4005 C 387.009 -2.0366 -0.392111 0
M  V30 4006 C 387.434 -1.11969 -1.51144 0
M  V30 4007 O 386.792 -0.111594 -1.80956 0
M  V30 4008 C 386.84 -3.49638 -0.882371 0
M  V30 4009 O 385.944 -3.6108 -1.99235 0
M  V30 4010 H 385.285 -0.658379 -0.0862122 0
M  V30 4011 H 387.815 -2.01302 0.365881 0
M  V30 4012 H 387.825 -3.90351 -1.18702 0
M  V30 4013 H 386.5 -4.15852 -0.0632361 0
M  V30 4014 H 385.077 -3.32262 -1.69282 0
M  V30 4015 N 387.262 0.0317525 -1.57568 0
M  V30 4016 C 388.511 0.722131 -1.8833 0
M  V30 4017 C 388.824 1.76664 -0.839587 0
M  V30 4018 O 390.03 2.50942 -1.03635 0
M  V30 4019 C 388.486 1.33544 -3.34207 0
M  V30 4020 C 388.094 0.327415 -4.46802 0
M  V30 4021 C 389.838 2.00585 -3.7412 0
M  V30 4022 C 387.745 0.948915 -5.83738 0
M  V30 4023 H 386.675 0.273466 -0.702661 0
M  V30 4024 H 389.326 -0.0235811 -1.83485 0
M  V30 4025 H 387.708 2.13077 -3.33788 0
M  V30 4026 H 388.882 -0.441006 -4.58685 0
M  V30 4027 H 387.197 -0.240758 -4.15703 0
M  V30 4028 H 389.794 2.47932 -4.73744 0
M  V30 4029 H 390.137 2.82285 -3.05975 0
M  V30 4030 H 390.67 1.27831 -3.76702 0
M  V30 4031 H 387.409 0.171387 -6.55276 0
M  V30 4032 H 386.929 1.68724 -5.7558 0
M  V30 4033 H 388.608 1.45705 -6.3038 0
M  V30 4034 N 388.74 1.54641 0.303973 0
M  V30 4035 C 389.65 1.88439 1.39743 0
M  V30 4036 C 390.666 0.778239 1.55626 0
M  V30 4037 O 391.842 1.07442 1.70347 0
M  V30 4038 C 388.907 2.12212 2.74166 0
M  V30 4039 C 387.968 3.35936 2.67293 0
M  V30 4040 C 387.201 3.58566 3.95305 0
M  V30 4041 O 387.424 2.84263 4.9452 0
M  V30 4042 O 386.358 4.52078 3.97378 0
M  V30 4043 H 390.184 2.81458 1.14083 0
M  V30 4044 H 387.769 1.40793 0.499768 0
M  V30 4045 H 389.651 2.29067 3.53704 0
M  V30 4046 H 388.326 1.22379 2.99675 0
M  V30 4047 H 387.233 3.24448 1.86237 0
M  V30 4048 H 388.566 4.2589 2.46736 0
M  V30 4049 N 390.218 -0.567019 1.47046 0
M  V30 4050 C 391.464 -1.32658 1.53394 0
M  V30 4051 C 391.797 -1.93254 0.19148 0
M  V30 4052 O 391.072 -1.77338 -0.798844 0
M  V30 4053 C 391.355 -2.44412 2.64452 0
M  V30 4054 C 391.208 -1.88749 4.08282 0
M  V30 4055 C 392.527 -3.46387 2.71485 0
M  V30 4056 H 389.646 -0.48098 0.558415 0
M  V30 4057 H 392.288 -0.635481 1.79058 0
M  V30 4058 H 390.438 -3.03363 2.427 0
M  V30 4059 H 392.11 -1.34134 4.41368 0
M  V30 4060 H 390.353 -1.19481 4.17021 0
M  V30 4061 H 391.024 -2.69491 4.81745 0
M  V30 4062 H 393.5 -2.9734 2.91081 0
M  V30 4063 H 392.376 -4.2202 3.50985 0
M  V30 4064 H 392.637 -4.04616 1.78153 0
M  V30 4065 N 391.696 -1.35014 -0.812953 0
M  V30 4066 C 392.924 -1.31031 -1.6012 0
M  V30 4067 C 393.339 0.113558 -1.88458 0
M  V30 4068 O 392.696 1.06363 -1.48301 0
M  V30 4069 C 392.747 -2.10872 -2.93624 0
M  V30 4070 O 392.468 -3.47706 -2.66518 0
M  V30 4071 C 393.969 -2.14401 -3.88004 0
M  V30 4072 H 391.189 -0.45037 -0.497401 0
M  V30 4073 H 393.733 -1.77775 -1.01076 0
M  V30 4074 H 391.888 -1.67744 -3.492 0
M  V30 4075 H 392.302 -3.89097 -3.51715 0
M  V30 4076 H 393.776 -2.74669 -4.78812 0
M  V30 4077 H 394.253 -1.14105 -4.24119 0
M  V30 4078 H 394.859 -2.57662 -3.38364 0
M  V30 4079 N 393.175 1.03435 -1.18907 0
M  V30 4080 C 394.4 1.80919 -1.01406 0
M  V30 4081 C 394.825 1.83055 0.432721 0
M  V30 4082 O 394.183 1.25252 1.31079 0
M  V30 4083 C 394.231 3.24091 -1.58105 0
M  V30 4084 O 393.335 4.04434 -0.806669 0
M  V30 4085 H 392.676 0.558709 -0.358803 0
M  V30 4086 H 395.206 1.30223 -1.57807 0
M  V30 4087 H 395.216 3.74853 -1.61087 0
M  V30 4088 H 393.891 3.21851 -2.6341 0
M  V30 4089 H 392.468 3.63091 -0.849666 0
M  V30 4090 N 394.653 0.992116 1.22453 0
M  V30 4091 C 395.881 0.685944 1.95198 0
M  V30 4092 C 396.296 -0.749233 1.73297 0
M  V30 4093 O 395.653 -1.50549 1.03156 0
M  V30 4094 C 395.704 0.981395 3.47924 0
M  V30 4095 O 395.425 2.36018 3.6909 0
M  V30 4096 C 396.926 0.692815 4.37853 0
M  V30 4097 H 394.146 0.253821 0.621141 0
M  V30 4098 H 396.69 1.32668 1.55626 0
M  V30 4099 H 394.845 0.386481 3.85467 0
M  V30 4100 H 395.259 2.45884 4.63294 0
M  V30 4101 H 396.733 0.949818 5.43767 0
M  V30 4102 H 397.21 -0.373181 4.37612 0
M  V30 4103 H 397.816 1.26874 4.05935 0
M  V30 4104 N 396.131 -1.37776 0.765217 0
M  V30 4105 C 397.378 -1.99849 0.326588 0
M  V30 4106 C 397.706 -1.60746 -1.09504 0
M  V30 4107 O 396.961 -0.84202 -1.76659 0
M  V30 4108 C 397.26 -3.5504 0.410053 0
M  V30 4109 C 396.926 -4.13891 1.78899 0
M  V30 4110 C 395.588 -4.29678 2.16635 0
M  V30 4111 C 397.94 -4.46236 2.69301 0
M  V30 4112 C 395.268 -4.7511 3.44221 0
M  V30 4113 C 397.62 -4.93089 3.9629 0
M  V30 4114 C 396.284 -5.07082 4.34078 0
M  V30 4115 H 395.554 -0.7313 0.119507 0
M  V30 4116 H 398.201 -1.64645 0.977968 0
M  V30 4117 H 396.506 -3.90451 -0.324878 0
M  V30 4118 H 398.203 -4.00966 0.0520699 0
M  V30 4119 H 394.793 -4.02026 1.48569 0
M  V30 4120 H 398.977 -4.3363 2.41409 0
M  V30 4121 H 394.233 -4.84129 3.73402 0
M  V30 4122 H 398.407 -5.17084 4.66472 0
M  V30 4123 H 396.034 -5.42046 5.33001 0
M  V30 4124 N 397.609 -0.515225 -1.4894 0
M  V30 4125 C 398.856 0.024215 -2.02486 0
M  V30 4126 C 399.184 1.35671 -1.39368 0
M  V30 4127 O 398.439 1.88566 -0.523574 0
M  V30 4128 C 398.738 0.210595 -3.56779 0
M  V30 4129 C 398.404 -1.04569 -4.38607 0
M  V30 4130 C 397.066 -1.39002 -4.60686 0
M  V30 4131 C 399.418 -1.88008 -4.86109 0
M  V30 4132 C 396.746 -2.568 -5.27514 0
M  V30 4133 C 399.098 -3.04972 -5.54234 0
M  V30 4134 C 397.762 -3.39768 -5.74555 0
M  V30 4135 H 397.032 0.00886088 -0.740947 0
M  V30 4136 H 399.679 -0.678263 -1.79086 0
M  V30 4137 H 397.984 0.99572 -3.78936 0
M  V30 4138 H 399.681 0.642659 -3.95817 0
M  V30 4139 H 396.271 -0.767497 -4.21672 0
M  V30 4140 H 400.455 -1.62719 -4.68867 0
M  V30 4141 H 395.711 -2.8398 -5.41447 0
M  V30 4142 H 399.885 -3.69943 -5.90013 0
M  V30 4143 H 397.512 -4.31148 -6.26112 0
M  V30 4144 N 399.087 1.5561 -0.249682 0
M  V30 4145 C 400.05 2.20217 0.635394 0
M  V30 4146 C 401.05 1.17227 1.10066 0
M  V30 4147 O 402.24 1.42292 1.00492 0
M  V30 4148 C 399.372 2.84794 1.87363 0
M  V30 4149 H 400.565 2.99814 0.0716752 0
M  V30 4150 H 398.118 1.563 -0.000153234 0
M  V30 4151 H 398.853 2.09142 2.47851 0
M  V30 4152 H 398.638 3.60241 1.5482 0
M  V30 4153 H 400.128 3.3423 2.5036 0
M  V30 4154 N 400.565 -0.0233959 1.57583 0
M  V30 4155 C 401.811 -0.714119 1.89811 0
M  V30 4156 C 402.144 -1.74702 0.848113 0
M  V30 4157 O 401.419 -1.94023 -0.136135 0
M  V30 4158 C 401.702 -1.37853 3.32669 0
M  V30 4159 C 401.555 -0.358764 4.48367 0
M  V30 4160 C 402.874 -2.31101 3.7454 0
M  V30 4161 H 399.993 -0.25814 0.690314 0
M  V30 4162 H 402.635 0.0230927 1.89986 0
M  V30 4163 H 400.785 -2.00689 3.3265 0
M  V30 4164 H 402.457 0.268115 4.6052 0
M  V30 4165 H 400.7 0.321387 4.32608 0
M  V30 4166 H 401.371 -0.862242 5.45224 0
M  V30 4167 H 403.847 -1.78304 3.75961 0
M  V30 4168 H 402.723 -2.74567 4.75294 0
M  V30 4169 H 402.984 -3.18018 3.0711 0
M  V30 4170 N 402.043 -1.548 -0.295768 0
M  V30 4171 C 403.459 -1.4613 -0.641722 0
M  V30 4172 C 403.659 -0.656771 -1.90496 0
M  V30 4173 O 402.715 -0.166547 -2.5195 0
M  V30 4174 C 404.028 -2.90141 -0.789852 0
M  V30 4175 C 405.576 -3.00216 -0.885396 0
M  V30 4176 C 406.051 -4.45434 -1.06548 0
M  V30 4177 N 407.542 -4.49166 -1.13156 0
M  V30 4178 C 408.277 -5.58717 -1.28929 0
M  V30 4179 N 407.773 -6.78182 -1.41567 0
M  V30 4180 N 409.566 -5.46415 -1.31859 0
M  V30 4181 H 401.717 -2.05574 0.534147 0
M  V30 4182 H 403.98 -0.931259 0.177372 0
M  V30 4183 H 403.686 -3.51635 0.0675598 0
M  V30 4184 H 403.56 -3.37859 -1.67724 0
M  V30 4185 H 405.947 -2.38833 -1.73329 0
M  V30 4186 H 406.028 -2.55787 0.0261185 0
M  V30 4187 H 405.672 -5.07413 -0.222335 0
M  V30 4188 H 405.602 -4.87499 -1.9913 0
M  V30 4189 H 408.093 -3.631 -1.04721 0
M  V30 4190 H 408.406 -7.57428 -1.53372 0
M  V30 4191 H 406.751 -6.81037 -1.38613 0
M  V30 4192 H 409.942 -4.5203 -1.21601 0
M  V30 4193 H 410.115 -6.31841 -1.43808 0
M  V30 4194 N 403.521 0.559213 -1.47345 0
M  V30 4195 C 404.469 1.68747 -1.60085 0
M  V30 4196 C 405.463 1.628 -0.46825 0
M  V30 4197 O 406.669 1.68009 -0.645977 0
M  V30 4198 H 403.044 0.558329 -0.503759 0
M  V30 4199 H 405.015 1.55138 -2.54902 0
M  V30 4200 C 403.764 3.07103 -1.63042 0
M  V30 4201 H 403.087 3.12361 -2.49541 0
M  V30 4202 H 404.527 3.85743 -1.76006 0
M  V30 4203 C 402.986 3.34935 -0.363357 0
M  V30 4204 O 403.516 3.98102 0.536416 0
M  V30 4205 N 401.722 2.89574 -0.244 0
M  V30 4206 H 401.269 2.38348 -0.977133 0
M  V30 4207 H 401.227 3.08566 0.602836 0
M  V30 4208 N 404.999 1.35443 0.805782 0
M  V30 4209 C 406.229 1.31687 1.59192 0
M  V30 4210 C 406.637 -0.10756 1.88894 0
M  V30 4211 O 405.98 -1.07017 1.49309 0
M  V30 4212 C 406.042 2.05686 2.94845 0
M  V30 4213 C 405.706 3.54868 2.87954 0
M  V30 4214 C 406.703 4.49444 2.61335 0
M  V30 4215 C 404.388 3.97528 3.07046 0
M  V30 4216 C 406.382 5.84655 2.53885 0
M  V30 4217 C 404.069 5.32833 2.99219 0
M  V30 4218 C 405.067 6.26209 2.72674 0
M  V30 4219 O 404.755 7.59032 2.64811 0
M  V30 4220 H 404.487 0.453878 0.50097 0
M  V30 4221 H 407.041 1.78892 1.0093 0
M  V30 4222 H 405.271 1.5312 3.55093 0
M  V30 4223 H 406.96 1.94998 3.55993 0
M  V30 4224 H 407.726 4.17804 2.46303 0
M  V30 4225 H 403.605 3.25233 3.26718 0
M  V30 4226 H 407.149 6.57508 2.33086 0
M  V30 4227 H 403.046 5.64087 3.13809 0
M  V30 4228 H 403.814 7.68967 2.80413 0
M  V30 4229 N 406.477 -1.02803 1.19454 0
M  V30 4230 C 407.723 -1.76598 1.0092 0
M  V30 4231 C 408.078 -1.86939 -0.455142 0
M  V30 4232 O 407.371 -1.37575 -1.33355 0
M  V30 4233 C 407.565 -3.18941 1.6128 0
M  V30 4234 C 407.394 -3.22476 3.13431 0
M  V30 4235 C 406.164 -3.30375 3.82336 0
M  V30 4236 C 408.362 -3.09451 4.10785 0
M  V30 4237 N 406.344 -3.23292 5.21877 0
M  V30 4238 C 407.715 -3.10012 5.36929 0
M  V30 4239 C 409.77 -2.93585 4.02135 0
M  V30 4240 C 408.473 -2.96334 6.55423 0
M  V30 4241 C 410.499 -2.81256 5.20239 0
M  V30 4242 C 409.861 -2.82472 6.45282 0
M  V30 4243 H 405.96 -0.657447 0.423424 0
M  V30 4244 H 408.544 -1.22369 1.5144 0
M  V30 4245 H 406.715 -3.71489 1.1336 0
M  V30 4246 H 408.447 -3.81102 1.36173 0
M  V30 4247 H 405.202 -3.3663 3.33132 0
M  V30 4248 H 405.626 -3.23156 5.94894 0
M  V30 4249 H 410.268 -2.91466 3.0628 0
M  V30 4250 H 407.986 -2.97203 7.51463 0
M  V30 4251 H 411.572 -2.70014 5.15348 0
M  V30 4252 H 410.452 -2.73036 7.35133 0
M  V30 4253 N 407.956 -0.998596 -1.21925 0
M  V30 4254 C 409.372 -0.710303 -1.42923 0
M  V30 4255 C 409.572 0.716933 -1.88314 0
M  V30 4256 O 408.628 1.48712 -2.04062 0
M  V30 4257 C 409.941 -1.72072 -2.466 0
M  V30 4258 C 411.489 -1.73681 -2.60392 0
M  V30 4259 C 411.964 -2.73601 -3.67296 0
M  V30 4260 N 413.455 -2.7223 -3.7476 0
M  V30 4261 C 414.19 -3.46206 -4.57087 0
M  V30 4262 N 413.686 -4.29802 -5.43362 0
M  V30 4263 N 415.479 -3.34886 -4.51451 0
M  V30 4264 H 407.63 -1.92028 -0.9077 0
M  V30 4265 H 409.893 -0.828487 -0.460775 0
M  V30 4266 H 409.599 -2.74231 -2.20206 0
M  V30 4267 H 409.473 -1.51818 -3.45299 0
M  V30 4268 H 411.86 -0.722173 -2.86127 0
M  V30 4269 H 411.941 -1.98005 -1.61949 0
M  V30 4270 H 411.585 -3.75217 -3.42307 0
M  V30 4271 H 411.515 -2.46545 -4.65321 0
M  V30 4272 H 414.006 -2.11576 -3.1312 0
M  V30 4273 H 414.319 -4.83061 -6.03218 0
M  V30 4274 H 412.664 -4.33887 -5.42925 0
M  V30 4275 H 415.855 -2.69015 -3.83078 0
M  V30 4276 H 416.028 -3.92796 -5.15379 0
M  V30 4277 N 409.434 1.37368 -0.772513 0
M  V30 4278 C 410.682 1.99279 -0.336516 0
M  V30 4279 C 411.003 1.6163 1.09091 0
M  V30 4280 O 410.273 0.882109 1.74916 0
M  V30 4281 H 408.853 0.737063 -0.121435 0
M  V30 4282 H 411.515 1.67836 -0.990809 0
M  V30 4283 H 410.611 3.09332 -0.414763 0
M  V30 4284 N 410.912 0.523116 1.48665 0
M  V30 4285 C 412.159 -0.0134763 2.02496 0
M  V30 4286 C 412.487 -1.3493 1.40086 0
M  V30 4287 O 411.742 -1.88286 0.533567 0
M  V30 4288 C 412.041 -0.191671 3.56886 0
M  V30 4289 C 411.707 1.06893 4.38046 0
M  V30 4290 C 410.369 1.41443 4.59943 0
M  V30 4291 C 412.721 1.90584 4.85106 0
M  V30 4292 C 410.049 2.59594 5.26144 0
M  V30 4293 C 412.401 3.07907 5.52609 0
M  V30 4294 C 411.065 3.42811 5.72745 0
M  V30 4295 H 410.335 -0.00493133 0.740984 0
M  V30 4296 H 412.982 0.687751 1.78724 0
M  V30 4297 H 411.287 -0.97561 3.79459 0
M  V30 4298 H 412.984 -0.621659 3.96152 0
M  V30 4299 H 409.574 0.789848 4.21259 0
M  V30 4300 H 413.758 1.65203 4.67997 0
M  V30 4301 H 409.014 2.86847 5.39934 0
M  V30 4302 H 413.188 3.73066 5.88043 0
M  V30 4303 H 410.815 4.34462 6.23816 0
M  V30 4304 N 412.39 -1.55475 0.257931 0
M  V30 4305 C 413.637 -1.99207 -0.363728 0
M  V30 4306 C 413.965 -1.1462 -1.57139 0
M  V30 4307 O 413.22 -0.199653 -1.94679 0
M  V30 4308 C 413.519 -3.48183 -0.806433 0
M  V30 4309 C 413.185 -4.49936 0.294684 0
M  V30 4310 C 411.847 -4.77481 0.597076 0
M  V30 4311 C 414.199 -5.10769 1.03751 0
M  V30 4312 C 411.527 -5.63132 1.64618 0
M  V30 4313 C 413.879 -5.97558 2.07622 0
M  V30 4314 C 412.543 -6.23432 2.38514 0
M  V30 4315 H 411.813 -0.728949 -0.133097 0
M  V30 4316 H 414.46 -1.8793 0.368059 0
M  V30 4317 H 412.765 -3.56848 -1.61761 0
M  V30 4318 H 414.462 -3.79415 -1.29789 0
M  V30 4319 H 411.052 -4.28572 0.0488649 0
M  V30 4320 H 415.236 -4.89527 0.817149 0
M  V30 4321 H 410.492 -5.8143 1.89074 0
M  V30 4322 H 414.666 -6.43735 2.65666 0
M  V30 4323 H 412.293 -6.89594 3.19943 0
M  V30 4324 N 413.868 0.0150385 -1.57593 0
M  V30 4325 C 414.831 0.995996 -2.06428 0
M  V30 4326 C 415.831 1.2818 -0.970903 0
M  V30 4327 O 417.021 1.22949 -1.23406 0
M  V30 4328 C 414.153 2.32506 -2.49307 0
M  V30 4329 H 415.346 0.573873 -2.94358 0
M  V30 4330 H 412.899 0.262186 -1.54085 0
M  V30 4331 H 413.634 2.79438 -1.64575 0
M  V30 4332 H 413.419 2.13087 -3.29145 0
M  V30 4333 H 414.909 3.02906 -2.87468 0
M  V30 4334 N 415.346 1.54954 0.287554 0
M  V30 4335 C 416.309 1.86076 1.33823 0
M  V30 4336 C 417.309 0.734414 1.43049 0
M  V30 4337 O 418.499 1.00266 1.42452 0
M  V30 4338 C 415.631 2.05305 2.72144 0
M  V30 4339 H 416.824 2.79984 1.07465 0
M  V30 4340 H 414.377 1.47223 0.524902 0
M  V30 4341 H 415.112 1.1373 3.03704 0
M  V30 4342 H 414.897 2.873 2.66836 0
M  V30 4343 H 416.387 2.30706 3.48087 0
M  V30 4344 N 416.824 -0.551391 1.4764 0
M  V30 4345 C 418.052 -1.33357 1.58189 0
M  V30 4346 C 418.467 -1.87342 0.234199 0
M  V30 4347 O 417.824 -1.65301 -0.77343 0
M  V30 4348 C 417.875 -2.49942 2.61173 0
M  V30 4349 O 417.596 -1.98187 3.90709 0
M  V30 4350 C 419.097 -3.42072 2.8196 0
M  V30 4351 H 416.317 -0.40631 0.533998 0
M  V30 4352 H 418.861 -0.667367 1.93304 0
M  V30 4353 H 417.016 -3.12489 2.28975 0
M  V30 4354 H 417.43 -2.74342 4.47031 0
M  V30 4355 H 418.904 -4.20278 3.57869 0
M  V30 4356 H 419.381 -3.95978 1.89995 0
M  V30 4357 H 419.987 -2.85336 3.15378 0
M  V30 4358 N 418.302 -1.35869 -0.798587 0
M  V30 4359 C 419.549 -1.29588 -1.55606 0
M  V30 4360 C 419.877 0.127456 -1.94082 0
M  V30 4361 O 419.132 1.09461 -1.62225 0
M  V30 4362 C 419.431 -2.1556 -2.85077 0
M  V30 4363 C 419.097 -3.6424 -2.65781 0
M  V30 4364 C 417.759 -4.04766 -2.60227 0
M  V30 4365 C 420.111 -4.58547 -2.47758 0
M  V30 4366 C 417.439 -5.37753 -2.34603 0
M  V30 4367 C 419.791 -5.91742 -2.23662 0
M  V30 4368 C 418.455 -6.31402 -2.16534 0
M  V30 4369 H 417.725 -0.474197 -0.569402 0
M  V30 4370 H 420.372 -1.67839 -0.922086 0
M  V30 4371 H 418.677 -1.70216 -3.52893 0
M  V30 4372 H 420.374 -2.08031 -3.42818 0
M  V30 4373 H 416.964 -3.32086 -2.70956 0
M  V30 4374 H 421.148 -4.28117 -2.51056 0
M  V30 4375 H 416.404 -5.67474 -2.2756 0
M  V30 4376 H 420.578 -6.6439 -2.08708 0
M  V30 4377 H 418.205 -7.34381 -1.96441 0
M  V30 4378 N 419.78 1.02168 -1.19998 0
M  V30 4379 C 421.005 1.79833 -1.03319 0
M  V30 4380 C 421.43 1.83504 0.413281 0
M  V30 4381 O 420.788 1.26635 1.29743 0
M  V30 4382 C 420.836 3.22396 -1.61533 0
M  V30 4383 O 419.94 4.03555 -0.849519 0
M  V30 4384 H 419.281 0.554872 -0.364709 0
M  V30 4385 H 421.811 1.28542 -1.59179 0
M  V30 4386 H 421.821 3.73124 -1.65054 0
M  V30 4387 H 420.496 3.19039 -2.66809 0
M  V30 4388 H 419.073 3.62169 -0.888129 0
M  V30 4389 N 421.258 1.00505 1.21394 0
M  V30 4390 C 422.221 0.570459 2.21987 0
M  V30 4391 C 423.221 -0.353211 1.56873 0
M  V30 4392 O 424.411 -0.14349 1.73608 0
M  V30 4393 C 421.543 -0.168555 3.40483 0
M  V30 4394 H 422.736 1.46021 2.6195 0
M  V30 4395 H 420.289 0.793565 1.34656 0
M  V30 4396 H 421.024 -1.07374 3.06009 0
M  V30 4397 H 420.809 0.494823 3.88965 0
M  V30 4398 H 422.299 -0.460362 4.15055 0
M  V30 4399 N 422.737 -1.36956 0.779787 0
M  V30 4400 C 423.984 -1.99491 0.347766 0
M  V30 4401 C 424.312 -1.61898 -1.07793 0
M  V30 4402 O 423.567 -0.86071 -1.75756 0
M  V30 4403 C 423.866 -3.54585 0.447686 0
M  V30 4404 C 423.532 -4.1197 1.83279 0
M  V30 4405 C 422.194 -4.27356 2.2118 0
M  V30 4406 C 424.546 -4.43354 2.74019 0
M  V30 4407 C 421.874 -4.71432 3.4924 0
M  V30 4408 C 424.226 -4.88858 4.01497 0
M  V30 4409 C 422.89 -5.0245 4.39432 0
M  V30 4410 H 422.16 -0.729991 0.127257 0
M  V30 4411 H 424.807 -1.63599 0.995376 0
M  V30 4412 H 423.112 -3.90773 -0.283447 0
M  V30 4413 H 424.809 -4.00888 0.0945948 0
M  V30 4414 H 421.399 -4.00428 1.52825 0
M  V30 4415 H 425.583 -4.31045 2.45995 0
M  V30 4416 H 420.839 -4.80141 3.78516 0
M  V30 4417 H 425.013 -5.12108 4.71931 0
M  V30 4418 H 422.64 -5.36362 5.38721 0
M  V30 4419 N 424.215 -0.530993 -1.48385 0
M  V30 4420 C 425.464 0.00474348 -2.01699 0
M  V30 4421 C 425.777 1.35227 -1.41325 0
M  V30 4422 O 426.983 1.97643 -1.86144 0
M  V30 4423 C 425.439 0.0588473 -3.59852 0
M  V30 4424 C 425.047 -1.28385 -4.2921 0
M  V30 4425 C 426.791 0.543358 -4.21008 0
M  V30 4426 C 424.698 -1.19028 -5.79298 0
M  V30 4427 H 423.628 0.00554317 -0.75398 0
M  V30 4428 H 426.279 -0.674924 -1.70637 0
M  V30 4429 H 424.661 0.803612 -3.8776 0
M  V30 4430 H 425.835 -2.04426 -4.12973 0
M  V30 4431 H 424.15 -1.70418 -3.7993 0
M  V30 4432 H 426.747 0.631351 -5.3096 0
M  V30 4433 H 427.09 1.54937 -3.86394 0
M  V30 4434 H 427.623 -0.145754 -3.97533 0
M  V30 4435 H 424.362 -2.17147 -6.18488 0
M  V30 4436 H 423.882 -0.471246 -5.97946 0
M  V30 4437 H 425.561 -0.881365 -6.40969 0
M  V30 4438 N 425.693 1.55336 -0.266172 0
M  V30 4439 C 426.94 1.99397 0.353158 0
M  V30 4440 C 427.268 1.15451 1.56529 0
M  V30 4441 O 426.523 0.209974 1.9457 0
M  V30 4442 C 426.822 3.48606 0.787957 0
M  V30 4443 C 426.488 4.49773 -0.318541 0
M  V30 4444 C 425.15 4.77158 -0.62239 0
M  V30 4445 C 427.502 5.10212 -1.06459 0
M  V30 4446 C 424.83 5.62251 -1.67602 0
M  V30 4447 C 427.182 5.96449 -2.10788 0
M  V30 4448 C 425.846 6.22158 -2.41817 0
M  V30 4449 H 425.116 0.729644 0.12923 0
M  V30 4450 H 427.763 1.87732 -0.37802 0
M  V30 4451 H 426.068 3.57701 1.59866 0
M  V30 4452 H 427.765 3.80098 1.27775 0
M  V30 4453 H 424.355 4.2854 -0.0715925 0
M  V30 4454 H 428.539 4.89086 -0.843098 0
M  V30 4455 H 423.795 5.80419 -1.92155 0
M  V30 4456 H 427.969 6.42317 -2.69076 0
M  V30 4457 H 425.596 6.87888 -3.23596 0
M  V30 4458 N 427.171 -0.0066808 1.57599 0
M  V30 4459 C 428.587 -0.36267 1.55425 0
M  V30 4460 C 428.787 -1.75209 0.995187 0
M  V30 4461 O 427.843 -2.44616 0.626058 0
M  V30 4462 C 429.156 -0.244017 2.99708 0
M  V30 4463 C 430.704 -0.319451 3.11366 0
M  V30 4464 C 431.179 -0.229998 4.57422 0
M  V30 4465 N 432.67 -0.288105 4.62303 0
M  V30 4466 C 433.405 -0.242127 5.72889 0
M  V30 4467 N 432.901 -0.147133 6.92644 0
M  V30 4468 N 434.694 -0.293502 5.61333 0
M  V30 4469 H 426.845 0.902314 1.92281 0
M  V30 4470 H 429.108 0.34525 0.882896 0
M  V30 4471 H 428.814 0.711678 3.44424 0
M  V30 4472 H 428.688 -1.02877 3.629 0
M  V30 4473 H 431.075 -1.26559 2.66584 0
M  V30 4474 H 431.156 0.495055 2.50964 0
M  V30 4475 H 430.8 0.712566 5.02877 0
M  V30 4476 H 430.73 -1.0629 5.15761 0
M  V30 4477 H 433.221 -0.363126 3.76151 0
M  V30 4478 H 433.534 -0.117763 7.7271 0
M  V30 4479 H 431.879 -0.112857 6.94908 0
M  V30 4480 H 435.07 -0.365864 4.66668 0
M  V30 4481 H 435.243 -0.254204 6.47501 0
M  V30 4482 N 428.649 -1.55105 -0.279332 0
M  V30 4483 C 429.895 -1.75672 -1.01327 0
M  V30 4484 C 430.228 -0.552739 -1.86168 0
M  V30 4485 O 429.503 0.449827 -1.89227 0
M  V30 4486 C 429.786 -3.05825 -1.90114 0
M  V30 4487 C 429.639 -4.36565 -1.08309 0
M  V30 4488 C 430.958 -3.31975 -2.8893 0
M  V30 4489 H 428.077 -0.639149 -0.366957 0
M  V30 4490 H 430.719 -1.87833 -0.286154 0
M  V30 4491 H 428.869 -2.95588 -2.52111 0
M  V30 4492 H 430.541 -4.58751 -0.484314 0
M  V30 4493 H 428.784 -4.32076 -0.386362 0
M  V30 4494 H 429.455 -5.23946 -1.73737 0
M  V30 4495 H 431.931 -3.41963 -2.37067 0
M  V30 4496 H 430.807 -4.2432 -3.48201 0
M  V30 4497 H 431.068 -2.51309 -3.63725 0
M  V30 4498 N 430.127 0.543554 -1.4793 0
M  V30 4499 C 431.057 1.65888 -1.64327 0
M  V30 4500 C 432.038 1.62818 -0.492383 0
M  V30 4501 O 433.223 1.80226 -0.723338 0
M  V30 4502 C 430.353 3.04506 -1.67013 0
M  V30 4503 C 429.307 3.2243 -2.81466 0
M  V30 4504 C 428.633 4.61972 -2.69233 0
M  V30 4505 C 429.933 3.06496 -4.22915 0
M  V30 4506 H 431.627 1.52421 -2.57698 0
M  V30 4507 H 429.173 0.731849 -1.24016 0
M  V30 4508 H 431.126 3.82391 -1.77074 0
M  V30 4509 H 429.85 3.18964 -0.70212 0
M  V30 4510 H 428.509 2.46957 -2.70938 0
M  V30 4511 H 428.157 4.73247 -1.7043 0
M  V30 4512 H 427.857 4.74911 -3.46025 0
M  V30 4513 H 429.381 5.41974 -2.81242 0
M  V30 4514 H 430.795 3.74186 -4.34348 0
M  V30 4515 H 429.192 3.30938 -5.006 0
M  V30 4516 H 430.262 2.03077 -4.40327 0
M  V30 4517 N 431.605 1.3629 0.791371 0
M  V30 4518 C 432.568 1.30309 1.88553 0
M  V30 4519 C 433.568 0.211204 1.59407 0
M  V30 4520 O 434.758 0.465865 1.67855 0
M  V30 4521 C 431.89 1.01956 3.25297 0
M  V30 4522 H 433.083 2.27614 1.95273 0
M  V30 4523 H 430.636 1.21035 0.988953 0
M  V30 4524 H 431.371 0.050998 3.2426 0
M  V30 4525 H 431.156 1.80968 3.4784 0
M  V30 4526 H 432.646 1.0037 4.05359 0
M  V30 4527 N 433.083 -1.0153 1.20538 0
M  V30 4528 C 434.329 -1.75408 1.01783 0
M  V30 4529 C 434.662 -1.88943 -0.448814 0
M  V30 4530 O 433.937 -1.4162 -1.33319 0
M  V30 4531 C 434.22 -3.17255 1.70356 0
M  V30 4532 C 434.073 -3.11508 3.24473 0
M  V30 4533 C 435.392 -4.15955 1.43769 0
M  V30 4534 H 432.511 -0.636713 0.371167 0
M  V30 4535 H 435.153 -1.18436 1.4857 0
M  V30 4536 H 433.303 -3.65898 1.30578 0
M  V30 4537 H 434.975 -2.70658 3.73553 0
M  V30 4538 H 433.218 -2.4887 3.55311 0
M  V30 4539 H 433.889 -4.11784 3.67611 0
M  V30 4540 H 436.365 -3.75973 1.7828 0
M  V30 4541 H 435.241 -5.13368 1.94279 0
M  V30 4542 H 435.502 -4.40586 0.365564 0
M  V30 4543 N 434.561 -1.01147 -1.20859 0
M  V30 4544 C 435.807 -0.708598 -1.90658 0
M  V30 4545 C 436.162 0.753069 -1.7705 0
M  V30 4546 O 435.455 1.53952 -1.14059 0
M  V30 4547 C 435.649 -1.0727 -3.40922 0
M  V30 4548 C 435.478 -2.56821 -3.69152 0
M  V30 4549 C 434.248 -3.23524 -3.8815 0
M  V30 4550 C 436.446 -3.54997 -3.72131 0
M  V30 4551 N 434.428 -4.62359 -4.03853 0
M  V30 4552 C 435.799 -4.79371 -3.93196 0
M  V30 4553 C 437.854 -3.49042 -3.55069 0
M  V30 4554 C 436.557 -5.98512 -3.98969 0
M  V30 4555 C 438.583 -4.67579 -3.6211 0
M  V30 4556 C 437.945 -5.9076 -3.83643 0
M  V30 4557 H 434.044 -0.31088 -0.71755 0
M  V30 4558 H 436.628 -1.29526 -1.45366 0
M  V30 4559 H 434.799 -0.51443 -3.84978 0
M  V30 4560 H 436.531 -0.723891 -3.98173 0
M  V30 4561 H 433.286 -2.73958 -3.86321 0
M  V30 4562 H 433.71 -5.34427 -4.15592 0
M  V30 4563 H 438.352 -2.54808 -3.37391 0
M  V30 4564 H 436.07 -6.93132 -4.15444 0
M  V30 4565 H 439.656 -4.64581 -3.50222 0
M  V30 4566 H 438.536 -6.8095 -3.88944 0
M  V30 4567 N 436.039 1.36541 -0.78704 0
M  V30 4568 C 436.987 2.31965 -0.171724 0
M  V30 4569 C 437.981 1.55689 0.667631 0
M  V30 4570 O 439.187 1.70969 0.562981 0
M  V30 4571 H 435.562 0.751101 -0.0367545 0
M  V30 4572 H 437.533 2.81428 -0.992017 0
M  V30 4573 C 436.282 3.40968 0.680904 0
M  V30 4574 H 435.605 3.99775 0.0443961 0
M  V30 4575 H 437.045 4.10063 1.07815 0
M  V30 4576 C 435.504 2.82338 1.83813 0
M  V30 4577 O 436.034 2.74311 2.93456 0
M  V30 4578 N 434.24 2.39661 1.6435 0
M  V30 4579 H 433.787 2.46389 0.751668 0
M  V30 4580 H 433.745 2.00779 2.4194 0
M  V30 4581 N 437.518 0.538854 1.48102 0
M  V30 4582 C 438.934 0.19732 1.58376 0
M  V30 4583 C 439.134 -1.29971 1.5398 0
M  V30 4584 O 438.19 -2.07861 1.43352 0
M  V30 4585 C 439.503 0.807716 2.89649 0
M  V30 4586 C 441.051 0.77726 3.03196 0
M  V30 4587 C 441.526 1.36639 4.37143 0
M  V30 4588 N 443.017 1.32875 4.43732 0
M  V30 4589 C 443.752 1.7544 5.45901 0
M  V30 4590 N 443.248 2.25776 6.54979 0
M  V30 4591 N 445.041 1.66623 5.36836 0
M  V30 4592 H 437.192 1.5117 1.49202 0
M  V30 4593 H 439.455 0.629327 0.708979 0
M  V30 4594 H 439.161 1.85909 2.98548 0
M  V30 4595 H 439.035 0.289975 3.76084 0
M  V30 4596 H 441.422 -0.265374 2.93904 0
M  V30 4597 H 441.503 1.33256 2.18349 0
M  V30 4598 H 441.147 2.408 4.47189 0
M  V30 4599 H 441.077 0.786689 5.20691 0
M  V30 4600 H 443.568 0.96037 3.65493 0
M  V30 4601 H 443.881 2.56226 7.29087 0
M  V30 4602 H 442.226 2.29775 6.55918 0
M  V30 4603 H 445.417 1.27089 4.50517 0
M  V30 4604 H 445.59 2.00115 6.16326 0
M  V30 4605 N 438.996 -1.55193 0.274407 0
M  V30 4606 C 440.273 -1.91584 -0.394331 0
M  V30 4607 C 440.653 -1.19858 -1.73774 0
M  V30 4608 O 440.001 -0.3252 -2.26174 0
M  V30 4609 C 440.211 -3.4487 -0.535311 0
M  V30 4610 C 441.559 -4.16636 -0.818534 0
M  V30 4611 O 442.583 -3.5076 -0.620146 0
M  V30 4612 O 441.442 -5.33209 -1.19792 0
M  V30 4613 H 438.536 -0.798349 -0.215794 0
M  V30 4614 H 441.082 -1.66646 0.320507 0
M  V30 4615 H 439.854 -3.89145 0.410141 0
M  V30 4616 H 439.477 -3.75759 -1.29964 0
M  V30 4617 N 440.474 -0.00167713 -1.576 0
M  V30 4618 C 441.384 1.00548 -2.1196 0
M  V30 4619 C 442.4 1.3758 -1.06526 0
M  V30 4620 O 443.576 1.46278 -1.38436 0
M  V30 4621 C 440.641 2.27809 -2.6135 0
M  V30 4622 C 439.702 1.97074 -3.81393 0
M  V30 4623 C 438.935 3.18267 -4.28417 0
M  V30 4624 O 439.158 4.30009 -3.74765 0
M  V30 4625 O 438.092 3.02167 -5.20556 0
M  V30 4626 H 441.918 0.573373 -2.98238 0
M  V30 4627 H 439.503 0.217255 -1.47812 0
M  V30 4628 H 441.385 3.02568 -2.93309 0
M  V30 4629 H 440.06 2.70254 -1.78169 0
M  V30 4630 H 438.967 1.19785 -3.54404 0
M  V30 4631 H 440.3 1.59464 -4.65652 0
M  V30 4632 N 441.952 1.55251 0.271103 0
M  V30 4633 C 442.862 1.9136 1.35714 0
M  V30 4634 C 443.878 0.811075 1.5394 0
M  V30 4635 O 445.054 1.11031 1.6803 0
M  V30 4636 C 442.119 2.1798 2.69603 0
M  V30 4637 C 441.18 3.4153 2.60107 0
M  V30 4638 C 440.413 3.66871 3.8761 0
M  V30 4639 O 440.636 2.94689 4.8838 0
M  V30 4640 O 439.57 4.60405 3.87699 0
M  V30 4641 H 443.396 2.83815 1.08088 0
M  V30 4642 H 440.981 1.41821 0.469792 0
M  V30 4643 H 442.863 2.36518 3.48765 0
M  V30 4644 H 441.538 1.28708 2.97012 0
M  V30 4645 H 440.445 3.28325 1.79314 0
M  V30 4646 H 441.778 4.31027 2.37647 0
M  V30 4647 N 443.43 -0.535701 1.48216 0
M  V30 4648 C 444.658 -1.31671 1.59594 0
M  V30 4649 C 445.073 -1.87083 0.254056 0
M  V30 4650 O 444.43 -1.66112 -0.755854 0
M  V30 4651 C 444.481 -2.47158 2.63809 0
M  V30 4652 O 444.202 -1.94032 3.92789 0
M  V30 4653 C 445.703 -3.39062 2.85573 0
M  V30 4654 H 442.923 -0.400623 0.538277 0
M  V30 4655 H 445.467 -0.646827 1.94001 0
M  V30 4656 H 443.622 -3.10043 2.32276 0
M  V30 4657 H 444.036 -2.69585 4.49916 0
M  V30 4658 H 445.51 -4.16459 3.62306 0
M  V30 4659 H 445.987 -3.93941 1.94184 0
M  V30 4660 H 446.593 -2.81975 3.18387 0
M  V30 4661 N 444.908 -1.36708 -0.784132 0
M  V30 4662 C 446.157 -1.30559 -1.53744 0
M  V30 4663 C 446.47 0.111374 -1.95283 0
M  V30 4664 O 447.676 0.29527 -2.6989 0
M  V30 4665 C 446.132 -2.29098 -2.77565 0
M  V30 4666 C 445.74 -3.76258 -2.43174 0
M  V30 4667 C 447.484 -2.31936 -3.55536 0
M  V30 4668 C 445.391 -4.6656 -3.63422 0
M  V30 4669 H 444.321 -0.48518 -0.577162 0
M  V30 4670 H 446.972 -1.62101 -0.859981 0
M  V30 4671 H 445.354 -1.90557 -3.47137 0
M  V30 4672 H 446.528 -4.23565 -1.81465 0
M  V30 4673 H 444.843 -3.76246 -1.78403 0
M  V30 4674 H 447.44 -2.9661 -4.44889 0
M  V30 4675 H 447.783 -1.3294 -3.94503 0
M  V30 4676 H 448.316 -2.6912 -2.92949 0
M  V30 4677 H 445.055 -5.66638 -3.29547 0
M  V30 4678 H 444.575 -4.23966 -4.24279 0
M  V30 4679 H 446.254 -4.8309 -4.30387 0
M  V30 4680 N 446.386 1.0089 -1.21074 0
M  V30 4681 C 447.614 1.78191 -1.05145 0
M  V30 4682 C 448.029 1.84537 0.398952 0
M  V30 4683 O 447.386 1.30393 1.27687 0
M  V30 4684 C 447.437 3.22288 -1.63746 0
M  V30 4685 O 447.158 3.16315 -3.03111 0
M  V30 4686 C 448.659 4.16106 -1.52875 0
M  V30 4687 H 445.879 0.560129 -0.369454 0
M  V30 4688 H 448.423 1.26945 -1.60328 0
M  V30 4689 H 446.578 3.70655 -1.12664 0
M  V30 4690 H 446.992 4.06817 -3.31059 0
M  V30 4691 H 448.466 5.15026 -1.98626 0
M  V30 4692 H 448.943 4.36541 -0.482521 0
M  V30 4693 H 449.549 3.73625 -2.03185 0
M  V30 4694 N 447.864 1.01787 1.20321 0
M  V30 4695 C 448.827 0.593972 2.2137 0
M  V30 4696 C 449.827 -0.336553 1.57239 0
M  V30 4697 O 451.017 -0.125069 1.7375 0
M  V30 4698 C 448.149 -0.132433 3.40643 0
M  V30 4699 H 449.342 1.48791 2.60387 0
M  V30 4700 H 446.895 0.807803 1.33807 0
M  V30 4701 H 447.63 -1.04123 3.0713 0
M  V30 4702 H 447.415 0.53605 3.88418 0
M  V30 4703 H 448.905 -0.416314 4.1552 0
M  V30 4704 N 449.342 -1.36122 0.79427 0
M  V30 4705 C 450.272 -2.32551 0.210328 0
M  V30 4706 C 451.253 -1.56884 -0.657386 0
M  V30 4707 O 452.438 -1.85014 -0.590207 0
M  V30 4708 C 449.568 -3.41128 -0.651819 0
M  V30 4709 C 448.522 -4.27842 0.116395 0
M  V30 4710 C 447.848 -5.2763 -0.86666 0
M  V30 4711 C 449.148 -5.05647 1.30837 0
M  V30 4712 H 450.842 -2.81636 1.01594 0
M  V30 4713 H 448.388 -1.35407 0.489981 0
M  V30 4714 H 450.341 -4.07581 -1.07031 0
M  V30 4715 H 449.065 -2.90622 -1.49019 0
M  V30 4716 H 447.724 -3.62952 0.515915 0
M  V30 4717 H 447.372 -4.73395 -1.70019 0
M  V30 4718 H 447.072 -5.86514 -0.35705 0
M  V30 4719 H 448.596 -5.96955 -1.28361 0
M  V30 4720 H 450.01 -5.65113 0.965393 0
M  V30 4721 H 448.407 -5.73967 1.75161 0
M  V30 4722 H 449.477 -4.37006 2.10128 0
M  V30 4723 N 450.82 -0.546701 -1.47814 0
M  V30 4724 C 452.067 -0.0187407 -2.02491 0
M  V30 4725 C 452.395 1.32685 -1.42215 0
M  V30 4726 O 451.65 1.87413 -0.563454 0
M  V30 4727 C 451.949 0.134869 -3.57145 0
M  V30 4728 C 451.615 -1.13849 -4.3629 0
M  V30 4729 C 450.277 -1.48743 -4.57634 0
M  V30 4730 C 452.629 -1.98277 -4.82012 0
M  V30 4731 C 449.957 -2.67932 -5.21948 0
M  V30 4732 C 452.309 -3.16659 -5.4764 0
M  V30 4733 C 450.973 -3.51879 -5.67219 0
M  V30 4734 H 450.243 -0.0068577 -0.740968 0
M  V30 4735 H 452.89 -0.716097 -1.77607 0
M  V30 4736 H 451.195 0.915118 -3.80963 0
M  V30 4737 H 452.892 0.558556 -3.97091 0
M  V30 4738 H 449.482 -0.856767 -4.19949 0
M  V30 4739 H 453.666 -1.72628 -4.6531 0
M  V30 4740 H 448.922 -2.95401 -5.35302 0
M  V30 4741 H 453.096 -3.82374 -5.82033 0
M  V30 4742 H 450.723 -4.44331 -6.16825 0
M  V30 4743 N 452.299 1.55045 -0.282633 0
M  V30 4744 C 453.246 2.22822 0.601566 0
M  V30 4745 C 454.216 1.20431 1.14392 0
M  V30 4746 O 455.401 1.48996 1.19184 0
M  V30 4747 C 452.541 2.95873 1.77632 0
M  V30 4748 C 451.654 4.12999 1.26711 0
M  V30 4749 C 450.789 4.73676 2.40426 0
M  V30 4750 C 449.828 5.82981 1.86545 0
M  V30 4751 N 448.965 6.3769 2.93762 0
M  V30 4752 H 453.805 2.97995 0.0169528 0
M  V30 4753 H 451.342 1.471 -0.00339964 0
M  V30 4754 H 453.3 3.36447 2.46697 0
M  V30 4755 H 451.93 2.2311 2.33285 0
M  V30 4756 H 450.982 3.77494 0.469314 0
M  V30 4757 H 452.294 4.91803 0.832518 0
M  V30 4758 H 451.448 5.17008 3.17471 0
M  V30 4759 H 450.187 3.94164 2.87203 0
M  V30 4760 H 449.192 5.39092 1.07983 0
M  V30 4761 H 450.417 6.64366 1.40694 0
M  V30 4762 H 448.363 5.61069 3.39908 0
M  V30 4763 H 448.28 7.11788 2.54744 0
M  V30 4764 H 449.548 6.8568 3.7076 0
M  V30 4765 N 453.777 0.010035 1.57597 0
M  V30 4766 C 455.005 -0.683413 1.95287 0
M  V30 4767 C 455.42 -1.66747 0.885481 0
M  V30 4768 O 454.777 -1.82003 -0.134629 0
M  V30 4769 C 454.828 -1.40652 3.33015 0
M  V30 4770 O 454.549 -0.461916 4.35658 0
M  V30 4771 C 456.05 -2.19356 3.85225 0
M  V30 4772 H 453.27 -0.189708 0.643624 0
M  V30 4773 H 455.814 0.0641359 2.04399 0
M  V30 4774 H 453.969 -2.10562 3.2518 0
M  V30 4775 H 454.383 -0.973215 5.15392 0
M  V30 4776 H 455.857 -2.65433 4.83993 0
M  V30 4777 H 456.334 -3.02457 3.18459 0
M  V30 4778 H 456.94 -1.54442 3.96267 0
M  V30 4779 N 455.255 -1.55392 -0.262866 0
M  V30 4780 C 456.671 -1.47459 -0.610582 0
M  V30 4781 C 456.871 -0.697031 -1.8906 0
M  V30 4782 O 455.927 -0.219952 -2.5154 0
M  V30 4783 C 457.24 -2.91751 -0.728131 0
M  V30 4784 C 458.788 -3.02027 -0.821517 0
M  V30 4785 C 459.263 -4.47594 -0.97076 0
M  V30 4786 N 460.754 -4.51465 -1.03603 0
M  V30 4787 C 461.489 -5.61326 -1.17049 0
M  V30 4788 N 460.985 -6.81032 -1.2715 0
M  V30 4789 N 462.778 -5.49089 -1.20239 0
M  V30 4790 H 454.929 -2.04395 0.577632 0
M  V30 4791 H 457.192 -0.927287 0.197086 0
M  V30 4792 H 456.898 -3.51413 0.142132 0
M  V30 4793 H 456.772 -3.4134 -1.6052 0
M  V30 4794 H 459.159 -2.42456 -1.68224 0
M  V30 4795 H 459.24 -2.55674 0.0803688 0
M  V30 4796 H 458.884 -5.07771 -0.114655 0
M  V30 4797 H 458.814 -4.91613 -1.88745 0
M  V30 4798 H 461.305 -3.6524 -0.96996 0
M  V30 4799 H 461.618 -7.60511 -1.37271 0
M  V30 4800 H 459.963 -6.83824 -1.24136 0
M  V30 4801 H 463.154 -4.54507 -1.11985 0
M  V30 4802 H 463.327 -6.34749 -1.30373 0
M  V30 4803 N 456.733 0.527833 -1.48498 0
M  V30 4804 C 457.98 1.28354 -1.56625 0
M  V30 4805 C 458.308 1.93 -0.241096 0
M  V30 4806 O 457.563 1.79967 0.768798 0
M  V30 4807 C 457.862 2.39275 -2.65485 0
M  V30 4808 C 457.528 1.92268 -4.07853 0
M  V30 4809 C 456.19 1.79166 -4.46602 0
M  V30 4810 C 458.542 1.56771 -4.97064 0
M  V30 4811 C 455.87 1.28905 -5.72364 0
M  V30 4812 C 458.222 1.07972 -6.23318 0
M  V30 4813 C 456.886 0.934887 -6.60921 0
M  V30 4814 H 456.156 0.469682 -0.573131 0
M  V30 4815 H 458.803 0.588781 -1.82224 0
M  V30 4816 H 457.108 3.1443 -2.33754 0
M  V30 4817 H 458.805 2.974 -2.68988 0
M  V30 4818 H 455.395 2.03417 -3.77252 0
M  V30 4819 H 459.579 1.65753 -4.67803 0
M  V30 4820 H 454.835 1.16381 -6.00221 0
M  V30 4821 H 459.009 0.795775 -6.91838 0
M  V30 4822 H 456.636 0.543231 -7.58257 0
M  V30 4823 N 458.211 1.37122 0.776871 0
M  V30 4824 C 459.627 1.1781 1.07671 0
M  V30 4825 C 459.827 0.0107454 2.01497 0
M  V30 4826 O 458.883 -0.650756 2.4397 0
M  V30 4827 C 460.196 2.49451 1.67913 0
M  V30 4828 C 461.744 2.55927 1.80195 0
M  V30 4829 C 462.219 3.87686 2.43851 0
M  V30 4830 N 463.71 3.891 2.51307 0
M  V30 4831 C 464.445 4.87797 3.014 0
M  V30 4832 N 463.941 5.96888 3.51705 0
M  V30 4833 N 465.734 4.75205 3.00227 0
M  V30 4834 H 457.885 2.11843 0.153778 0
M  V30 4835 H 460.148 0.938927 0.130844 0
M  V30 4836 H 459.854 3.35207 1.06439 0
M  V30 4837 H 459.728 2.66169 2.67271 0
M  V30 4838 H 462.115 1.70582 2.40803 0
M  V30 4839 H 462.196 2.43097 0.796069 0
M  V30 4840 H 461.84 4.73444 1.83884 0
M  V30 4841 H 461.77 3.97817 3.45035 0
M  V30 4842 H 464.261 3.10293 2.157 0
M  V30 4843 H 464.574 6.68155 3.88316 0
M  V30 4844 H 462.919 6.0054 3.49824 0
M  V30 4845 H 466.11 3.89103 2.60224 0
M  V30 4846 H 466.283 5.52279 3.38957 0
M  V30 4847 N 459.689 -1.00246 1.21608 0
M  V30 4848 C 460.619 -2.10921 1.00172 0
M  V30 4849 C 461.6 -1.69938 -0.0741587 0
M  V30 4850 O 462.785 -1.94009 0.0861753 0
M  V30 4851 C 459.915 -3.42618 0.568355 0
M  V30 4852 C 458.869 -3.97407 1.58909 0
M  V30 4853 C 458.195 -5.25038 1.01187 0
M  V30 4854 C 459.495 -4.2918 2.97661 0
M  V30 4855 H 461.189 -2.29112 1.92739 0
M  V30 4856 H 458.735 -1.10101 0.928102 0
M  V30 4857 H 460.688 -4.19444 0.405555 0
M  V30 4858 H 459.412 -3.24227 -0.392961 0
M  V30 4859 H 458.071 -3.22703 1.73949 0
M  V30 4860 H 457.719 -5.02982 0.0421965 0
M  V30 4861 H 457.419 -5.62661 1.6937 0
M  V30 4862 H 458.943 -6.04507 0.860448 0
M  V30 4863 H 460.357 -4.96839 2.86049 0
M  V30 4864 H 458.754 -4.77952 3.6288 0
M  V30 4865 H 459.824 -3.3735 3.48315 0
M  V30 4866 N 461.167 -1.02423 -1.1978 0
M  V30 4867 C 462.444 -0.632802 -1.85081 0
M  V30 4868 C 462.824 0.888745 -1.9148 0
M  V30 4869 O 462.172 1.78357 -1.42832 0
M  V30 4870 C 462.382 -1.28947 -3.24305 0
M  V30 4871 C 463.73 -1.40976 -4.00513 0
M  V30 4872 O 464.754 -1.24628 -3.33686 0
M  V30 4873 O 463.613 -1.67467 -5.20209 0
M  V30 4874 H 460.707 -0.219348 -0.79738 0
M  V30 4875 H 463.253 -1.12209 -1.27307 0
M  V30 4876 H 462.025 -2.3288 -3.14456 0
M  V30 4877 H 461.648 -0.787748 -3.89718 0
M  V30 4878 N 462.645 1.35699 -0.801477 0
M  V30 4879 C 463.892 1.98913 -0.379459 0
M  V30 4880 C 464.22 1.63592 1.05204 0
M  V30 4881 O 463.475 0.888563 1.74365 0
M  V30 4882 C 463.774 3.53828 -0.504041 0
M  V30 4883 C 463.44 4.09002 -1.8981 0
M  V30 4884 C 462.102 4.23783 -2.27951 0
M  V30 4885 C 464.454 4.38939 -2.81038 0
M  V30 4886 C 461.782 4.65816 -3.56696 0
M  V30 4887 C 464.134 4.82409 -4.09224 0
M  V30 4888 C 462.798 4.95395 -4.4737 0
M  V30 4889 H 462.068 0.727874 -0.138854 0
M  V30 4890 H 464.715 1.61994 -1.02128 0
M  V30 4891 H 463.02 3.91175 0.221242 0
M  V30 4892 H 464.717 4.00687 -0.158361 0
M  V30 4893 H 461.307 3.97946 -1.59176 0
M  V30 4894 H 465.491 4.27077 -2.52821 0
M  V30 4895 H 460.747 4.74059 -3.86106 0
M  V30 4896 H 464.921 5.04535 -4.80018 0
M  V30 4897 H 462.548 5.27724 -5.47185 0
M  V30 4898 N 464.123 0.554532 1.47522 0
M  V30 4899 C 465.534 0.120446 1.86311 0
M  V30 4900 C 465.885 -1.30904 1.46145 0
M  V30 4901 O 465.01 -1.98434 0.863294 0
M  V30 4902 C 465.605 0.211808 3.38137 0
M  V30 4903 C 464.164 -0.167224 3.76028 0
M  V30 4904 C 463.311 0.560576 2.71575 0
M  V30 4905 H 466.262 0.764408 1.39077 0
M  V30 4906 H 466.283 -0.570275 3.76202 0
M  V30 4907 H 465.795 1.25232 3.6734 0
M  V30 4908 H 463.896 -1.20894 3.52442 0
M  V30 4909 H 464.009 0.189473 4.78725 0
M  V30 4910 H 462.373 0.00396836 2.547 0
M  V30 4911 H 463.156 1.60219 3.0362 0
M  V30 4912 N 465.601 -1.54893 0.290851 0
M  V30 4913 C 466.848 -1.99933 -0.321391 0
M  V30 4914 C 467.176 -1.17927 -1.54672 0
M  V30 4915 O 466.431 -0.240902 -1.94212 0
M  V30 4916 C 466.73 -3.49815 -0.732397 0
M  V30 4917 C 466.396 -4.4921 0.390056 0
M  V30 4918 C 465.058 -4.76107 0.698223 0
M  V30 4919 C 467.41 -5.08453 1.14562 0
M  V30 4920 C 464.738 -5.59514 1.76526 0
M  V30 4921 C 467.09 -5.9302 2.2025 0
M  V30 4922 C 465.754 -6.18232 2.51684 0
M  V30 4923 H 465.024 -0.731608 -0.117605 0
M  V30 4924 H 467.671 -1.87107 0.407839 0
M  V30 4925 H 465.976 -3.60199 -1.54155 0
M  V30 4926 H 467.673 -3.82083 -1.21712 0
M  V30 4927 H 464.263 -4.28372 0.13976 0
M  V30 4928 H 468.447 -4.87683 0.920801 0
M  V30 4929 H 463.703 -5.77289 2.01364 0
M  V30 4930 H 467.877 -6.37955 2.7926 0
M  V30 4931 H 465.504 -6.82653 3.34499 0
M  V30 4932 N 467.08 -0.0183926 -1.57589 0
M  V30 4933 C 468.357 0.700621 -1.82622 0
M  V30 4934 C 468.737 1.90951 -0.90005 0
M  V30 4935 O 468.085 2.28452 0.0469145 0
M  V30 4936 C 468.295 1.08899 -3.31575 0
M  V30 4937 C 469.643 1.48514 -3.9778 0
M  V30 4938 O 470.667 1.18227 -3.36007 0
M  V30 4939 O 469.526 2.04903 -5.06633 0
M  V30 4940 H 466.62 0.342743 -0.752633 0
M  V30 4941 H 469.166 -0.0452548 -1.6964 0
M  V30 4942 H 467.938 0.228113 -3.90635 0
M  V30 4943 H 467.561 1.89338 -3.49624 0
M  V30 4944 N 468.558 1.5553 0.254621 0
M  V30 4945 C 469.488 1.9268 1.31897 0
M  V30 4946 C 470.469 0.790797 1.506 0
M  V30 4947 O 471.654 1.05045 1.63337 0
M  V30 4948 C 468.784 2.21477 2.67517 0
M  V30 4949 C 467.738 3.37256 2.63519 0
M  V30 4950 C 467.064 3.51576 4.02862 0
M  V30 4951 C 468.364 4.73157 2.21179 0
M  V30 4952 H 470.058 2.81832 1.01051 0
M  V30 4953 H 467.604 1.35599 0.484662 0
M  V30 4954 H 469.557 2.46055 3.42104 0
M  V30 4955 H 468.281 1.29144 2.99982 0
M  V30 4956 H 466.94 3.12675 1.9139 0
M  V30 4957 H 466.588 2.56676 4.32581 0
M  V30 4958 H 466.288 4.2943 4.01078 0
M  V30 4959 H 467.812 3.78467 4.79161 0
M  V30 4960 H 469.226 4.97158 2.85494 0
M  V30 4961 H 467.623 5.54058 2.30521 0
M  V30 4962 H 468.693 4.70739 1.16332 0
M  V30 4963 N 470.036 -0.519951 1.48776 0
M  V30 4964 C 470.968 -1.63973 1.60142 0
M  V30 4965 C 471.981 -1.55404 0.485117 0
M  V30 4966 O 473.17 -1.61682 0.756391 0
M  V30 4967 C 470.27 -3.02676 1.52449 0
M  V30 4968 C 469.443 -3.36624 2.79291 0
M  V30 4969 C 468.502 -4.54652 2.64912 0
M  V30 4970 O 467.528 -4.57374 3.38818 0
M  V30 4971 N 468.73 -5.53432 1.75195 0
M  V30 4972 H 471.495 -1.54656 2.56713 0
M  V30 4973 H 469.056 -0.707439 1.45626 0
M  V30 4974 H 471.048 -3.79525 1.4051 0
M  V30 4975 H 469.618 -3.06018 0.638125 0
M  V30 4976 H 468.838 -2.48855 3.0572 0
M  V30 4977 H 470.126 -3.56094 3.6342 0
M  V30 4978 H 469.524 -5.54018 1.14371 0
M  V30 4979 H 468.081 -6.29459 1.69189 0
M  V30 4980 N 471.514 -1.37532 -0.769588 0
M  V30 4981 C 472.424 -1.35668 -1.91393 0
M  V30 4982 C 473.44 -0.255954 -1.72107 0
M  V30 4983 O 474.616 -0.491704 -1.95305 0
M  V30 4984 C 471.681 -1.16481 -3.26547 0
M  V30 4985 C 470.742 -2.36212 -3.58472 0
M  V30 4986 C 469.975 -2.17932 -4.87177 0
M  V30 4987 O 470.198 -1.1647 -5.58382 0
M  V30 4988 O 469.132 -3.06167 -5.18214 0
M  V30 4989 H 472.958 -2.32055 -1.95918 0
M  V30 4990 H 470.543 -1.18284 -0.912641 0
M  V30 4991 H 472.425 -1.07778 -4.07384 0
M  V30 4992 H 471.1 -0.231687 -3.2287 0
M  V30 4993 H 470.007 -2.50488 -2.77861 0
M  V30 4994 H 471.34 -3.281 -3.66894 0
M  V30 4995 N 472.992 0.995999 -1.22138 0
M  V30 4996 C 473.922 2.10387 -1.01289 0
M  V30 4997 C 474.903 1.69975 0.0651454 0
M  V30 4998 O 476.088 1.9396 -0.0964628 0
M  V30 4999 C 473.218 3.42312 -0.586517 0
M  V30 5000 C 472.172 3.96558 -1.61014 0
M  V30 5001 C 471.498 5.24494 -1.0397 0
M  V30 5002 C 472.798 4.27595 -2.99933 0
M  V30 5003 H 474.492 2.28086 -1.93951 0
M  V30 5004 H 472.038 1.09607 -0.933928 0
M  V30 5005 H 473.991 4.19223 -0.427793 0
M  V30 5006 H 472.715 3.24431 0.375761 0
M  V30 5007 H 471.374 3.21776 -1.75658 0
M  V30 5008 H 471.022 5.02953 -0.0688703 0
M  V30 5009 H 470.722 5.61755 -1.72352 0
M  V30 5010 H 472.246 6.04042 -0.892494 0
M  V30 5011 H 473.66 4.95315 -2.8868 0
M  V30 5012 H 472.057 4.76021 -3.6541 0
M  V30 5013 H 473.127 3.35498 -3.50099 0
M  V30 5014 N 474.47 1.03057 1.19235 0
M  V30 5015 C 475.881 0.757449 1.70645 0
M  V30 5016 C 476.232 -0.722735 1.82403 0
M  V30 5017 O 475.357 -1.56325 1.49638 0
M  V30 5018 C 475.952 1.36833 3.09939 0
M  V30 5019 C 474.511 1.14375 3.58602 0
M  V30 5020 C 473.658 1.46533 2.35422 0
M  V30 5021 H 476.609 1.19828 1.04052 0
M  V30 5022 H 476.63 0.766184 3.72706 0
M  V30 5023 H 476.142 2.44562 3.01349 0
M  V30 5024 H 474.243 0.0847542 3.72504 0
M  V30 5025 H 474.356 1.83366 4.42622 0
M  V30 5026 H 472.72 0.884712 2.38841 0
M  V30 5027 H 473.503 2.55349 2.2946 0
M  V30 5028 N 475.948 -1.35272 0.808662 0
M  V30 5029 C 476.911 -2.28082 0.226093 0
M  V30 5030 C 477.911 -1.49673 -0.587762 0
M  V30 5031 O 479.101 -1.69404 -0.405943 0
M  V30 5032 C 476.233 -3.33955 -0.684596 0
M  V30 5033 H 477.426 -2.81116 1.04469 0
M  V30 5034 H 474.979 -1.45162 0.579466 0
M  V30 5035 H 475.714 -2.86111 -1.5268 0
M  V30 5036 H 475.499 -3.91965 -0.102699 0
M  V30 5037 H 476.989 -4.03219 -1.08646 0
M  V30 5038 N 477.426 -0.562348 -1.47226 0
M  V30 5039 C 478.673 -0.0402165 -2.0246 0
M  V30 5040 C 479.001 1.31169 -1.43614 0
M  V30 5041 O 478.256 1.86805 -0.5833 0
M  V30 5042 C 478.555 0.0969817 -3.57268 0
M  V30 5043 C 478.221 -1.1847 -4.35058 0
M  V30 5044 C 476.883 -1.53588 -4.56031 0
M  V30 5045 C 479.235 -2.03378 -4.79882 0
M  V30 5046 C 476.563 -2.73452 -5.19077 0
M  V30 5047 C 478.915 -3.2245 -5.44251 0
M  V30 5048 C 477.579 -3.57876 -5.63455 0
M  V30 5049 H 476.849 -0.0147163 -0.740854 0
M  V30 5050 H 479.496 -0.734895 -1.76838 0
M  V30 5051 H 477.801 0.87466 -3.81912 0
M  V30 5052 H 479.498 0.516408 -3.97661 0
M  V30 5053 H 476.088 -0.90126 -4.19017 0
M  V30 5054 H 480.272 -1.77553 -4.63453 0
M  V30 5055 H 475.528 -3.01062 -5.32139 0
M  V30 5056 H 479.702 -3.88526 -5.77945 0
M  V30 5057 H 477.329 -4.50849 -6.12078 0
M  V30 5058 N 478.904 1.54736 -0.299062 0
M  V30 5059 C 479.867 2.22127 0.565012 0
M  V30 5060 C 480.867 1.20669 1.06281 0
M  V30 5061 O 482.057 1.45417 0.959145 0
M  V30 5062 C 479.189 2.90611 1.78208 0
M  V30 5063 H 480.382 2.99891 -0.0237448 0
M  V30 5064 H 477.935 1.5622 -0.0498788 0
M  V30 5065 H 478.67 2.16921 2.41072 0
M  V30 5066 H 478.455 3.64984 1.43281 0
M  V30 5067 H 479.945 3.42026 2.396 0
M  V30 5068 N 480.382 0.0267497 1.57577 0
M  V30 5069 C 481.628 -0.653371 1.91987 0
M  V30 5070 C 481.961 -1.71915 0.903263 0
M  V30 5071 O 481.236 -1.94358 -0.0743387 0
M  V30 5072 C 481.519 -1.272 3.36886 0
M  V30 5073 C 481.372 -0.215938 4.49281 0
M  V30 5074 C 482.691 -2.19069 3.81703 0
M  V30 5075 H 479.81 -0.236047 0.698177 0
M  V30 5076 H 482.452 0.0835236 1.89816 0
M  V30 5077 H 480.602 -1.90005 3.38866 0
M  V30 5078 H 482.274 0.41449 4.59434 0
M  V30 5079 H 480.517 0.458855 4.31366 0
M  V30 5080 H 481.188 -0.688347 5.47691 0
M  V30 5081 H 483.664 -1.66253 3.81444 0
M  V30 5082 H 482.54 -2.59307 4.83788 0
M  V30 5083 H 482.801 -3.08087 3.17072 0
M  V30 5084 N 481.861 -1.55662 -0.24637 0
M  V30 5085 C 483.11 -1.7672 -0.972254 0
M  V30 5086 C 483.423 -0.59078 -1.86465 0
M  V30 5087 O 484.629 -0.684391 -2.62732 0
M  V30 5088 C 483.085 -3.12869 -1.7788 0
M  V30 5089 C 482.693 -4.38161 -0.933768 0
M  V30 5090 C 484.437 -3.43265 -2.49738 0
M  V30 5091 C 482.344 -5.6534 -1.73623 0
M  V30 5092 H 481.274 -0.658795 -0.366749 0
M  V30 5093 H 483.925 -1.82092 -0.226902 0
M  V30 5094 H 482.307 -3.01606 -2.56612 0
M  V30 5095 H 483.481 -4.60413 -0.188736 0
M  V30 5096 H 481.796 -4.15102 -0.328488 0
M  V30 5097 H 484.393 -4.35501 -3.10231 0
M  V30 5098 H 484.736 -2.64614 -3.2138 0
M  V30 5099 H 485.269 -3.55746 -1.78016 0
M  V30 5100 H 482.008 -6.46814 -1.06354 0
M  V30 5101 H 481.528 -5.47188 -2.45653 0
M  V30 5102 H 483.207 -6.04616 -2.30323 0
M  V30 5103 N 483.339 0.512053 -1.4905 0
M  V30 5104 C 484.587 1.26436 -1.57665 0
M  V30 5105 C 484.908 1.93255 -0.260293 0
M  V30 5106 O 484.178 1.82206 0.719564 0
M  V30 5107 H 482.758 0.469658 -0.580888 0
M  V30 5108 H 485.42 0.594398 -1.85615 0
M  V30 5109 H 484.516 2.03417 -2.36702 0
M  V30 5110 N 484.817 1.37938 0.762283 0
M  V30 5111 C 486.066 1.32989 1.51647 0
M  V30 5112 C 486.379 -0.0802922 1.95435 0
M  V30 5113 O 487.585 -0.252295 2.70325 0
M  V30 5114 C 486.041 2.33485 2.73885 0
M  V30 5115 C 485.649 3.80079 2.37157 0
M  V30 5116 C 487.393 2.37563 3.51801 0
M  V30 5117 C 485.3 4.72283 3.55954 0
M  V30 5118 H 484.23 0.494301 0.56937 0
M  V30 5119 H 486.881 1.63448 0.834083 0
M  V30 5120 H 485.263 1.96056 3.44061 0
M  V30 5121 H 486.437 4.26398 1.74704 0
M  V30 5122 H 484.752 3.79037 1.72395 0
M  V30 5123 H 487.349 3.0365 4.40114 0
M  V30 5124 H 487.692 1.39199 3.92338 0
M  V30 5125 H 488.225 2.73747 2.8863 0
M  V30 5126 H 484.964 5.7181 3.2049 0
M  V30 5127 H 484.484 4.30663 4.1748 0
M  V30 5128 H 486.163 4.89876 4.22647 0
M  V30 5129 N 486.295 -0.989507 1.22664 0
M  V30 5130 C 487.258 -2.06183 1.00106 0
M  V30 5131 C 488.258 -1.60765 -0.0337726 0
M  V30 5132 O 489.448 -1.72989 0.205072 0
M  V30 5133 C 486.58 -3.37021 0.51279 0
M  V30 5134 H 487.773 -2.27629 1.95256 0
M  V30 5135 H 485.326 -1.16158 1.0458 0
M  V30 5136 H 486.061 -3.21261 -0.442917 0
M  V30 5137 H 485.846 -3.71323 1.25942 0
M  V30 5138 H 487.336 -4.1591 0.375315 0
M  V30 5139 N 487.773 -1.03688 -1.18687 0
M  V30 5140 C 488.998 -0.757819 -1.93059 0
M  V30 5141 C 489.423 0.678353 -1.75442 0
M  V30 5142 O 488.781 1.46938 -1.06203 0
M  V30 5143 C 488.829 -1.12423 -3.42627 0
M  V30 5144 O 487.933 -0.247505 -4.11657 0
M  V30 5145 H 487.274 -0.279245 -0.602427 0
M  V30 5146 H 489.804 -1.3857 -1.5053 0
M  V30 5147 H 489.814 -1.08454 -3.93322 0
M  V30 5148 H 488.489 -2.17049 -3.54771 0
M  V30 5149 H 487.066 -0.34649 -3.71287 0
M  V30 5150 N 489.251 1.34841 -0.815825 0
M  V30 5151 C 490.499 1.98107 -0.399744 0
M  V30 5152 C 490.82 1.65019 1.03894 0
M  V30 5153 O 490.09 0.937311 1.72021 0
M  V30 5154 H 488.67 0.732827 -0.144823 0
M  V30 5155 H 491.332 1.64599 -1.0437 0
M  V30 5156 H 490.428 3.07856 -0.512965 0
M  V30 5157 N 490.729 0.570148 1.46925 0
M  V30 5158 C 491.976 0.0509529 2.02436 0
M  V30 5159 C 492.304 -1.30405 1.44308 0
M  V30 5160 O 491.559 -1.86493 0.593198 0
M  V30 5161 C 491.858 -0.0780336 3.57315 0
M  V30 5162 C 491.524 1.20775 4.34424 0
M  V30 5163 C 490.186 1.56004 4.5521 0
M  V30 5164 C 492.538 2.0592 4.78797 0
M  V30 5165 C 489.866 2.76201 5.17619 0
M  V30 5166 C 492.218 3.25332 5.42533 0
M  V30 5167 C 490.882 3.60859 5.61549 0
M  V30 5168 H 490.152 0.018645 0.740765 0
M  V30 5169 H 492.799 0.744262 1.76445 0
M  V30 5170 H 491.104 -0.854394 3.82371 0
M  V30 5171 H 492.801 -0.495312 3.97929 0
M  V30 5172 H 489.391 0.923469 4.18533 0
M  V30 5173 H 493.575 1.80008 4.62505 0
M  V30 5174 H 488.831 3.0388 5.30535 0
M  V30 5175 H 493.005 3.91586 5.75876 0
M  V30 5176 H 490.632 4.54088 6.09678 0
M  V30 5177 N 492.207 -1.54576 0.307264 0
M  V30 5178 C 493.455 -1.99867 -0.299574 0
M  V30 5179 C 493.776 -1.19714 -1.53927 0
M  V30 5180 O 493.046 -0.29472 -1.9367 0
M  V30 5181 H 491.626 -0.738299 -0.113683 0
M  V30 5182 H 494.288 -1.9032 0.420042 0
M  V30 5183 H 493.384 -3.06901 -0.567283 0
M  V30 5184 N 493.685 -0.035106 -1.57561 0
M  V30 5185 C 494.933 0.64096 -1.91667 0
M  V30 5186 C 495.254 1.72323 -0.912681 0
M  V30 5187 O 494.524 1.95849 0.0449089 0
M  V30 5188 H 493.104 0.239743 -0.707483 0
M  V30 5189 H 495.766 -0.084321 -1.94718 0
M  V30 5190 H 494.862 1.08987 -2.92452 0
M  V30 5191 N 495.163 1.55791 0.238111 0
M  V30 5192 C 496.126 1.90239 1.27835 0
M  V30 5193 C 497.126 0.779552 1.4064 0
M  V30 5194 O 498.316 1.04747 1.3919 0
M  V30 5195 C 495.448 2.13859 2.65475 0
M  V30 5196 H 496.641 2.83262 0.985034 0
M  V30 5197 H 494.194 1.48818 0.477799 0
M  V30 5198 H 494.929 1.23334 2.99932 0
M  V30 5199 H 494.714 2.95643 2.57561 0
M  V30 5200 H 496.204 2.41664 3.40571 0
M  V30 5201 N 496.642 -0.504142 1.49319 0
M  V30 5202 C 497.572 -1.61473 1.68667 0
M  V30 5203 C 498.553 -1.61455 0.535378 0
M  V30 5204 O 499.738 -1.78245 0.770868 0
M  V30 5205 C 496.868 -2.99971 1.75028 0
M  V30 5206 C 495.822 -3.14854 2.89916 0
M  V30 5207 C 495.148 -4.54671 2.81387 0
M  V30 5208 C 496.448 -2.95176 4.30893 0
M  V30 5209 H 498.142 -1.45535 2.61648 0
M  V30 5210 H 495.688 -0.698711 1.25913 0
M  V30 5211 H 497.641 -3.77562 1.8715 0
M  V30 5212 H 496.365 -3.1699 0.786441 0
M  V30 5213 H 495.024 -2.39687 2.77391 0
M  V30 5214 H 494.672 -4.68562 1.82917 0
M  V30 5215 H 494.372 -4.6557 3.58494 0
M  V30 5216 H 495.896 -5.34327 2.95512 0
M  V30 5217 H 497.31 -3.62538 4.44116 0
M  V30 5218 H 495.707 -3.17549 5.09198 0
M  V30 5219 H 496.777 -1.91332 4.45556 0
M  V30 5220 N 498.12 -1.38341 -0.754957 0
M  V30 5221 C 499.367 -1.34473 -1.51404 0
M  V30 5222 C 499.695 0.0656458 -1.94389 0
M  V30 5223 O 498.95 1.04244 -1.65625 0
M  V30 5224 C 499.249 -2.2452 -2.78075 0
M  V30 5225 C 498.915 -3.72512 -2.54059 0
M  V30 5226 C 497.577 -4.1284 -2.47218 0
M  V30 5227 C 499.929 -4.66197 -2.33044 0
M  V30 5228 C 497.257 -5.44945 -2.17376 0
M  V30 5229 C 499.609 -5.98558 -2.04723 0
M  V30 5230 C 498.273 -6.37972 -1.96337 0
M  V30 5231 H 497.543 -0.492072 -0.554027 0
M  V30 5232 H 500.19 -1.70687 -0.868223 0
M  V30 5233 H 498.495 -1.81357 -3.473 0
M  V30 5234 H 500.192 -2.18832 -3.36026 0
M  V30 5235 H 496.782 -3.40538 -2.60253 0
M  V30 5236 H 500.966 -4.35888 -2.37309 0
M  V30 5237 H 496.222 -5.74426 -2.09391 0
M  V30 5238 H 500.396 -6.70693 -1.87465 0
M  V30 5239 H 498.023 -7.40258 -1.72978 0
M  V30 5240 N 499.598 0.982988 -1.23187 0
M  V30 5241 C 500.844 1.72648 -1.06398 0
M  V30 5242 C 501.177 1.90066 0.398561 0
M  V30 5243 O 500.452 1.45105 1.29518 0
M  V30 5244 C 500.735 3.12627 -1.78707 0
M  V30 5245 C 500.588 3.02795 -3.32618 0
M  V30 5246 C 501.907 4.11997 -1.54747 0
M  V30 5247 H 499.026 0.626649 -0.387918 0
M  V30 5248 H 501.668 1.14455 -1.51658 0
M  V30 5249 H 499.818 3.62308 -1.40234 0
M  V30 5250 H 501.49 2.60659 -3.80598 0
M  V30 5251 H 499.733 2.39362 -3.61785 0
M  V30 5252 H 500.404 4.01893 -3.78399 0
M  V30 5253 H 502.88 3.71114 -1.88186 0
M  V30 5254 H 501.756 5.08037 -2.07821 0
M  V30 5255 H 502.017 4.39462 -0.482249 0
M  V30 5256 N 501.076 1.04316 1.18135 0
M  V30 5257 C 502.306 0.767003 1.91835 0
M  V30 5258 C 502.714 -0.68002 1.76557 0
M  V30 5259 O 502.057 -1.47548 1.09432 0
M  V30 5260 C 502.119 1.05674 3.43618 0
M  V30 5261 C 501.783 2.49818 3.82675 0
M  V30 5262 C 502.78 3.48003 3.86251 0
M  V30 5263 C 500.465 2.84596 4.13897 0
M  V30 5264 C 502.459 4.79016 4.20503 0
M  V30 5265 C 500.146 4.15813 4.4782 0
M  V30 5266 C 501.144 5.12834 4.51099 0
M  V30 5267 O 500.832 6.41699 4.84229 0
M  V30 5268 H 500.564 0.278948 0.615763 0
M  V30 5269 H 503.118 1.3946 1.50798 0
M  V30 5270 H 501.348 0.372029 3.84906 0
M  V30 5271 H 503.037 0.767994 3.98568 0
M  V30 5272 H 503.803 3.22475 3.62264 0
M  V30 5273 H 499.682 2.09748 4.1052 0
M  V30 5274 H 503.226 5.54739 4.22978 0
M  V30 5275 H 499.123 4.41109 4.71268 0
M  V30 5276 H 499.891 6.46387 5.02121 0
M  V30 5277 N 502.554 -1.34406 0.822964 0
M  V30 5278 C 503.484 -2.32052 0.259608 0
M  V30 5279 C 504.465 -1.58243 -0.623961 0
M  V30 5280 O 505.65 -1.86224 -0.55083 0
M  V30 5281 C 502.78 -3.42434 -0.579314 0
M  V30 5282 C 501.734 -4.27499 0.20712 0
M  V30 5283 C 501.06 -5.29349 -0.754547 0
M  V30 5284 C 502.36 -5.02758 1.41533 0
M  V30 5285 H 504.054 -2.79418 1.07545 0
M  V30 5286 H 501.6 -1.34338 0.518593 0
M  V30 5287 H 503.553 -4.0976 -0.983612 0
M  V30 5288 H 502.277 -2.93717 -1.4282 0
M  V30 5289 H 500.936 -3.61776 0.592787 0
M  V30 5290 H 500.584 -4.76895 -1.59939 0
M  V30 5291 H 500.284 -5.8714 -0.232561 0
M  V30 5292 H 501.808 -5.99544 -1.1567 0
M  V30 5293 H 503.222 -5.62938 1.08504 0
M  V30 5294 H 501.619 -5.70123 1.87296 0
M  V30 5295 H 502.689 -4.32451 2.1935 0
M  V30 5296 N 504.032 -0.577932 -1.46621 0
M  V30 5297 C 504.98 0.170882 -2.31971 0
M  V30 5298 C 505.974 0.889086 -1.44193 0
M  V30 5299 O 507.18 0.808017 -1.60845 0
M  V30 5300 H 503.555 0.0739763 -0.748353 0
M  V30 5301 H 505.526 -0.567856 -2.92947 0
M  V30 5302 C 504.275 1.17438 -3.27267 0
M  V30 5303 H 503.598 0.63116 -3.94787 0
M  V30 5304 H 505.038 1.66882 -3.89778 0
M  V30 5305 C 503.497 2.23292 -2.52274 0
M  V30 5306 O 504.027 3.30567 -2.28229 0
M  V30 5307 N 502.233 1.97772 -2.12919 0
M  V30 5308 H 501.78 1.10545 -2.32675 0
M  V30 5309 H 501.738 2.68809 -1.63062 0
M  V30 5310 N 505.51 1.54411 -0.315457 0
M  V30 5311 C 506.926 1.59556 0.037464 0
M  V30 5312 C 507.126 1.33217 1.5118 0
M  V30 5313 O 506.182 1.11264 2.26664 0
M  V30 5314 C 507.495 2.98372 -0.373477 0
M  V30 5315 C 509.043 3.11324 -0.323452 0
M  V30 5316 C 509.518 4.52472 -0.709433 0
M  V30 5317 N 511.009 4.58437 -0.662524 0
M  V30 5318 C 511.744 5.65751 -0.933474 0
M  V30 5319 N 511.24 6.81039 -1.27114 0
M  V30 5320 N 513.033 5.55489 -0.859573 0
M  V30 5321 H 505.184 1.6979 -1.27614 0
M  V30 5322 H 507.447 0.793732 -0.518356 0
M  V30 5323 H 507.153 3.22618 -1.40037 0
M  V30 5324 H 507.027 3.76264 0.265615 0
M  V30 5325 H 509.414 2.86818 0.694223 0
M  V30 5326 H 509.495 2.35555 -0.997367 0
M  V30 5327 H 509.139 4.7771 -1.72498 0
M  V30 5328 H 509.069 5.26598 -0.0132923 0
M  V30 5329 H 511.56 3.75636 -0.413065 0
M  V30 5330 H 511.873 7.58816 -1.46348 0
M  V30 5331 H 510.218 6.82555 -1.30932 0
M  V30 5332 H 513.409 4.64299 -0.595324 0
M  V30 5333 H 513.582 6.39036 -1.0741 0
M  V30 5334 N 506.988 0.0434614 1.5754 0
M  V30 5335 C 507.935 -0.93356 2.11077 0
M  V30 5336 C 508.905 -1.31383 1.01626 0
M  V30 5337 O 510.09 -1.40465 1.29129 0
M  V30 5338 C 507.23 -2.20578 2.65404 0
M  V30 5339 C 506.343 -1.88068 3.88914 0
M  V30 5340 C 505.478 -3.09691 4.31584 0
M  V30 5341 C 504.517 -2.73067 5.47815 0
M  V30 5342 N 503.654 -3.87359 5.85574 0
M  V30 5343 H 508.494 -0.470118 2.94268 0
M  V30 5344 H 506.031 -0.220434 1.45439 0
M  V30 5345 H 507.989 -2.95011 2.94999 0
M  V30 5346 H 506.619 -2.64513 1.85021 0
M  V30 5347 H 505.671 -1.03816 3.6596 0
M  V30 5348 H 506.983 -1.57104 4.73413 0
M  V30 5349 H 506.137 -3.92431 4.62691 0
M  V30 5350 H 504.876 -3.43827 3.45882 0
M  V30 5351 H 503.881 -1.88742 5.16388 0
M  V30 5352 H 505.106 -2.40131 6.35227 0
M  V30 5353 H 503.052 -4.21311 5.02825 0
M  V30 5354 H 502.969 -3.60068 6.64746 0
M  V30 5355 H 504.237 -4.70761 6.21292 0
M  V30 5356 N 508.466 -1.55915 -0.229846 0
M  V30 5357 C 509.715 -1.77742 -0.953455 0
M  V30 5358 C 510.028 -0.610524 -1.85828 0
M  V30 5359 O 511.234 -0.712219 -2.61992 0
M  V30 5360 C 509.69 -3.14738 -1.74551 0
M  V30 5361 C 509.298 -4.39126 -0.887242 0
M  V30 5362 C 511.042 -3.45895 -2.46084 0
M  V30 5363 C 508.949 -5.67149 -1.67617 0
M  V30 5364 H 507.879 -0.662648 -0.359741 0
M  V30 5365 H 510.53 -1.82322 -0.207576 0
M  V30 5366 H 508.912 -3.04311 -2.53399 0
M  V30 5367 H 510.086 -4.60588 -0.139892 0
M  V30 5368 H 508.401 -4.15427 -0.284443 0
M  V30 5369 H 510.998 -4.38767 -3.05594 0
M  V30 5370 H 511.341 -2.68007 -3.18556 0
M  V30 5371 H 511.874 -3.57614 -1.74233 0
M  V30 5372 H 508.613 -6.47906 -0.994881 0
M  V30 5373 H 508.133 -5.49763 -2.39836 0
M  V30 5374 H 509.812 -6.07025 -2.23898 0
M  V30 5375 N 509.944 0.496216 -1.49584 0
M  V30 5376 C 511.19 1.25189 -1.59548 0
M  V30 5377 C 511.523 1.9212 -0.283466 0
M  V30 5378 O 510.798 1.80947 0.713324 0
M  V30 5379 C 511.081 2.31516 -2.75812 0
M  V30 5380 C 510.934 1.69054 -4.16822 0
M  V30 5381 C 512.253 3.3304 -2.87702 0
M  V30 5382 H 509.372 0.45379 -0.580727 0
M  V30 5383 H 512.014 0.549327 -1.81886 0
M  V30 5384 H 510.164 2.91438 -2.56897 0
M  V30 5385 H 511.836 1.12923 -4.47265 0
M  V30 5386 H 510.079 0.994485 -4.22247 0
M  V30 5387 H 510.75 2.462 -4.94054 0
M  V30 5388 H 513.226 2.83114 -3.04936 0
M  V30 5389 H 512.102 4.04794 -3.7072 0
M  V30 5390 H 512.363 3.95655 -1.97255 0
M  V30 5391 N 511.423 1.38739 0.74761 0
M  V30 5392 C 512.355 1.32341 1.87132 0
M  V30 5393 C 513.368 0.234502 1.61102 0
M  V30 5394 O 514.557 0.492516 1.71571 0
M  V30 5395 C 511.657 1.02915 3.22896 0
M  V30 5396 C 510.83 2.22834 3.76383 0
M  V30 5397 C 509.889 1.90059 4.90677 0
M  V30 5398 O 508.915 2.62615 5.04997 0
M  V30 5399 N 510.117 0.859141 5.74107 0
M  V30 5400 H 512.882 2.29175 1.93129 0
M  V30 5401 H 510.443 1.32678 0.927805 0
M  V30 5402 H 512.435 0.79031 3.96908 0
M  V30 5403 H 511.005 0.148572 3.12247 0
M  V30 5404 H 510.225 2.62747 2.93867 0
M  V30 5405 H 511.513 3.02851 4.08851 0
M  V30 5406 H 510.911 0.257564 5.65113 0
M  V30 5407 H 509.468 0.680189 6.48241 0
M  V30 5408 N 512.901 -0.976442 1.23707 0
M  V30 5409 C 514.147 -1.72081 1.07312 0
M  V30 5410 C 514.48 -1.90275 -0.388476 0
M  V30 5411 O 513.755 -1.4579 -1.28746 0
M  V30 5412 C 514.038 -3.11675 1.80363 0
M  V30 5413 C 513.891 -3.01027 3.3422 0
M  V30 5414 C 515.21 -4.1117 1.5693 0
M  V30 5415 H 512.329 -0.624583 0.391236 0
M  V30 5416 H 514.971 -1.13649 1.52263 0
M  V30 5417 H 513.121 -3.61559 1.42153 0
M  V30 5418 H 514.793 -2.58637 3.81975 0
M  V30 5419 H 513.036 -2.3744 3.63049 0
M  V30 5420 H 513.707 -3.9988 3.80525 0
M  V30 5421 H 516.183 -3.7011 1.90151 0
M  V30 5422 H 515.059 -5.06928 2.10513 0
M  V30 5423 H 515.32 -4.392 0.505548 0
M  V30 5424 N 514.379 -1.04941 -1.1758 0
M  V30 5425 C 515.312 -0.592518 -2.20373 0
M  V30 5426 C 516.29 0.377561 -1.58156 0
M  V30 5427 O 517.474 0.28978 -1.86259 0
M  V30 5428 C 514.601 0.133215 -3.38438 0
M  V30 5429 C 513.647 -0.791484 -4.19092 0
M  V30 5430 S 514.48 -2.27925 -4.84572 0
M  V30 5431 C 515.636 -1.56462 -6.06028 0
M  V30 5432 H 515.869 -1.46342 -2.58788 0
M  V30 5433 H 513.402 -0.861148 -1.28155 0
M  V30 5434 H 515.36 0.545746 -4.06856 0
M  V30 5435 H 514.021 0.980124 -2.98416 0
M  V30 5436 H 513.214 -0.230039 -5.03475 0
M  V30 5437 H 512.816 -1.14326 -3.56098 0
M  V30 5438 H 515.108 -0.862539 -6.71987 0
M  V30 5439 H 516.051 -2.38583 -6.66696 0
M  V30 5440 H 516.459 -1.05313 -5.5459 0
M  V30 5441 N 515.857 1.33968 -0.830081 0
M  V30 5442 C 517.273 1.51003 -0.516742 0
M  V30 5443 C 517.473 1.77286 0.957694 0
M  V30 5444 O 516.529 1.82797 1.74188 0
M  V30 5445 C 517.842 2.67036 -1.38247 0
M  V30 5446 C 519.39 2.80919 -1.38034 0
M  V30 5447 C 519.865 4.00004 -2.23071 0
M  V30 5448 N 521.356 4.07224 -2.20733 0
M  V30 5449 C 522.091 4.98541 -2.83275 0
M  V30 5450 N 521.587 5.95033 -3.54835 0
M  V30 5451 N 523.38 4.91469 -2.72791 0
M  V30 5452 H 515.531 1.15168 -1.78466 0
M  V30 5453 H 517.794 0.565443 -0.760906 0
M  V30 5454 H 517.5 2.54266 -2.42985 0
M  V30 5455 H 517.374 3.62226 -1.05225 0
M  V30 5456 H 519.761 2.93127 -0.340713 0
M  V30 5457 H 519.842 1.86517 -1.75057 0
M  V30 5458 H 519.486 3.88557 -3.27087 0
M  V30 5459 H 519.416 4.93634 -1.83394 0
M  V30 5460 H 521.907 3.38162 -1.68687 0
M  V30 5461 H 522.22 6.61357 -3.99784 0
M  V30 5462 H 520.565 5.95135 -3.58942 0
M  V30 5463 H 523.756 4.15048 -2.16456 0
M  V30 5464 H 523.929 5.62439 -3.21818 0
M  V30 5465 N 517.335 0.585699 1.46312 0
M  V30 5466 C 518.282 -0.145835 2.30339 0
M  V30 5467 C 519.252 -0.881215 1.40797 0
M  V30 5468 O 520.437 -0.871293 1.69744 0
M  V30 5469 C 517.577 -1.15161 3.25318 0
M  V30 5470 C 516.69 -0.419367 4.2996 0
M  V30 5471 C 515.825 -1.41293 5.12064 0
M  V30 5472 C 514.864 -0.667261 6.08452 0
M  V30 5473 N 514.001 -1.60903 6.83414 0
M  V30 5474 H 518.841 0.576755 2.92365 0
M  V30 5475 H 516.378 0.296237 1.44086 0
M  V30 5476 H 518.336 -1.74763 3.78832 0
M  V30 5477 H 516.966 -1.84188 2.65094 0
M  V30 5478 H 516.018 0.291751 3.7928 0
M  V30 5479 H 517.33 0.163433 4.98532 0
M  V30 5480 H 516.484 -2.08167 5.6987 0
M  V30 5481 H 515.223 -2.02966 4.43459 0
M  V30 5482 H 514.228 0.0152356 5.49798 0
M  V30 5483 H 515.453 -0.0558817 6.79077 0
M  V30 5484 H 513.399 -2.21381 6.17516 0
M  V30 5485 H 513.316 -1.07911 7.48259 0
M  V30 5486 H 514.584 -2.26802 7.45775 0
M  V30 5487 N 518.813 -1.54241 0.323641 0
M  V30 5488 C 519.745 -2.21836 -0.576311 0
M  V30 5489 C 520.758 -1.21837 -1.07979 0
M  V30 5490 O 521.947 -1.48306 -0.99336 0
M  V30 5491 C 519.047 -2.86923 -1.80356 0
M  V30 5492 C 518.22 -4.1306 -1.43875 0
M  V30 5493 C 517.279 -4.6174 -2.52353 0
M  V30 5494 O 516.305 -5.26421 -2.16494 0
M  V30 5495 N 517.507 -4.35974 -3.83284 0
M  V30 5496 H 520.272 -2.997 0.00247987 0
M  V30 5497 H 517.833 -1.61233 0.146848 0
M  V30 5498 H 519.825 -3.16414 -2.52318 0
M  V30 5499 H 518.395 -2.12765 -2.29019 0
M  V30 5500 H 517.615 -3.90334 -0.550752 0
M  V30 5501 H 518.903 -4.95148 -1.17071 0
M  V30 5502 H 518.301 -3.84203 -4.15216 0
M  V30 5503 H 516.858 -4.70119 -4.51477 0
M  V30 5504 N 520.291 -0.0518155 -1.57515 0
M  V30 5505 C 521.238 0.922352 -2.11569 0
M  V30 5506 C 522.208 1.30842 -1.02321 0
M  V30 5507 O 523.393 1.39778 -1.29872 0
M  V30 5508 C 520.533 2.19167 -2.6657 0
M  V30 5509 C 519.646 1.86003 -3.89906 0
M  V30 5510 C 518.781 3.07398 -4.33221 0
M  V30 5511 C 517.82 2.70158 -5.49255 0
M  V30 5512 N 516.957 3.84248 -5.8762 0
M  V30 5513 H 521.797 0.454506 -2.94514 0
M  V30 5514 H 519.334 0.212718 -1.45554 0
M  V30 5515 H 521.292 2.93443 -2.96559 0
M  V30 5516 H 519.922 2.63528 -1.86421 0
M  V30 5517 H 518.974 1.01874 -3.66505 0
M  V30 5518 H 520.286 1.54592 -4.74239 0
M  V30 5519 H 519.44 3.89972 -4.64765 0
M  V30 5520 H 518.179 3.41988 -3.477 0
M  V30 5521 H 517.184 1.86001 -5.17382 0
M  V30 5522 H 518.409 2.36759 -6.36492 0
M  V30 5523 H 516.355 4.18638 -5.05053 0
M  V30 5524 H 516.272 3.56538 -6.66646 0
M  V30 5525 H 517.54 4.6746 -6.2378 0
M  V30 5526 N 521.769 1.56035 0.221574 0
M  V30 5527 C 522.997 1.8313 0.962864 0
M  V30 5528 C 523.412 0.630934 1.77946 0
M  V30 5529 O 522.769 -0.400519 1.78051 0
M  V30 5530 C 522.82 3.08742 1.88045 0
M  V30 5531 O 522.541 4.24147 1.09686 0
M  V30 5532 C 524.042 3.48824 2.73563 0
M  V30 5533 H 521.262 0.608775 0.282194 0
M  V30 5534 H 523.806 2.03124 0.23681 0
M  V30 5535 H 521.961 2.90723 2.56045 0
M  V30 5536 H 522.375 4.95505 1.71974 0
M  V30 5537 H 523.849 4.39752 3.3365 0
M  V30 5538 H 524.326 2.70575 3.45956 0
M  V30 5539 H 524.932 3.69282 2.10976 0
M  V30 5540 N 523.247 -0.488276 1.49845 0
M  V30 5541 C 524.496 -1.23826 1.59217 0
M  V30 5542 C 524.809 -1.93439 0.289966 0
M  V30 5543 O 526.015 -2.70229 0.262382 0
M  V30 5544 C 524.471 -2.24902 2.80976 0
M  V30 5545 C 524.079 -1.6117 4.18005 0
M  V30 5546 C 525.823 -3.00648 2.99685 0
M  V30 5547 C 523.73 -2.60431 5.3097 0
M  V30 5548 H 522.66 -0.465858 0.592868 0
M  V30 5549 H 525.311 -0.510645 1.76252 0
M  V30 5550 H 523.693 -3.0088 2.57463 0
M  V30 5551 H 524.867 -0.910968 4.51706 0
M  V30 5552 H 523.182 -0.97767 4.0476 0
M  V30 5553 H 525.779 -3.74903 3.81251 0
M  V30 5554 H 526.122 -3.5902 2.10738 0
M  V30 5555 H 526.655 -2.31784 3.23297 0
M  V30 5556 H 523.394 -2.06823 6.22017 0
M  V30 5557 H 522.914 -3.28707 5.01709 0
M  V30 5558 H 524.593 -3.22606 5.60834 0
M  V30 5559 N 524.725 -1.39134 -0.740242 0
M  V30 5560 C 525.673 -1.3757 -1.87556 0
M  V30 5561 C 526.667 -0.259593 -1.67399 0
M  V30 5562 O 527.873 -0.429349 -1.74804 0
M  V30 5563 H 524.248 -0.42947 -0.6173 0
M  V30 5564 H 526.219 -2.33345 -1.85991 0
M  V30 5565 C 524.968 -1.23087 -3.25184 0
M  V30 5566 H 524.291 -2.08237 -3.41288 0
M  V30 5567 H 525.731 -1.26049 -4.0483 0
M  V30 5568 C 524.19 0.0611471 -3.36845 0
M  V30 5569 O 524.72 1.03328 -3.88183 0
M  V30 5570 N 522.926 0.122454 -2.90342 0
M  V30 5571 H 522.473 -0.669329 -2.48752 0
M  V30 5572 H 522.431 0.986463 -2.98523 0
M  V30 5573 N 526.204 0.969867 -1.24223 0
M  V30 5574 C 527.62 1.23809 -1.00716 0
M  V30 5575 C 527.82 1.99469 0.285358 0
M  V30 5576 O 526.876 2.31764 1.00207 0
M  V30 5577 C 528.189 2.02734 -2.2208 0
M  V30 5578 C 529.737 2.15834 -2.26681 0
M  V30 5579 C 530.212 2.98154 -3.47661 0
M  V30 5580 N 531.703 3.05737 -3.47964 0
M  V30 5581 C 532.438 3.69785 -4.38231 0
M  V30 5582 N 531.934 4.35569 -5.3875 0
M  V30 5583 N 533.727 3.66775 -4.25949 0
M  V30 5584 H 525.878 0.463294 -2.07286 0
M  V30 5585 H 528.141 0.267348 -0.909521 0
M  V30 5586 H 527.847 1.54524 -3.15935 0
M  V30 5587 H 527.721 3.0347 -2.24021 0
M  V30 5588 H 530.108 2.63248 -1.33359 0
M  V30 5589 H 530.189 1.14453 -2.28767 0
M  V30 5590 H 529.833 2.51435 -4.41297 0
M  V30 5591 H 529.763 3.99729 -3.42818 0
M  V30 5592 H 532.254 2.58941 -2.75242 0
M  V30 5593 H 532.567 4.82251 -6.03866 0
M  V30 5594 H 530.912 4.34244 -5.42639 0
M  V30 5595 H 534.103 3.14558 -3.46657 0
M  V30 5596 H 534.276 4.16407 -4.96497 0
M  V30 5597 N 527.682 1.05563 1.17022 0
M  V30 5598 C 528.929 0.767937 1.87374 0
M  V30 5599 C 529.257 -0.705224 1.81265 0
M  V30 5600 O 528.512 -1.5318 1.21796 0
M  V30 5601 C 528.811 1.19849 3.36706 0
M  V30 5602 C 528.477 2.6745 3.63017 0
M  V30 5603 C 527.139 3.0777 3.69907 0
M  V30 5604 C 529.491 3.62811 3.74189 0
M  V30 5605 C 526.819 4.42307 3.85463 0
M  V30 5606 C 529.171 4.97087 3.91264 0
M  V30 5607 C 527.835 5.37055 3.96394 0
M  V30 5608 H 527.105 0.281008 0.68565 0
M  V30 5609 H 529.752 1.32339 1.38415 0
M  V30 5610 H 528.057 0.562096 3.87747 0
M  V30 5611 H 529.754 0.953038 3.8951 0
M  V30 5612 H 526.344 2.35228 3.58282 0
M  V30 5613 H 530.528 3.32798 3.68183 0
M  V30 5614 H 525.784 4.72769 3.87684 0
M  V30 5615 H 529.958 5.70869 3.9885 0
M  V30 5616 H 527.585 6.41308 4.082 0
M  V30 5617 N 529.16 -1.33526 0.837174 0
M  V30 5618 C 530.09 -2.31764 0.284206 0
M  V30 5619 C 531.071 -1.58896 -0.607142 0
M  V30 5620 O 532.256 -1.86798 -0.531047 0
M  V30 5621 C 529.386 -3.43029 -0.542962 0
M  V30 5622 C 528.34 -4.27255 0.252451 0
M  V30 5623 C 527.666 -5.3012 -0.69836 0
M  V30 5624 C 528.966 -5.01229 1.46858 0
M  V30 5625 H 530.66 -2.78262 1.10502 0
M  V30 5626 H 528.206 -1.3378 0.532812 0
M  V30 5627 H 530.159 -4.1078 -0.940096 0
M  V30 5628 H 528.883 -2.95216 -1.39697 0
M  V30 5629 H 527.542 -3.61127 0.631124 0
M  V30 5630 H 527.19 -4.78564 -1.54872 0
M  V30 5631 H 526.89 -5.87353 -0.170274 0
M  V30 5632 H 528.414 -6.00737 -1.09305 0
M  V30 5633 H 529.828 -5.61756 1.14469 0
M  V30 5634 H 528.225 -5.68104 1.93333 0
M  V30 5635 H 529.295 -4.301 2.23924 0
M  V30 5636 N 530.638 -0.59345 -1.46 0
M  V30 5637 C 531.571 0.182196 -2.27472 0
M  V30 5638 C 532.549 0.886901 -1.36282 0
M  V30 5639 O 533.733 0.898627 -1.65701 0
M  V30 5640 C 530.86 1.26236 -3.14296 0
M  V30 5641 C 529.906 0.662331 -4.21326 0
M  V30 5642 S 530.739 -0.519017 -5.32979 0
M  V30 5643 C 531.895 0.562086 -6.23371 0
M  V30 5644 H 532.128 -0.509056 -2.92909 0
M  V30 5645 H 529.661 -0.380607 -1.49635 0
M  V30 5646 H 531.619 1.88075 -3.64881 0
M  V30 5647 H 530.28 1.92562 -2.48151 0
M  V30 5648 H 529.473 1.47461 -4.81945 0
M  V30 5649 H 529.075 0.119381 -3.73809 0
M  V30 5650 H 531.367 1.44494 -6.61912 0
M  V30 5651 H 532.31 -0.00760776 -7.081 0
M  V30 5652 H 532.718 0.871061 -5.57739 0
M  V30 5653 N 532.116 1.54067 -0.331816 0
M  V30 5654 C 533.532 1.59587 0.0205388 0
M  V30 5655 C 533.732 1.34813 1.49759 0
M  V30 5656 O 532.788 1.13661 2.25471 0
M  V30 5657 C 534.101 2.97959 -0.405103 0
M  V30 5658 C 535.649 3.10964 -0.356454 0
M  V30 5659 C 536.124 4.51694 -0.757384 0
M  V30 5660 N 537.615 4.57709 -0.71111 0
M  V30 5661 C 538.35 5.64729 -0.993427 0
M  V30 5662 N 537.846 6.79652 -1.3433 0
M  V30 5663 N 539.639 5.54546 -0.918442 0
M  V30 5664 H 531.79 1.68426 -1.29407 0
M  V30 5665 H 534.053 0.78819 -0.526745 0
M  V30 5666 H 533.759 3.21115 -1.43451 0
M  V30 5667 H 533.633 3.76524 0.225692 0
M  V30 5668 H 536.02 2.87538 0.663763 0
M  V30 5669 H 536.101 2.34484 -1.02229 0
M  V30 5670 H 535.745 4.75853 -1.77555 0
M  V30 5671 H 535.675 5.26555 -0.0691444 0
M  V30 5672 H 538.166 3.75176 -0.452883 0
M  V30 5673 H 538.479 7.57221 -1.54388 0
M  V30 5674 H 536.824 6.81128 -1.38164 0
M  V30 5675 H 540.015 4.63641 -0.644536 0
M  V30 5676 H 540.188 6.37861 -1.14181 0
M  V30 5677 N 533.594 0.0601682 1.57485 0
M  V30 5678 C 534.541 -0.91112 2.12055 0
M  V30 5679 C 535.511 -1.30298 1.03013 0
M  V30 5680 O 536.696 -1.39087 1.30612 0
M  V30 5681 C 533.836 -2.1775 2.67729 0
M  V30 5682 C 532.949 -1.83933 3.90887 0
M  V30 5683 C 532.084 -3.05096 4.34845 0
M  V30 5684 C 531.123 -2.67241 5.5068 0
M  V30 5685 N 530.26 -3.81127 5.8965 0
M  V30 5686 H 535.1 -0.43888 2.9475 0
M  V30 5687 H 532.637 -0.204995 1.45665 0
M  V30 5688 H 534.595 -2.91866 2.98111 0
M  V30 5689 H 533.225 -2.62535 1.87816 0
M  V30 5690 H 532.277 -0.999287 3.6704 0
M  V30 5691 H 533.589 -1.52074 4.75052 0
M  V30 5692 H 532.743 -3.87502 4.66827 0
M  V30 5693 H 531.482 -3.40139 3.49509 0
M  V30 5694 H 530.487 -1.83254 5.18361 0
M  V30 5695 H 531.712 -2.3338 6.37738 0
M  V30 5696 H 529.658 -4.15954 5.07266 0
M  V30 5697 H 529.575 -3.52997 6.68528 0
M  V30 5698 H 530.843 -4.64145 6.2625 0
M  V30 5699 N 535.072 -1.5615 -0.213296 0
M  V30 5700 C 536.488 -1.49327 -0.56336 0
M  V30 5701 C 536.688 -0.756826 -1.86747 0
M  V30 5702 O 535.744 -0.299866 -2.50713 0
M  V30 5703 C 537.057 -2.9392 -0.634944 0
M  V30 5704 C 538.605 -3.04487 -0.725013 0
M  V30 5705 C 539.08 -4.50456 -0.82787 0
M  V30 5706 N 540.571 -4.54533 -0.891876 0
M  V30 5707 C 541.306 -5.64766 -0.991315 0
M  V30 5708 N 540.802 -6.84733 -1.05419 0
M  V30 5709 N 542.595 -5.52637 -1.02709 0
M  V30 5710 H 534.746 -2.02453 0.642366 0
M  V30 5711 H 537.009 -0.920548 0.226487 0
M  V30 5712 H 536.715 -3.50783 0.253859 0
M  V30 5713 H 536.589 -3.46274 -1.49579 0
M  V30 5714 H 538.976 -2.47685 -1.60425 0
M  V30 5715 H 539.057 -2.55289 0.161669 0
M  V30 5716 H 538.701 -5.07878 0.0469464 0
M  V30 5717 H 538.631 -4.97369 -1.73009 0
M  V30 5718 H 541.122 -3.68141 -0.85327 0
M  V30 5719 H 541.435 -7.64493 -1.13007 0
M  V30 5720 H 539.78 -6.87427 -1.02318 0
M  V30 5721 H 542.971 -4.5784 -0.974687 0
M  V30 5722 H 543.144 -6.38576 -1.10113 0
M  V30 5723 N 536.55 0.480323 -1.50102 0
M  V30 5724 C 537.48 1.58769 -1.71215 0
M  V30 5725 C 538.461 1.60583 -0.560997 0
M  V30 5726 O 539.646 1.76996 -0.799127 0
M  V30 5727 C 536.776 2.97148 -1.79778 0
M  V30 5728 C 535.73 3.10201 -2.94888 0
M  V30 5729 C 535.056 4.50137 -2.88584 0
M  V30 5730 C 536.356 2.88283 -4.35534 0
M  V30 5731 H 538.05 1.41354 -2.6393 0
M  V30 5732 H 535.596 0.678591 -1.27008 0
M  V30 5733 H 537.549 3.74536 -1.93133 0
M  V30 5734 H 536.273 3.15699 -0.836772 0
M  V30 5735 H 534.932 2.35244 -2.81169 0
M  V30 5736 H 534.58 4.65593 -1.90349 0
M  V30 5737 H 534.28 4.59808 -3.65856 0
M  V30 5738 H 535.804 5.29558 -3.03976 0
M  V30 5739 H 537.218 3.55427 -4.49827 0
M  V30 5740 H 535.615 3.09408 -5.14186 0
M  V30 5741 H 536.685 1.84219 -4.48544 0
M  V30 5742 N 538.028 1.39524 0.732853 0
M  V30 5743 C 538.958 1.41153 1.86005 0
M  V30 5744 C 539.939 0.274614 1.67869 0
M  V30 5745 O 541.124 0.480745 1.88155 0
M  V30 5746 C 538.254 1.25638 3.23778 0
M  V30 5747 C 537.208 2.36752 3.56556 0
M  V30 5748 C 536.534 2.06326 4.93289 0
M  V30 5749 C 537.834 3.79069 3.5931 0
M  V30 5750 H 539.528 2.35484 1.84899 0
M  V30 5751 H 537.074 1.13348 0.888162 0
M  V30 5752 H 539.027 1.25398 4.0231 0
M  V30 5753 H 537.751 0.277772 3.25417 0
M  V30 5754 H 536.41 2.36213 2.80355 0
M  V30 5755 H 536.058 1.06897 4.9151 0
M  V30 5756 H 535.758 2.80757 5.16187 0
M  V30 5757 H 537.282 2.07739 5.74175 0
M  V30 5758 H 538.696 3.81526 4.27914 0
M  V30 5759 H 537.093 4.52878 3.93728 0
M  V30 5760 H 538.163 4.09893 2.59068 0
M  V30 5761 N 539.506 -0.963266 1.24736 0
M  V30 5762 C 540.753 -1.7068 1.0897 0
M  V30 5763 C 541.081 -1.90934 -0.370751 0
M  V30 5764 O 540.336 -1.47155 -1.29011 0
M  V30 5765 C 540.635 -3.09944 1.7796 0
M  V30 5766 C 540.301 -3.09518 3.27887 0
M  V30 5767 C 538.963 -3.09109 3.68789 0
M  V30 5768 C 541.315 -3.03509 4.23712 0
M  V30 5769 C 538.643 -3.00429 5.03944 0
M  V30 5770 C 540.995 -2.96371 5.5888 0
M  V30 5771 C 539.659 -2.94293 5.99123 0
M  V30 5772 H 538.929 -0.624564 0.398749 0
M  V30 5773 H 541.576 -1.12603 1.54896 0
M  V30 5774 H 539.881 -3.71513 1.2444 0
M  V30 5775 H 541.578 -3.66278 1.63222 0
M  V30 5776 H 538.168 -3.10603 2.95337 0
M  V30 5777 H 542.352 -3.0295 3.93109 0
M  V30 5778 H 537.608 -2.97183 5.34314 0
M  V30 5779 H 541.782 -2.90681 6.32833 0
M  V30 5780 H 539.409 -2.87322 7.03811 0
M  V30 5781 N 540.985 -1.06182 -1.16461 0
M  V30 5782 C 542.396 -0.802426 -1.68576 0
M  V30 5783 C 542.747 0.67412 -1.84255 0
M  V30 5784 O 541.872 1.52303 -1.5373 0
M  V30 5785 C 542.467 -1.45002 -3.06202 0
M  V30 5786 C 541.026 -1.23843 -3.55443 0
M  V30 5787 C 540.173 -1.52724 -2.31454 0
M  V30 5788 H 543.124 -1.22545 -1.00839 0
M  V30 5789 H 543.145 -0.864731 -3.70544 0
M  V30 5790 H 542.657 -2.52466 -2.94759 0
M  V30 5791 H 540.758 -0.183487 -3.72148 0
M  V30 5792 H 540.871 -1.95036 -4.37604 0
M  V30 5793 H 539.235 -0.947726 -2.36411 0
M  V30 5794 H 540.018 -2.61343 -2.22609 0
M  V30 5795 N 542.463 1.3308 -0.844243 0
M  V30 5796 C 543.426 2.27403 -0.286485 0
M  V30 5797 C 544.426 1.51179 0.547872 0
M  V30 5798 O 545.616 1.70421 0.360886 0
M  V30 5799 C 542.748 3.35653 0.595813 0
M  V30 5800 H 543.941 2.78248 -1.11885 0
M  V30 5801 H 541.494 1.43574 -0.617749 0
M  V30 5802 H 542.229 2.90058 1.4504 0
M  V30 5803 H 542.014 3.921 -0.00125994 0
M  V30 5804 H 543.504 4.05958 0.979168 0
M  V30 5805 N 543.941 0.601185 1.45683 0
M  V30 5806 C 544.871 -0.108824 2.33246 0
M  V30 5807 C 545.852 -0.865223 1.46451 0
M  V30 5808 O 547.037 -0.83704 1.75235 0
M  V30 5809 C 544.167 -1.11101 3.2905 0
M  V30 5810 C 543.121 -0.468244 4.25431 0
M  V30 5811 C 542.447 -1.57822 5.10878 0
M  V30 5812 C 543.747 0.606469 5.18767 0
M  V30 5813 H 545.441 0.622306 2.92861 0
M  V30 5814 H 542.987 0.300714 1.40825 0
M  V30 5815 H 544.94 -1.61622 3.89174 0
M  V30 5816 H 543.664 -1.87265 2.67581 0
M  V30 5817 H 542.323 0.0160484 3.66596 0
M  V30 5818 H 541.971 -2.32998 4.45781 0
M  V30 5819 H 541.671 -1.15369 5.76163 0
M  V30 5820 H 543.195 -2.08583 5.73869 0
M  V30 5821 H 544.609 0.185589 5.73 0
M  V30 5822 H 543.006 0.952381 5.92494 0
M  V30 5823 H 544.076 1.48559 4.61582 0
M  V30 5824 N 545.419 -1.53889 0.339982 0
M  V30 5825 C 546.665 -2.01152 -0.258003 0
M  V30 5826 C 546.998 -1.22749 -1.50487 0
M  V30 5827 O 546.273 -0.314156 -1.91946 0
M  V30 5828 C 546.556 -3.55468 -0.575717 0
M  V30 5829 C 546.409 -4.44584 0.682996 0
M  V30 5830 C 547.728 -4.1768 -1.38677 0
M  V30 5831 H 544.847 -0.731198 -0.0922992 0
M  V30 5832 H 547.489 -1.84352 0.459814 0
M  V30 5833 H 545.639 -3.69914 -1.18725 0
M  V30 5834 H 547.311 -4.41981 1.32102 0
M  V30 5835 H 545.554 -4.13592 1.3086 0
M  V30 5836 H 546.225 -5.5043 0.416001 0
M  V30 5837 H 548.701 -4.0691 -0.869705 0
M  V30 5838 H 547.577 -5.25734 -1.57783 0
M  V30 5839 H 547.838 -3.72069 -2.38782 0
M  V30 5840 N 546.897 -0.0685191 -1.57451 0
M  V30 5841 C 548.125 0.610462 -1.97689 0
M  V30 5842 C 548.54 1.63346 -0.946758 0
M  V30 5843 O 547.897 1.82377 0.0669868 0
M  V30 5844 C 547.948 1.28196 -3.38006 0
M  V30 5845 O 547.669 0.299906 -4.37072 0
M  V30 5846 C 549.17 2.04907 -3.931 0
M  V30 5847 H 546.39 0.165689 -0.650222 0
M  V30 5848 H 548.934 -0.139953 -2.04021 0
M  V30 5849 H 547.089 1.98348 -3.32771 0
M  V30 5850 H 547.503 0.78126 -5.18649 0
M  V30 5851 H 548.977 2.47287 -4.93511 0
M  V30 5852 H 549.454 2.9043 -3.29465 0
M  V30 5853 H 550.06 1.39629 -4.01726 0
M  V30 5854 N 548.375 1.56261 0.205012 0
M  V30 5855 C 549.305 1.96779 1.257 0
M  V30 5856 C 550.286 0.838309 1.48008 0
M  V30 5857 O 551.471 1.10189 1.59913 0
M  V30 5858 C 548.601 2.29876 2.60335 0
M  V30 5859 C 547.555 3.45469 2.52656 0
M  V30 5860 C 546.881 3.64215 3.91473 0
M  V30 5861 C 548.181 4.79954 2.06014 0
M  V30 5862 H 549.875 2.84904 0.920338 0
M  V30 5863 H 547.421 1.37072 0.441277 0
M  V30 5864 H 549.374 2.56814 3.34102 0
M  V30 5865 H 548.098 1.38622 2.95722 0
M  V30 5866 H 546.757 3.18605 1.81345 0
M  V30 5867 H 546.405 2.70309 4.24196 0
M  V30 5868 H 546.105 4.41973 3.87213 0
M  V30 5869 H 547.629 3.93519 4.66878 0
M  V30 5870 H 549.043 5.05989 2.69533 0
M  V30 5871 H 547.44 5.61111 2.12777 0
M  V30 5872 H 548.51 4.74201 1.01297 0
M  V30 5873 N 549.853 -0.472356 1.50355 0
M  V30 5874 C 550.783 -1.57859 1.72055 0
M  V30 5875 C 551.764 -1.60283 0.569505 0
M  V30 5876 O 552.949 -1.7657 0.808503 0
M  V30 5877 C 550.079 -2.96191 1.81351 0
M  V30 5878 C 549.033 -3.08633 2.96529 0
M  V30 5879 C 548.359 -4.486 2.90968 0
M  V30 5880 C 549.659 -2.85969 4.37057 0
M  V30 5881 H 551.353 -1.39953 2.64676 0
M  V30 5882 H 548.899 -0.671846 1.27367 0
M  V30 5883 H 550.852 -3.73507 1.95117 0
M  V30 5884 H 549.576 -3.15251 0.853502 0
M  V30 5885 H 548.235 -2.33749 2.82413 0
M  V30 5886 H 547.883 -4.64577 1.92815 0
M  V30 5887 H 547.583 -4.57861 3.68289 0
M  V30 5888 H 549.107 -5.27938 3.0678 0
M  V30 5889 H 550.521 -3.53036 4.51706 0
M  V30 5890 H 548.918 -3.06677 5.15819 0
M  V30 5891 H 549.988 -1.81838 4.49514 0
M  V30 5892 N 551.331 -1.39911 -0.725443 0
M  V30 5893 C 552.58 -1.36963 -1.48068 0
M  V30 5894 C 552.893 0.0284478 -1.95579 0
M  V30 5895 O 554.099 0.180535 -2.70899 0
M  V30 5896 C 552.555 -2.40664 -2.67598 0
M  V30 5897 C 552.163 -3.86234 -2.26997 0
M  V30 5898 C 553.907 -2.46807 -3.45379 0
M  V30 5899 C 551.814 -4.81554 -3.43307 0
M  V30 5900 H 550.744 -0.509223 -0.556065 0
M  V30 5901 H 553.395 -1.65602 -0.790454 0
M  V30 5902 H 551.777 -2.05109 -3.38742 0
M  V30 5903 H 552.951 -4.3088 -1.63337 0
M  V30 5904 H 551.266 -3.83475 -1.62284 0
M  V30 5905 H 553.863 -3.15213 -4.31909 0
M  V30 5906 H 554.206 -1.49552 -3.8851 0
M  V30 5907 H 554.739 -2.81303 -2.81271 0
M  V30 5908 H 551.478 -5.80106 -3.05217 0
M  V30 5909 H 550.998 -4.4158 -4.05915 0
M  V30 5910 H 552.677 -5.0091 -4.0951 0
M  V30 5911 N 552.809 0.956637 -1.25245 0
M  V30 5912 C 554.034 1.74104 -1.12706 0
M  V30 5913 C 554.459 1.85436 0.315429 0
M  V30 5914 O 553.817 1.33334 1.22848 0
M  V30 5915 C 553.865 3.1338 -1.78396 0
M  V30 5916 O 552.969 3.98485 -1.06224 0
M  V30 5917 H 552.31 0.53476 -0.393609 0
M  V30 5918 H 554.84 1.19924 -1.65769 0
M  V30 5919 H 554.85 3.6385 -1.846 0
M  V30 5920 H 553.525 3.04448 -2.83345 0
M  V30 5921 H 552.102 3.56952 -1.07886 0
M  V30 5922 N 554.287 1.06798 1.15896 0
M  V30 5923 C 555.515 0.808694 1.90441 0
M  V30 5924 C 555.93 -0.637506 1.77711 0
M  V30 5925 O 555.287 -1.43684 1.12522 0
M  V30 5926 C 555.338 1.20068 3.40978 0
M  V30 5927 O 555.059 2.59013 3.53333 0
M  V30 5928 C 556.56 0.96987 4.3256 0
M  V30 5929 H 553.78 0.292809 0.603742 0
M  V30 5930 H 556.324 1.42296 1.46874 0
M  V30 5931 H 554.479 0.630842 3.82229 0
M  V30 5932 H 554.893 2.7485 4.46719 0
M  V30 5933 H 556.367 1.29371 5.36626 0
M  V30 5934 H 556.844 -0.0941209 4.39099 0
M  V30 5935 H 557.45 1.52433 3.97044 0
M  V30 5936 N 555.766 -1.3263 0.851289 0
M  V30 5937 C 556.696 -2.31449 0.308771 0
M  V30 5938 C 557.677 -1.59531 -0.590255 0
M  V30 5939 O 558.862 -1.87351 -0.511205 0
M  V30 5940 C 555.992 -3.43586 -0.506548 0
M  V30 5941 C 554.946 -4.26963 0.297753 0
M  V30 5942 C 554.272 -5.30831 -0.642094 0
M  V30 5943 C 555.572 -4.99643 1.52166 0
M  V30 5944 H 557.266 -2.77074 1.13447 0
M  V30 5945 H 554.812 -1.33207 0.546971 0
M  V30 5946 H 556.765 -4.11754 -0.896474 0
M  V30 5947 H 555.489 -2.96681 -1.36558 0
M  V30 5948 H 554.148 -3.60437 0.669391 0
M  V30 5949 H 553.796 -4.8018 -1.49788 0
M  V30 5950 H 553.496 -5.87501 -0.107968 0
M  V30 5951 H 555.02 -6.01862 -1.02927 0
M  V30 5952 H 556.434 -5.6051 1.20421 0
M  V30 5953 H 554.831 -5.66022 1.99347 0
M  V30 5954 H 555.901 -4.27701 2.28474 0
M  V30 5955 N 557.244 -0.608902 -1.45362 0
M  V30 5956 C 558.472 -0.111013 -2.06602 0
M  V30 5957 C 558.887 1.20516 -1.45332 0
M  V30 5958 O 558.244 1.73437 -0.567978 0
M  V30 5959 C 558.295 0.033688 -3.61484 0
M  V30 5960 O 558.016 -1.23041 -4.20467 0
M  V30 5961 C 559.517 0.562882 -4.39712 0
M  V30 5962 H 556.737 -0.0694453 -0.667397 0
M  V30 5963 H 559.281 -0.837008 -1.86586 0
M  V30 5964 H 557.436 0.710016 -3.80838 0
M  V30 5965 H 557.85 -1.06094 -5.13658 0
M  V30 5966 H 559.324 0.613213 -5.48583 0
M  V30 5967 H 559.801 1.58543 -4.09586 0
M  V30 5968 H 560.407 -0.0794454 -4.25226 0
M  V30 5969 N 558.722 1.53707 -0.348139 0
M  V30 5970 C 559.969 2.00988 0.246966 0
M  V30 5971 C 560.297 1.23586 1.50189 0
M  V30 5972 O 559.552 0.312817 1.93184 0
M  V30 5973 C 559.851 3.52292 0.602061 0
M  V30 5974 C 559.517 4.47453 -0.556509 0
M  V30 5975 C 558.179 4.73188 -0.874446 0
M  V30 5976 C 560.531 5.03851 -1.33354 0
M  V30 5977 C 557.859 5.52577 -1.9717 0
M  V30 5978 C 560.211 5.84437 -2.42108 0
M  V30 5979 C 558.875 6.08465 -2.74456 0
M  V30 5980 H 558.145 0.735469 0.0903712 0
M  V30 5981 H 560.792 1.85464 -0.477001 0
M  V30 5982 H 559.097 3.65672 1.40681 0
M  V30 5983 H 560.794 3.86337 1.07447 0
M  V30 5984 H 557.384 4.27558 -0.298652 0
M  V30 5985 H 561.568 4.8393 -1.10117 0
M  V30 5986 H 556.824 5.69418 -2.22651 0
M  V30 5987 H 560.998 6.27151 -3.02745 0
M  V30 5988 H 558.625 6.69768 -3.59604 0
M  V30 5989 N 560.2 0.0768682 1.57412 0
M  V30 5990 C 561.611 -0.455037 1.8107 0
M  V30 5991 C 561.962 -1.69323 0.991162 0
M  V30 5992 O 561.087 -2.15328 0.215156 0
M  V30 5993 C 561.682 -0.832316 3.28417 0
M  V30 5994 C 560.241 -1.30906 3.52903 0
M  V30 5995 C 559.388 -0.296714 2.75708 0
M  V30 5996 H 562.339 0.302514 1.5579 0
M  V30 5997 H 562.36 -1.69333 3.40744 0
M  V30 5998 H 561.872 0.0690532 3.88039 0
M  V30 5999 H 559.973 -2.22875 2.98592 0
M  V30 6000 H 560.086 -1.28348 4.61588 0
M  V30 6001 H 558.45 -0.775059 2.42621 0
M  V30 6002 H 559.233 0.597015 3.38069 0
M  V30 6003 N 561.678 -1.56367 -0.196722 0
M  V30 6004 C 563.089 -1.70462 -0.761545 0
M  V30 6005 C 563.44 -0.683161 -1.83922 0
M  V30 6006 O 562.565 0.160753 -2.15802 0
M  V30 6007 C 563.16 -3.09057 -1.38814 0
M  V30 6008 C 561.719 -3.24922 -1.90007 0
M  V30 6009 C 560.866 -2.66412 -0.769399 0
M  V30 6010 H 563.817 -1.58675 0.0283263 0
M  V30 6011 H 563.838 -3.06296 -2.2575 0
M  V30 6012 H 563.35 -3.83378 -0.603559 0
M  V30 6013 H 561.451 -2.55514 -2.71189 0
M  V30 6014 H 561.564 -4.3241 -2.06297 0
M  V30 6015 H 559.928 -2.25546 -1.18326 0
M  V30 6016 H 560.711 -3.433 0.00291773 0
M  V30 6017 N 563.156 0.464375 -1.50603 0
M  V30 6018 C 564.404 1.21356 -1.61608 0
M  V30 6019 C 564.725 1.92329 -0.321643 0
M  V30 6020 O 563.995 1.84403 0.661232 0
M  V30 6021 H 562.575 0.45094 -0.595535 0
M  V30 6022 H 565.237 0.535046 -1.87412 0
M  V30 6023 H 564.333 1.95783 -2.43054 0
M  V30 6024 N 564.634 1.40294 0.718013 0
M  V30 6025 C 565.881 1.3844 1.47786 0
M  V30 6026 C 566.209 -0.0140838 1.94495 0
M  V30 6027 O 565.464 -0.998165 1.68331 0
M  V30 6028 C 565.763 2.31814 2.72024 0
M  V30 6029 C 565.429 3.79117 2.44093 0
M  V30 6030 C 564.091 4.19249 2.36185 0
M  V30 6031 C 566.443 4.72212 2.20602 0
M  V30 6032 C 563.771 5.50516 2.02851 0
M  V30 6033 C 566.123 6.03775 1.88781 0
M  V30 6034 C 564.787 6.42953 1.79354 0
M  V30 6035 H 564.057 0.506588 0.540786 0
M  V30 6036 H 566.704 1.72929 0.822663 0
M  V30 6037 H 565.009 1.90501 3.42369 0
M  V30 6038 H 566.706 2.27664 3.30106 0
M  V30 6039 H 563.296 3.47318 2.51133 0
M  V30 6040 H 567.48 4.42026 2.25669 0
M  V30 6041 H 562.736 5.79776 1.94088 0
M  V30 6042 H 566.91 6.75428 1.69617 0
M  V30 6043 H 564.537 7.44584 1.53291 0
M  V30 6044 N 566.112 -0.949982 1.2575 0
M  V30 6045 C 567.36 -1.6918 1.10555 0
M  V30 6046 C 567.681 -1.91773 -0.353298 0
M  V30 6047 O 566.951 -1.50814 -1.25027 0
M  V30 6048 H 565.531 -0.626952 0.406129 0
M  V30 6049 H 568.193 -1.1419 1.57945 0
M  V30 6050 H 567.289 -2.66915 1.61749 0
M  V30 6051 N 567.59 -1.07411 -1.15328 0
M  V30 6052 C 568.522 -0.652924 -2.19703 0
M  V30 6053 C 569.535 0.294869 -1.60107 0
M  V30 6054 O 570.724 0.0840932 -1.78302 0
M  V30 6055 C 567.824 0.061434 -3.38844 0
M  V30 6056 C 566.997 -0.902696 -4.27984 0
M  V30 6057 C 566.056 -0.225521 -5.25717 0
M  V30 6058 O 565.082 -0.86676 -5.62562 0
M  V30 6059 N 566.284 1.02858 -5.71315 0
M  V30 6060 H 569.049 -1.55081 -2.56457 0
M  V30 6061 H 566.61 -0.958883 -1.30449 0
M  V30 6062 H 568.602 0.525145 -4.01278 0
M  V30 6063 H 567.172 0.861269 -3.00501 0
M  V30 6064 H 566.392 -1.54551 -3.6264 0
M  V30 6065 H 567.68 -1.55636 -4.84412 0
M  V30 6066 H 567.078 1.56948 -5.43492 0
M  V30 6067 H 565.635 1.43596 -6.35786 0
M  V30 6068 N 569.068 1.32177 -0.85831 0
M  V30 6069 C 570.315 1.97125 -0.463484 0
M  V30 6070 C 570.643 1.67907 0.981705 0
M  V30 6071 O 569.898 0.961717 1.70439 0
M  V30 6072 C 570.197 3.51372 -0.653658 0
M  V30 6073 C 569.863 4.00584 -2.06987 0
M  V30 6074 C 568.525 4.13733 -2.4572 0
M  V30 6075 C 570.877 4.26624 -2.99402 0
M  V30 6076 C 568.205 4.50268 -3.76132 0
M  V30 6077 C 570.557 4.64618 -4.29316 0
M  V30 6078 C 569.221 4.75975 -4.67979 0
M  V30 6079 H 568.491 0.72133 -0.169601 0
M  V30 6080 H 571.138 1.57517 -1.08907 0
M  V30 6081 H 569.443 3.91761 0.0551328 0
M  V30 6082 H 571.14 3.99655 -0.328163 0
M  V30 6083 H 567.73 3.90837 -1.75911 0
M  V30 6084 H 571.914 4.1597 -2.70708 0
M  V30 6085 H 567.17 4.57256 -4.05865 0
M  V30 6086 H 571.344 4.83722 -5.00985 0
M  V30 6087 H 568.971 5.04041 -5.69076 0
M  V30 6088 N 570.547 0.616602 1.45037 0
M  V30 6089 C 571.48 -0.145984 2.27733 0
M  V30 6090 C 572.458 -0.865108 1.37676 0
M  V30 6091 O 573.642 -0.872152 1.6711 0
M  V30 6092 C 570.769 -1.2122 3.16265 0
M  V30 6093 C 569.815 -0.595218 4.22326 0
M  V30 6094 S 570.648 0.603744 5.32086 0
M  V30 6095 C 571.804 -0.462842 6.24186 0
M  V30 6096 H 572.037 0.555591 2.92062 0
M  V30 6097 H 569.57 0.404364 1.49011 0
M  V30 6098 H 571.528 -1.82247 3.67827 0
M  V30 6099 H 570.189 -1.88589 2.51183 0
M  V30 6100 H 569.382 -1.39775 4.8423 0
M  V30 6101 H 568.984 -0.0598965 3.73952 0
M  V30 6102 H 571.276 -1.33945 6.64127 0
M  V30 6103 H 572.219 0.120259 7.07998 0
M  V30 6104 H 572.627 -0.782219 5.59054 0
M  V30 6105 N 572.025 -1.5352 0.356285 0
M  V30 6106 C 572.988 -2.24071 -0.482182 0
M  V30 6107 C 573.988 -1.24531 -1.01729 0
M  V30 6108 O 575.178 -1.48876 -0.904513 0
M  V30 6109 C 572.31 -2.97025 -1.67299 0
M  V30 6110 H 573.503 -2.99596 0.135031 0
M  V30 6111 H 571.056 -1.55928 0.107825 0
M  V30 6112 H 571.791 -2.25719 -2.32855 0
M  V30 6113 H 571.576 -3.7005 -1.29636 0
M  V30 6114 H 573.066 -3.50683 -2.26741 0
M  V30 6115 N 573.503 -0.0852151 -1.57369 0
M  V30 6116 C 574.751 0.579658 -1.93609 0
M  V30 6117 C 575.072 1.69332 -0.967043 0
M  V30 6118 O 574.342 1.95892 -0.0174215 0
M  V30 6119 H 572.922 0.217113 -0.714752 0
M  V30 6120 H 575.584 -0.146226 -1.94351 0
M  V30 6121 H 574.68 0.996276 -2.95771 0
M  V30 6122 N 574.981 1.5647 0.188427 0
M  V30 6123 C 575.913 1.91611 1.25769 0
M  V30 6124 C 576.926 0.807436 1.41366 0
M  V30 6125 O 578.115 1.08586 1.41673 0
M  V30 6126 C 575.215 2.13874 2.6289 0
M  V30 6127 C 574.388 3.45047 2.68815 0
M  V30 6128 C 573.447 3.56342 3.87178 0
M  V30 6129 O 572.473 4.29109 3.73971 0
M  V30 6130 N 573.675 2.89924 5.02916 0
M  V30 6131 H 576.44 2.8393 0.959373 0
M  V30 6132 H 574.001 1.57418 0.378306 0
M  V30 6133 H 575.993 2.18713 3.4051 0
M  V30 6134 H 574.563 1.28022 2.85183 0
M  V30 6135 H 573.783 3.52017 1.77419 0
M  V30 6136 H 575.071 4.31395 2.6977 0
M  V30 6137 H 574.469 2.30644 5.16546 0
M  V30 6138 H 573.026 3.0038 5.78459 0
M  V30 6139 N 576.459 -0.456382 1.50847 0
M  V30 6140 C 577.389 -1.56025 1.73719 0
M  V30 6141 C 578.37 -1.5967 0.586473 0
M  V30 6142 O 579.555 -1.75702 0.827185 0
M  V30 6143 C 576.685 -2.94251 1.84483 0
M  V30 6144 C 575.639 -3.05471 2.99786 0
M  V30 6145 C 574.965 -4.45489 2.95709 0
M  V30 6146 C 576.265 -2.81318 4.40065 0
M  V30 6147 H 577.959 -1.37138 2.66146 0
M  V30 6148 H 575.505 -0.658299 1.28072 0
M  V30 6149 H 577.458 -3.71417 1.99067 0
M  V30 6150 H 576.182 -3.14328 0.886891 0
M  V30 6151 H 574.841 -2.30741 2.84876 0
M  V30 6152 H 574.489 -4.62505 1.97732 0
M  V30 6153 H 574.189 -4.53929 3.73125 0
M  V30 6154 H 575.713 -5.24655 3.12362 0
M  V30 6155 H 577.127 -3.48226 4.55425 0
M  V30 6156 H 575.524 -3.01188 5.19043 0
M  V30 6157 H 576.594 -1.7706 4.51418 0
M  V30 6158 N 577.937 -1.40673 -0.710563 0
M  V30 6159 C 579.162 -1.42741 -1.50465 0
M  V30 6160 C 579.587 -0.0302116 -1.88076 0
M  V30 6161 O 578.945 0.962945 -1.53613 0
M  V30 6162 C 578.993 -2.32873 -2.75322 0
M  V30 6163 O 578.097 -1.77544 -3.72226 0
M  V30 6164 H 577.438 -0.485056 -0.45345 0
M  V30 6165 H 579.968 -1.84961 -0.874681 0
M  V30 6166 H 579.978 -2.48233 -3.23797 0
M  V30 6167 H 578.653 -3.34401 -2.47283 0
M  V30 6168 H 577.23 -1.71556 -3.31093 0
M  V30 6169 N 579.415 0.9433 -1.26252 0
M  V30 6170 C 580.347 2.04542 -1.03417 0
M  V30 6171 C 581.36 1.62799 0.0046911 0
M  V30 6172 O 582.549 1.76944 -0.235146 0
M  V30 6173 C 579.649 3.34511 -0.543671 0
M  V30 6174 C 578.822 4.05033 -1.65128 0
M  V30 6175 C 577.881 5.13273 -1.1592 0
M  V30 6176 O 576.907 5.38095 -1.85586 0
M  V30 6177 N 578.109 5.805 -0.00649279 0
M  V30 6178 H 580.874 2.24699 -1.98319 0
M  V30 6179 H 578.435 1.11264 -1.1761 0
M  V30 6180 H 580.427 4.04212 -0.198703 0
M  V30 6181 H 578.997 3.11042 0.311711 0
M  V30 6182 H 578.217 3.29275 -2.16729 0
M  V30 6183 H 579.505 4.48903 -2.39508 0
M  V30 6184 H 578.903 5.62767 0.575347 0
M  V30 6185 H 577.46 6.51201 0.279416 0
M  V30 6186 N 580.893 1.08022 1.14757 0
M  V30 6187 C 581.84 0.706657 2.19716 0
M  V30 6188 C 582.81 -0.30525 1.63271 0
M  V30 6189 O 583.995 -0.19015 1.8985 0
M  V30 6190 C 581.135 0.117914 3.44898 0
M  V30 6191 C 580.248 1.18212 4.15512 0
M  V30 6192 C 579.383 0.557659 5.28265 0
M  V30 6193 C 578.422 1.60418 5.90705 0
M  V30 6194 N 577.559 1.0018 6.94916 0
M  V30 6195 H 582.399 1.60603 2.51019 0
M  V30 6196 H 579.936 0.802664 1.23271 0
M  V30 6197 H 581.894 -0.241112 4.16503 0
M  V30 6198 H 580.524 -0.744788 3.1409 0
M  V30 6199 H 579.576 1.65863 3.42335 0
M  V30 6200 H 580.888 1.97533 4.5802 0
M  V30 6201 H 580.042 0.146654 6.06523 0
M  V30 6202 H 578.781 -0.267249 4.86967 0
M  V30 6203 H 577.786 2.02489 5.11154 0
M  V30 6204 H 579.011 2.43149 6.34078 0
M  V30 6205 H 576.957 0.197917 6.55701 0
M  V30 6206 H 576.874 1.73216 7.35889 0
M  V30 6207 H 578.142 0.616523 7.77058 0
M  V30 6208 N 582.371 -1.3172 0.865308 0
M  V30 6209 C 583.281 -2.32394 0.320935 0
M  V30 6210 C 584.297 -1.64511 -0.566746 0
M  V30 6211 O 585.473 -1.95969 -0.464575 0
M  V30 6212 C 582.538 -3.43462 -0.472701 0
M  V30 6213 C 581.599 -4.27015 0.442385 0
M  V30 6214 C 580.832 -5.32779 -0.313469 0
M  V30 6215 O 581.055 -5.49158 -1.54214 0
M  V30 6216 O 579.989 -6.01015 0.326257 0
M  V30 6217 H 583.815 -2.80868 1.15528 0
M  V30 6218 H 581.4 -1.35535 0.628545 0
M  V30 6219 H 583.282 -4.11172 -0.922781 0
M  V30 6220 H 581.957 -2.97159 -1.28367 0
M  V30 6221 H 580.864 -3.62075 0.940866 0
M  V30 6222 H 582.197 -4.76871 1.21882 0
M  V30 6223 N 583.85 -0.624285 -1.44708 0
M  V30 6224 C 585.077 -0.132919 -2.06473 0
M  V30 6225 C 585.493 1.18967 -1.46602 0
M  V30 6226 O 584.85 1.72824 -0.586341 0
M  V30 6227 C 584.901 -0.00465418 -3.615 0
M  V30 6228 O 584.622 -1.27494 -4.19138 0
M  V30 6229 C 586.123 0.516213 -4.40284 0
M  V30 6230 H 583.343 -0.0765201 -0.666623 0
M  V30 6231 H 585.887 -0.856751 -1.85688 0
M  V30 6232 H 584.042 0.669583 -3.8157 0
M  V30 6233 H 584.456 -1.11536 -5.12504 0
M  V30 6234 H 585.93 0.554994 -5.49203 0
M  V30 6235 H 586.407 1.5419 -4.11245 0
M  V30 6236 H 587.013 -0.124542 -4.25118 0
M  V30 6237 N 585.328 1.53329 -0.364422 0
M  V30 6238 C 586.258 2.28627 0.474543 0
M  V30 6239 C 587.239 1.31009 1.08492 0
M  V30 6240 O 588.424 1.59878 1.10239 0
M  V30 6241 C 585.554 3.07465 1.61501 0
M  V30 6242 C 584.508 4.1276 1.13194 0
M  V30 6243 C 583.834 4.79674 2.36255 0
M  V30 6244 C 585.134 5.21847 0.217507 0
M  V30 6245 H 586.828 2.99005 -0.153656 0
M  V30 6246 H 584.374 1.43803 -0.0753406 0
M  V30 6247 H 586.327 3.58889 2.20855 0
M  V30 6248 H 585.051 2.34775 2.27042 0
M  V30 6249 H 583.71 3.62281 0.56109 0
M  V30 6250 H 583.358 4.03557 3.00251 0
M  V30 6251 H 583.058 5.50827 2.04606 0
M  V30 6252 H 584.582 5.33892 2.96297 0
M  V30 6253 H 585.996 5.6878 0.718493 0
M  V30 6254 H 584.393 6.00099 -0.00806408 0
M  V30 6255 H 585.463 4.7921 -0.740653 0
M  V30 6256 N 586.806 0.0935595 1.57322 0
M  V30 6257 C 588.052 -0.571355 1.94585 0
M  V30 6258 C 588.385 -1.67929 0.975366 0
M  V30 6259 O 587.66 -1.94498 0.00816206 0
M  V30 6260 C 587.943 -1.12797 3.41978 0
M  V30 6261 C 587.796 -0.0251881 4.49793 0
M  V30 6262 C 589.115 -2.02682 3.90651 0
M  V30 6263 H 586.234 -0.206223 0.70756 0
M  V30 6264 H 588.876 0.163956 1.89291 0
M  V30 6265 H 587.026 -1.75461 3.4662 0
M  V30 6266 H 588.698 0.608979 4.57263 0
M  V30 6267 H 586.941 0.641399 4.29032 0
M  V30 6268 H 587.612 -0.455433 5.50118 0
M  V30 6269 H 590.088 -1.49925 3.88152 0
M  V30 6270 H 588.964 -2.38555 4.94351 0
M  V30 6271 H 589.225 -2.94362 3.29854 0
M  V30 6272 N 588.284 -1.56567 -0.180126 0
M  V30 6273 C 589.512 -1.85618 -0.913972 0
M  V30 6274 C 589.927 -0.677892 -1.7621 0
M  V30 6275 O 589.284 0.353171 -1.7905 0
M  V30 6276 C 589.335 -3.13619 -1.79793 0
M  V30 6277 O 589.056 -4.26906 -0.98402 0
M  V30 6278 C 590.557 -3.55954 -2.64219 0
M  V30 6279 H 587.777 -0.616043 -0.265954 0
M  V30 6280 H 590.321 -2.03681 -0.182872 0
M  V30 6281 H 588.476 -2.97409 -2.48247 0
M  V30 6282 H 588.89 -4.9989 -1.58776 0
M  V30 6283 H 590.364 -4.48444 -3.21873 0
M  V30 6284 H 590.841 -2.79653 -3.38661 0
M  V30 6285 H 591.447 -3.74746 -2.01111 0
M  V30 6286 N 589.762 0.448376 -1.51087 0
M  V30 6287 C 590.692 1.55102 -1.74544 0
M  V30 6288 C 591.673 1.59357 -0.594932 0
M  V30 6289 O 592.858 1.75261 -0.836491 0
M  V30 6290 C 589.988 2.93268 -1.86041 0
M  V30 6291 C 588.942 3.03877 -3.01402 0
M  V30 6292 C 588.268 4.43914 -2.98068 0
M  V30 6293 C 589.568 2.7898 -4.41551 0
M  V30 6294 H 591.262 1.35724 -2.66869 0
M  V30 6295 H 588.808 0.651498 -1.28419 0
M  V30 6296 H 590.761 3.70356 -2.01034 0
M  V30 6297 H 589.485 3.13853 -0.903548 0
M  V30 6298 H 588.144 2.29227 -2.86096 0
M  V30 6299 H 587.792 4.6145 -2.00182 0
M  V30 6300 H 587.492 4.51944 -3.75527 0
M  V30 6301 H 589.016 5.22991 -3.1514 0
M  V30 6302 H 590.43 3.45805 -4.57265 0
M  V30 6303 H 588.827 2.98431 -5.20633 0
M  V30 6304 H 589.897 1.74663 -4.5235 0
M  V30 6305 N 591.24 1.41047 0.703093 0
M  V30 6306 C 592.487 1.4 1.46309 0
M  V30 6307 C 592.815 0.00654574 1.94499 0
M  V30 6308 O 592.07 -0.980255 1.6938 0
M  V30 6309 C 592.369 2.34686 2.6955 0
M  V30 6310 C 592.035 3.81684 2.40058 0
M  V30 6311 C 590.697 4.21731 2.31725 0
M  V30 6312 C 593.049 4.74525 2.15581 0
M  V30 6313 C 590.377 5.52637 1.97001 0
M  V30 6314 C 592.729 6.05744 1.82366 0
M  V30 6315 C 591.393 6.44819 1.72524 0
M  V30 6316 H 590.663 0.512295 0.535382 0
M  V30 6317 H 593.31 1.73792 0.804275 0
M  V30 6318 H 591.615 1.94122 3.40329 0
M  V30 6319 H 593.312 2.31152 3.27673 0
M  V30 6320 H 589.902 3.49963 2.47435 0
M  V30 6321 H 594.086 4.44395 2.20968 0
M  V30 6322 H 589.342 5.81802 1.87928 0
M  V30 6323 H 593.516 6.77189 1.62444 0
M  V30 6324 H 591.143 7.46168 1.45385 0
M  V30 6325 N 592.718 -0.936591 1.26751 0
M  V30 6326 C 593.995 -1.66094 1.03306 0
M  V30 6327 C 594.375 -2.06568 -0.435058 0
M  V30 6328 O 593.723 -1.79305 -1.41641 0
M  V30 6329 C 593.933 -2.86969 1.98619 0
M  V30 6330 C 595.281 -3.58516 2.27489 0
M  V30 6331 O 596.305 -2.97082 1.96522 0
M  V30 6332 O 595.164 -4.69181 2.80235 0
M  V30 6333 H 592.258 -0.727568 0.393158 0
M  V30 6334 H 594.804 -0.987914 1.3798 0
M  V30 6335 H 593.576 -2.53985 2.9767 0
M  V30 6336 H 593.199 -3.61996 1.64454 0
M  V30 6337 N 594.196 -1.08629 -1.14182 0
M  V30 6338 C 595.144 -0.71284 -2.21408 0
M  V30 6339 C 596.138 0.282457 -1.67029 0
M  V30 6340 O 597.344 0.144783 -1.79417 0
M  V30 6341 H 593.719 -0.212497 -0.721352 0
M  V30 6342 H 595.69 -1.6265 -2.50175 0
M  V30 6343 C 594.439 -0.140704 -3.47415 0
M  V30 6344 H 593.762 -0.897739 -3.8959 0
M  V30 6345 H 595.202 0.0827677 -4.23919 0
M  V30 6346 C 593.661 1.122 -3.17668 0
M  V30 6347 O 594.191 2.20652 -3.35672 0
M  V30 6348 N 592.397 1.03328 -2.71609 0
M  V30 6349 H 591.944 0.150666 -2.57159 0
M  V30 6350 H 591.902 1.8789 -2.52081 0
M  V30 6351 N 595.674 1.31259 -0.872281 0
M  V30 6352 C 597.09 1.49283 -0.564521 0
M  V30 6353 C 597.29 1.80243 0.900807 0
M  V30 6354 O 596.346 1.88246 1.68284 0
M  V30 6355 C 597.659 2.62503 -1.46673 0
M  V30 6356 C 599.207 2.76386 -1.46901 0
M  V30 6357 C 599.682 3.92705 -2.35684 0
M  V30 6358 N 601.173 3.99995 -2.33577 0
M  V30 6359 C 601.908 4.89276 -2.98992 0
M  V30 6360 N 601.404 5.83443 -3.73585 0
M  V30 6361 N 603.197 4.82541 -2.88289 0
M  V30 6362 H 595.348 1.09432 -1.82039 0
M  V30 6363 H 597.611 0.540949 -0.77851 0
M  V30 6364 H 597.317 2.46407 -2.50951 0
M  V30 6365 H 597.191 3.58695 -1.16696 0
M  V30 6366 H 599.578 2.91894 -0.433796 0
M  V30 6367 H 599.659 1.80853 -1.80903 0
M  V30 6368 H 599.303 3.77954 -3.39283 0
M  V30 6369 H 599.233 4.87549 -1.99006 0
M  V30 6370 H 601.724 3.32624 -1.7936 0
M  V30 6371 H 602.037 6.48303 -4.20622 0
M  V30 6372 H 600.382 5.83415 -3.77694 0
M  V30 6373 H 603.573 4.07951 -2.2955 0
M  V30 6374 H 603.746 5.51916 -3.39549 0
M  V30 6375 N 597.152 0.631951 1.44375 0
M  V30 6376 C 598.38 0.143867 2.06399 0
M  V30 6377 C 598.795 -1.18188 1.47231 0
M  V30 6378 O 598.152 -1.72511 0.595498 0
M  V30 6379 C 598.203 0.0238253 3.61492 0
M  V30 6380 O 597.924 1.29715 4.18456 0
M  V30 6381 C 599.425 -0.492856 4.40552 0
M  V30 6382 H 596.645 0.0800542 0.666207 0
M  V30 6383 H 599.189 0.866586 1.85231 0
M  V30 6384 H 597.344 -0.649338 3.81919 0
M  V30 6385 H 597.758 1.14252 5.11905 0
M  V30 6386 H 599.232 -0.525861 5.49489 0
M  V30 6387 H 599.709 -1.52006 4.12057 0
M  V30 6388 H 600.315 0.147085 4.25046 0
M  V30 6389 N 598.631 -1.53133 0.372548 0
M  V30 6390 C 599.877 -2.02336 -0.207823 0
M  V30 6391 C 600.232 -1.25477 -1.45853 0
M  V30 6392 O 599.525 -0.341971 -1.88524 0
M  V30 6393 C 599.719 -3.53206 -0.545938 0
M  V30 6394 C 599.548 -4.44674 0.670454 0
M  V30 6395 C 598.318 -4.91217 1.18465 0
M  V30 6396 C 600.516 -4.90772 1.53777 0
M  V30 6397 N 598.498 -5.66711 2.36034 0
M  V30 6398 C 599.869 -5.64678 2.56004 0
M  V30 6399 C 601.924 -4.72836 1.55983 0
M  V30 6400 C 600.627 -6.22555 3.60303 0
M  V30 6401 C 602.653 -5.31583 2.59179 0
M  V30 6402 C 602.015 -6.05381 3.6013 0
M  V30 6403 H 598.114 -0.781048 -0.0385783 0
M  V30 6404 H 600.698 -1.87665 0.518664 0
M  V30 6405 H 598.869 -3.68024 -1.24149 0
M  V30 6406 H 600.601 -3.89123 -1.112 0
M  V30 6407 H 597.356 -4.67652 0.748205 0
M  V30 6408 H 597.78 -6.09117 2.95475 0
M  V30 6409 H 602.422 -4.15299 0.792877 0
M  V30 6410 H 600.14 -6.79183 4.37876 0
M  V30 6411 H 603.726 -5.19595 2.61749 0
M  V30 6412 H 602.606 -6.50028 4.38672 0
M  V30 6413 N 600.109 -0.101901 -1.5727 0
M  V30 6414 C 601.355 0.561027 -1.94885 0
M  V30 6415 C 601.688 1.6741 -0.984258 0
M  V30 6416 O 600.963 1.94491 -0.0184767 0
M  V30 6417 C 601.246 1.10982 -3.42571 0
M  V30 6418 C 601.099 0.00133418 -4.498 0
M  V30 6419 C 602.418 2.00608 -3.9172 0
M  V30 6420 H 599.537 0.202467 -0.708644 0
M  V30 6421 H 602.179 -0.173992 -1.89202 0
M  V30 6422 H 600.329 1.73621 -3.47546 0
M  V30 6423 H 602.001 -0.63322 -4.56933 0
M  V30 6424 H 600.244 -0.664143 -4.28686 0
M  V30 6425 H 600.915 0.426253 -5.50352 0
M  V30 6426 H 603.391 1.47864 -3.88941 0
M  V30 6427 H 602.267 2.3593 -4.95609 0
M  V30 6428 H 602.528 2.92608 -3.3141 0
M  V30 6429 N 601.587 1.56661 0.17182 0
M  V30 6430 C 603.003 1.50768 0.52357 0
M  V30 6431 C 603.203 0.806072 1.84675 0
M  V30 6432 O 602.259 0.366233 2.4983 0
M  V30 6433 C 603.572 2.955 0.556793 0
M  V30 6434 C 605.12 3.06303 0.644029 0
M  V30 6435 C 605.595 4.52492 0.708148 0
M  V30 6436 N 607.086 4.56737 0.771051 0
M  V30 6437 C 607.821 5.67196 0.841229 0
M  V30 6438 N 607.317 6.87287 0.872272 0
M  V30 6439 N 609.11 5.55165 0.88021 0
M  V30 6440 H 601.261 2.00679 -0.695817 0
M  V30 6441 H 603.524 0.914219 -0.250814 0
M  V30 6442 H 603.23 3.49986 -0.346774 0
M  V30 6443 H 603.104 3.50119 1.40346 0
M  V30 6444 H 605.491 2.51851 1.53802 0
M  V30 6445 H 605.572 2.5477 -0.229297 0
M  V30 6446 H 605.216 5.07575 -0.181585 0
M  V30 6447 H 605.146 5.01781 1.59761 0
M  V30 6448 H 607.637 3.70274 0.755364 0
M  V30 6449 H 607.95 7.6722 0.92698 0
M  V30 6450 H 606.295 6.89898 0.840557 0
M  V30 6451 H 609.486 4.60263 0.852956 0
M  V30 6452 H 609.659 6.41271 0.931439 0
M  V30 6453 N 603.065 -0.440357 1.51323 0
M  V30 6454 C 603.997 -1.55254 1.68609 0
M  V30 6455 C 605.01 -1.52614 0.566812 0
M  V30 6456 O 606.199 -1.57445 0.841032 0
M  V30 6457 C 603.299 -2.94169 1.68279 0
M  V30 6458 C 602.472 -3.21346 2.96742 0
M  V30 6459 C 601.531 -4.3997 2.8864 0
M  V30 6460 O 600.557 -4.38771 3.62586 0
M  V30 6461 N 601.759 -5.43367 2.04285 0
M  V30 6462 H 604.524 -1.40831 2.6455 0
M  V30 6463 H 602.085 -0.629251 1.49171 0
M  V30 6464 H 604.077 -3.71543 1.60431 0
M  V30 6465 H 602.647 -3.02205 0.799441 0
M  V30 6466 H 601.867 -2.32299 3.18482 0
M  V30 6467 H 603.155 -3.3633 3.81785 0
M  V30 6468 H 602.553 -5.47176 1.43578 0
M  V30 6469 H 601.11 -6.19605 2.02318 0
M  V30 6470 N 604.543 -1.41418 -0.695603 0
M  V30 6471 C 605.791 -1.40496 -1.45277 0
M  V30 6472 C 606.112 -0.0149538 -1.94994 0
M  V30 6473 O 605.382 0.9432 -1.71699 0
M  V30 6474 H 603.962 -0.517147 -0.539044 0
M  V30 6475 H 606.624 -1.76656 -0.823321 0
M  V30 6476 H 605.72 -2.09214 -2.31595 0
M  V30 6477 N 606.021 0.929856 -1.27246 0
M  V30 6478 C 606.951 2.04722 -1.12299 0
M  V30 6479 C 607.932 1.70082 -0.0250464 0
M  V30 6480 O 609.117 1.93176 -0.199141 0
M  V30 6481 C 606.247 3.38721 -0.767145 0
M  V30 6482 C 605.201 3.87466 -1.81808 0
M  V30 6483 C 604.527 5.18246 -1.31626 0
M  V30 6484 C 605.827 4.11095 -3.22177 0
M  V30 6485 H 607.521 2.17485 -2.05769 0
M  V30 6486 H 605.067 1.04503 -0.990715 0
M  V30 6487 H 607.02 4.16366 -0.649413 0
M  V30 6488 H 605.744 3.25967 0.203259 0
M  V30 6489 H 604.403 3.12012 -1.92468 0
M  V30 6490 H 604.051 5.01881 -0.335378 0
M  V30 6491 H 603.751 5.51829 -2.01887 0
M  V30 6492 H 605.275 5.98462 -1.21143 0
M  V30 6493 H 606.689 4.79316 -3.1453 0
M  V30 6494 H 605.086 4.55982 -3.90129 0
M  V30 6495 H 606.156 3.16468 -3.67391 0
M  V30 6496 N 607.499 1.09233 1.13605 0
M  V30 6497 C 608.745 0.828385 1.8511 0
M  V30 6498 C 609.078 -0.64437 1.83198 0
M  V30 6499 O 608.353 -1.47428 1.26867 0
M  V30 6500 C 608.636 1.36167 3.33363 0
M  V30 6501 C 608.489 2.90038 3.438 0
M  V30 6502 C 609.808 0.993819 4.28732 0
M  V30 6503 H 606.927 0.30239 0.672108 0
M  V30 6504 H 609.569 1.35339 1.33355 0
M  V30 6505 H 607.719 0.9151 3.77569 0
M  V30 6506 H 609.391 3.43128 3.08319 0
M  V30 6507 H 607.634 3.27271 2.84739 0
M  V30 6508 H 608.305 3.22428 4.48045 0
M  V30 6509 H 610.781 1.37893 3.92587 0
M  V30 6510 H 609.657 1.39403 5.30903 0
M  V30 6511 H 609.918 -0.0982206 4.41991 0
M  V30 6512 N 608.977 -1.30795 0.87923 0
M  V30 6513 C 609.887 -2.32041 0.345565 0
M  V30 6514 C 610.903 -1.65103 -0.549265 0
M  V30 6515 O 612.079 -1.9645 -0.443763 0
M  V30 6516 C 609.144 -3.43944 -0.436245 0
M  V30 6517 C 608.205 -4.26521 0.48765 0
M  V30 6518 C 607.438 -5.33081 -0.256943 0
M  V30 6519 O 607.661 -5.50762 -1.48381 0
M  V30 6520 O 606.595 -6.00635 0.389985 0
M  V30 6521 H 610.421 -2.79627 1.18501 0
M  V30 6522 H 608.006 -1.3486 0.642885 0
M  V30 6523 H 609.888 -4.12128 -0.879119 0
M  V30 6524 H 608.563 -2.98504 -1.25208 0
M  V30 6525 H 607.47 -3.61057 0.979216 0
M  V30 6526 H 608.803 -4.75551 1.26933 0
M  V30 6527 N 610.455 -0.639598 -1.44038 0
M  V30 6528 C 611.365 0.0612377 -2.3452 0
M  V30 6529 C 612.381 0.826717 -1.53106 0
M  V30 6530 O 613.557 0.777059 -1.85806 0
M  V30 6531 C 610.622 1.02492 -3.31204 0
M  V30 6532 C 609.683 0.25788 -4.28525 0
M  V30 6533 C 608.916 1.17566 -5.2059 0
M  V30 6534 O 609.139 2.41461 -5.16771 0
M  V30 6535 O 608.073 0.655407 -5.98321 0
M  V30 6536 H 611.899 -0.68318 -2.95916 0
M  V30 6537 H 609.484 -0.399784 -1.43952 0
M  V30 6538 H 611.366 1.57911 -3.90694 0
M  V30 6539 H 610.041 1.7498 -2.7233 0
M  V30 6540 H 608.948 -0.339566 -3.72556 0
M  V30 6541 H 610.281 -0.427154 -4.90343 0
M  V30 6542 N 611.933 1.52934 -0.380664 0
M  V30 6543 C 612.863 2.29118 0.450268 0
M  V30 6544 C 613.844 1.32153 1.07096 0
M  V30 6545 O 615.029 1.61038 1.08537 0
M  V30 6546 C 612.159 3.09161 1.58231 0
M  V30 6547 C 611.113 4.13938 1.0881 0
M  V30 6548 C 610.439 4.82153 2.31155 0
M  V30 6549 C 611.739 5.22048 0.162146 0
M  V30 6550 H 613.433 2.98826 -0.185361 0
M  V30 6551 H 610.979 1.43715 -0.0905886 0
M  V30 6552 H 612.932 3.61211 2.17036 0
M  V30 6553 H 611.656 2.3717 2.2454 0
M  V30 6554 H 610.315 3.62855 0.522633 0
M  V30 6555 H 609.963 4.06719 2.95953 0
M  V30 6556 H 609.663 5.52966 1.98752 0
M  V30 6557 H 611.187 5.37004 2.90618 0
M  V30 6558 H 612.601 5.6951 0.658126 0
M  V30 6559 H 610.998 6.00057 -0.0717122 0
M  V30 6560 H 612.068 4.78398 -0.791438 0
M  V30 6561 N 613.412 0.11024 1.57214 0
M  V30 6562 C 614.322 -0.857077 2.18383 0
M  V30 6563 C 615.338 -1.29915 1.1575 0
M  V30 6564 O 616.514 -1.36394 1.48184 0
M  V30 6565 C 613.579 -2.09264 2.76423 0
M  V30 6566 C 612.64 -1.70333 3.94063 0
M  V30 6567 C 611.873 -2.87999 4.49324 0
M  V30 6568 O 612.096 -4.0317 4.03497 0
M  V30 6569 O 611.03 -2.6559 5.40135 0
M  V30 6570 H 614.856 -0.366561 3.0148 0
M  V30 6571 H 612.441 -0.114914 1.48957 0
M  V30 6572 H 614.323 -2.81644 3.13456 0
M  V30 6573 H 612.998 -2.57339 1.96363 0
M  V30 6574 H 611.905 -0.950864 3.61814 0
M  V30 6575 H 613.238 -1.27007 4.75531 0
M  V30 6576 N 614.89 -1.56749 -0.16351 0
M  V30 6577 C 616.301 -1.72039 -0.725216 0
M  V30 6578 C 616.652 -0.72202 -1.82432 0
M  V30 6579 O 615.777 0.114942 -2.16095 0
M  V30 6580 C 616.372 -3.11932 -1.32227 0
M  V30 6581 C 614.931 -3.28879 -1.83072 0
M  V30 6582 C 614.078 -2.67984 -0.712716 0
M  V30 6583 H 617.029 -1.58579 0.0619772 0
M  V30 6584 H 617.05 -3.11015 -2.19202 0
M  V30 6585 H 616.562 -3.84572 -0.522103 0
M  V30 6586 H 614.663 -2.61209 -2.65708 0
M  V30 6587 H 614.776 -4.36688 -1.97079 0
M  V30 6588 H 613.14 -2.28005 -1.13515 0
M  V30 6589 H 613.923 -3.43216 0.0757361 0
M  V30 6590 N 616.368 0.432326 -1.51554 0
M  V30 6591 C 617.779 1.01202 -1.56892 0
M  V30 6592 C 618.13 1.92175 -0.395394 0
M  V30 6593 O 617.255 2.10844 0.487198 0
M  V30 6594 C 617.85 1.84217 -2.8434 0
M  V30 6595 C 616.409 2.37228 -2.92233 0
M  V30 6596 C 615.556 1.16576 -2.51606 0
M  V30 6597 H 618.507 0.213407 -1.57259 0
M  V30 6598 H 618.528 2.69721 -2.68385 0
M  V30 6599 H 618.04 1.17979 -3.69733 0
M  V30 6600 H 616.141 3.06905 -2.11282 0
M  V30 6601 H 616.254 2.69682 -3.95991 0
M  V30 6602 H 614.618 1.51263 -2.04919 0
M  V30 6603 H 615.401 0.519404 -3.39348 0
M  V30 6604 N 617.846 1.41785 0.688094 0
M  V30 6605 C 619.071 1.45117 1.48175 0
M  V30 6606 C 619.496 0.060129 1.88004 0
M  V30 6607 O 618.854 -0.938385 1.55126 0
M  V30 6608 C 618.902 2.37224 2.71583 0
M  V30 6609 O 618.006 1.83443 3.69354 0
M  V30 6610 H 617.347 0.492208 0.445676 0
M  V30 6611 H 619.877 1.86329 0.845145 0
M  V30 6612 H 619.887 2.53353 3.19806 0
M  V30 6613 H 618.562 3.38293 2.41931 0
M  V30 6614 H 617.139 1.76802 3.28322 0
M  V30 6615 N 619.324 -0.923095 1.27737 0
M  V30 6616 C 620.552 -1.70525 1.17171 0
M  V30 6617 C 620.967 -1.86847 -0.270881 0
M  V30 6618 O 620.324 -1.38879 -1.18401 0
M  V30 6619 C 620.375 -3.10242 1.85559 0
M  V30 6620 O 620.096 -2.94683 3.24182 0
M  V30 6621 C 621.597 -4.04586 1.81176 0
M  V30 6622 H 618.817 -0.533347 0.407163 0
M  V30 6623 H 621.361 -1.15599 1.68692 0
M  V30 6624 H 619.516 -3.62014 1.3793 0
M  V30 6625 H 619.93 -3.83045 3.58297 0
M  V30 6626 H 621.404 -5.00119 2.33633 0
M  V30 6627 H 621.881 -4.3218 0.782099 0
M  V30 6628 H 622.487 -3.58741 2.2844 0
M  V30 6629 N 620.802 -1.09834 -1.13024 0
M  V30 6630 C 622.027 -0.85909 -1.88771 0
M  V30 6631 C 622.452 0.584402 -1.78791 0
M  V30 6632 O 621.81 1.41101 -1.13842 0
M  V30 6633 C 621.858 -1.30427 -3.36186 0
M  V30 6634 O 620.962 -0.465368 -4.09766 0
M  V30 6635 H 620.303 -0.310786 -0.586778 0
M  V30 6636 H 622.833 -1.46355 -1.42973 0
M  V30 6637 H 622.843 -1.2915 -3.8702 0
M  V30 6638 H 621.518 -2.3555 -3.42767 0
M  V30 6639 H 620.095 -0.542814 -3.68928 0
M  V30 6640 N 622.28 1.30327 -0.886154 0
M  V30 6641 C 623.212 2.27079 -0.311072 0
M  V30 6642 C 624.225 1.53758 0.53502 0
M  V30 6643 O 625.414 1.74947 0.354378 0
M  V30 6644 C 622.514 3.33965 0.576228 0
M  V30 6645 C 621.687 4.36735 -0.241064 0
M  V30 6646 C 620.746 5.23028 0.576916 0
M  V30 6647 O 619.772 5.692 -0.000802231 0
M  V30 6648 N 620.974 5.49016 1.88579 0
M  V30 6649 H 623.739 2.77065 -1.14259 0
M  V30 6650 H 621.3 1.43519 -0.749258 0
M  V30 6651 H 623.292 3.88618 1.12953 0
M  V30 6652 H 621.862 2.839 1.30842 0
M  V30 6653 H 621.082 3.81932 -0.975805 0
M  V30 6654 H 622.37 5.02451 -0.801272 0
M  V30 6655 H 621.768 5.13288 2.37806 0
M  V30 6656 H 620.325 6.06539 2.38651 0
M  V30 6657 N 623.758 0.647228 1.43697 0
M  V30 6658 C 624.721 -0.0385101 2.29168 0
M  V30 6659 C 625.721 -0.756487 1.41894 0
M  V30 6660 O 626.911 -0.598641 1.63591 0
M  V30 6661 C 624.043 -1.06524 3.23829 0
M  V30 6662 H 625.236 0.713445 2.9129 0
M  V30 6663 H 622.789 0.408153 1.50877 0
M  V30 6664 H 623.524 -1.84664 2.66589 0
M  V30 6665 H 623.309 -0.554147 3.88164 0
M  V30 6666 H 624.799 -1.54432 3.87996 0
M  V30 6667 N 625.236 -1.5273 0.388769 0
M  V30 6668 C 626.482 -2.02545 -0.186351 0
M  V30 6669 C 626.837 -1.27017 -1.44514 0
M  V30 6670 O 626.13 -0.361948 -1.8815 0
M  V30 6671 C 626.324 -3.53765 -0.508445 0
M  V30 6672 C 626.153 -4.43938 0.71758 0
M  V30 6673 C 624.923 -4.89933 1.23668 0
M  V30 6674 C 627.121 -4.89113 1.58974 0
M  V30 6675 N 625.103 -5.64176 2.42031 0
M  V30 6676 C 626.474 -5.61931 2.61979 0
M  V30 6677 C 628.529 -4.71155 1.60989 0
M  V30 6678 C 627.232 -6.18698 3.66886 0
M  V30 6679 C 629.258 -5.28804 2.64803 0
M  V30 6680 C 628.62 -6.01527 3.6653 0
M  V30 6681 H 624.719 -0.781413 -0.0302921 0
M  V30 6682 H 627.303 -1.87104 0.538539 0
M  V30 6683 H 625.474 -3.6932 -1.20239 0
M  V30 6684 H 627.206 -3.9028 -1.07067 0
M  V30 6685 H 623.961 -4.66833 0.797763 0
M  V30 6686 H 624.385 -6.05949 3.01919 0
M  V30 6687 H 629.027 -4.14435 0.836881 0
M  V30 6688 H 626.745 -6.74501 4.45055 0
M  V30 6689 H 630.331 -5.1679 2.67245 0
M  V30 6690 H 629.211 -6.45339 4.45542 0
M  V30 6691 N 626.714 -0.118576 -1.57153 0
M  V30 6692 C 627.662 0.849114 -2.16547 0
M  V30 6693 C 628.656 1.27567 -1.11458 0
M  V30 6694 O 629.862 1.24746 -1.29763 0
M  V30 6695 H 626.237 0.291935 -0.693021 0
M  V30 6696 H 628.208 0.323693 -2.96639 0
M  V30 6697 C 626.957 2.08951 -2.77912 0
M  V30 6698 H 626.28 1.77021 -3.58474 0
M  V30 6699 H 627.72 2.74666 -3.23008 0
M  V30 6700 C 626.179 2.87899 -1.74974 0
M  V30 6701 O 626.709 3.83268 -1.20285 0
M  V30 6702 N 624.915 2.51884 -1.44924 0
M  V30 6703 H 624.462 1.74397 -1.89587 0
M  V30 6704 H 624.42 3.05003 -0.762921 0
M  V30 6705 N 628.193 1.56834 0.155195 0
M  V30 6706 C 629.604 1.72421 0.716082 0
M  V30 6707 C 629.955 0.731685 1.82046 0
M  V30 6708 O 629.08 -0.103481 2.16152 0
M  V30 6709 C 629.675 3.12629 1.30571 0
M  V30 6710 C 628.234 3.29846 1.81325 0
M  V30 6711 C 627.381 2.68359 0.698494 0
M  V30 6712 H 630.332 1.58544 -0.0703861 0
M  V30 6713 H 630.353 3.12174 2.1755 0
M  V30 6714 H 629.865 3.84844 0.501701 0
M  V30 6715 H 627.966 2.62614 2.64319 0
M  V30 6716 H 628.079 4.37727 1.9476 0
M  V30 6717 H 626.443 2.28604 1.12305 0
M  V30 6718 H 627.226 3.43171 -0.0939366 0
M  V30 6719 N 629.671 -0.424282 1.51781 0
M  V30 6720 C 631.082 -1.00368 1.57427 0
M  V30 6721 C 631.433 -1.91962 0.40558 0
M  V30 6722 O 630.558 -2.111 -0.47601 0
M  V30 6723 C 631.153 -1.82707 2.85313 0
M  V30 6724 C 629.712 -2.35675 2.93487 0
M  V30 6725 C 628.859 -1.1524 2.5222 0
M  V30 6726 H 631.81 -0.205064 1.5737 0
M  V30 6727 H 631.831 -2.68294 2.69812 0
M  V30 6728 H 631.343 -1.16017 3.70353 0
M  V30 6729 H 629.444 -3.05781 2.12906 0
M  V30 6730 H 629.557 -2.67578 3.97415 0
M  V30 6731 H 627.921 -1.50174 2.05718 0
M  V30 6732 H 628.704 -0.5014 3.39619 0
M  V30 6733 N 631.149 -1.42148 -0.680565 0
M  V30 6734 C 632.565 -1.24947 -0.992995 0
M  V30 6735 C 632.765 -0.149527 -2.00944 0
M  V30 6736 O 631.821 0.481145 -2.47873 0
M  V30 6737 C 633.134 -2.60426 -1.5033 0
M  V30 6738 C 634.682 -2.67733 -1.62137 0
M  V30 6739 C 635.157 -4.03564 -2.16565 0
M  V30 6740 N 636.648 -4.05488 -2.23905 0
M  V30 6741 C 637.383 -5.07401 -2.67081 0
M  V30 6742 N 636.879 -6.19698 -3.09751 0
M  V30 6743 N 638.672 -4.94758 -2.66778 0
M  V30 6744 H 630.823 -2.12399 -0.0074788 0
M  V30 6745 H 633.086 -0.94571 -0.0658529 0
M  V30 6746 H 632.792 -3.41743 -0.830947 0
M  V30 6747 H 632.666 -2.83949 -2.483 0
M  V30 6748 H 635.053 -1.86765 -2.2848 0
M  V30 6749 H 635.134 -2.48004 -0.626713 0
M  V30 6750 H 634.778 -4.84987 -1.50833 0
M  V30 6751 H 634.708 -4.20641 -3.1681 0
M  V30 6752 H 637.199 -3.24415 -1.93812 0
M  V30 6753 H 637.512 -6.93318 -3.41365 0
M  V30 6754 H 635.857 -6.23212 -3.07623 0
M  V30 6755 H 639.048 -4.06105 -2.32801 0
M  V30 6756 H 639.221 -5.74317 -3.00107 0
M  V30 6757 N 632.627 0.916307 -1.28225 0
M  V30 6758 C 633.59 1.99996 -1.11957 0
M  V30 6759 C 634.59 1.60688 -0.0600152 0
M  V30 6760 O 635.78 1.71499 -0.30558 0
M  V30 6761 C 632.912 3.33458 -0.708411 0
M  V30 6762 H 634.105 2.15858 -2.08196 0
M  V30 6763 H 631.658 1.09863 -1.11175 0
M  V30 6764 H 632.393 3.23297 0.254859 0
M  V30 6765 H 632.178 3.63349 -1.47377 0
M  V30 6766 H 633.668 4.13014 -0.617164 0
M  V30 6767 N 634.105 1.10431 1.1244 0
M  V30 6768 C 635.053 0.747974 2.20246 0
M  V30 6769 C 636.047 -0.255848 1.67457 0
M  V30 6770 O 637.253 -0.116221 1.79624 0
M  V30 6771 H 633.628 0.223946 0.71788 0
M  V30 6772 H 635.599 1.6661 2.47556 0
M  V30 6773 C 634.348 0.195957 3.47147 0
M  V30 6774 H 633.671 0.959606 3.88113 0
M  V30 6775 H 635.111 -0.0153154 4.23997 0
M  V30 6776 C 633.57 -1.07132 3.19413 0
M  V30 6777 O 634.1 -2.15284 3.3914 0
M  V30 6778 N 632.306 -0.98994 2.73219 0
M  V30 6779 H 631.853 -0.109736 2.57366 0
M  V30 6780 H 631.811 -1.83856 2.55038 0
M  V30 6781 N 635.583 -1.29855 0.893053 0
M  V30 6782 C 636.829 -1.96116 0.516349 0
M  V30 6783 C 637.162 -1.70281 -0.933695 0
M  V30 6784 O 636.437 -1.01205 -1.66096 0
M  V30 6785 C 636.72 -3.51068 0.801455 0
M  V30 6786 C 636.573 -3.86387 2.30272 0
M  V30 6787 C 637.892 -4.39186 0.283423 0
M  V30 6788 H 635.011 -0.712335 0.189072 0
M  V30 6789 H 637.653 -1.53587 1.11852 0
M  V30 6790 H 635.803 -3.87424 0.288949 0
M  V30 6791 H 637.475 -3.60012 2.88425 0
M  V30 6792 H 635.718 -3.34167 2.76613 0
M  V30 6793 H 636.389 -4.94512 2.45279 0
M  V30 6794 H 638.865 -4.09785 0.722187 0
M  V30 6795 H 637.741 -5.46505 0.512169 0
M  V30 6796 H 638.002 -4.34511 -0.815643 0
M  V30 6797 N 637.061 -0.65484 -1.43351 0
M  V30 6798 C 638.308 -0.168892 -2.01794 0
M  V30 6799 C 638.636 1.2177 -1.51665 0
M  V30 6800 O 637.891 1.82717 -0.70092 0
M  V30 6801 C 638.19 -0.130424 -3.57162 0
M  V30 6802 C 637.856 -1.45898 -4.26643 0
M  V30 6803 C 636.518 -1.82279 -4.4534 0
M  V30 6804 C 638.87 -2.33485 -4.65976 0
M  V30 6805 C 636.198 -3.0591 -5.00635 0
M  V30 6806 C 638.55 -3.5641 -5.22642 0
M  V30 6807 C 637.214 -3.92985 -5.39555 0
M  V30 6808 H 636.484 -0.061802 -0.738418 0
M  V30 6809 H 639.131 -0.845869 -1.71806 0
M  V30 6810 H 637.436 0.630008 -3.86702 0
M  V30 6811 H 639.133 0.262465 -4.0014 0
M  V30 6812 H 635.723 -1.16591 -4.12437 0
M  V30 6813 H 639.907 -2.06668 -4.51223 0
M  V30 6814 H 635.163 -3.34295 -5.11915 0
M  V30 6815 H 639.337 -4.24495 -5.52066 0
M  V30 6816 H 636.964 -4.88862 -5.82167 0
M  V30 6817 N 638.539 1.52521 -0.396863 0
M  V30 6818 C 639.469 2.29582 0.425941 0
M  V30 6819 C 640.45 1.33281 1.05689 0
M  V30 6820 O 641.635 1.62181 1.06823 0
M  V30 6821 C 638.765 3.10821 1.54943 0
M  V30 6822 C 637.719 4.15069 1.04413 0
M  V30 6823 C 637.045 4.84578 2.26028 0
M  V30 6824 C 638.345 5.22191 0.106767 0
M  V30 6825 H 640.039 2.98612 -0.217045 0
M  V30 6826 H 637.585 1.43611 -0.105826 0
M  V30 6827 H 639.538 3.63492 2.13193 0
M  V30 6828 H 638.262 2.39538 2.22011 0
M  V30 6829 H 636.921 3.63389 0.484118 0
M  V30 6830 H 636.569 4.09835 2.91623 0
M  V30 6831 H 636.269 5.55043 1.92876 0
M  V30 6832 H 637.793 5.40056 2.84906 0
M  V30 6833 H 639.207 5.70176 0.597685 0
M  V30 6834 H 637.604 5.99947 -0.135352 0
M  V30 6835 H 638.674 4.77531 -0.842134 0
M  V30 6836 N 640.017 0.126909 1.57088 0
M  V30 6837 C 641.245 -0.53667 1.99819 0
M  V30 6838 C 641.66 -1.5972 1.00673 0
M  V30 6839 O 641.017 -1.825 0.000747365 0
M  V30 6840 C 641.068 -1.15563 3.42531 0
M  V30 6841 O 640.789 -0.137483 4.37884 0
M  V30 6842 C 642.29 -1.90176 4.00435 0
M  V30 6843 H 639.51 -0.141443 0.655923 0
M  V30 6844 H 642.054 0.215578 2.03361 0
M  V30 6845 H 640.209 -1.85861 3.39904 0
M  V30 6846 H 640.623 -0.588229 5.21191 0
M  V30 6847 H 642.097 -2.28801 5.02349 0
M  V30 6848 H 642.574 -2.78002 3.40017 0
M  V30 6849 H 643.18 -1.24623 4.06632 0
M  V30 6850 N 641.495 -1.56914 -0.146875 0
M  V30 6851 C 642.425 -2.01308 -1.1831 0
M  V30 6852 C 643.406 -0.892664 -1.44795 0
M  V30 6853 O 644.591 -1.16048 -1.55713 0
M  V30 6854 C 641.721 -2.3938 -2.51624 0
M  V30 6855 C 640.675 -3.54608 -2.3966 0
M  V30 6856 C 640.001 -3.78493 -3.77686 0
M  V30 6857 C 641.301 -4.87269 -1.88058 0
M  V30 6858 H 642.995 -2.88123 -0.813964 0
M  V30 6859 H 640.541 -1.38615 -0.3901 0
M  V30 6860 H 642.494 -2.69037 -3.24341 0
M  V30 6861 H 641.218 -1.49502 -2.90373 0
M  V30 6862 H 639.877 -3.25116 -1.69396 0
M  V30 6863 H 639.525 -2.85866 -4.13871 0
M  V30 6864 H 639.225 -4.56039 -3.70543 0
M  V30 6865 H 640.749 -4.10576 -4.51951 0
M  V30 6866 H 642.163 -5.15644 -2.50568 0
M  V30 6867 H 640.56 -5.68622 -1.91805 0
M  V30 6868 H 641.63 -4.77634 -0.836277 0
M  V30 6869 N 642.974 0.416227 -1.52004 0
M  V30 6870 C 644.22 1.16555 -1.6596 0
M  V30 6871 C 644.553 1.90347 -0.384906 0
M  V30 6872 O 643.828 1.84474 0.616405 0
M  V30 6873 C 644.111 2.1657 -2.87696 0
M  V30 6874 C 643.964 1.46722 -4.25197 0
M  V30 6875 C 645.283 3.17321 -3.04951 0
M  V30 6876 H 642.402 0.422369 -0.603965 0
M  V30 6877 H 645.044 0.452141 -1.84542 0
M  V30 6878 H 643.194 2.77411 -2.71985 0
M  V30 6879 H 644.866 0.89056 -4.52622 0
M  V30 6880 H 643.109 0.769263 -4.26925 0
M  V30 6881 H 643.78 2.19665 -5.0641 0
M  V30 6882 H 646.256 2.66552 -3.19514 0
M  V30 6883 H 645.132 3.84573 -3.91656 0
M  V30 6884 H 645.393 3.84643 -2.17951 0
M  V30 6885 N 644.452 1.42507 0.673017 0
M  V30 6886 C 645.701 1.42364 1.42883 0
M  V30 6887 C 646.014 0.0441598 1.9555 0
M  V30 6888 O 647.22 -0.0798679 2.71382 0
M  V30 6889 C 645.676 2.5043 2.58482 0
M  V30 6890 C 645.284 3.94392 2.12506 0
M  V30 6891 C 647.028 2.59455 3.35981 0
M  V30 6892 C 644.935 4.93964 3.25198 0
M  V30 6893 H 643.865 0.52951 0.536782 0
M  V30 6894 H 646.516 1.68422 0.728448 0
M  V30 6895 H 644.898 2.1754 3.30896 0
M  V30 6896 H 646.072 4.36645 1.47233 0
M  V30 6897 H 644.387 3.89233 1.4794 0
M  V30 6898 H 646.984 3.31025 4.19912 0
M  V30 6899 H 647.327 1.63869 3.82691 0
M  V30 6900 H 647.86 2.91549 2.70637 0
M  V30 6901 H 644.599 5.91034 2.83477 0
M  V30 6902 H 644.119 4.56341 3.89247 0
M  V30 6903 H 645.798 5.15763 3.90637 0
M  V30 6904 N 645.93 -0.909495 1.28709 0
M  V30 6905 C 647.177 -1.65905 1.16111 0
M  V30 6906 C 647.505 -1.92334 -0.289436 0
M  V30 6907 O 646.76 -1.52495 -1.22653 0
M  V30 6908 C 647.059 -3.02117 1.90945 0
M  V30 6909 C 646.725 -2.95332 3.40719 0
M  V30 6910 C 645.387 -2.93189 3.81567 0
M  V30 6911 C 647.739 -2.85264 4.36204 0
M  V30 6912 C 645.067 -2.78784 5.16233 0
M  V30 6913 C 647.419 -2.724 5.70948 0
M  V30 6914 C 646.083 -2.68617 6.11066 0
M  V30 6915 H 645.353 -0.60709 0.42488 0
M  V30 6916 H 648 -1.05932 1.59533 0
M  V30 6917 H 646.305 -3.65901 1.40085 0
M  V30 6918 H 648.002 -3.59026 1.7861 0
M  V30 6919 H 644.592 -2.97797 3.08245 0
M  V30 6920 H 648.776 -2.86005 4.05605 0
M  V30 6921 H 644.032 -2.74254 5.46438 0
M  V30 6922 H 648.206 -2.63579 6.44592 0
M  V30 6923 H 645.833 -2.57213 7.15364 0
M  V30 6924 N 647.408 -1.11026 -1.11852 0
M  V30 6925 C 648.657 -0.851249 -1.82857 0
M  V30 6926 C 648.97 0.62514 -1.85341 0
M  V30 6927 O 650.176 1.00026 -2.52403 0
M  V30 6928 C 648.632 -1.47309 -3.28372 0
M  V30 6929 C 648.24 -2.9832 -3.34229 0
M  V30 6930 C 649.984 -1.29373 -4.04306 0
M  V30 6931 C 647.891 -3.53509 -4.74115 0
M  V30 6932 H 646.821 -0.314794 -0.685143 0
M  V30 6933 H 649.472 -1.33499 -1.25898 0
M  V30 6934 H 647.854 -0.917017 -3.85236 0
M  V30 6935 H 649.028 -3.60295 -2.87271 0
M  V30 6936 H 647.343 -3.15482 -2.71772 0
M  V30 6937 H 649.94 -1.68042 -5.07608 0
M  V30 6938 H 650.283 -0.235879 -4.15631 0
M  V30 6939 H 650.816 -1.8182 -3.53817 0
M  V30 6940 H 647.555 -4.58987 -4.67986 0
M  V30 6941 H 647.075 -2.96305 -5.21501 0
M  V30 6942 H 648.754 -3.51693 -5.43066 0
M  V30 6943 N 648.886 1.2938 -0.899927 0
M  V30 6944 C 649.816 2.30144 -0.39446 0
M  V30 6945 C 650.797 1.61611 0.530639 0
M  V30 6946 O 651.982 1.89119 0.441319 0
M  V30 6947 C 649.112 3.45229 0.37868 0
M  V30 6948 C 648.066 4.25564 -0.456012 0
M  V30 6949 C 647.392 5.32848 0.444637 0
M  V30 6950 C 648.692 4.93651 -1.70605 0
M  V30 6951 H 650.386 2.72673 -1.23653 0
M  V30 6952 H 647.932 1.31086 -0.596034 0
M  V30 6953 H 649.885 4.14797 0.743037 0
M  V30 6954 H 648.609 3.01545 1.25453 0
M  V30 6955 H 647.268 3.57704 -0.802704 0
M  V30 6956 H 646.916 4.85408 1.31863 0
M  V30 6957 H 646.616 5.87497 -0.110154 0
M  V30 6958 H 648.14 6.05268 0.805182 0
M  V30 6959 H 649.554 5.55655 -1.41141 0
M  V30 6960 H 647.951 5.58233 -2.20217 0
M  V30 6961 H 649.021 4.18926 -2.4419 0
M  V30 6962 N 650.364 0.662433 1.43002 0
M  V30 6963 C 651.297 -0.073459 2.28082 0
M  V30 6964 C 652.275 -0.820869 1.40358 0
M  V30 6965 O 653.459 -0.818545 1.698 0
M  V30 6966 C 650.586 -1.11097 3.19961 0
M  V30 6967 C 649.632 -0.460557 4.24006 0
M  V30 6968 S 650.465 0.772717 5.29896 0
M  V30 6969 C 651.621 -0.264028 6.25343 0
M  V30 6970 H 651.854 0.648227 2.90147 0
M  V30 6971 H 649.387 0.451566 1.47649 0
M  V30 6972 H 651.345 -1.70452 3.73439 0
M  V30 6973 H 650.006 -1.80503 2.57056 0
M  V30 6974 H 649.199 -1.24299 4.88432 0
M  V30 6975 H 648.801 0.0591038 3.73953 0
M  V30 6976 H 651.093 -1.12748 6.68052 0
M  V30 6977 H 652.036 0.345443 7.07257 0
M  V30 6978 H 652.444 -0.603964 5.6126 0
M  V30 6979 N 651.842 -1.52309 0.404946 0
M  V30 6980 C 652.789 -2.26898 -0.422597 0
M  V30 6981 C 653.759 -1.2914 -1.04461 0
M  V30 6982 O 654.944 -1.57996 -1.06967 0
M  V30 6983 C 652.084 -3.09053 -1.53559 0
M  V30 6984 C 651.197 -4.21762 -0.934908 0
M  V30 6985 C 650.332 -4.91283 -2.02025 0
M  V30 6986 C 649.371 -5.95962 -1.39628 0
M  V30 6987 N 648.508 -6.59017 -2.42159 0
M  V30 6988 H 653.348 -2.97188 0.219903 0
M  V30 6989 H 650.885 -1.46607 0.120282 0
M  V30 6990 H 652.843 -3.54987 -2.19181 0
M  V30 6991 H 651.473 -2.40942 -2.14818 0
M  V30 6992 H 650.525 -3.80029 -0.167854 0
M  V30 6993 H 651.837 -4.96864 -0.439073 0
M  V30 6994 H 650.991 -5.40601 -2.75383 0
M  V30 6995 H 649.73 -4.15741 -2.54973 0
M  V30 6996 H 648.735 -5.45968 -0.648023 0
M  V30 6997 H 649.96 -6.73445 -0.874553 0
M  V30 6998 H 647.906 -5.86306 -2.94247 0
M  V30 6999 H 647.823 -7.2978 -1.97376 0
M  V30 7000 H 649.091 -7.12974 -3.15099 0
M  V30 7001 N 653.32 -0.135238 -1.57019 0
M  V30 7002 C 654.567 0.518794 -1.95742 0
M  V30 7003 C 654.895 1.65642 -1.01947 0
M  V30 7004 O 654.15 1.95645 -0.0464016 0
M  V30 7005 C 654.449 1.07694 -3.40788 0
M  V30 7006 C 654.115 0.058992 -4.50861 0
M  V30 7007 C 652.777 -0.220872 -4.80693 0
M  V30 7008 C 655.129 -0.633856 -5.17331 0
M  V30 7009 C 652.457 -1.19959 -5.74305 0
M  V30 7010 C 654.809 -1.60131 -6.11997 0
M  V30 7011 C 653.473 -1.889 -6.40213 0
M  V30 7012 H 652.743 0.18984 -0.716269 0
M  V30 7013 H 655.39 -0.219581 -1.90237 0
M  V30 7014 H 653.695 1.89241 -3.43067 0
M  V30 7015 H 655.392 1.59137 -3.68071 0
M  V30 7016 H 651.982 0.287304 -4.27636 0
M  V30 7017 H 656.166 -0.430823 -4.94427 0
M  V30 7018 H 651.422 -1.42905 -5.94465 0
M  V30 7019 H 655.596 -2.14376 -6.62583 0
M  V30 7020 H 653.223 -2.64891 -7.12556 0
M  V30 7021 N 654.798 1.5699 0.138552 0
M  V30 7022 C 656.044 1.84966 0.846116 0
M  V30 7023 C 656.399 0.72038 1.78405 0
M  V30 7024 O 655.692 -0.281076 1.89527 0
M  V30 7025 C 655.886 3.17007 1.65049 0
M  V30 7026 C 655.715 4.42672 0.79194 0
M  V30 7027 C 654.485 5.03254 0.454293 0
M  V30 7028 C 656.683 5.14164 0.118419 0
M  V30 7029 N 654.665 6.12482 -0.416964 0
M  V30 7030 C 656.036 6.16966 -0.61263 0
M  V30 7031 C 658.091 4.97884 0.0399671 0
M  V30 7032 C 656.794 7.0525 -1.41473 0
M  V30 7033 C 658.82 5.86639 -0.748901 0
M  V30 7034 C 658.182 6.88929 -1.4682 0
M  V30 7035 H 654.281 0.727362 0.287172 0
M  V30 7036 H 656.865 1.94383 0.110972 0
M  V30 7037 H 655.036 3.08722 2.35681 0
M  V30 7038 H 656.768 3.3286 2.30187 0
M  V30 7039 H 653.523 4.6693 0.792038 0
M  V30 7040 H 653.947 6.7172 -0.843865 0
M  V30 7041 H 658.589 4.18779 0.581728 0
M  V30 7042 H 656.307 7.83777 -1.96772 0
M  V30 7043 H 659.893 5.7611 -0.811705 0
M  V30 7044 H 658.773 7.56419 -2.06882 0
M  V30 7045 N 656.276 -0.40816 1.52223 0
M  V30 7046 C 657.209 -1.51834 1.70357 0
M  V30 7047 C 658.187 -1.52973 0.551171 0
M  V30 7048 O 659.371 -1.71667 0.778642 0
M  V30 7049 C 656.498 -2.90362 1.74378 0
M  V30 7050 C 655.544 -3.0713 2.95928 0
M  V30 7051 S 656.377 -2.80342 4.56255 0
M  V30 7052 C 657.533 -4.21098 4.63063 0
M  V30 7053 H 657.766 -1.36223 2.64255 0
M  V30 7054 H 655.299 -0.599798 1.42274 0
M  V30 7055 H 657.257 -3.70199 1.77379 0
M  V30 7056 H 655.918 -3.03314 0.816063 0
M  V30 7057 H 655.111 -4.08482 2.95226 0
M  V30 7058 H 654.713 -2.3516 2.90819 0
M  V30 7059 H 657.005 -5.14749 4.40499 0
M  V30 7060 H 657.948 -4.26823 5.65002 0
M  V30 7061 H 658.356 -4.06114 3.92086 0
M  V30 7062 N 657.755 -1.42862 -0.66545 0
M  V30 7063 C 658.98 -1.47456 -1.45848 0
M  V30 7064 C 659.405 -0.0900312 -1.87884 0
M  V30 7065 O 658.763 0.913587 -1.56599 0
M  V30 7066 C 658.811 -2.41514 -2.67774 0
M  V30 7067 O 657.915 -1.89296 -3.66389 0
M  V30 7068 H 657.256 -0.499236 -0.437789 0
M  V30 7069 H 659.786 -1.8765 -0.815394 0
M  V30 7070 H 659.796 -2.58409 -3.15735 0
M  V30 7071 H 658.471 -3.42099 -2.36519 0
M  V30 7072 H 657.048 -1.82003 -3.25468 0
M  V30 7073 N 659.233 0.902656 -1.29189 0
M  V30 7074 C 660.196 1.98797 -1.14071 0
M  V30 7075 C 661.196 1.60615 -0.0770549 0
M  V30 7076 O 662.386 1.71165 -0.323753 0
M  V30 7077 C 659.518 3.32688 -0.743739 0
M  V30 7078 H 660.711 2.13637 -2.10473 0
M  V30 7079 H 658.264 1.08678 -1.12334 0
M  V30 7080 H 658.999 3.23549 0.220554 0
M  V30 7081 H 658.784 3.61765 -1.51223 0
M  V30 7082 H 660.274 4.12337 -0.660935 0
M  V30 7083 N 660.711 1.11618 1.11262 0
M  V30 7084 C 661.641 0.79846 2.19424 0
M  V30 7085 C 662.622 -0.234003 1.68483 0
M  V30 7086 O 663.807 -0.0970704 1.93957 0
M  V30 7087 C 660.937 0.242892 3.4645 0
M  V30 7088 C 659.891 1.20744 4.10615 0
M  V30 7089 C 659.217 0.512494 5.32238 0
M  V30 7090 C 660.517 2.55884 4.55325 0
M  V30 7091 H 662.211 1.70286 2.46258 0
M  V30 7092 H 659.757 0.820195 1.18359 0
M  V30 7093 H 661.71 0.00840447 4.21399 0
M  V30 7094 H 660.434 -0.696811 3.1908 0
M  V30 7095 H 659.093 1.42759 3.37662 0
M  V30 7096 H 658.741 -0.432075 5.01141 0
M  V30 7097 H 658.441 1.15583 5.7612 0
M  V30 7098 H 659.965 0.286842 6.09926 0
M  V30 7099 H 661.379 2.37946 5.21588 0
M  V30 7100 H 659.776 3.16216 5.10027 0
M  V30 7101 H 660.846 3.14968 3.68678 0
M  V30 7102 N 662.189 -1.289 0.906776 0
M  V30 7103 C 663.152 -2.25777 0.394656 0
M  V30 7104 C 664.152 -1.53621 -0.475119 0
M  V30 7105 O 665.342 -1.71949 -0.279165 0
M  V30 7106 C 662.474 -3.38113 -0.43499 0
M  V30 7107 H 663.667 -2.72592 1.25033 0
M  V30 7108 H 661.22 -1.40463 0.685547 0
M  V30 7109 H 661.955 -2.96648 -1.31036 0
M  V30 7110 H 661.74 -3.91647 0.188334 0
M  V30 7111 H 663.23 -4.10168 -0.784365 0
M  V30 7112 N 663.667 -0.670007 -1.42649 0
M  V30 7113 C 664.895 -0.19854 -2.05945 0
M  V30 7114 C 665.31 1.14243 -1.50313 0
M  V30 7115 O 664.667 1.70872 -0.641027 0
M  V30 7116 C 664.718 -0.11966 -3.61302 0
M  V30 7117 O 664.439 -1.40764 -4.1487 0
M  V30 7118 C 665.94 0.375878 -4.41704 0
M  V30 7119 H 663.16 -0.0976894 -0.663851 0
M  V30 7120 H 665.704 -0.915392 -1.82868 0
M  V30 7121 H 663.859 0.547851 -3.83507 0
M  V30 7122 H 664.273 -1.27784 -5.08696 0
M  V30 7123 H 665.747 0.379988 -5.50691 0
M  V30 7124 H 666.224 1.41028 -4.15942 0
M  V30 7125 H 666.83 -0.259727 -4.24506 0
M  V30 7126 N 665.145 1.52092 -0.413018 0
M  V30 7127 C 666.373 2.06274 0.160881 0
M  V30 7128 C 666.788 1.28273 1.38533 0
M  V30 7129 O 666.145 0.33563 1.79387 0
M  V30 7130 C 666.196 3.57921 0.507443 0
M  V30 7131 O 665.917 4.32971 -0.668388 0
M  V30 7132 C 667.418 4.28533 1.13465 0
M  V30 7133 H 664.638 0.67074 0.0186759 0
M  V30 7134 H 667.182 1.95951 -0.585092 0
M  V30 7135 H 665.337 3.68238 1.20331 0
M  V30 7136 H 665.751 5.23135 -0.378169 0
M  V30 7137 H 667.225 5.35804 1.32732 0
M  V30 7138 H 667.702 3.85258 2.10886 0
M  V30 7139 H 668.308 4.22595 0.478876 0
M  V30 7140 N 666.623 0.143563 1.56945 0
M  V30 7141 C 667.872 -0.50835 1.95189 0
M  V30 7142 C 668.185 -1.66239 1.03073 0
M  V30 7143 O 669.391 -2.3787 1.30882 0
M  V30 7144 C 667.847 -0.955735 3.46978 0
M  V30 7145 C 667.455 0.171183 4.47673 0
M  V30 7146 C 669.199 -1.57763 3.94095 0
M  V30 7147 C 667.106 -0.294279 5.90667 0
M  V30 7148 H 666.036 -0.193679 0.728701 0
M  V30 7149 H 668.687 0.227357 1.82086 0
M  V30 7150 H 667.069 -1.7466 3.55401 0
M  V30 7151 H 668.243 0.948049 4.50942 0
M  V30 7152 H 666.558 0.701273 4.10452 0
M  V30 7153 H 669.155 -1.93745 4.98364 0
M  V30 7154 H 669.498 -2.46531 3.35452 0
M  V30 7155 H 670.031 -0.851728 3.88575 0
M  V30 7156 H 666.77 0.557939 6.53121 0
M  V30 7157 H 666.29 -1.0371 5.90766 0
M  V30 7158 H 667.969 -0.747426 6.42668 0
M  V30 7159 N 668.101 -1.57061 -0.130224 0
M  V30 7160 C 669.512 -1.73539 -0.68856 0
M  V30 7161 C 669.863 -0.760554 -1.80859 0
M  V30 7162 O 668.988 0.0690796 -2.1629 0
M  V30 7163 C 669.583 -3.14666 -1.25581 0
M  V30 7164 C 668.142 -3.32689 -1.76055 0
M  V30 7165 C 667.289 -2.69436 -0.655712 0
M  V30 7166 H 670.24 -1.58412 0.0956002 0
M  V30 7167 H 670.261 -3.15595 -2.12556 0
M  V30 7168 H 669.773 -3.85593 -0.440412 0
M  V30 7169 H 667.874 -2.66786 -2.60108 0
M  V30 7170 H 667.987 -4.4077 -1.87772 0
M  V30 7171 H 666.351 -2.30362 -1.08654 0
M  V30 7172 H 667.134 -3.42979 0.14852 0
M  V30 7173 N 669.579 0.400081 -1.52437 0
M  V30 7174 C 670.825 1.14788 -1.67187 0
M  V30 7175 C 671.158 1.89928 -0.405074 0
M  V30 7176 O 670.433 1.85118 0.596804 0
M  V30 7177 C 670.716 2.13507 -2.89977 0
M  V30 7178 C 670.569 1.42204 -4.2673 0
M  V30 7179 C 671.888 3.14069 -3.083 0
M  V30 7180 H 669.007 0.415939 -0.608411 0
M  V30 7181 H 671.649 0.432542 -1.85011 0
M  V30 7182 H 669.799 2.7451 -2.74912 0
M  V30 7183 H 671.471 0.842503 -4.53541 0
M  V30 7184 H 669.714 0.723939 -4.27717 0
M  V30 7185 H 670.385 2.14281 -5.08712 0
M  V30 7186 H 672.861 2.63148 -3.22323 0
M  V30 7187 H 671.737 3.80398 -3.95713 0
M  V30 7188 H 671.998 3.82309 -2.22018 0
M  V30 7189 N 671.057 1.43213 0.657864 0
M  V30 7190 C 672.468 1.39669 1.23893 0
M  V30 7191 C 672.819 0.0984217 1.95953 0
M  V30 7192 O 671.944 -0.8023 2.00978 0
M  V30 7193 C 672.539 2.53004 2.25332 0
M  V30 7194 C 671.098 2.5274 2.78926 0
M  V30 7195 C 670.245 2.30941 1.53497 0
M  V30 7196 H 673.196 1.52181 0.450172 0
M  V30 7197 H 673.217 2.24226 3.07413 0
M  V30 7198 H 672.729 3.4748 1.72856 0
M  V30 7199 H 670.83 1.6213 3.35477 0
M  V30 7200 H 670.943 3.50352 3.26787 0
M  V30 7201 H 669.307 1.7952 1.80678 0
M  V30 7202 H 670.09 3.27496 1.02963 0
M  V30 7203 N 672.536 -0.895792 1.29666 0
M  V30 7204 C 673.776 -1.6609 1.19136 0
M  V30 7205 C 674.14 -1.90336 -0.252245 0
M  V30 7206 O 675.341 -2.64469 -0.480593 0
M  V30 7207 C 673.612 -2.97129 1.98618 0
M  V30 7208 S 675.171 -3.88146 2.04666 0
M  V30 7209 H 671.989 -0.570188 0.424744 0
M  V30 7210 H 674.591 -1.06411 1.64003 0
M  V30 7211 H 673.295 -2.77199 3.02637 0
M  V30 7212 H 672.826 -3.61847 1.54371 0
M  V30 7213 H 674.841 -4.82301 1.16618 0
M  V30 7214 N 674.014 -1.12206 -1.10668 0
M  V30 7215 C 675.262 -0.874144 -1.82217 0
M  V30 7216 C 675.583 0.601736 -1.85484 0
M  V30 7217 O 674.853 1.43725 -1.33116 0
M  V30 7218 H 673.433 -0.320404 -0.674797 0
M  V30 7219 H 676.095 -1.41606 -1.33917 0
M  V30 7220 H 675.191 -1.25349 -2.85822 0
M  V30 7221 N 675.492 1.28418 -0.913599 0
M  V30 7222 C 676.455 2.25564 -0.406624 0
M  V30 7223 C 677.455 1.5387 0.466965 0
M  V30 7224 O 678.645 1.72094 0.270042 0
M  V30 7225 C 675.777 3.38339 0.417053 0
M  V30 7226 H 676.97 2.71926 -1.26477 0
M  V30 7227 H 674.523 1.40098 -0.692986 0
M  V30 7228 H 675.258 2.97339 1.29461 0
M  V30 7229 H 675.043 3.91542 -0.209102 0
M  V30 7230 H 676.533 4.10578 0.762602 0
M  V30 7231 N 676.97 0.677563 1.42291 0
M  V30 7232 C 678.217 0.200975 2.015 0
M  V30 7233 C 678.545 -1.19342 1.53583 0
M  V30 7234 O 677.8 -1.81579 0.7299 0
M  V30 7235 C 678.099 0.187229 3.56909 0
M  V30 7236 C 677.765 1.52667 4.24268 0
M  V30 7237 C 676.427 1.89341 4.42384 0
M  V30 7238 C 678.779 2.40869 4.62203 0
M  V30 7239 C 676.107 3.13836 4.95705 0
M  V30 7240 C 678.459 3.64679 5.16906 0
M  V30 7241 C 677.123 4.01519 5.33234 0
M  V30 7242 H 676.393 0.0735418 0.737342 0
M  V30 7243 H 679.04 0.873095 1.70439 0
M  V30 7244 H 677.345 -0.568407 3.87655 0
M  V30 7245 H 679.042 -0.198773 4.00507 0
M  V30 7246 H 675.632 1.23138 4.1053 0
M  V30 7247 H 679.816 2.1382 4.47878 0
M  V30 7248 H 675.072 3.42396 5.06532 0
M  V30 7249 H 679.246 4.33224 5.45243 0
M  V30 7250 H 676.873 4.98062 5.74316 0
M  V30 7251 N 678.448 -1.51871 0.421078 0
M  V30 7252 C 679.381 -2.23851 -0.443369 0
M  V30 7253 C 680.359 -1.25142 -1.03818 0
M  V30 7254 O 681.543 -1.5423 -1.08377 0
M  V30 7255 C 678.67 -2.97637 -1.61648 0
M  V30 7256 C 677.716 -4.10873 -1.14391 0
M  V30 7257 S 678.549 -5.35408 -0.0992403 0
M  V30 7258 C 679.705 -6.12726 -1.27739 0
M  V30 7259 H 679.938 -2.96826 0.167786 0
M  V30 7260 H 677.471 -1.53027 0.205461 0
M  V30 7261 H 679.429 -3.40751 -2.28909 0
M  V30 7262 H 678.09 -2.24282 -2.199 0
M  V30 7263 H 677.283 -4.61718 -2.02069 0
M  V30 7264 H 676.885 -3.69937 -0.549775 0
M  V30 7265 H 679.177 -6.40827 -2.19881 0
M  V30 7266 H 680.12 -7.03461 -0.809239 0
M  V30 7267 H 680.528 -5.43968 -1.5086 0
M  V30 7268 N 679.926 -0.151884 -1.56866 0
M  V30 7269 C 681.337 0.368128 -1.83035 0
M  V30 7270 C 681.688 1.64402 -1.07082 0
M  V30 7271 O 680.813 2.14056 -0.317647 0
M  V30 7272 C 681.408 0.674676 -3.32014 0
M  V30 7273 C 679.967 1.13919 -3.58747 0
M  V30 7274 C 679.114 0.164833 -2.7681 0
M  V30 7275 H 682.065 -0.376499 -1.54169 0
M  V30 7276 H 682.086 1.52883 -3.48435 0
M  V30 7277 H 681.598 -0.254113 -3.87267 0
M  V30 7278 H 679.699 2.08375 -3.08886 0
M  V30 7279 H 679.812 1.06179 -4.67186 0
M  V30 7280 H 678.176 0.658419 -2.46043 0
M  V30 7281 H 678.959 -0.757633 -3.34836 0
M  V30 7282 N 681.404 1.57128 0.121893 0
M  V30 7283 C 682.65 1.84974 0.831418 0
M  V30 7284 C 682.983 0.737204 1.79663 0
M  V30 7285 O 682.258 -0.257199 1.92792 0
M  V30 7286 C 682.541 3.23397 1.58386 0
M  V30 7287 C 682.394 4.45246 0.638445 0
M  V30 7288 C 683.713 3.59355 2.54071 0
M  V30 7289 H 680.832 0.67282 0.300803 0
M  V30 7290 H 683.474 1.89759 0.0957587 0
M  V30 7291 H 681.624 3.19449 2.21098 0
M  V30 7292 H 683.296 4.61295 0.0203925 0
M  V30 7293 H 681.539 4.33771 -0.05023 0
M  V30 7294 H 682.21 5.38765 1.20151 0
M  V30 7295 H 684.686 3.64075 2.01465 0
M  V30 7296 H 683.562 4.57193 3.03752 0
M  V30 7297 H 683.823 2.86622 3.36601 0
M  V30 7298 N 682.882 -0.391992 1.52647 0
M  V30 7299 C 684.129 -1.13732 1.67545 0
M  V30 7300 C 684.457 -1.90045 0.413881 0
M  V30 7301 O 683.712 -1.86157 -0.603646 0
M  V30 7302 C 684.011 -2.14401 2.85949 0
M  V30 7303 C 683.677 -1.54767 4.23507 0
M  V30 7304 C 682.339 -1.38229 4.60919 0
M  V30 7305 C 684.691 -1.11382 5.0916 0
M  V30 7306 C 682.019 -0.7685 5.81645 0
M  V30 7307 C 684.371 -0.514143 6.30507 0
M  V30 7308 C 683.035 -0.33604 6.66654 0
M  V30 7309 H 682.305 -0.416174 0.613091 0
M  V30 7310 H 684.952 -0.422327 1.86785 0
M  V30 7311 H 683.257 -2.92108 2.61114 0
M  V30 7312 H 684.954 -2.71974 2.94671 0
M  V30 7313 H 681.544 -1.68626 3.94035 0
M  V30 7314 H 685.728 -1.22962 4.80826 0
M  V30 7315 H 680.984 -0.618681 6.08262 0
M  V30 7316 H 685.158 -0.169657 6.96193 0
M  V30 7317 H 682.785 0.14166 7.60068 0
M  V30 7318 N 684.36 -1.4356 -0.65026 0
M  V30 7319 C 685.606 -1.45549 -1.41221 0
M  V30 7320 C 685.939 -0.0805472 -1.94033 0
M  V30 7321 O 685.214 0.899043 -1.72475 0
M  V30 7322 C 685.497 -2.50028 -2.59148 0
M  V30 7323 C 685.35 -3.96808 -2.1181 0
M  V30 7324 C 686.669 -2.51212 -3.61359 0
M  V30 7325 H 683.788 -0.529967 -0.512156 0
M  V30 7326 H 686.43 -1.75127 -0.736933 0
M  V30 7327 H 684.58 -2.24937 -3.16758 0
M  V30 7328 H 686.252 -4.32966 -1.59178 0
M  V30 7329 H 684.495 -4.09498 -1.43156 0
M  V30 7330 H 685.166 -4.6553 -2.96625 0
M  V30 7331 H 687.642 -2.73583 -3.13515 0
M  V30 7332 H 686.518 -3.26252 -4.41419 0
M  V30 7333 H 686.779 -1.54701 -4.1415 0
M  V30 7334 N 685.838 0.888903 -1.30139 0
M  V30 7335 C 687.087 1.63507 -1.18103 0
M  V30 7336 C 687.4 1.93808 0.264141 0
M  V30 7337 O 688.606 2.66744 0.505966 0
M  V30 7338 C 687.062 2.94673 -2.0663 0
M  V30 7339 C 686.67 2.71926 -3.56034 0
M  V30 7340 C 688.414 3.72626 -2.03346 0
M  V30 7341 C 686.321 3.98884 -4.3663 0
M  V30 7342 H 685.251 0.613426 -0.438435 0
M  V30 7343 H 687.902 0.984427 -1.54859 0
M  V30 7344 H 686.284 3.61009 -1.62754 0
M  V30 7345 H 687.458 2.14116 -4.08033 0
M  V30 7346 H 685.773 2.07353 -3.61101 0
M  V30 7347 H 688.37 4.66775 -2.60816 0
M  V30 7348 H 688.713 4.03712 -1.016 0
M  V30 7349 H 689.246 3.13147 -2.45324 0
M  V30 7350 H 685.985 3.72959 -5.39056 0
M  V30 7351 H 685.505 4.56214 -3.89396 0
M  V30 7352 H 687.184 4.66938 -4.47859 0
M  V30 7353 N 687.317 1.12792 1.10072 0
M  V30 7354 C 688.565 0.883796 1.81751 0
M  V30 7355 C 688.886 -0.591891 1.858 0
M  V30 7356 O 688.156 -1.43017 1.33876 0
M  V30 7357 H 686.736 0.323978 0.673088 0
M  V30 7358 H 689.398 1.42314 1.33164 0
M  V30 7359 H 688.494 1.26863 2.85153 0
M  V30 7360 N 688.795 -1.27931 0.920396 0
M  V30 7361 C 689.758 -2.25345 0.41858 0
M  V30 7362 C 690.758 -1.54116 -0.458798 0
M  V30 7363 O 691.948 -1.72235 -0.260912 0
M  V30 7364 C 689.08 -3.38556 -0.399104 0
M  V30 7365 H 690.273 -2.71251 1.27918 0
M  V30 7366 H 687.826 -1.39728 0.700406 0
M  V30 7367 H 688.561 -2.98021 -1.27882 0
M  V30 7368 H 688.346 -3.91426 0.229863 0
M  V30 7369 H 689.836 -4.10976 -0.740817 0
M  V30 7370 N 690.273 -0.685099 -1.4193 0
M  V30 7371 C 691.236 -0.0222632 -2.29189 0
M  V30 7372 C 692.236 0.7186 -1.4385 0
M  V30 7373 O 693.426 0.555058 -1.6512 0
M  V30 7374 C 690.558 0.979013 -3.2654 0
M  V30 7375 H 691.751 -0.790424 -2.89296 0
M  V30 7376 H 689.304 -0.448012 -1.49742 0
M  V30 7377 H 690.039 1.77531 -2.71392 0
M  V30 7378 H 689.824 0.451037 -3.89497 0
M  V30 7379 H 691.314 1.44091 -3.91954 0
M  V30 7380 N 691.751 1.51645 -0.429126 0
M  V30 7381 C 692.998 2.02015 0.140079 0
M  V30 7382 C 693.326 1.31374 1.43427 0
M  V30 7383 O 692.581 0.414779 1.91254 0
M  V30 7384 C 692.88 3.54989 0.414472 0
M  V30 7385 C 692.546 4.43874 -0.792911 0
M  V30 7386 C 691.208 4.67887 -1.12404 0
M  V30 7387 C 693.56 4.96074 -1.59875 0
M  V30 7388 C 690.888 5.41348 -2.26184 0
M  V30 7389 C 693.24 5.70782 -2.72747 0
M  V30 7390 C 691.904 5.93062 -3.06324 0
M  V30 7391 H 691.174 0.739225 0.0512585 0
M  V30 7392 H 693.821 1.82675 -0.574641 0
M  V30 7393 H 692.126 3.72615 1.21099 0
M  V30 7394 H 693.823 3.91489 0.868173 0
M  V30 7395 H 690.413 4.25374 -0.524871 0
M  V30 7396 H 694.597 4.77412 -1.35614 0
M  V30 7397 H 689.853 5.56815 -2.52522 0
M  V30 7398 H 694.027 6.10221 -3.35564 0
M  V30 7399 H 691.654 6.49764 -3.94602 0
M  V30 7400 N 693.229 0.160201 1.56784 0
M  V30 7401 C 694.477 -0.486625 1.96154 0
M  V30 7402 C 694.798 -1.64525 1.04673 0
M  V30 7403 O 694.068 -1.95586 0.110864 0
M  V30 7404 H 692.648 -0.182764 0.724297 0
M  V30 7405 H 695.31 0.238787 1.93432 0
M  V30 7406 H 694.406 -0.854025 3.00188 0
M  V30 7407 N 694.707 -1.5719 -0.113559 0
M  V30 7408 C 696.123 -1.52607 -0.467253 0
M  V30 7409 C 696.323 -0.874058 -1.81556 0
M  V30 7410 O 695.379 -0.458703 -2.48299 0
M  V30 7411 C 696.692 -2.97363 -0.446736 0
M  V30 7412 C 698.24 -3.08482 -0.529903 0
M  V30 7413 C 698.715 -4.54809 -0.539721 0
M  V30 7414 N 700.206 -4.59284 -0.601005 0
M  V30 7415 C 700.941 -5.69927 -0.630138 0
M  V30 7416 N 700.437 -6.90051 -0.616589 0
M  V30 7417 N 702.23 -5.5805 -0.673558 0
M  V30 7418 H 694.381 -1.97958 0.769819 0
M  V30 7419 H 696.644 -0.90428 0.284572 0
M  V30 7420 H 696.35 -3.48458 0.47643 0
M  V30 7421 H 696.224 -3.55086 -1.27254 0
M  V30 7422 H 698.611 -2.57386 -1.44349 0
M  V30 7423 H 698.692 -2.53744 0.323695 0
M  V30 7424 H 698.336 -5.06552 0.369843 0
M  V30 7425 H 698.266 -5.07364 -1.41028 0
M  V30 7426 H 700.757 -3.72822 -0.617419 0
M  V30 7427 H 701.07 -7.70132 -0.641592 0
M  V30 7428 H 699.415 -6.92543 -0.583927 0
M  V30 7429 H 702.606 -4.63112 -0.681544 0
M  V30 7430 H 702.779 -6.44286 -0.692794 0
M  V30 7431 N 696.185 0.383891 -1.52853 0
M  V30 7432 C 697.115 1.47559 -1.80965 0
M  V30 7433 C 698.096 1.5669 -0.661986 0
M  V30 7434 O 699.281 1.71556 -0.910072 0
M  V30 7435 C 696.411 2.85114 -1.98312 0
M  V30 7436 C 695.365 2.9082 -3.14019 0
M  V30 7437 C 694.691 4.30873 -3.16627 0
M  V30 7438 C 695.991 2.60001 -4.52986 0
M  V30 7439 H 697.685 1.24283 -2.72386 0
M  V30 7440 H 695.231 0.596445 -1.31067 0
M  V30 7441 H 697.184 3.61496 -2.16561 0
M  V30 7442 H 695.908 3.09738 -1.03585 0
M  V30 7443 H 694.567 2.16886 -2.9556 0
M  V30 7444 H 694.215 4.52545 -2.19573 0
M  V30 7445 H 693.915 4.3561 -3.94357 0
M  V30 7446 H 695.439 5.09154 -3.37038 0
M  V30 7447 H 696.853 3.261 -4.71521 0
M  V30 7448 H 695.25 2.76081 -5.32822 0
M  V30 7449 H 696.32 1.5532 -4.59351 0
M  V30 7450 N 697.663 1.43903 0.642637 0
M  V30 7451 C 698.909 1.46296 1.40447 0
M  V30 7452 C 699.242 0.0908361 1.93987 0
M  V30 7453 O 698.517 -0.889884 1.72949 0
M  V30 7454 C 698.8 2.51399 2.57819 0
M  V30 7455 C 698.653 3.97926 2.09702 0
M  V30 7456 C 699.972 2.53125 3.60022 0
M  V30 7457 H 697.091 0.532676 0.509338 0
M  V30 7458 H 699.733 1.75515 0.727635 0
M  V30 7459 H 697.883 2.26614 3.1556 0
M  V30 7460 H 699.555 4.33804 1.5688 0
M  V30 7461 H 697.798 4.10252 1.40982 0
M  V30 7462 H 698.469 4.67096 2.94152 0
M  V30 7463 H 700.945 2.75242 3.12059 0
M  V30 7464 H 699.821 3.28589 4.39682 0
M  V30 7465 H 700.082 1.56895 4.13324 0
M  V30 7466 N 699.141 -0.881989 1.30609 0
M  V30 7467 C 700.389 -1.63082 1.19368 0
M  V30 7468 C 700.71 -1.93376 -0.251147 0
M  V30 7469 O 699.98 -1.5723 -1.16857 0
M  V30 7470 H 698.56 -0.604542 0.438791 0
M  V30 7471 H 701.222 -1.05658 1.63776 0
M  V30 7472 H 700.318 -2.57966 1.7567 0
M  V30 7473 N 700.619 -1.13374 -1.09472 0
M  V30 7474 C 701.529 -0.824029 -2.19652 0
M  V30 7475 C 702.545 0.19118 -1.72947 0
M  V30 7476 O 703.721 0.0223464 -2.01388 0
M  V30 7477 C 700.786 -0.294009 -3.45451 0
M  V30 7478 C 699.847 -1.3704 -4.0684 0
M  V30 7479 C 699.08 -0.86558 -5.26634 0
M  V30 7480 O 699.303 0.29702 -5.69626 0
M  V30 7481 O 698.237 -1.63968 -5.79136 0
M  V30 7482 H 702.063 -1.74454 -2.48595 0
M  V30 7483 H 699.648 -0.911155 -1.18399 0
M  V30 7484 H 701.53 -0.00381039 -4.214 0
M  V30 7485 H 700.205 0.598921 -3.18111 0
M  V30 7486 H 699.112 -1.71391 -3.3253 0
M  V30 7487 H 700.445 -2.23746 -4.38405 0
M  V30 7488 N 702.098 1.27442 -0.927168 0
M  V30 7489 C 703.323 1.99036 -0.583042 0
M  V30 7490 C 703.748 1.68711 0.83176 0
M  V30 7491 O 703.106 0.927081 1.55804 0
M  V30 7492 C 703.154 3.51271 -0.814925 0
M  V30 7493 O 702.258 4.12226 0.119742 0
M  V30 7494 H 701.599 0.624883 -0.224538 0
M  V30 7495 H 704.129 1.62263 -1.24628 0
M  V30 7496 H 704.139 4.01411 -0.730282 0
M  V30 7497 H 702.814 3.72676 -1.84623 0
M  V30 7498 H 701.391 3.72897 -0.0147688 0
M  V30 7499 N 703.576 0.692616 1.41565 0
M  V30 7500 C 704.509 -0.025063 2.28186 0
M  V30 7501 C 705.487 -0.790912 1.42068 0
M  V30 7502 O 706.671 -0.782344 1.71498 0
M  V30 7503 C 703.798 -1.04285 3.22246 0
M  V30 7504 C 702.844 -0.370515 4.24888 0
M  V30 7505 S 703.677 0.884942 5.28137 0
M  V30 7506 C 704.833 -0.131324 6.25762 0
M  V30 7507 H 705.066 0.709626 2.88707 0
M  V30 7508 H 702.599 0.482783 1.46658 0
M  V30 7509 H 704.557 -1.62493 3.7697 0
M  V30 7510 H 703.218 -1.7501 2.60827 0
M  V30 7511 H 702.411 -1.13911 4.90959 0
M  V30 7512 H 702.013 0.138411 3.73744 0
M  V30 7513 H 704.305 -0.985527 6.70294 0
M  V30 7514 H 705.248 0.495384 7.06365 0
M  V30 7515 H 705.656 -0.484777 5.62415 0
M  V30 7516 N 705.054 -1.51416 0.437162 0
M  V30 7517 C 706.017 -2.26312 -0.362729 0
M  V30 7518 C 707.017 -1.29748 -0.949847 0
M  V30 7519 O 708.207 -1.53462 -0.824325 0
M  V30 7520 C 705.339 -3.05475 -1.5132 0
M  V30 7521 H 706.532 -2.98459 0.29365 0
M  V30 7522 H 704.085 -1.55137 0.190327 0
M  V30 7523 H 704.82 -2.37744 -2.20563 0
M  V30 7524 H 704.605 -3.76401 -1.09838 0
M  V30 7525 H 706.095 -3.62209 -2.07833 0
M  V30 7526 N 706.532 -0.168513 -1.56696 0
M  V30 7527 C 707.495 0.748928 -2.16619 0
M  V30 7528 C 708.495 1.16007 -1.11351 0
M  V30 7529 O 709.685 1.07748 -1.3688 0
M  V30 7530 C 706.817 2.01904 -2.74677 0
M  V30 7531 H 708.01 0.227317 -2.99037 0
M  V30 7532 H 705.563 0.0810372 -1.5609 0
M  V30 7533 H 706.298 2.58381 -1.95985 0
M  V30 7534 H 706.083 1.73323 -3.51712 0
M  V30 7535 H 707.573 2.67383 -3.20774 0
M  V30 7536 N 708.01 1.57248 0.105221 0
M  V30 7537 C 709.256 1.86719 0.806692 0
M  V30 7538 C 709.611 0.758061 1.76837 0
M  V30 7539 O 708.904 -0.240812 1.90081 0
M  V30 7540 C 709.098 3.20437 1.58287 0
M  V30 7541 C 708.927 4.44252 0.697864 0
M  V30 7542 C 707.697 5.04104 0.347444 0
M  V30 7543 C 709.895 5.14299 0.00933014 0
M  V30 7544 N 707.877 6.1146 -0.546786 0
M  V30 7545 C 709.248 6.15528 -0.74336 0
M  V30 7546 C 711.303 4.97857 -0.0656505 0
M  V30 7547 C 710.006 7.02091 -1.56401 0
M  V30 7548 C 712.032 5.84919 -0.873167 0
M  V30 7549 C 711.394 6.8566 -1.61401 0
M  V30 7550 H 707.493 0.73329 0.271679 0
M  V30 7551 H 710.077 1.94575 0.0697152 0
M  V30 7552 H 708.248 3.13651 2.29079 0
M  V30 7553 H 709.98 3.37668 2.23075 0
M  V30 7554 H 706.735 4.68505 0.692817 0
M  V30 7555 H 707.159 6.69779 -0.986157 0
M  V30 7556 H 711.801 4.19919 0.492768 0
M  V30 7557 H 709.519 7.79427 -2.13353 0
M  V30 7558 H 713.105 5.74259 -0.933724 0
M  V30 7559 H 711.985 7.5186 -2.2288 0
M  V30 7560 N 709.488 -0.375779 1.53054 0
M  V30 7561 C 710.735 -1.11948 1.68742 0
M  V30 7562 C 711.063 -1.89596 0.434015 0
M  V30 7563 O 710.318 -1.86787 -0.583867 0
M  V30 7564 C 710.617 -2.11356 2.88207 0
M  V30 7565 C 710.283 -1.50266 4.25124 0
M  V30 7566 C 708.945 -1.33333 4.62359 0
M  V30 7567 C 711.297 -1.05976 5.10312 0
M  V30 7568 C 708.625 -0.706765 5.82427 0
M  V30 7569 C 710.977 -0.447241 6.31017 0
M  V30 7570 C 709.641 -0.265314 6.66973 0
M  V30 7571 H 708.911 -0.409648 0.61747 0
M  V30 7572 H 711.558 -0.402492 1.87222 0
M  V30 7573 H 709.863 -2.89322 2.64197 0
M  V30 7574 H 711.56 -2.68833 2.97539 0
M  V30 7575 H 708.15 -1.64437 3.95801 0
M  V30 7576 H 712.334 -1.17855 4.82104 0
M  V30 7577 H 707.59 -0.554132 6.08884 0
M  V30 7578 H 711.764 -0.0958064 6.96334 0
M  V30 7579 H 709.391 0.222267 7.59875 0
M  V30 7580 N 710.966 -1.44241 -0.634997 0
M  V30 7581 C 712.377 -1.41622 -1.21655 0
M  V30 7582 C 712.728 -0.129584 -1.95772 0
M  V30 7583 O 711.853 0.770225 -2.02229 0
M  V30 7584 C 712.448 -2.56557 -2.21278 0
M  V30 7585 C 711.007 -2.57145 -2.7487 0
M  V30 7586 C 710.154 -2.33354 -1.49804 0
M  V30 7587 H 713.105 -1.52878 -0.425905 0
M  V30 7588 H 713.126 -2.29089 -3.03807 0
M  V30 7589 H 712.638 -3.50186 -1.67306 0
M  V30 7590 H 710.739 -1.67447 -3.32855 0
M  V30 7591 H 710.852 -3.55507 -3.21172 0
M  V30 7592 H 709.216 -1.82372 -1.77799 0
M  V30 7593 H 709.999 -3.29092 -0.977402 0
M  V30 7594 N 712.444 0.87505 -1.31075 0
M  V30 7595 C 713.721 1.60976 -1.11113 0
M  V30 7596 C 714.101 2.08409 0.336006 0
M  V30 7597 O 713.449 1.85858 1.32924 0
M  V30 7598 C 713.659 2.77166 -2.12085 0
M  V30 7599 C 715.007 3.47254 -2.44335 0
M  V30 7600 O 716.031 2.87367 -2.10472 0
M  V30 7601 O 714.89 4.55276 -3.02301 0
M  V30 7602 H 711.984 0.707982 -0.427424 0
M  V30 7603 H 714.53 0.920957 -1.42536 0
M  V30 7604 H 713.302 2.39494 -3.09449 0
M  V30 7605 H 712.925 3.53737 -1.81538 0
M  V30 7606 N 713.922 1.13953 1.08869 0
M  V30 7607 C 715.17 0.903023 1.80803 0
M  V30 7608 C 715.491 -0.572151 1.86417 0
M  V30 7609 O 714.761 -1.41589 1.35386 0
M  V30 7610 H 713.341 0.331099 0.669614 0
M  V30 7611 H 716.003 1.43719 1.31647 0
M  V30 7612 H 715.099 1.29881 2.83791 0
M  V30 7613 N 715.4 -1.26948 0.933913 0
M  V30 7614 C 716.649 -1.93378 0.573409 0
M  V30 7615 C 716.962 -1.74148 -0.890614 0
M  V30 7616 O 718.168 -2.34971 -1.36017 0
M  V30 7617 C 716.624 -3.46449 0.974747 0
M  V30 7618 C 716.232 -3.74425 2.45988 0
M  V30 7619 C 717.976 -4.18924 0.685791 0
M  V30 7620 C 715.883 -5.209 2.8003 0
M  V30 7621 H 714.813 -0.723952 0.210736 0
M  V30 7622 H 717.464 -1.44143 1.13557 0
M  V30 7623 H 715.846 -3.94528 0.341181 0
M  V30 7624 H 717.02 -3.37079 3.14188 0
M  V30 7625 H 715.335 -3.15167 2.72138 0
M  V30 7626 H 717.932 -5.26786 0.916546 0
M  V30 7627 H 718.275 -4.14587 -0.377217 0
M  V30 7628 H 718.808 -3.76687 1.27874 0
M  V30 7629 H 715.547 -5.30332 3.85264 0
M  V30 7630 H 715.067 -5.59369 2.16485 0
M  V30 7631 H 716.746 -5.88837 2.68105 0
M  V30 7632 N 716.879 -0.700114 -1.41195 0
M  V30 7633 C 717.829 -0.0144098 -2.27995 0
M  V30 7634 C 718.813 0.748249 -1.42443 0
M  V30 7635 O 720.005 0.622995 -1.65674 0
M  V30 7636 C 717.134 0.917938 -3.308 0
M  V30 7637 C 716.22 0.151286 -4.2383 0
M  V30 7638 N 716.611 -0.85732 -4.98481 0
M  V30 7639 C 714.909 0.386108 -4.44326 0
M  V30 7640 C 715.61 -1.31663 -5.66604 0
M  V30 7641 N 714.586 -0.641689 -5.39799 0
M  V30 7642 H 718.388 -0.787662 -2.83149 0
M  V30 7643 H 715.902 -0.531344 -1.53462 0
M  V30 7644 H 717.899 1.42437 -3.91813 0
M  V30 7645 H 716.559 1.69074 -2.77208 0
M  V30 7646 H 717.57 -1.2377 -5.02893 0
M  V30 7647 H 714.247 1.13644 -4.01735 0
M  V30 7648 H 715.637 -2.15384 -6.36443 0
M  V30 7649 N 718.357 1.51182 -0.445186 0
M  V30 7650 C 719.585 2.06568 0.117091 0
M  V30 7651 C 720 1.31182 1.35781 0
M  V30 7652 O 719.357 0.373605 1.78635 0
M  V30 7653 C 719.408 3.58917 0.431408 0
M  V30 7654 O 719.129 4.31456 -0.760078 0
M  V30 7655 C 720.63 4.30843 1.0435 0
M  V30 7656 H 717.85 0.670985 0.00444436 0
M  V30 7657 H 720.394 1.94666 -0.626525 0
M  V30 7658 H 718.549 3.70708 1.12493 0
M  V30 7659 H 718.963 5.22215 -0.489048 0
M  V30 7660 H 720.437 5.38499 1.21337 0
M  V30 7661 H 720.914 3.89644 2.02667 0
M  V30 7662 H 721.52 4.23516 0.38913 0
M  V30 7663 N 719.835 0.176821 1.56605 0
M  V30 7664 C 721.112 -0.513365 1.88743 0
M  V30 7665 C 721.492 -1.80929 1.08757 0
M  V30 7666 O 720.84 -2.27765 0.183127 0
M  V30 7667 C 721.05 -0.749925 3.40848 0
M  V30 7668 C 722.398 -1.07747 4.10701 0
M  V30 7669 O 723.422 -0.838277 3.46196 0
M  V30 7670 O 722.281 -1.52901 5.24675 0
M  V30 7671 H 719.375 -0.265296 0.783292 0
M  V30 7672 H 721.921 0.215669 1.68324 0
M  V30 7673 H 720.693 0.16599 3.90948 0
M  V30 7674 H 720.316 -1.53208 3.66897 0
M  V30 7675 N 721.313 -1.57302 -0.09688 0
M  V30 7676 C 722.538 -1.9058 -0.818169 0
M  V30 7677 C 722.963 -0.770921 -1.71576 0
M  V30 7678 O 722.321 0.277588 -1.79162 0
M  V30 7679 C 722.369 -3.22714 -1.60898 0
M  V30 7680 O 721.473 -3.10178 -2.71779 0
M  V30 7681 H 720.814 -0.624759 -0.224882 0
M  V30 7682 H 723.344 -2.04471 -0.07264 0
M  V30 7683 H 723.354 -3.55978 -1.99358 0
M  V30 7684 H 722.029 -4.04899 -0.950227 0
M  V30 7685 H 720.606 -2.88424 -2.3636 0
M  V30 7686 N 722.791 0.367657 -1.53252 0
M  V30 7687 C 724.016 1.13566 -1.73544 0
M  V30 7688 C 724.441 1.82329 -0.462344 0
M  V30 7689 O 723.799 1.71655 0.583472 0
M  V30 7690 C 723.847 2.14322 -2.89997 0
M  V30 7691 O 722.951 3.21359 -2.58461 0
M  V30 7692 H 722.292 0.329614 -0.576412 0
M  V30 7693 H 724.822 0.425417 -2.00128 0
M  V30 7694 H 724.832 2.57958 -3.16104 0
M  V30 7695 H 723.507 1.63664 -3.82344 0
M  V30 7696 H 722.084 2.8271 -2.43165 0
M  V30 7697 N 724.269 1.44576 0.627338 0
M  V30 7698 C 725.497 1.51048 1.41394 0
M  V30 7699 C 725.912 0.136568 1.88305 0
M  V30 7700 O 725.269 -0.858251 1.6106 0
M  V30 7701 C 725.32 2.47837 2.63172 0
M  V30 7702 O 725.041 3.79887 2.18215 0
M  V30 7703 C 726.542 2.63811 3.56257 0
M  V30 7704 H 723.762 0.512171 0.4335 0
M  V30 7705 H 726.306 1.89576 0.766878 0
M  V30 7706 H 724.461 2.12433 3.23961 0
M  V30 7707 H 724.875 4.32177 2.97192 0
M  V30 7708 H 726.349 3.35554 4.38301 0
M  V30 7709 H 726.826 1.69169 4.05313 0
M  V30 7710 H 727.432 3.0013 3.01333 0
M  V30 7711 N 725.747 -0.868086 1.31537 0
M  V30 7712 C 726.977 -1.65162 1.24118 0
M  V30 7713 C 727.385 -1.88187 -0.195558 0
M  V30 7714 O 726.728 -1.44154 -1.13866 0
M  V30 7715 C 726.79 -3.04119 1.91708 0
M  V30 7716 C 726.454 -3.04194 3.4105 0
M  V30 7717 C 727.451 -2.82016 4.36764 0
M  V30 7718 C 725.136 -3.25256 3.82772 0
M  V30 7719 C 727.13 -2.80881 5.72175 0
M  V30 7720 C 724.817 -3.23749 5.18295 0
M  V30 7721 C 725.815 -3.01589 6.12808 0
M  V30 7722 O 725.503 -2.9993 7.45853 0
M  V30 7723 H 725.235 -0.521597 0.430015 0
M  V30 7724 H 727.789 -1.09165 1.73989 0
M  V30 7725 H 726.019 -3.61849 1.36389 0
M  V30 7726 H 727.708 -3.64701 1.78179 0
M  V30 7727 H 728.474 -2.65525 4.05859 0
M  V30 7728 H 724.353 -3.41534 3.09638 0
M  V30 7729 H 727.897 -2.63503 6.45919 0
M  V30 7730 H 723.794 -3.39781 5.48834 0
M  V30 7731 H 724.562 -3.15979 7.55049 0
M  V30 7732 N 727.225 -1.14528 -1.08264 0
M  V30 7733 C 728.641 -0.885976 -1.3275 0
M  V30 7734 C 728.841 0.472096 -1.95892 0
M  V30 7735 O 727.897 1.21606 -2.21288 0
M  V30 7736 C 729.21 -2.01982 -2.22764 0
M  V30 7737 C 730.758 -2.05329 -2.36239 0
M  V30 7738 C 731.233 -3.1801 -3.29596 0
M  V30 7739 N 732.724 -3.17598 -3.37173 0
M  V30 7740 C 733.459 -4.01426 -4.09444 0
M  V30 7741 N 732.955 -4.95297 -4.8441 0
M  V30 7742 N 734.748 -3.89482 -4.0529 0
M  V30 7743 H 726.899 -2.01996 -0.656607 0
M  V30 7744 H 729.162 -0.880274 -0.351884 0
M  V30 7745 H 728.868 -2.99964 -1.83615 0
M  V30 7746 H 728.742 -1.94421 -3.23234 0
M  V30 7747 H 731.129 -1.07953 -2.74646 0
M  V30 7748 H 731.21 -2.1696 -1.35506 0
M  V30 7749 H 730.854 -4.15633 -2.9191 0
M  V30 7750 H 730.784 -3.03616 -4.30261 0
M  V30 7751 H 733.275 -2.4961 -2.83731 0
M  V30 7752 H 733.588 -5.55723 -5.37021 0
M  V30 7753 H 731.933 -4.99293 -4.83457 0
M  V30 7754 H 735.124 -3.15465 -3.45832 0
M  V30 7755 H 735.297 -4.55039 -4.6135 0
M  V30 7756 N 728.703 1.26451 -0.940633 0
M  V30 7757 C 729.952 1.93071 -0.583656 0
M  V30 7758 C 730.265 1.74618 0.881366 0
M  V30 7759 O 731.471 2.35689 1.34769 0
M  V30 7760 C 729.927 3.45927 -0.993106 0
M  V30 7761 C 729.535 3.73115 -2.4797 0
M  V30 7762 C 731.279 4.18554 -0.707998 0
M  V30 7763 C 729.186 5.19408 -2.82788 0
M  V30 7764 H 728.116 0.722824 -0.214572 0
M  V30 7765 H 730.767 1.43538 -1.1432 0
M  V30 7766 H 729.149 3.94341 -0.362099 0
M  V30 7767 H 730.323 3.35408 -3.15971 0
M  V30 7768 H 728.638 3.13719 -2.73805 0
M  V30 7769 H 731.235 5.26293 -0.94447 0
M  V30 7770 H 731.578 4.14782 0.355225 0
M  V30 7771 H 732.111 3.76003 -1.2987 0
M  V30 7772 H 728.85 5.28281 -3.88071 0
M  V30 7773 H 728.37 5.58214 -2.19449 0
M  V30 7774 H 730.049 5.87407 -2.71224 0
M  V30 7775 N 730.181 0.707592 1.40822 0
M  V30 7776 C 731.427 0.244031 2.01326 0
M  V30 7777 C 731.76 -1.15722 1.55955 0
M  V30 7778 O 731.035 -1.78347 0.776044 0
M  V30 7779 C 731.318 0.315128 3.58718 0
M  V30 7780 C 731.171 1.75419 4.14184 0
M  V30 7781 C 732.49 -0.318251 4.38948 0
M  V30 7782 H 729.609 0.0901471 0.731466 0
M  V30 7783 H 732.251 0.898584 1.67408 0
M  V30 7784 H 730.401 -0.242176 3.87744 0
M  V30 7785 H 732.073 2.36626 3.95987 0
M  V30 7786 H 730.316 2.28449 3.68773 0
M  V30 7787 H 730.987 1.75538 5.23345 0
M  V30 7788 H 733.463 0.156514 4.15806 0
M  V30 7789 H 732.339 -0.238019 5.48384 0
M  V30 7790 H 732.6 -1.40067 4.19325 0
M  V30 7791 N 731.66 -1.50943 0.453197 0
M  V30 7792 C 733.071 -1.86699 -0.00619892 0
M  V30 7793 C 733.422 -1.3693 -1.40515 0
M  V30 7794 O 732.547 -0.726715 -2.03833 0
M  V30 7795 C 733.142 -3.38795 -0.018025 0
M  V30 7796 C 731.701 -3.74028 -0.421885 0
M  V30 7797 C 730.848 -2.74752 0.375087 0
M  V30 7798 H 733.799 -1.43942 0.668317 0
M  V30 7799 H 733.82 -3.71468 -0.824125 0
M  V30 7800 H 733.332 -3.74988 1.00028 0
M  V30 7801 H 731.433 -3.43431 -1.44521 0
M  V30 7802 H 731.546 -4.78908 -0.135664 0
M  V30 7803 H 729.91 -2.5414 -0.168794 0
M  V30 7804 H 730.693 -3.13787 1.39256 0
M  V30 7805 N 733.138 -0.185124 -1.56509 0
M  V30 7806 C 734.386 0.455357 -1.96903 0
M  V30 7807 C 734.707 1.62839 -1.07277 0
M  V30 7808 O 733.977 1.95385 -0.141966 0
M  V30 7809 H 732.557 0.171218 -0.727113 0
M  V30 7810 H 735.219 -0.26953 -1.93027 0
M  V30 7811 H 734.315 0.80616 -3.01509 0
M  V30 7812 N 734.616 1.57351 0.0885366 0
M  V30 7813 C 735.864 1.86051 0.789262 0
M  V30 7814 C 736.185 0.774763 1.78948 0
M  V30 7815 O 735.455 -0.198324 1.94894 0
M  V30 7816 H 734.035 0.686508 0.294475 0
M  V30 7817 H 736.697 1.94779 0.0686055 0
M  V30 7818 H 735.793 2.83007 1.31581 0
M  V30 7819 N 736.094 -0.359525 1.53444 0
M  V30 7820 C 737.324 -1.12036 1.73585 0
M  V30 7821 C 737.732 -1.83335 0.467438 0
M  V30 7822 O 737.075 -1.74641 -0.569753 0
M  V30 7823 C 737.137 -2.19036 2.85068 0
M  V30 7824 C 736.801 -1.67451 4.25217 0
M  V30 7825 C 737.798 -1.13534 5.07352 0
M  V30 7826 C 735.483 -1.72781 4.71648 0
M  V30 7827 C 737.477 -0.656321 6.34012 0
M  V30 7828 C 735.164 -1.2449 5.98285 0
M  V30 7829 C 736.162 -0.710068 6.79299 0
M  V30 7830 O 735.85 -0.234314 8.03558 0
M  V30 7831 H 735.582 -0.340662 0.583888 0
M  V30 7832 H 738.136 -0.422452 2.01009 0
M  V30 7833 H 736.366 -2.92338 2.53131 0
M  V30 7834 H 738.055 -2.80559 2.93328 0
M  V30 7835 H 738.821 -1.08751 4.7265 0
M  V30 7836 H 734.7 -2.13351 4.08659 0
M  V30 7837 H 738.244 -0.238193 6.97193 0
M  V30 7838 H 734.141 -1.28969 6.32485 0
M  V30 7839 H 734.909 -0.353084 8.17738 0
M  V30 7840 N 737.572 -1.44907 -0.619662 0
M  V30 7841 C 738.535 -1.52282 -1.71297 0
M  V30 7842 C 739.535 -0.40359 -1.55653 0
M  V30 7843 O 740.725 -0.666638 -1.6094 0
M  V30 7844 C 737.857 -1.40778 -3.10474 0
M  V30 7845 H 739.05 -2.49683 -1.66128 0
M  V30 7846 H 736.603 -1.32168 -0.834339 0
M  V30 7847 H 737.338 -0.445156 -3.2123 0
M  V30 7848 H 737.123 -2.21947 -3.23237 0
M  V30 7849 H 738.613 -1.48946 -3.90135 0
M  V30 7850 N 739.05 0.861098 -1.31996 0
M  V30 7851 C 740.296 1.61721 -1.22369 0
M  V30 7852 C 740.629 1.93 0.215587 0
M  V30 7853 O 739.904 1.56789 1.15098 0
M  V30 7854 C 740.187 2.9417 -2.07691 0
M  V30 7855 C 740.04 2.69714 -3.59965 0
M  V30 7856 C 741.359 3.95372 -1.93312 0
M  V30 7857 H 738.478 0.586822 -0.44588 0
M  V30 7858 H 741.12 0.994788 -1.61876 0
M  V30 7859 H 739.27 3.47292 -1.74128 0
M  V30 7860 H 740.942 2.23196 -4.03709 0
M  V30 7861 H 739.185 2.03789 -3.82952 0
M  V30 7862 H 739.856 3.63996 -4.14983 0
M  V30 7863 H 742.332 3.51487 -2.22701 0
M  V30 7864 H 741.208 4.85916 -2.55298 0
M  V30 7865 H 741.469 4.32865 -0.898922 0
M  V30 7866 N 740.528 1.15101 1.07655 0
M  V30 7867 C 741.774 0.925343 1.80458 0
M  V30 7868 C 742.107 -0.546354 1.86356 0
M  V30 7869 O 741.382 -1.40496 1.34503 0
M  V30 7870 C 741.665 1.53646 3.25676 0
M  V30 7871 C 741.518 3.07854 3.27942 0
M  V30 7872 C 742.837 1.21968 4.22861 0
M  V30 7873 H 739.956 0.337592 0.655134 0
M  V30 7874 H 742.598 1.42217 1.25993 0
M  V30 7875 H 740.748 1.11395 3.72187 0
M  V30 7876 H 742.42 3.58989 2.89697 0
M  V30 7877 H 740.663 3.41904 2.66991 0
M  V30 7878 H 741.334 3.45725 4.30324 0
M  V30 7879 H 743.81 1.5851 3.84726 0
M  V30 7880 H 742.686 1.67349 5.22767 0
M  V30 7881 H 742.947 0.136207 4.4189 0
M  V30 7882 N 742.006 -1.2595 0.947325 0
M  V30 7883 C 743.254 -1.93081 0.596996 0
M  V30 7884 C 743.575 -1.74632 -0.867672 0
M  V30 7885 O 742.845 -1.1056 -1.6172 0
M  V30 7886 H 741.425 -0.714542 0.217805 0
M  V30 7887 H 744.087 -1.53265 1.20398 0
M  V30 7888 H 743.183 -3.01134 0.82004 0
M  V30 7889 N 743.484 -0.715051 -1.40445 0
M  V30 7890 C 744.447 -0.0708726 -2.2909 0
M  V30 7891 C 745.447 0.687926 -1.45342 0
M  V30 7892 O 746.637 0.519908 -1.66261 0
M  V30 7893 C 743.769 0.909528 -3.28543 0
M  V30 7894 H 744.962 -0.851611 -2.87555 0
M  V30 7895 H 742.515 -0.479674 -1.48758 0
M  V30 7896 H 743.25 1.71734 -2.75096 0
M  V30 7897 H 743.035 0.368318 -3.90366 0
M  V30 7898 H 744.525 1.35744 -3.94922 0
M  V30 7899 N 744.962 1.50701 -0.461195 0
M  V30 7900 C 745.925 2.2686 0.326679 0
M  V30 7901 C 746.925 1.31243 0.929085 0
M  V30 7902 O 748.115 1.54754 0.799807 0
M  V30 7903 C 745.247 3.07844 1.46441 0
M  V30 7904 H 746.44 2.97954 -0.341095 0
M  V30 7905 H 743.993 1.54814 -0.214984 0
M  V30 7906 H 744.728 2.41223 2.16753 0
M  V30 7907 H 744.513 3.78101 1.03836 0
M  V30 7908 H 746.003 3.65469 2.02044 0
M  V30 7909 N 746.441 0.193421 1.56409 0
M  V30 7910 C 747.404 -0.714371 2.17783 0
M  V30 7911 C 748.404 -1.1422 1.13183 0
M  V30 7912 O 749.594 -1.05557 1.38576 0
M  V30 7913 C 746.726 -1.97509 2.77855 0
M  V30 7914 H 747.919 -0.179714 2.99361 0
M  V30 7915 H 745.472 -0.0561944 1.56199 0
M  V30 7916 H 746.207 -2.5523 2.0007 0
M  V30 7917 H 745.992 -1.67706 3.54425 0
M  V30 7918 H 747.482 -2.62246 3.24987 0
M  V30 7919 N 747.919 -1.57396 -0.0801906 0
M  V30 7920 C 748.849 -2.06145 -1.09665 0
M  V30 7921 C 749.83 -0.953273 -1.40878 0
M  V30 7922 O 751.015 -1.22548 -1.50651 0
M  V30 7923 C 748.145 -2.49836 -2.41245 0
M  V30 7924 C 747.099 -3.64454 -2.24405 0
M  V30 7925 C 746.425 -3.94172 -3.61293 0
M  V30 7926 C 747.725 -4.94807 -1.67223 0
M  V30 7927 H 749.419 -2.91316 -0.691028 0
M  V30 7928 H 746.965 -1.40145 -0.330957 0
M  V30 7929 H 748.918 -2.82552 -3.12638 0
M  V30 7930 H 747.642 -1.61683 -2.83771 0
M  V30 7931 H 746.301 -3.32008 -1.55454 0
M  V30 7932 H 745.949 -3.03163 -4.01374 0
M  V30 7933 H 745.649 -4.71345 -3.50867 0
M  V30 7934 H 747.173 -4.29376 -4.3413 0
M  V30 7935 H 748.587 -5.25807 -2.28472 0
M  V30 7936 H 746.984 -5.76245 -1.67515 0
M  V30 7937 H 748.054 -4.80751 -0.632944 0
M  V30 7938 N 749.397 0.351382 -1.53633 0
M  V30 7939 C 750.36 1.41403 -1.80383 0
M  V30 7940 C 751.36 1.45963 -0.674635 0
M  V30 7941 O 752.55 1.46476 -0.942895 0
M  V30 7942 C 749.682 2.80401 -1.93876 0
M  V30 7943 H 750.875 1.18951 -2.75301 0
M  V30 7944 H 748.428 0.58533 -1.44926 0
M  V30 7945 H 749.163 3.08147 -1.01074 0
M  V30 7946 H 748.948 2.78488 -2.7602 0
M  V30 7947 H 750.438 3.57329 -2.16116 0
M  V30 7948 N 750.875 1.45233 0.611969 0
M  V30 7949 C 752.123 1.48727 1.36838 0
M  V30 7950 C 752.444 0.128616 1.94575 0
M  V30 7951 O 751.714 -0.84149 1.76906 0
M  V30 7952 H 750.294 0.547695 0.507976 0
M  V30 7953 H 752.956 1.81156 0.718925 0
M  V30 7954 H 752.052 2.2236 2.19003 0
M  V30 7955 N 752.353 -0.854086 1.3245 0
M  V30 7956 C 753.316 -1.94427 1.21371 0
M  V30 7957 C 754.316 -1.60219 0.136613 0
M  V30 7958 O 755.506 -1.69846 0.387057 0
M  V30 7959 C 752.638 -3.29698 0.866701 0
M  V30 7960 H 753.831 -2.05679 2.18257 0
M  V30 7961 H 751.384 -1.04434 1.1629 0
M  V30 7962 H 752.119 -3.24145 -0.100319 0
M  V30 7963 H 751.904 -3.55903 1.64545 0
M  V30 7964 H 753.394 -4.09599 0.813515 0
M  V30 7965 N 753.831 -1.1567 -1.07043 0
M  V30 7966 C 755.077 -0.9349 -1.79965 0
M  V30 7967 C 755.41 0.536464 -1.86643 0
M  V30 7968 O 754.685 1.39781 -1.35247 0
M  V30 7969 C 754.968 -1.55371 -3.24857 0
M  V30 7970 C 754.821 -3.09589 -3.26305 0
M  V30 7971 C 756.14 -1.24209 -4.22209 0
M  V30 7972 H 753.259 -0.341061 -0.653335 0
M  V30 7973 H 755.901 -1.42883 -1.25237 0
M  V30 7974 H 754.051 -1.13368 -3.71591 0
M  V30 7975 H 755.723 -3.60521 -2.87789 0
M  V30 7976 H 753.966 -3.43315 -2.65174 0
M  V30 7977 H 754.637 -3.48002 -4.28484 0
M  V30 7978 H 757.113 -1.60548 -3.8388 0
M  V30 7979 H 755.989 -1.70119 -5.21872 0
M  V30 7980 H 756.25 -0.15964 -4.41812 0
M  V30 7981 N 755.309 1.25446 -0.953992 0
M  V30 7982 C 756.537 1.97215 -0.625595 0
M  V30 7983 C 756.952 1.70911 0.802168 0
M  V30 7984 O 756.309 0.984782 1.5365 0
M  V30 7985 C 756.36 3.50777 -0.873943 0
M  V30 7986 O 756.081 3.76173 -2.24556 0
M  V30 7987 C 757.582 4.39776 -0.557845 0
M  V30 7988 H 754.802 0.628652 -0.2346 0
M  V30 7989 H 757.346 1.59632 -1.27819 0
M  V30 7990 H 755.501 3.86474 -0.267765 0
M  V30 7991 H 755.915 4.70636 -2.31522 0
M  V30 7992 H 757.389 5.46431 -0.782157 0
M  V30 7993 H 757.866 4.36257 0.507573 0
M  V30 7994 H 758.472 4.09644 -1.14332 0
M  V30 7995 N 756.787 0.722489 1.40064 0
M  V30 7996 C 757.737 0.0506801 2.27944 0
M  V30 7997 C 758.721 -0.725493 1.43615 0
M  V30 7998 O 759.913 -0.596559 1.66644 0
M  V30 7999 C 757.042 -0.865195 3.32219 0
M  V30 8000 C 756.128 -0.0838393 4.24017 0
M  V30 8001 N 756.519 0.936516 4.97054 0
M  V30 8002 C 754.817 -0.315371 4.44884 0
M  V30 8003 C 755.518 1.4066 5.64437 0
M  V30 8004 N 754.494 0.727485 5.3871 0
M  V30 8005 H 758.296 0.832609 2.8186 0
M  V30 8006 H 755.81 0.555691 1.52597 0
M  V30 8007 H 757.807 -1.36186 3.94029 0
M  V30 8008 H 756.467 -1.64642 2.79862 0
M  V30 8009 H 757.478 1.31755 5.0086 0
M  V30 8010 H 754.155 -1.07238 4.03492 0
M  V30 8011 H 755.545 2.25482 6.32936 0
M  V30 8012 N 758.265 -1.50454 0.469181 0
M  V30 8013 C 759.493 -2.06729 -0.0842134 0
M  V30 8014 C 759.908 -1.33326 -1.33677 0
M  V30 8015 O 759.265 -0.401977 -1.78018 0
M  V30 8016 C 759.316 -3.59557 -0.374253 0
M  V30 8017 O 759.037 -4.30192 0.828622 0
M  V30 8018 C 760.538 -4.32449 -0.974824 0
M  V30 8019 H 757.758 -0.670971 0.006231 0
M  V30 8020 H 760.302 -1.93645 0.657415 0
M  V30 8021 H 758.457 -3.7245 -1.06581 0
M  V30 8022 H 758.871 -5.21371 0.572066 0
M  V30 8023 H 760.345 -5.40361 -1.12755 0
M  V30 8024 H 760.822 -3.92819 -1.96442 0
M  V30 8025 H 761.428 -4.24082 -0.321703 0
M  V30 8026 N 759.743 -0.201713 -1.56304 0
M  V30 8027 C 760.989 0.435952 -1.98059 0
M  V30 8028 C 761.322 1.60811 -1.08873 0
M  V30 8029 O 760.597 1.9398 -0.142128 0
M  V30 8030 C 760.88 0.889706 -3.48936 0
M  V30 8031 C 760.733 -0.284725 -4.48898 0
M  V30 8032 C 762.052 1.7529 -4.03685 0
M  V30 8033 H 759.171 0.15699 -0.720085 0
M  V30 8034 H 761.813 -0.293965 -1.87712 0
M  V30 8035 H 759.963 1.51166 -3.57884 0
M  V30 8036 H 761.635 -0.922531 -4.51981 0
M  V30 8037 H 759.878 -0.935427 -4.23594 0
M  V30 8038 H 760.549 0.0753865 -5.51949 0
M  V30 8039 H 763.025 1.2283 -3.97558 0
M  V30 8040 H 761.901 2.03933 -5.0961 0
M  V30 8041 H 762.162 2.70939 -3.49348 0
M  V30 8042 N 761.222 1.57436 0.0718424 0
M  V30 8043 C 762.447 1.91858 0.787745 0
M  V30 8044 C 762.872 0.798119 1.70328 0
M  V30 8045 O 762.23 -0.24905 1.79581 0
M  V30 8046 C 762.278 3.25232 1.55744 0
M  V30 8047 O 761.382 3.14462 2.6681 0
M  V30 8048 H 760.723 0.628258 0.214914 0
M  V30 8049 H 763.253 2.04561 0.0401012 0
M  V30 8050 H 763.263 3.59105 1.9367 0
M  V30 8051 H 761.938 4.0636 0.885691 0
M  V30 8052 H 760.515 2.92148 2.31741 0
M  V30 8053 N 762.7 -0.34323 1.53817 0
M  V30 8054 C 763.928 -1.10348 1.75017 0
M  V30 8055 C 764.343 -1.82345 0.489475 0
M  V30 8056 O 763.7 -1.74362 -0.538886 0
M  V30 8057 C 763.751 -2.11672 2.93048 0
M  V30 8058 O 763.472 -1.42603 4.14241 0
M  V30 8059 C 764.973 -3.0007 3.26301 0
M  V30 8060 H 762.193 -0.329056 0.584776 0
M  V30 8061 H 764.737 -0.395339 2.00642 0
M  V30 8062 H 762.892 -2.78051 2.69753 0
M  V30 8063 H 763.306 -2.10294 4.80496 0
M  V30 8064 H 764.78 -3.67101 4.12239 0
M  V30 8065 H 765.257 -3.66105 2.42618 0
M  V30 8066 H 765.863 -2.3928 3.51604 0
M  V30 8067 N 764.178 -1.45556 -0.604258 0
M  V30 8068 C 765.141 -1.54091 -1.69672 0
M  V30 8069 C 766.141 -0.420076 -1.55216 0
M  V30 8070 O 767.331 -0.683671 -1.60224 0
M  V30 8071 C 764.463 -1.44063 -3.08964 0
M  V30 8072 H 765.656 -2.51431 -1.6347 0
M  V30 8073 H 763.209 -1.33046 -0.820273 0
M  V30 8074 H 763.944 -0.479201 -3.2074 0
M  V30 8075 H 763.729 -2.25362 -3.20865 0
M  V30 8076 H 765.219 -1.53075 -3.88533 0
M  V30 8077 N 765.656 0.84705 -1.32902 0
M  V30 8078 C 766.902 1.60414 -1.24078 0
M  V30 8079 C 767.235 1.93217 0.195105 0
M  V30 8080 O 766.51 1.58001 1.13428 0
M  V30 8081 C 766.793 2.91951 -2.108 0
M  V30 8082 C 766.646 2.6588 -3.62805 0
M  V30 8083 C 767.965 3.93299 -1.97494 0
M  V30 8084 H 765.084 0.58206 -0.452079 0
M  V30 8085 H 767.726 0.977562 -1.62922 0
M  V30 8086 H 765.876 3.45425 -1.77802 0
M  V30 8087 H 767.548 2.18902 -4.06054 0
M  V30 8088 H 765.791 1.99716 -3.85092 0
M  V30 8089 H 766.462 3.59574 -4.1882 0
M  V30 8090 H 768.938 3.49105 -2.26417 0
M  V30 8091 H 767.814 4.8318 -2.60438 0
M  V30 8092 H 768.075 4.31887 -0.944782 0
M  V30 8093 N 767.134 1.16236 1.06428 0
M  V30 8094 C 768.383 0.937523 1.78587 0
M  V30 8095 C 768.696 -0.536 1.88113 0
M  V30 8096 O 769.902 -0.878697 2.56887 0
M  V30 8097 C 768.358 1.62808 3.2097 0
M  V30 8098 C 767.966 3.13927 3.19615 0
M  V30 8099 C 769.71 1.48515 3.97673 0
M  V30 8100 C 767.617 3.75727 4.56709 0
M  V30 8101 H 766.547 0.347125 0.669343 0
M  V30 8102 H 769.198 1.39353 1.19385 0
M  V30 8103 H 767.58 1.09977 3.80422 0
M  V30 8104 H 768.754 3.7359 2.69753 0
M  V30 8105 H 767.069 3.28089 2.56411 0
M  V30 8106 H 769.666 1.92069 4.99013 0
M  V30 8107 H 770.009 0.433913 4.14032 0
M  V30 8108 H 770.542 1.98494 3.44739 0
M  V30 8109 H 767.281 4.80793 4.45554 0
M  V30 8110 H 766.801 3.20849 5.0677 0
M  V30 8111 H 768.48 3.77203 5.25668 0
M  V30 8112 N 768.612 -1.24939 0.960631 0
M  V30 8113 C 769.858 -1.93104 0.61958 0
M  V30 8114 C 770.191 -1.74991 -0.84212 0
M  V30 8115 O 769.466 -1.09867 -1.60498 0
M  V30 8116 C 769.749 -3.46326 0.986422 0
M  V30 8117 C 769.602 -3.73638 2.50429 0
M  V30 8118 C 770.921 -4.37067 0.515827 0
M  V30 8119 H 768.04 -0.701311 0.226566 0
M  V30 8120 H 770.682 -1.47442 1.19836 0
M  V30 8121 H 768.832 -3.85348 0.493907 0
M  V30 8122 H 770.504 -3.44217 3.07103 0
M  V30 8123 H 768.747 -3.19035 2.93937 0
M  V30 8124 H 769.418 -4.80815 2.71147 0
M  V30 8125 H 771.894 -4.05381 0.938389 0
M  V30 8126 H 770.77 -5.43022 0.80114 0
M  V30 8127 H 771.031 -4.38224 -0.584171 0
M  V30 8128 N 770.09 -0.729906 -1.39679 0
M  V30 8129 C 771.337 -0.275622 -2.00615 0
M  V30 8130 C 771.665 1.13559 -1.57907 0
M  V30 8131 O 770.92 1.78745 -0.796789 0
M  V30 8132 C 771.219 -0.319564 -3.55968 0
M  V30 8133 C 770.885 -1.68308 -4.1831 0
M  V30 8134 C 769.547 -2.05629 -4.35052 0
M  V30 8135 C 771.899 -2.57857 -4.52945 0
M  V30 8136 C 769.227 -3.32018 -4.83716 0
M  V30 8137 C 771.579 -3.83613 -5.03015 0
M  V30 8138 C 770.243 -4.21033 -5.17965 0
M  V30 8139 H 769.513 -0.100857 -0.734104 0
M  V30 8140 H 772.16 -0.93575 -1.67081 0
M  V30 8141 H 770.465 0.42414 -3.89497 0
M  V30 8142 H 772.162 0.0499905 -4.00969 0
M  V30 8143 H 768.752 -1.3829 -4.05677 0
M  V30 8144 H 772.936 -2.30295 -4.39634 0
M  V30 8145 H 768.192 -3.6096 -4.93475 0
M  V30 8146 H 772.366 -4.53162 -5.28788 0
M  V30 8147 H 769.993 -5.19034 -5.55435 0
M  V30 8148 N 771.568 1.50203 -0.477153 0
M  V30 8149 C 772.478 2.32421 0.319027 0
M  V30 8150 C 773.494 1.43075 0.990233 0
M  V30 8151 O 774.67 1.76123 0.976873 0
M  V30 8152 C 771.735 3.17909 1.38328 0
M  V30 8153 C 770.796 4.23082 0.728036 0
M  V30 8154 C 770.029 5.04484 1.74158 0
M  V30 8155 O 770.252 4.8705 2.96881 0
M  V30 8156 O 769.186 5.8747 1.31006 0
M  V30 8157 H 773.012 3.01638 -0.353281 0
M  V30 8158 H 770.597 1.47478 -0.238891 0
M  V30 8159 H 772.479 3.70937 1.9996 0
M  V30 8160 H 771.154 2.51413 2.03895 0
M  V30 8161 H 770.061 3.7403 0.07261 0
M  V30 8162 H 771.394 4.92065 0.115216 0
M  V30 8163 N 773.046 0.209999 1.56195 0
M  V30 8164 C 773.976 -0.699746 2.22769 0
M  V30 8165 C 774.957 -1.20993 1.1956 0
M  V30 8166 O 776.142 -1.25605 1.48112 0
M  V30 8167 C 773.272 -1.91302 2.89863 0
M  V30 8168 C 772.226 -1.53715 3.99444 0
M  V30 8169 C 771.552 -2.82826 4.53777 0
M  V30 8170 C 772.852 -0.735836 5.17091 0
M  V30 8171 H 774.546 -0.144716 2.9905 0
M  V30 8172 H 772.092 -0.0681645 1.43839 0
M  V30 8173 H 774.045 -2.5548 3.35124 0
M  V30 8174 H 772.769 -2.49283 2.11011 0
M  V30 8175 H 771.428 -0.918892 3.54897 0
M  V30 8176 H 771.076 -3.38927 3.71669 0
M  V30 8177 H 770.776 -2.58415 5.27727 0
M  V30 8178 H 772.3 -3.47966 5.01749 0
M  V30 8179 H 773.714 -1.28105 5.58804 0
M  V30 8180 H 772.111 -0.589272 5.972 0
M  V30 8181 H 773.181 0.260004 4.84202 0
M  V30 8182 N 774.524 -1.57472 -0.0634922 0
M  V30 8183 C 775.752 -1.91887 -0.773767 0
M  V30 8184 C 776.167 -0.806733 -1.70696 0
M  V30 8185 O 775.524 0.219383 -1.81177 0
M  V30 8186 C 775.575 -3.26092 -1.56034 0
M  V30 8187 O 775.296 -4.33029 -0.66464 0
M  V30 8188 C 776.797 -3.74573 -2.37087 0
M  V30 8189 H 774.017 -0.634074 -0.219525 0
M  V30 8190 H 776.561 -2.04476 -0.0312828 0
M  V30 8191 H 774.716 -3.15004 -2.25502 0
M  V30 8192 H 775.13 -5.10291 -1.21258 0
M  V30 8193 H 776.604 -4.71084 -2.87722 0
M  V30 8194 H 777.081 -3.04003 -3.16984 0
M  V30 8195 H 777.687 -3.88631 -1.72759 0
M  V30 8196 N 776.003 0.335068 -1.53997 0
M  V30 8197 C 777.251 1.07223 -1.71312 0
M  V30 8198 C 777.572 1.88911 -0.483486 0
M  V30 8199 O 776.842 1.89344 0.50257 0
M  V30 8200 H 775.422 0.398846 -0.63161 0
M  V30 8201 H 778.084 0.374288 -1.91272 0
M  V30 8202 H 777.18 1.7448 -2.58772 0
M  V30 8203 N 777.481 1.45874 0.596531 0
M  V30 8204 C 778.413 1.51408 1.7207 0
M  V30 8205 C 779.426 0.403738 1.57714 0
M  V30 8206 O 780.615 0.671384 1.65393 0
M  V30 8207 C 777.715 1.3652 3.10186 0
M  V30 8208 C 776.888 2.61428 3.50677 0
M  V30 8209 C 775.947 2.40937 4.67799 0
M  V30 8210 O 774.973 3.14602 4.74357 0
M  V30 8211 N 776.175 1.4621 5.61785 0
M  V30 8212 H 778.94 2.48333 1.67782 0
M  V30 8213 H 776.501 1.41755 0.782129 0
M  V30 8214 H 778.493 1.20606 3.86311 0
M  V30 8215 H 777.063 0.478302 3.08919 0
M  V30 8216 H 776.283 2.92381 2.644 0
M  V30 8217 H 777.571 3.44432 3.74491 0
M  V30 8218 H 776.969 0.854382 5.59211 0
M  V30 8219 H 775.526 1.36264 6.37397 0
M  V30 8220 N 778.959 -0.83999 1.33349 0
M  V30 8221 C 780.208 -1.59011 1.2409 0
M  V30 8222 C 780.521 -1.94655 -0.192029 0
M  V30 8223 O 781.727 -2.68438 -0.406617 0
M  V30 8224 C 780.183 -2.86801 2.17425 0
M  V30 8225 C 779.791 -2.58525 3.65881 0
M  V30 8226 C 781.535 -3.64823 2.17036 0
M  V30 8227 C 779.442 -3.82404 4.51133 0
M  V30 8228 H 778.372 -0.596731 0.460899 0
M  V30 8229 H 781.023 -0.926274 1.58406 0
M  V30 8230 H 779.405 -3.54719 1.7604 0
M  V30 8231 H 780.579 -1.98824 4.15699 0
M  V30 8232 H 778.894 -1.93808 3.68548 0
M  V30 8233 H 781.491 -4.56774 2.7796 0
M  V30 8234 H 781.834 -3.99663 1.16513 0
M  V30 8235 H 782.367 -3.03826 2.56777 0
M  V30 8236 H 779.106 -3.52696 5.52527 0
M  V30 8237 H 778.626 -4.41447 4.0606 0
M  V30 8238 H 780.305 -4.49995 4.6488 0
M  V30 8239 N 780.437 -1.16799 -1.0581 0
M  V30 8240 C 781.4 -0.881396 -2.11575 0
M  V30 8241 C 782.4 0.12574 -1.60308 0
M  V30 8242 O 783.59 -0.105716 -1.73879 0
M  V30 8243 C 780.722 -0.319037 -3.39404 0
M  V30 8244 H 781.915 -1.81907 -2.38432 0
M  V30 8245 H 779.468 -0.977597 -1.21954 0
M  V30 8246 H 780.203 0.626082 -3.18199 0
M  V30 8247 H 779.988 -1.04481 -3.77923 0
M  V30 8248 H 781.478 -0.13663 -4.17376 0
M  V30 8249 N 781.915 1.24427 -0.967243 0
M  V30 8250 C 782.865 2.23143 -0.468106 0
M  V30 8251 C 783.849 1.5449 0.449633 0
M  V30 8252 O 785.041 1.74761 0.28063 0
M  V30 8253 C 782.17 3.42454 0.240867 0
M  V30 8254 C 781.256 4.18355 -0.695674 0
M  V30 8255 N 781.647 4.71428 -1.83273 0
M  V30 8256 C 779.945 4.43116 -0.506365 0
M  V30 8257 C 780.646 5.29041 -2.41849 0
M  V30 8258 N 779.622 5.16213 -1.70369 0
M  V30 8259 H 783.424 2.61795 -1.3357 0
M  V30 8260 H 780.938 1.39809 -0.826277 0
M  V30 8261 H 782.935 4.12329 0.615668 0
M  V30 8262 H 781.595 3.05323 1.10491 0
M  V30 8263 H 782.606 4.68177 -2.21428 0
M  V30 8264 H 779.283 4.16319 0.313747 0
M  V30 8265 H 780.673 5.80811 -3.37799 0
M  V30 8266 N 783.393 0.737304 1.3929 0
M  V30 8267 C 784.642 0.283129 1.99703 0
M  V30 8268 C 784.955 -1.13677 1.59176 0
M  V30 8269 O 786.161 -1.69058 2.12442 0
M  V30 8270 C 784.617 0.455262 3.57009 0
M  V30 8271 C 784.225 1.88319 4.06497 0
M  V30 8272 C 785.969 0.0629786 4.24453 0
M  V30 8273 C 783.876 2.00475 5.56385 0
M  V30 8274 H 782.806 0.102106 0.747054 0
M  V30 8275 H 785.457 0.911515 1.5926 0
M  V30 8276 H 783.839 -0.242057 3.9526 0
M  V30 8277 H 785.013 2.61265 3.79575 0
M  V30 8278 H 783.328 2.2289 3.51723 0
M  V30 8279 H 785.925 0.132787 5.34535 0
M  V30 8280 H 786.268 -0.982128 4.04549 0
M  V30 8281 H 786.801 0.71154 3.91385 0
M  V30 8282 H 783.54 3.03182 5.81172 0
M  V30 8283 H 783.06 1.31969 5.85102 0
M  V30 8284 H 784.739 1.787 6.21832 0
M  V30 8285 N 784.871 -1.49948 0.485112 0
M  V30 8286 C 785.801 -2.31675 -0.291364 0
M  V30 8287 C 786.782 -1.39216 -0.977383 0
M  V30 8288 O 787.967 -1.68133 -0.971855 0
M  V30 8289 C 785.097 -3.19326 -1.36558 0
M  V30 8290 C 784.051 -4.2045 -0.800359 0
M  V30 8291 C 783.377 -4.96931 -1.97391 0
M  V30 8292 C 784.677 -5.21925 0.197867 0
M  V30 8293 H 786.371 -2.96839 0.390775 0
M  V30 8294 H 783.917 -1.42749 0.189375 0
M  V30 8295 H 785.87 -3.75304 -1.91638 0
M  V30 8296 H 784.594 -2.52074 -2.07668 0
M  V30 8297 H 783.253 -3.65594 -0.271428 0
M  V30 8298 H 782.901 -4.26141 -2.67232 0
M  V30 8299 H 782.601 -5.65344 -1.60187 0
M  V30 8300 H 784.125 -5.55749 -2.52935 0
M  V30 8301 H 785.539 -5.72691 -0.264239 0
M  V30 8302 H 783.936 -5.98138 0.484908 0
M  V30 8303 H 785.006 -4.71809 1.11912 0
M  V30 8304 N 786.349 -0.21828 -1.56081 0
M  V30 8305 C 787.76 0.290166 -1.84431 0
M  V30 8306 C 788.111 1.59712 -1.13958 0
M  V30 8307 O 787.236 2.12516 -0.40815 0
M  V30 8308 C 787.831 0.53325 -3.34577 0
M  V30 8309 C 786.39 0.986011 -3.63256 0
M  V30 8310 C 785.537 0.0472798 -2.7726 0
M  V30 8311 H 788.488 -0.441548 -1.52434 0
M  V30 8312 H 788.509 1.37967 -3.54606 0
M  V30 8313 H 788.021 -0.418137 -3.85841 0
M  V30 8314 H 786.122 1.95087 -3.17446 0
M  V30 8315 H 786.235 0.862684 -4.71269 0
M  V30 8316 H 784.599 0.553471 -2.48614 0
M  V30 8317 H 785.382 -0.898966 -3.31321 0
M  V30 8318 N 787.827 1.57504 0.0551401 0
M  V30 8319 C 789.073 1.88334 0.752216 0
M  V30 8320 C 789.406 0.812742 1.76375 0
M  V30 8321 O 788.681 -0.175198 1.93709 0
M  V30 8322 C 788.964 3.29824 1.44528 0
M  V30 8323 C 788.817 4.47553 0.449026 0
M  V30 8324 C 790.136 3.69808 2.38601 0
M  V30 8325 H 787.255 0.684973 0.271995 0
M  V30 8326 H 789.897 1.89994 0.0151895 0
M  V30 8327 H 788.047 3.28539 2.07351 0
M  V30 8328 H 789.719 4.60967 -0.175277 0
M  V30 8329 H 787.962 4.33168 -0.234162 0
M  V30 8330 H 788.633 5.43376 0.971917 0
M  V30 8331 H 791.109 3.72293 1.85842 0
M  V30 8332 H 789.985 4.69665 2.84088 0
M  V30 8333 H 790.246 3.00641 3.24141 0
M  V30 8334 N 789.305 -0.326896 1.54172 0
M  V30 8335 C 790.238 -1.42591 1.78166 0
M  V30 8336 C 791.216 -1.49837 0.631484 0
M  V30 8337 O 792.4 -1.67298 0.868544 0
M  V30 8338 C 789.527 -2.8071 1.89524 0
M  V30 8339 C 788.573 -2.91012 3.11792 0
M  V30 8340 S 789.406 -2.55763 4.70474 0
M  V30 8341 C 790.562 -3.9596 4.84733 0
M  V30 8342 H 790.795 -1.22024 2.71104 0
M  V30 8343 H 788.328 -0.523539 1.45253 0
M  V30 8344 H 790.286 -3.60276 1.96753 0
M  V30 8345 H 788.947 -2.98562 0.975696 0
M  V30 8346 H 788.14 -3.92258 3.16464 0
M  V30 8347 H 787.742 -2.19414 3.02876 0
M  V30 8348 H 790.034 -4.90676 4.67166 0
M  V30 8349 H 790.977 -3.96273 5.86833 0
M  V30 8350 H 791.385 -3.8476 4.13062 0
M  V30 8351 N 790.784 -1.46188 -0.588786 0
M  V30 8352 C 792.033 -1.50452 -1.34339 0
M  V30 8353 C 792.346 -0.158096 -1.9496 0
M  V30 8354 O 793.552 -0.0784918 -2.71387 0
M  V30 8355 C 792.008 -2.65074 -2.43441 0
M  V30 8356 C 791.616 -4.06111 -1.8915 0
M  V30 8357 C 793.36 -2.78603 -3.20282 0
M  V30 8358 C 791.267 -5.12084 -2.95845 0
M  V30 8359 H 790.197 -0.559905 -0.504997 0
M  V30 8360 H 792.848 -1.72382 -0.629014 0
M  V30 8361 H 791.23 -2.36462 -3.1765 0
M  V30 8362 H 792.404 -4.44487 -1.21524 0
M  V30 8363 H 790.719 -3.97197 -1.24995 0
M  V30 8364 H 793.316 -3.54944 -3.99898 0
M  V30 8365 H 793.659 -1.85902 -3.72486 0
M  V30 8366 H 794.192 -3.06832 -2.53178 0
M  V30 8367 H 790.931 -6.06556 -2.48535 0
M  V30 8368 H 790.451 -4.78259 -3.61979 0
M  V30 8369 H 792.13 -5.37661 -3.59902 0
M  V30 8370 N 792.262 0.832906 -1.33792 0
M  V30 8371 C 793.225 1.92471 -1.24449 0
M  V30 8372 C 794.225 1.59981 -0.162085 0
M  V30 8373 O 795.415 1.69208 -0.414029 0
M  V30 8374 C 792.547 3.28278 -0.919044 0
M  V30 8375 H 793.74 2.0218 -2.21502 0
M  V30 8376 H 791.293 1.0257 -1.17936 0
M  V30 8377 H 792.028 3.24263 0.048738 0
M  V30 8378 H 791.813 3.53241 -1.70187 0
M  V30 8379 H 793.303 4.08253 -0.878576 0
M  V30 8380 N 793.74 1.17359 1.05189 0
M  V30 8381 C 794.986 0.963413 1.78455 0
M  V30 8382 C 795.319 -0.506703 1.87473 0
M  V30 8383 O 794.594 -1.37611 1.37453 0
M  V30 8384 C 794.877 1.60519 3.22344 0
M  V30 8385 C 794.73 3.14741 3.21338 0
M  V30 8386 C 796.049 1.3091 4.20179 0
M  V30 8387 H 793.168 0.351412 0.647826 0
M  V30 8388 H 795.81 1.44858 1.22948 0
M  V30 8389 H 793.96 1.19265 3.69741 0
M  V30 8390 H 795.632 3.65053 2.82017 0
M  V30 8391 H 793.875 3.4749 2.59679 0
M  V30 8392 H 794.546 3.54775 4.22894 0
M  V30 8393 H 797.022 1.66635 3.81277 0
M  V30 8394 H 795.898 1.784 5.191 0
M  V30 8395 H 796.159 0.229908 4.41502 0
M  V30 8396 N 795.218 -1.23913 0.973828 0
M  V30 8397 C 796.467 -1.91455 0.63464 0
M  V30 8398 C 796.78 -1.76893 -0.834759 0
M  V30 8399 O 797.986 -2.3918 -1.28473 0
M  V30 8400 C 796.442 -3.43172 1.08447 0
M  V30 8401 C 796.05 -3.66409 2.57776 0
M  V30 8402 C 797.794 -4.1653 0.818721 0
M  V30 8403 C 795.701 -5.11728 2.9646 0
M  V30 8404 H 794.631 -0.716881 0.233661 0
M  V30 8405 H 797.282 -1.40457 1.18085 0
M  V30 8406 H 795.664 -3.93242 0.466524 0
M  V30 8407 H 796.838 -3.26913 3.24753 0
M  V30 8408 H 795.153 -3.06349 2.82027 0
M  V30 8409 H 797.75 -5.23603 1.08367 0
M  V30 8410 H 798.093 -4.15578 -0.245128 0
M  V30 8411 H 798.626 -3.72428 1.39793 0
M  V30 8412 H 795.365 -5.17806 4.01941 0
M  V30 8413 H 794.885 -5.52199 2.34172 0
M  V30 8414 H 796.564 -5.80009 2.86703 0
M  V30 8415 N 796.696 -0.74468 -1.38897 0
M  V30 8416 C 797.626 -0.126355 -2.33158 0
M  V30 8417 C 798.607 0.713517 -1.54412 0
M  V30 8418 O 799.792 0.656523 -1.82766 0
M  V30 8419 C 796.922 0.774375 -3.38557 0
M  V30 8420 C 795.876 0.0379214 -4.27983 0
M  V30 8421 C 795.202 1.05631 -5.24162 0
M  V30 8422 C 796.502 -1.12523 -5.10035 0
M  V30 8423 H 798.196 -0.913744 -2.85116 0
M  V30 8424 H 795.742 -0.440847 -1.37086 0
M  V30 8425 H 797.695 1.21655 -4.03458 0
M  V30 8426 H 796.419 1.59399 -2.85061 0
M  V30 8427 H 795.078 -0.384733 -3.64576 0
M  V30 8428 H 794.726 1.86975 -4.66958 0
M  V30 8429 H 794.426 0.568261 -5.84846 0
M  V30 8430 H 795.95 1.49799 -5.9194 0
M  V30 8431 H 797.364 -0.761037 -5.68226 0
M  V30 8432 H 795.761 -1.54355 -5.79909 0
M  V30 8433 H 796.831 -1.94237 -4.44297 0
M  V30 8434 N 798.174 1.49689 -0.493057 0
M  V30 8435 C 799.137 2.27502 0.278485 0
M  V30 8436 C 800.137 1.33184 0.901037 0
M  V30 8437 O 801.327 1.56415 0.766801 0
M  V30 8438 C 798.459 3.10881 1.39878 0
M  V30 8439 H 799.652 2.97163 -0.404219 0
M  V30 8440 H 797.205 1.54324 -0.247774 0
M  V30 8441 H 797.94 2.45767 2.11587 0
M  V30 8442 H 797.725 3.80219 0.957924 0
M  V30 8443 H 799.215 3.69673 1.94247 0
M  V30 8444 N 799.652 0.226554 1.55963 0
M  V30 8445 C 800.6 -0.697922 2.21882 0
M  V30 8446 C 801.594 -1.19586 1.19981 0
M  V30 8447 O 802.8 -1.15511 1.38048 0
M  V30 8448 H 799.175 -0.243501 0.711485 0
M  V30 8449 H 801.146 -0.118576 2.98164 0
M  V30 8450 C 799.895 -1.89309 2.91646 0
M  V30 8451 H 799.218 -1.51906 3.69817 0
M  V30 8452 H 800.658 -2.51762 3.41162 0
M  V30 8453 C 799.117 -2.75162 1.94391 0
M  V30 8454 O 799.647 -3.74071 1.46402 0
M  V30 8455 N 797.853 -2.41302 1.61932 0
M  V30 8456 H 797.4 -1.60923 2.01151 0
M  V30 8457 H 797.358 -2.99023 0.971219 0
M  V30 8458 N 801.13 -1.57531 -0.0467866 0
M  V30 8459 C 802.093 -2.04379 -1.03738 0
M  V30 8460 C 803.093 -0.944881 -1.3011 0
M  V30 8461 O 804.283 -1.20904 -1.25411 0
M  V30 8462 C 801.415 -2.44572 -2.37482 0
M  V30 8463 H 802.608 -2.93142 -0.633063 0
M  V30 8464 H 800.161 -1.53526 -0.293177 0
M  V30 8465 H 800.896 -1.58911 -2.82697 0
M  V30 8466 H 800.681 -3.24785 -2.19675 0
M  V30 8467 H 802.171 -2.81307 -3.08636 0
M  V30 8468 N 802.608 0.318715 -1.54344 0
M  V30 8469 C 803.854 1.05765 -1.73037 0
M  V30 8470 C 804.187 1.87514 -0.505181 0
M  V30 8471 O 803.462 1.88021 0.497838 0
M  V30 8472 C 803.745 1.97836 -3.00887 0
M  V30 8473 C 803.598 1.19384 -4.33668 0
M  V30 8474 C 804.917 2.97285 -3.24514 0
M  V30 8475 H 802.036 0.383104 -0.629603 0
M  V30 8476 H 804.678 0.333864 -1.87044 0
M  V30 8477 H 802.828 2.59552 -2.89076 0
M  V30 8478 H 804.5 0.600906 -4.57369 0
M  V30 8479 H 802.743 0.496198 -4.30953 0
M  V30 8480 H 803.414 1.87014 -5.19355 0
M  V30 8481 H 805.89 2.45693 -3.35819 0
M  V30 8482 H 804.766 3.58887 -4.15321 0
M  V30 8483 H 805.027 3.70003 -2.41971 0
M  V30 8484 N 804.086 1.46499 0.581025 0
M  V30 8485 C 805.049 1.5677 1.672 0
M  V30 8486 C 806.049 0.444716 1.54528 0
M  V30 8487 O 807.239 0.709074 1.59116 0
M  V30 8488 C 804.371 1.4896 3.06633 0
M  V30 8489 H 805.564 2.54 1.5945 0
M  V30 8490 H 803.117 1.34334 0.799003 0
M  V30 8491 H 803.852 0.530168 3.19937 0
M  V30 8492 H 803.637 2.30439 3.17239 0
M  V30 8493 H 805.127 1.59237 3.86048 0
M  V30 8494 N 805.565 -0.825799 1.34232 0
M  V30 8495 C 806.497 -1.94401 1.21413 0
M  V30 8496 C 807.51 -1.6218 0.141902 0
M  V30 8497 O 808.699 -1.74109 0.3935 0
M  V30 8498 C 805.799 -3.28257 0.842635 0
M  V30 8499 C 804.972 -3.88521 2.00924 0
M  V30 8500 C 804.031 -5.00752 1.61661 0
M  V30 8501 O 803.057 -5.19201 2.33279 0
M  V30 8502 N 804.259 -5.78084 0.52911 0
M  V30 8503 H 807.024 -2.05931 2.17744 0
M  V30 8504 H 804.585 -1.00223 1.27149 0
M  V30 8505 H 806.577 -4.00781 0.561822 0
M  V30 8506 H 805.147 -3.12585 -0.0304029 0
M  V30 8507 H 804.367 -3.08425 2.45495 0
M  V30 8508 H 805.655 -4.25516 2.78951 0
M  V30 8509 H 805.053 -5.65661 -0.0663322 0
M  V30 8510 H 803.61 -6.51072 0.308017 0
M  V30 8511 N 807.043 -1.17915 -1.04565 0
M  V30 8512 C 808.268 -0.996749 -1.81878 0
M  V30 8513 C 808.693 0.450169 -1.82634 0
M  V30 8514 O 808.051 1.32268 -1.23995 0
M  V30 8515 C 808.099 -1.55005 -3.25585 0
M  V30 8516 O 807.203 -0.76804 -4.05185 0
M  V30 8517 H 806.544 -0.353456 -0.562108 0
M  V30 8518 H 809.074 -1.56557 -1.31723 0
M  V30 8519 H 809.084 -1.57503 -3.76373 0
M  V30 8520 H 807.759 -2.60327 -3.2435 0
M  V30 8521 H 806.336 -0.81498 -3.63885 0
M  V30 8522 N 808.521 1.23394 -0.980386 0
M  V30 8523 C 809.451 2.2717 -0.540024 0
M  V30 8524 C 810.432 1.64659 0.426787 0
M  V30 8525 O 811.617 1.91543 0.320153 0
M  V30 8526 C 808.747 3.46939 0.15836 0
M  V30 8527 C 807.701 4.21802 -0.725732 0
M  V30 8528 C 807.027 5.34597 0.104866 0
M  V30 8529 C 808.327 4.81802 -2.01654 0
M  V30 8530 H 810.021 2.64257 -1.40743 0
M  V30 8531 H 807.567 1.2703 -0.678193 0
M  V30 8532 H 809.52 4.18683 0.477737 0
M  V30 8533 H 808.244 3.08912 1.06022 0
M  V30 8534 H 806.903 3.51875 -1.02857 0
M  V30 8535 H 806.551 4.92812 1.00726 0
M  V30 8536 H 806.251 5.85607 -0.483557 0
M  V30 8537 H 807.775 6.09163 0.418624 0
M  V30 8538 H 809.189 5.45554 -1.76193 0
M  V30 8539 H 807.586 5.43098 -2.55273 0
M  V30 8540 H 808.656 4.02549 -2.70338 0
M  V30 8541 N 809.999 0.752036 1.385 0
M  V30 8542 C 810.931 0.0835089 2.29048 0
M  V30 8543 C 811.944 -0.685402 1.47669 0
M  V30 8544 O 813.133 -0.526748 1.70551 0
M  V30 8545 C 810.233 -0.905772 3.26572 0
M  V30 8546 C 809.406 -0.194828 4.36966 0
M  V30 8547 C 808.465 -1.09464 5.14688 0
M  V30 8548 O 807.491 -0.565743 5.66381 0
M  V30 8549 N 808.693 -2.42287 5.2752 0
M  V30 8550 H 811.458 0.861142 2.87062 0
M  V30 8551 H 809.019 0.602689 1.50264 0
M  V30 8552 H 811.011 -1.51072 3.75446 0
M  V30 8553 H 809.581 -1.58449 2.69467 0
M  V30 8554 H 808.801 0.590812 3.89747 0
M  V30 8555 H 810.089 0.297189 5.07931 0
M  V30 8556 H 809.487 -2.87715 4.8707 0
M  V30 8557 H 808.044 -2.97836 5.79773 0
M  V30 8558 N 811.477 -1.49425 0.500989 0
M  V30 8559 C 812.888 -1.86624 0.0532011 0
M  V30 8560 C 813.239 -1.41331 -1.36088 0
M  V30 8561 O 812.364 -0.791195 -2.01418 0
M  V30 8562 C 812.959 -3.38681 0.0897693 0
M  V30 8563 C 811.518 -3.75181 -0.302677 0
M  V30 8564 C 810.665 -2.73419 0.462307 0
M  V30 8565 H 813.616 -1.41743 0.713773 0
M  V30 8566 H 813.637 -3.73902 -0.705528 0
M  V30 8567 H 813.149 -3.71616 1.11907 0
M  V30 8568 H 811.25 -3.47855 -1.33521 0
M  V30 8569 H 811.363 -4.79097 0.0167653 0
M  V30 8570 H 809.727 -2.54548 -0.0878557 0
M  V30 8571 H 810.51 -3.09198 1.49169 0
M  V30 8572 N 812.955 -0.234822 -1.55841 0
M  V30 8573 C 814.18 0.400741 -2.03492 0
M  V30 8574 C 814.605 1.51618 -1.11327 0
M  V30 8575 O 813.963 1.81002 -0.103922 0
M  V30 8576 C 814.011 0.897184 -3.49261 0
M  V30 8577 O 813.115 2.00764 -3.60233 0
M  V30 8578 H 812.456 0.0890023 -0.658008 0
M  V30 8579 H 814.986 -0.357345 -2.01455 0
M  V30 8580 H 814.996 1.20356 -3.89844 0
M  V30 8581 H 813.671 0.0808639 -4.15821 0
M  V30 8582 H 812.248 1.70689 -3.31541 0
M  V30 8583 N 814.433 1.57553 0.0384317 0
M  V30 8584 C 815.363 2.0898 1.04161 0
M  V30 8585 C 816.344 0.99029 1.38301 0
M  V30 8586 O 817.529 1.26499 1.47349 0
M  V30 8587 C 814.659 2.56145 2.34536 0
M  V30 8588 C 813.613 3.70275 2.14663 0
M  V30 8589 C 812.939 4.03612 3.50715 0
M  V30 8590 C 814.239 4.99067 1.54045 0
M  V30 8591 H 815.933 2.93046 0.613548 0
M  V30 8592 H 813.479 1.40973 0.293684 0
M  V30 8593 H 815.432 2.90741 3.05037 0
M  V30 8594 H 814.156 1.6915 2.79385 0
M  V30 8595 H 812.815 3.36013 1.46597 0
M  V30 8596 H 812.463 3.13698 3.93195 0
M  V30 8597 H 812.163 4.80482 3.38247 0
M  V30 8598 H 813.687 4.40735 4.22593 0
M  V30 8599 H 815.101 5.3168 2.14451 0
M  V30 8600 H 813.498 5.80484 1.52178 0
M  V30 8601 H 814.568 4.8226 0.505259 0
M  V30 8602 N 815.911 -0.310526 1.54511 0
M  V30 8603 C 817.141 -1.06456 1.77061 0
M  V30 8604 C 817.549 -1.81755 0.525528 0
M  V30 8605 O 816.892 -1.76365 -0.513904 0
M  V30 8606 C 816.954 -2.09856 2.91892 0
M  V30 8607 C 816.618 -1.53838 4.30329 0
M  V30 8608 C 817.615 -0.973358 5.10707 0
M  V30 8609 C 815.3 -1.57688 4.76906 0
M  V30 8610 C 817.294 -0.454283 6.35779 0
M  V30 8611 C 814.981 -1.05393 6.01943 0
M  V30 8612 C 815.979 -0.493595 6.81214 0
M  V30 8613 O 815.667 0.0214506 8.03897 0
M  V30 8614 H 815.399 -0.321913 0.594431 0
M  V30 8615 H 817.953 -0.358289 2.02251 0
M  V30 8616 H 816.183 -2.84137 2.62304 0
M  V30 8617 H 817.872 -2.71085 3.02106 0
M  V30 8618 H 818.638 -0.936588 4.75871 0
M  V30 8619 H 814.517 -2.00242 4.1524 0
M  V30 8620 H 818.061 -0.0162657 6.97598 0
M  V30 8621 H 813.958 -1.08782 6.36268 0
M  V30 8622 H 814.726 -0.0927478 8.18447 0
M  V30 8623 N 817.389 -1.46805 -0.573248 0
M  V30 8624 C 818.666 -1.43082 -1.33368 0
M  V30 8625 C 819.046 -0.119252 -2.10763 0
M  V30 8626 O 818.394 0.899239 -2.10062 0
M  V30 8627 C 818.604 -2.66643 -2.25172 0
M  V30 8628 C 819.952 -3.13188 -2.86702 0
M  V30 8629 O 820.976 -2.67258 -2.35482 0
M  V30 8630 O 819.835 -3.92994 -3.79761 0
M  V30 8631 H 816.929 -0.569451 -0.599712 0
M  V30 8632 H 819.475 -1.58984 -0.59348 0
M  V30 8633 H 818.247 -3.53649 -1.67475 0
M  V30 8634 H 817.87 -2.53247 -3.06516 0
M  V30 8635 N 818.867 0.818669 -1.34668 0
M  V30 8636 C 820.092 1.61193 -1.30505 0
M  V30 8637 C 820.517 1.87734 0.117341 0
M  V30 8638 O 819.875 1.45591 1.08042 0
M  V30 8639 C 819.923 2.92733 -2.1057 0
M  V30 8640 O 819.027 3.85 -1.47813 0
M  V30 8641 H 818.368 0.490085 -0.44801 0
M  V30 8642 H 820.898 1.01701 -1.77534 0
M  V30 8643 H 820.908 3.42262 -2.22082 0
M  V30 8644 H 819.583 2.7274 -3.13984 0
M  V30 8645 H 818.16 3.43525 -1.45069 0
M  V30 8646 N 820.346 1.18468 1.03938 0
M  V30 8647 C 821.595 0.975193 1.76558 0
M  V30 8648 C 821.908 -0.495978 1.89207 0
M  V30 8649 O 823.114 -0.824009 2.58694 0
M  V30 8650 C 821.57 1.69579 3.17444 0
M  V30 8651 C 821.178 3.20636 3.12884 0
M  V30 8652 C 822.922 1.56917 3.94433 0
M  V30 8653 C 820.829 3.8533 4.48636 0
M  V30 8654 H 819.759 0.361244 0.66183 0
M  V30 8655 H 822.41 1.41854 1.16403 0
M  V30 8656 H 820.792 1.18022 3.78004 0
M  V30 8657 H 821.966 3.79228 2.61768 0
M  V30 8658 H 820.281 3.33454 2.49394 0
M  V30 8659 H 822.878 2.02611 4.94826 0
M  V30 8660 H 823.221 0.521638 4.13019 0
M  V30 8661 H 823.754 2.05762 3.40451 0
M  V30 8662 H 820.493 4.90136 4.35255 0
M  V30 8663 H 820.013 3.31526 4.99851 0
M  V30 8664 H 821.692 3.88269 5.17549 0
M  V30 8665 N 821.824 -1.22873 0.986916 0
M  V30 8666 C 823.073 -1.90772 0.654911 0
M  V30 8667 C 823.386 -1.77768 -0.81595 0
M  V30 8668 O 824.592 -2.40529 -1.25929 0
M  V30 8669 C 823.048 -3.42003 1.12081 0
M  V30 8670 C 822.656 -3.63655 2.61647 0
M  V30 8671 C 824.4 -4.15638 0.862854 0
M  V30 8672 C 822.307 -5.08555 3.01871 0
M  V30 8673 H 821.237 -0.714362 0.241252 0
M  V30 8674 H 823.888 -1.39196 1.19568 0
M  V30 8675 H 822.27 -3.92725 0.508207 0
M  V30 8676 H 823.444 -3.2345 3.28202 0
M  V30 8677 H 821.759 -3.03341 2.8526 0
M  V30 8678 H 824.356 -5.22425 1.13915 0
M  V30 8679 H 824.699 -4.15814 -0.201036 0
M  V30 8680 H 825.232 -3.70924 1.43736 0
M  V30 8681 H 821.971 -5.13514 4.07411 0
M  V30 8682 H 821.491 -5.49684 2.40015 0
M  V30 8683 H 823.17 -5.76936 2.92839 0
M  V30 8684 N 823.302 -0.75937 -1.38099 0
M  V30 8685 C 824.718 -0.437606 -1.53483 0
M  V30 8686 C 824.918 1.04849 -1.72072 0
M  V30 8687 O 823.974 1.83448 -1.73502 0
M  V30 8688 C 825.287 -1.24189 -2.73857 0
M  V30 8689 C 826.835 -1.23255 -2.8771 0
M  V30 8690 C 827.31 -2.01992 -4.11051 0
M  V30 8691 N 828.801 -1.99282 -4.1814 0
M  V30 8692 C 829.536 -2.56996 -5.12583 0
M  V30 8693 N 829.032 -3.23446 -6.12662 0
M  V30 8694 N 830.825 -2.46894 -5.04975 0
M  V30 8695 H 822.976 -1.72242 -1.24283 0
M  V30 8696 H 825.239 -0.730507 -0.604205 0
M  V30 8697 H 824.945 -2.29449 -2.66545 0
M  V30 8698 H 824.819 -0.862672 -3.67203 0
M  V30 8699 H 827.206 -0.187988 -2.94501 0
M  V30 8700 H 827.287 -1.65132 -1.95359 0
M  V30 8701 H 826.931 -3.06462 -4.05023 0
M  V30 8702 H 826.861 -1.57505 -5.02494 0
M  V30 8703 H 829.352 -1.50893 -3.46467 0
M  V30 8704 H 829.665 -3.6489 -6.81231 0
M  V30 8705 H 828.01 -3.27543 -6.12977 0
M  V30 8706 H 831.201 -1.94604 -4.25731 0
M  V30 8707 H 831.374 -2.92168 -5.78396 0
M  V30 8708 N 824.78 1.49157 -0.508906 0
M  V30 8709 C 826.029 2.0167 0.0346854 0
M  V30 8710 C 826.342 1.39302 1.37311 0
M  V30 8711 O 827.548 1.83189 2.00385 0
M  V30 8712 C 826.004 3.59725 0.112261 0
M  V30 8713 C 825.612 4.31069 -1.21999 0
M  V30 8714 C 827.356 4.20155 0.605798 0
M  V30 8715 C 825.263 5.81001 -1.10415 0
M  V30 8716 H 824.193 0.753814 0.0167355 0
M  V30 8717 H 826.844 1.7162 -0.649518 0
M  V30 8718 H 825.226 3.86525 0.861087 0
M  V30 8719 H 826.4 4.15962 -1.98273 0
M  V30 8720 H 824.715 3.82418 -1.64759 0
M  V30 8721 H 827.312 5.29964 0.710102 0
M  V30 8722 H 827.655 3.84051 1.60656 0
M  V30 8723 H 828.188 3.97705 -0.0867239 0
M  V30 8724 H 824.927 6.21643 -2.07941 0
M  V30 8725 H 824.447 5.9858 -0.382428 0
M  V30 8726 H 826.126 6.42207 -0.786116 0
M  V30 8727 N 826.258 0.243083 1.55714 0
M  V30 8728 C 827.205 -0.658078 2.21219 0
M  V30 8729 C 828.175 -1.1742 1.17481 0
M  V30 8730 O 829.36 -1.22937 1.45915 0
M  V30 8731 C 826.5 -1.85104 2.91257 0
M  V30 8732 C 825.613 -1.3718 4.09641 0
M  V30 8733 C 824.748 -2.52403 4.67404 0
M  V30 8734 C 823.787 -2.01321 5.78045 0
M  V30 8735 N 822.924 -3.09896 6.30007 0
M  V30 8736 H 827.764 -0.0927854 2.97856 0
M  V30 8737 H 825.301 -0.0340375 1.47061 0
M  V30 8738 H 827.259 -2.55179 3.3006 0
M  V30 8739 H 825.889 -2.38887 2.17101 0
M  V30 8740 H 824.941 -0.565232 3.76177 0
M  V30 8741 H 826.253 -0.957409 4.89525 0
M  V30 8742 H 825.407 -3.30525 5.08761 0
M  V30 8743 H 824.146 -2.97142 3.86728 0
M  V30 8744 H 823.151 -1.21667 5.36169 0
M  V30 8745 H 824.376 -1.57556 6.6057 0
M  V30 8746 H 822.322 -3.54077 5.52237 0
M  V30 8747 H 822.239 -2.72776 7.05074 0
M  V30 8748 H 823.507 -3.8809 6.76023 0
M  V30 8749 N 827.736 -1.57571 -0.0300757 0
M  V30 8750 C 828.683 -2.06492 -1.03101 0
M  V30 8751 C 829.653 -0.953862 -1.3598 0
M  V30 8752 O 830.838 -1.22436 -1.46335 0
M  V30 8753 C 827.978 -2.54826 -2.32718 0
M  V30 8754 C 827.091 -3.79718 -2.06006 0
M  V30 8755 C 826.226 -4.16668 -3.29487 0
M  V30 8756 C 825.265 -5.3448 -2.98324 0
M  V30 8757 N 824.402 -5.66867 -4.14254 0
M  V30 8758 H 829.242 -2.91755 -0.606877 0
M  V30 8759 H 826.779 -1.44252 -0.288038 0
M  V30 8760 H 828.737 -2.80916 -3.08451 0
M  V30 8761 H 827.367 -1.72481 -2.72856 0
M  V30 8762 H 826.419 -3.60718 -1.20774 0
M  V30 8763 H 827.731 -4.65569 -1.79017 0
M  V30 8764 H 826.885 -4.43881 -4.13588 0
M  V30 8765 H 825.624 -3.29466 -3.59588 0
M  V30 8766 H 824.629 -5.07021 -2.12625 0
M  V30 8767 H 825.854 -6.23334 -2.69502 0
M  V30 8768 H 823.8 -4.82625 -4.44308 0
M  V30 8769 H 823.717 -6.47226 -3.90685 0
M  V30 8770 H 824.985 -5.98656 -4.99231 0
M  V30 8771 N 829.214 0.302327 -1.54673 0
M  V30 8772 C 830.144 1.37759 -1.88533 0
M  V30 8773 C 831.125 1.52961 -0.744113 0
M  V30 8774 O 832.31 1.6649 -0.999731 0
M  V30 8775 C 829.44 2.74201 -2.13146 0
M  V30 8776 C 828.394 2.73765 -3.28993 0
M  V30 8777 C 827.72 4.13483 -3.39022 0
M  V30 8778 C 829.02 2.35624 -4.66132 0
M  V30 8779 H 830.714 1.0967 -2.78591 0
M  V30 8780 H 828.26 0.52613 -1.34044 0
M  V30 8781 H 830.213 3.49508 -2.35419 0
M  V30 8782 H 828.937 3.03812 -1.19858 0
M  V30 8783 H 827.596 2.00914 -3.06642 0
M  V30 8784 H 827.244 4.40269 -2.43253 0
M  V30 8785 H 826.944 4.14093 -4.16894 0
M  V30 8786 H 828.468 4.90572 -3.63553 0
M  V30 8787 H 829.882 3.00647 -4.88143 0
M  V30 8788 H 828.279 2.47449 -5.46707 0
M  V30 8789 H 829.349 1.30753 -4.66939 0
M  V30 8790 N 830.692 1.47107 0.565454 0
M  V30 8791 C 832.103 1.47266 1.1476 0
M  V30 8792 C 832.454 0.222841 1.9493 0
M  V30 8793 O 831.579 -0.672862 2.05673 0
M  V30 8794 C 832.174 2.66822 2.08785 0
M  V30 8795 C 830.733 2.69967 2.62288 0
M  V30 8796 C 829.88 2.40236 1.38499 0
M  V30 8797 H 832.831 1.54736 0.352479 0
M  V30 8798 H 832.852 2.43323 2.92531 0
M  V30 8799 H 832.364 3.5777 1.50408 0
M  V30 8800 H 830.465 1.83137 3.24487 0
M  V30 8801 H 830.578 3.70426 3.03845 0
M  V30 8802 H 828.942 1.90648 1.68895 0
M  V30 8803 H 829.725 3.33381 0.819274 0
M  V30 8804 N 832.17 -0.811516 1.35101 0
M  V30 8805 C 833.4 -1.59749 1.31011 0
M  V30 8806 C 833.808 -1.88847 -0.115566 0
M  V30 8807 O 833.151 -1.48854 -1.07649 0
M  V30 8808 C 833.213 -2.95714 2.04435 0
M  V30 8809 C 832.877 -2.89456 3.53645 0
M  V30 8810 C 833.874 -2.63237 4.48333 0
M  V30 8811 C 831.559 -3.08728 3.96222 0
M  V30 8812 C 833.553 -2.56361 5.83573 0
M  V30 8813 C 831.24 -3.01475 5.3156 0
M  V30 8814 C 832.238 -2.75326 6.25048 0
M  V30 8815 O 831.926 -2.68026 7.57903 0
M  V30 8816 H 831.658 -0.502889 0.45175 0
M  V30 8817 H 834.212 -1.01687 1.78462 0
M  V30 8818 H 832.442 -3.55739 1.51613 0
M  V30 8819 H 834.131 -3.56816 1.93487 0
M  V30 8820 H 834.897 -2.48072 4.16756 0
M  V30 8821 H 830.776 -3.28094 3.23845 0
M  V30 8822 H 834.32 -2.35871 6.56514 0
M  V30 8823 H 830.217 -3.16197 5.62752 0
M  V30 8824 H 830.985 -2.8367 7.67772 0
M  V30 8825 N 833.648 -1.19017 -1.03309 0
M  V30 8826 C 834.578 -0.94772 -2.13402 0
M  V30 8827 C 835.559 0.117383 -1.69694 0
M  V30 8828 O 836.744 -0.0367733 -1.94165 0
M  V30 8829 C 833.874 -0.480977 -3.43953 0
M  V30 8830 C 832.828 -1.48743 -4.01322 0
M  V30 8831 C 832.154 -0.877924 -5.27443 0
M  V30 8832 C 833.454 -2.86642 -4.36616 0
M  V30 8833 H 835.148 -1.86846 -2.33942 0
M  V30 8834 H 832.694 -0.899781 -1.12427 0
M  V30 8835 H 834.647 -0.298677 -4.2034 0
M  V30 8836 H 833.371 0.475348 -3.23122 0
M  V30 8837 H 832.03 -1.65681 -3.27025 0
M  V30 8838 H 831.678 0.0858232 -5.02927 0
M  V30 8839 H 831.378 -1.54996 -5.66789 0
M  V30 8840 H 832.902 -0.706326 -6.06501 0
M  V30 8841 H 834.316 -2.73312 -5.03958 0
M  V30 8842 H 832.713 -3.50599 -4.87032 0
M  V30 8843 H 833.783 -3.39617 -3.46105 0
M  V30 8844 N 835.127 1.22348 -0.993418 0
M  V30 8845 C 836.538 1.72893 -0.704616 0
M  V30 8846 C 836.889 1.80095 0.778483 0
M  V30 8847 O 836.014 1.4476 1.60853 0
M  V30 8848 C 836.609 3.14 -1.27237 0
M  V30 8849 C 835.168 3.61949 -1.03294 0
M  V30 8850 C 834.315 2.39816 -1.39225 0
M  V30 8851 H 837.266 1.07688 -1.16572 0
M  V30 8852 H 837.287 3.74886 -0.651212 0
M  V30 8853 H 836.799 3.08727 -2.3518 0
M  V30 8854 H 834.9 3.72588 0.0298329 0
M  V30 8855 H 835.013 4.48051 -1.69668 0
M  V30 8856 H 833.377 2.41448 -0.810849 0
M  V30 8857 H 834.16 2.37203 -2.48172 0
M  V30 8858 N 836.605 0.766683 1.37694 0
M  V30 8859 C 837.515 0.150158 2.34119 0
M  V30 8860 C 838.531 -0.685513 1.59927 0
M  V30 8861 O 839.707 -0.606616 1.92047 0
M  V30 8862 C 836.772 -0.722562 3.39087 0
M  V30 8863 C 835.833 0.128983 4.29106 0
M  V30 8864 C 835.066 -0.702178 5.29061 0
M  V30 8865 O 835.289 -1.93954 5.36412 0
M  V30 8866 O 834.223 -0.114056 6.01792 0
M  V30 8867 H 838.049 0.946829 2.88563 0
M  V30 8868 H 835.634 0.527765 1.39768 0
M  V30 8869 H 837.516 -1.22095 4.03325 0
M  V30 8870 H 836.191 -1.49751 2.86978 0
M  V30 8871 H 835.098 0.673612 3.67985 0
M  V30 8872 H 836.431 0.866892 4.84506 0
M  V30 8873 N 838.083 -1.48885 0.516809 0
M  V30 8874 C 839.013 -2.32241 -0.242157 0
M  V30 8875 C 839.994 -1.41258 -0.947633 0
M  V30 8876 O 841.179 -1.70156 -0.935973 0
M  V30 8877 C 838.309 -3.22151 -1.29754 0
M  V30 8878 C 837.263 -4.22053 -0.710995 0
M  V30 8879 C 836.589 -5.01007 -1.86806 0
M  V30 8880 C 837.889 -5.21388 0.30853 0
M  V30 8881 H 839.583 -2.95943 0.453651 0
M  V30 8882 H 837.129 -1.42316 0.219612 0
M  V30 8883 H 839.082 -3.79284 -1.83634 0
M  V30 8884 H 837.806 -2.56423 -2.02274 0
M  V30 8885 H 836.465 -3.66087 -0.193819 0
M  V30 8886 H 836.113 -4.31713 -2.58133 0
M  V30 8887 H 835.813 -5.68615 -1.48159 0
M  V30 8888 H 837.337 -5.60989 -2.4109 0
M  V30 8889 H 838.751 -5.73122 -0.142703 0
M  V30 8890 H 837.148 -5.96975 0.611673 0
M  V30 8891 H 838.218 -4.69329 1.21894 0
M  V30 8892 N 839.561 -0.251338 -1.55583 0
M  V30 8893 C 840.809 0.371434 -1.98657 0
M  V30 8894 C 841.13 1.58143 -1.14087 0
M  V30 8895 O 840.4 1.94607 -0.224708 0
M  V30 8896 H 838.98 0.140225 -0.733721 0
M  V30 8897 H 841.642 -0.351157 -1.9171 0
M  V30 8898 H 840.738 0.677554 -3.04657 0
M  V30 8899 N 841.039 1.57585 0.0217189 0
M  V30 8900 C 842.285 1.90733 0.706582 0
M  V30 8901 C 842.64 0.850732 1.7257 0
M  V30 8902 O 841.933 -0.139715 1.9109 0
M  V30 8903 C 842.127 3.28377 1.41079 0
M  V30 8904 C 841.956 4.47327 0.461395 0
M  V30 8905 C 840.726 5.05237 0.0797404 0
M  V30 8906 C 842.924 5.13626 -0.263302 0
M  V30 8907 N 840.906 6.07702 -0.870139 0
M  V30 8908 C 842.277 6.10722 -1.06859 0
M  V30 8909 C 844.332 4.96809 -0.329461 0
M  V30 8910 C 843.035 6.92813 -1.93397 0
M  V30 8911 C 845.061 5.79468 -1.18199 0
M  V30 8912 C 844.423 6.7614 -1.97519 0
M  V30 8913 H 840.522 0.74666 0.232427 0
M  V30 8914 H 843.106 1.94671 -0.0335228 0
M  V30 8915 H 841.277 3.25354 2.12131 0
M  V30 8916 H 843.009 3.49018 2.04862 0
M  V30 8917 H 839.764 4.71519 0.443498 0
M  V30 8918 H 840.188 6.6361 -1.33981 0
M  V30 8919 H 844.83 4.2194 0.269485 0
M  V30 8920 H 842.548 7.67022 -2.54369 0
M  V30 8921 H 846.134 5.68502 -1.23681 0
M  V30 8922 H 845.014 7.38989 -2.62421 0
M  V30 8923 N 842.517 -0.29412 1.54831 0
M  V30 8924 C 843.765 -1.02643 1.74094 0
M  V30 8925 C 844.086 -1.87563 0.533402 0
M  V30 8926 O 843.356 -1.9061 -0.452192 0
M  V30 8927 H 841.936 -0.381959 0.641963 0
M  V30 8928 H 844.598 -0.323444 1.92197 0
M  V30 8929 H 843.694 -1.67558 2.63307 0
M  V30 8930 N 843.995 -1.47404 -0.557645 0
M  V30 8931 C 845.411 -1.32913 -0.88353 0
M  V30 8932 C 845.611 -0.31929 -1.98954 0
M  V30 8933 O 844.667 0.26934 -2.51059 0
M  V30 8934 C 845.98 -2.72229 -1.27718 0
M  V30 8935 C 847.528 -2.8051 -1.38863 0
M  V30 8936 C 848.003 -4.20466 -1.81583 0
M  V30 8937 N 849.494 -4.23005 -1.88735 0
M  V30 8938 C 850.229 -5.2821 -2.23118 0
M  V30 8939 N 849.725 -6.4372 -2.56117 0
M  V30 8940 N 851.518 -5.15588 -2.23888 0
M  V30 8941 H 843.669 -2.11698 0.172557 0
M  V30 8942 H 845.932 -0.947889 0.0145334 0
M  V30 8943 H 845.638 -3.47556 -0.538329 0
M  V30 8944 H 845.512 -3.03971 -2.23342 0
M  V30 8945 H 847.899 -2.05457 -2.11829 0
M  V30 8946 H 847.98 -2.52423 -0.414274 0
M  V30 8947 H 847.624 -4.96025 -1.09187 0
M  V30 8948 H 847.554 -4.45977 -2.80021 0
M  V30 8949 H 850.045 -3.39674 -1.65621 0
M  V30 8950 H 850.358 -7.19754 -2.81378 0
M  V30 8951 H 848.703 -6.47041 -2.53698 0
M  V30 8952 H 851.894 -4.24374 -1.97546 0
M  V30 8953 H 852.067 -5.97685 -2.50353 0
M  V30 8954 N 845.473 0.80434 -1.35529 0
M  V30 8955 C 846.423 1.90565 -1.25175 0
M  V30 8956 C 847.407 1.60232 -0.146512 0
M  V30 8957 O 848.599 1.72918 -0.377943 0
M  V30 8958 C 845.728 3.2754 -1.02823 0
M  V30 8959 C 844.814 3.63932 -2.17748 0
M  V30 8960 N 845.205 3.71744 -3.42986 0
M  V30 8961 C 843.503 3.93901 -2.09184 0
M  V30 8962 C 844.204 4.03944 -4.18574 0
M  V30 8963 N 843.18 4.18146 -3.47355 0
M  V30 8964 H 846.982 1.9481 -2.20059 0
M  V30 8965 H 844.496 0.99905 -1.28034 0
M  V30 8966 H 846.493 4.06281 -0.934941 0
M  V30 8967 H 845.153 3.2458 -0.0882551 0
M  V30 8968 H 846.164 3.54765 -3.77309 0
M  V30 8969 H 842.841 3.98954 -1.23054 0
M  V30 8970 H 844.231 4.17036 -5.26811 0
M  V30 8971 N 846.951 1.19563 1.02676 0
M  V30 8972 C 847.883 0.893054 2.11086 0
M  V30 8973 C 848.896 -0.115101 1.62393 0
M  V30 8974 O 850.085 0.11459 1.78132 0
M  V30 8975 C 847.185 0.315533 3.37428 0
M  V30 8976 C 846.358 1.37276 4.153 0
M  V30 8977 C 845.417 0.808398 5.19953 0
M  V30 8978 O 844.443 1.48661 5.49444 0
M  V30 8979 N 845.645 -0.387253 5.79207 0
M  V30 8980 H 848.41 1.82622 2.37633 0
M  V30 8981 H 845.971 1.09792 1.18984 0
M  V30 8982 H 847.963 -0.0759166 4.04629 0
M  V30 8983 H 846.533 -0.521961 3.08211 0
M  V30 8984 H 845.753 1.93897 3.43217 0
M  V30 8985 H 847.041 2.08509 4.64114 0
M  V30 8986 H 846.439 -0.955725 5.57568 0
M  V30 8987 H 844.996 -0.720457 6.47806 0
M  V30 8988 N 848.429 -1.21819 0.999893 0
M  V30 8989 C 849.361 -2.23356 0.514256 0
M  V30 8990 C 850.374 -1.5795 -0.394413 0
M  V30 8991 O 851.563 -1.77427 -0.195428 0
M  V30 8992 C 848.663 -3.37797 -0.273207 0
M  V30 8993 C 847.836 -4.32791 0.633293 0
M  V30 8994 C 846.895 -5.26098 -0.103673 0
M  V30 8995 O 845.921 -5.66881 0.513269 0
M  V30 8996 N 847.123 -5.63764 -1.38383 0
M  V30 8997 H 849.888 -2.65653 1.3874 0
M  V30 8998 H 847.449 -1.3619 0.875431 0
M  V30 8999 H 849.441 -3.97209 -0.775053 0
M  V30 9000 H 848.011 -2.94527 -1.0475 0
M  V30 9001 H 847.231 -3.71595 1.31571 0
M  V30 9002 H 848.519 -4.93196 1.25039 0
M  V30 9003 H 847.917 -5.32614 -1.90627 0
M  V30 9004 H 846.474 -6.25562 -1.83073 0
M  V30 9005 N 849.908 -0.773975 -1.37286 0
M  V30 9006 C 851.138 -0.350249 -2.03609 0
M  V30 9007 C 851.546 1.03313 -1.58502 0
M  V30 9008 O 850.889 1.67118 -0.7627 0
M  V30 9009 C 850.951 -0.317215 -3.58098 0
M  V30 9010 C 850.615 -1.64556 -4.26345 0
M  V30 9011 C 851.612 -2.59839 -4.50311 0
M  V30 9012 C 849.297 -1.92061 -4.64131 0
M  V30 9013 C 851.291 -3.80833 -5.11122 0
M  V30 9014 C 848.978 -3.13325 -5.24663 0
M  V30 9015 C 849.976 -4.0753 -5.48095 0
M  V30 9016 O 849.664 -5.26658 -6.0736 0
M  V30 9017 H 849.396 -0.144456 -0.660385 0
M  V30 9018 H 851.95 -1.0496 -1.76557 0
M  V30 9019 H 850.18 0.438528 -3.84205 0
M  V30 9020 H 851.869 0.0797428 -4.05822 0
M  V30 9021 H 852.635 -2.39872 -4.21529 0
M  V30 9022 H 848.514 -1.19562 -4.45226 0
M  V30 9023 H 852.058 -4.54377 -5.29327 0
M  V30 9024 H 847.955 -3.33177 -5.52869 0
M  V30 9025 H 848.723 -5.27513 -6.25837 0
M  V30 9026 N 851.386 1.48609 -0.524698 0
M  V30 9027 C 852.802 1.58557 -0.182199 0
M  V30 9028 C 853.002 1.52732 1.31435 0
M  V30 9029 O 852.058 1.41362 2.0922 0
M  V30 9030 C 853.371 2.90406 -0.78004 0
M  V30 9031 C 854.919 3.03924 -0.748293 0
M  V30 9032 C 855.394 4.38427 -1.32462 0
M  V30 9033 N 856.885 4.4498 -1.28635 0
M  V30 9034 C 857.62 5.47551 -1.70223 0
M  V30 9035 N 857.116 6.57103 -2.19515 0
M  V30 9036 N 858.909 5.38402 -1.61493 0
M  V30 9037 H 851.06 1.50638 -1.4974 0
M  V30 9038 H 853.323 0.714952 -0.622533 0
M  V30 9039 H 853.029 3.00308 -1.83052 0
M  V30 9040 H 852.903 3.76343 -0.254075 0
M  V30 9041 H 855.29 2.93638 0.293407 0
M  V30 9042 H 855.371 2.19611 -1.31167 0
M  V30 9043 H 855.015 4.49466 -2.36522 0
M  V30 9044 H 854.945 5.21418 -0.736967 0
M  V30 9045 H 857.436 3.66393 -0.92545 0
M  V30 9046 H 857.749 7.31499 -2.49257 0
M  V30 9047 H 856.094 6.58081 -2.23506 0
M  V30 9048 H 859.285 4.5171 -1.22785 0
M  V30 9049 H 859.458 6.18208 -1.94225 0
M  V30 9050 N 852.864 0.259585 1.55447 0
M  V30 9051 C 854.11 -0.362143 1.9954 0
M  V30 9052 C 854.443 -1.5666 1.14767 0
M  V30 9053 O 853.718 -1.93319 0.214025 0
M  V30 9054 C 854.001 -0.759588 3.51998 0
M  V30 9055 C 853.854 0.451134 4.47532 0
M  V30 9056 C 855.173 -1.60186 4.09913 0
M  V30 9057 H 852.292 -0.130157 0.725416 0
M  V30 9058 H 854.934 0.363431 1.86492 0
M  V30 9059 H 853.084 -1.3778 3.63248 0
M  V30 9060 H 854.756 1.08965 4.48246 0
M  V30 9061 H 852.999 1.092 4.19831 0
M  V30 9062 H 853.67 0.129518 5.51848 0
M  V30 9063 H 856.146 -1.0799 4.01842 0
M  V30 9064 H 855.022 -1.84879 5.16828 0
M  V30 9065 H 855.283 -2.57787 3.59163 0
M  V30 9066 N 854.342 -1.57594 -0.0133615 0
M  V30 9067 C 855.758 -1.5527 -0.369255 0
M  V30 9068 C 855.958 -0.987751 -1.7563 0
M  V30 9069 O 855.014 -0.615683 -2.44879 0
M  V30 9070 C 856.327 -2.99602 -0.25672 0
M  V30 9071 C 857.875 -3.11227 -0.332647 0
M  V30 9072 C 858.35 -4.57321 -0.249387 0
M  V30 9073 N 859.841 -4.62177 -0.3077 0
M  V30 9074 C 860.576 -5.72781 -0.26641 0
M  V30 9075 N 860.072 -6.92575 -0.176494 0
M  V30 9076 N 861.865 -5.61204 -0.317295 0
M  V30 9077 H 854.016 -1.92662 0.894154 0
M  V30 9078 H 856.279 -0.884352 0.341505 0
M  V30 9079 H 855.985 -3.44723 0.697072 0
M  V30 9080 H 855.859 -3.6246 -1.04415 0
M  V30 9081 H 858.246 -2.66045 -1.27688 0
M  V30 9082 H 858.327 -2.51171 0.484412 0
M  V30 9083 H 857.971 -5.03174 0.691242 0
M  V30 9084 H 857.901 -5.15306 -1.08476 0
M  V30 9085 H 860.392 -3.75994 -0.379069 0
M  V30 9086 H 860.705 -7.72653 -0.150518 0
M  V30 9087 H 859.05 -6.94854 -0.142314 0
M  V30 9088 H 862.241 -4.66509 -0.385643 0
M  V30 9089 H 862.414 -6.47388 -0.28165 0
M  V30 9090 N 855.82 0.285905 -1.54985 0
M  V30 9091 C 857.066 1.02071 -1.75241 0
M  V30 9092 C 857.399 1.864 -0.544842 0
M  V30 9093 O 856.674 1.89034 0.457844 0
M  V30 9094 C 856.957 1.91409 -3.05016 0
M  V30 9095 C 856.81 1.10158 -4.36102 0
M  V30 9096 C 858.129 2.90335 -3.30747 0
M  V30 9097 H 855.248 0.369663 -0.637588 0
M  V30 9098 H 857.89 0.294114 -1.8771 0
M  V30 9099 H 856.04 2.53362 -2.94517 0
M  V30 9100 H 857.712 0.503756 -4.58541 0
M  V30 9101 H 855.955 0.404675 -4.31908 0
M  V30 9102 H 856.626 1.75956 -5.23205 0
M  V30 9103 H 859.102 2.38514 -3.40955 0
M  V30 9104 H 857.978 3.49997 -4.2284 0
M  V30 9105 H 858.239 3.64787 -2.49765 0
M  V30 9106 N 857.298 1.47698 0.54982 0
M  V30 9107 C 858.208 1.63386 1.68351 0
M  V30 9108 C 859.224 0.516583 1.66155 0
M  V30 9109 O 860.4 0.785088 1.85468 0
M  V30 9110 C 857.465 1.6513 3.04849 0
M  V30 9111 C 856.526 2.88338 3.18056 0
M  V30 9112 C 855.759 2.8999 4.48042 0
M  V30 9113 O 855.982 2.00633 5.3395 0
M  V30 9114 O 854.916 3.81938 4.65196 0
M  V30 9115 H 858.742 2.59329 1.58057 0
M  V30 9116 H 856.327 1.30869 0.72067 0
M  V30 9117 H 858.209 1.68913 3.86065 0
M  V30 9118 H 856.884 0.723555 3.1551 0
M  V30 9119 H 855.791 2.90097 2.36209 0
M  V30 9120 H 857.124 3.80431 3.12302 0
M  V30 9121 N 858.776 -0.797141 1.35954 0
M  V30 9122 C 860.053 -1.54224 1.2031 0
M  V30 9123 C 860.433 -2.10013 -0.213926 0
M  V30 9124 O 859.781 -1.93292 -1.21862 0
M  V30 9125 C 859.991 -2.6433 2.27883 0
M  V30 9126 C 861.339 -3.32418 2.64165 0
M  V30 9127 O 862.363 -2.74607 2.26868 0
M  V30 9128 O 861.222 -4.36876 3.28331 0
M  V30 9129 H 858.316 -0.681857 0.467974 0
M  V30 9130 H 860.862 -0.836288 1.47663 0
M  V30 9131 H 859.634 -2.21044 3.22885 0
M  V30 9132 H 859.257 -3.42551 2.01853 0
M  V30 9133 N 860.254 -1.20106 -1.0204 0
M  V30 9134 C 861.503 -1.00316 -1.74985 0
M  V30 9135 C 861.816 0.465814 -1.89972 0
M  V30 9136 O 863.022 0.782749 -2.59972 0
M  V30 9137 C 861.478 -1.74608 -3.14706 0
M  V30 9138 C 861.086 -3.25573 -3.07744 0
M  V30 9139 C 862.83 -1.63172 -3.91887 0
M  V30 9140 C 860.737 -3.92419 -4.42449 0
M  V30 9141 H 859.667 -0.371728 -0.655999 0
M  V30 9142 H 862.318 -1.43688 -1.14131 0
M  V30 9143 H 860.7 -1.24021 -3.76078 0
M  V30 9144 H 861.874 -3.83345 -2.55702 0
M  V30 9145 H 860.189 -3.3738 -2.44057 0
M  V30 9146 H 862.786 -2.10457 -4.9154 0
M  V30 9147 H 863.129 -0.58728 -4.12137 0
M  V30 9148 H 863.662 -2.11152 -3.37135 0
M  V30 9149 H 860.401 -4.96998 -4.27403 0
M  V30 9150 H 859.921 -3.39436 -4.94513 0
M  V30 9151 H 861.6 -3.96453 -5.11306 0
M  V30 9152 N 861.732 1.21287 -1.00634 0
M  V30 9153 C 862.665 2.22366 -0.512687 0
M  V30 9154 C 863.643 1.56692 0.434332 0
M  V30 9155 O 864.827 1.85094 0.35674 0
M  V30 9156 C 861.954 3.37738 0.255139 0
M  V30 9157 C 861 4.21673 -0.639883 0
M  V30 9158 S 861.833 4.92474 -2.10308 0
M  V30 9159 C 862.989 6.11275 -1.34512 0
M  V30 9160 H 863.222 2.63896 -1.36918 0
M  V30 9161 H 860.755 1.31176 -0.814387 0
M  V30 9162 H 862.713 4.04624 0.692067 0
M  V30 9163 H 861.374 2.94689 1.08707 0
M  V30 9164 H 860.567 5.03977 -0.0483821 0
M  V30 9165 H 860.169 3.59988 -1.01414 0
M  V30 9166 H 862.461 6.7466 -0.619721 0
M  V30 9167 H 863.404 6.74864 -2.14393 0
M  V30 9168 H 863.812 5.58026 -0.852506 0
M  V30 9169 N 863.21 0.781244 1.36873 0
M  V30 9170 C 864.456 0.350407 1.9975 0
M  V30 9171 C 864.789 -1.07293 1.6187 0
M  V30 9172 O 864.064 -1.73983 0.869491 0
M  V30 9173 C 864.347 0.504834 3.56544 0
M  V30 9174 C 864.2 1.97127 4.04303 0
M  V30 9175 C 865.519 -0.0851272 4.40018 0
M  V30 9176 H 862.638 0.128794 0.725659 0
M  V30 9177 H 865.28 0.98606 1.6241 0
M  V30 9178 H 863.43 -0.0363006 3.88483 0
M  V30 9179 H 865.102 2.57284 3.82887 0
M  V30 9180 H 863.345 2.47676 3.56145 0
M  V30 9181 H 864.016 2.03033 5.13305 0
M  V30 9182 H 866.492 0.376704 4.14391 0
M  V30 9183 H 865.368 0.0530015 5.48874 0
M  V30 9184 H 865.629 -1.17642 4.2616 0
M  V30 9185 N 864.689 -1.48329 0.532571 0
M  V30 9186 C 866.105 -1.58458 0.190605 0
M  V30 9187 C 866.305 -1.53427 -1.30623 0
M  V30 9188 O 865.361 -1.4247 -2.08467 0
M  V30 9189 C 866.674 -2.89989 0.79543 0
M  V30 9190 C 868.222 -3.03523 0.7644 0
M  V30 9191 C 868.697 -4.37718 1.34785 0
M  V30 9192 N 870.188 -4.44292 1.30993 0
M  V30 9193 C 870.923 -5.4664 1.73124 0
M  V30 9194 N 870.419 -6.5593 2.22997 0
M  V30 9195 N 872.212 -5.37538 1.64346 0
M  V30 9196 H 864.363 -1.49842 1.50537 0
M  V30 9197 H 866.626 -0.71164 0.626316 0
M  V30 9198 H 866.332 -2.99333 1.84642 0
M  V30 9199 H 866.206 -3.76203 0.27403 0
M  V30 9200 H 868.593 -2.93789 -0.277831 0
M  V30 9201 H 868.674 -2.18912 1.3233 0
M  V30 9202 H 868.318 -4.48206 2.38902 0
M  V30 9203 H 868.248 -5.21019 0.764609 0
M  V30 9204 H 870.739 -3.65897 0.944868 0
M  V30 9205 H 871.052 -7.30167 2.53133 0
M  V30 9206 H 869.397 -6.56886 2.26992 0
M  V30 9207 H 872.588 -4.51052 1.25178 0
M  V30 9208 H 872.761 -6.17169 1.97501 0
M  V30 9209 N 866.167 -0.267825 -1.55308 0
M  V30 9210 C 867.444 0.402449 -1.91415 0
M  V30 9211 C 867.824 1.7428 -1.1912 0
M  V30 9212 O 867.172 2.2631 -0.315609 0
M  V30 9213 C 867.382 0.549926 -3.4464 0
M  V30 9214 C 868.73 0.836188 -4.16285 0
M  V30 9215 O 869.754 0.635009 -3.50494 0
M  V30 9216 O 868.613 1.22051 -5.32697 0
M  V30 9217 H 865.707 0.219177 -0.797427 0
M  V30 9218 H 868.253 -0.313439 -1.6678 0
M  V30 9219 H 867.025 -0.393641 -3.89315 0
M  V30 9220 H 866.648 1.31556 -3.75205 0
M  V30 9221 N 867.645 1.57599 0.00500368 0
M  V30 9222 C 868.891 1.90631 0.691919 0
M  V30 9223 C 869.224 0.868443 1.737 0
M  V30 9224 O 868.499 -0.113482 1.94169 0
M  V30 9225 C 868.782 3.34255 1.33961 0
M  V30 9226 C 868.635 4.48755 0.306413 0
M  V30 9227 C 869.954 3.77211 2.26715 0
M  V30 9228 H 867.073 0.693279 0.250066 0
M  V30 9229 H 869.715 1.89946 -0.0452634 0
M  V30 9230 H 867.865 3.3497 1.96793 0
M  V30 9231 H 869.537 4.60176 -0.321841 0
M  V30 9232 H 867.78 4.32203 -0.371852 0
M  V30 9233 H 868.451 5.46193 0.798554 0
M  V30 9234 H 870.927 3.78017 1.73904 0
M  V30 9235 H 869.803 4.78466 2.69002 0
M  V30 9236 H 870.064 3.10801 3.14413 0
M  V30 9237 N 869.123 -0.277682 1.55134 0
M  V30 9238 C 870.534 -0.849063 1.66276 0
M  V30 9239 C 870.885 -1.87223 0.5867 0
M  V30 9240 O 870.01 -2.14676 -0.272635 0
M  V30 9241 C 870.605 -1.54681 3.01429 0
M  V30 9242 C 869.164 -2.06628 3.14614 0
M  V30 9243 C 868.311 -0.906748 2.62056 0
M  V30 9244 H 871.262 -0.0541357 1.58608 0
M  V30 9245 H 871.283 -2.41356 2.94156 0
M  V30 9246 H 870.795 -0.80189 3.79725 0
M  V30 9247 H 868.896 -2.84095 2.41082 0
M  V30 9248 H 869.009 -2.2848 4.2111 0
M  V30 9249 H 867.373 -1.29882 2.19095 0
M  V30 9250 H 868.156 -0.175414 3.42852 0
M  V30 9251 N 870.601 -1.47988 -0.541979 0
M  V30 9252 C 871.551 -1.58019 -1.64359 0
M  V30 9253 C 872.535 -0.438056 -1.54822 0
M  V30 9254 O 873.727 -0.688837 -1.63046 0
M  V30 9255 C 870.856 -1.61182 -3.03109 0
M  V30 9256 C 869.942 -2.80834 -3.17794 0
M  V30 9257 N 870.333 -4.05379 -3.02492 0
M  V30 9258 C 868.631 -2.77914 -3.48826 0
M  V30 9259 C 869.332 -4.85592 -3.20274 0
M  V30 9260 N 868.308 -4.18188 -3.47304 0
M  V30 9261 H 872.11 -2.52071 -1.5112 0
M  V30 9262 H 869.624 -1.44193 -0.747137 0
M  V30 9263 H 871.621 -1.66461 -3.82226 0
M  V30 9264 H 870.281 -0.682375 -3.17449 0
M  V30 9265 H 871.292 -4.36003 -2.79503 0
M  V30 9266 H 867.969 -1.94174 -3.69598 0
M  V30 9267 H 869.359 -5.94394 -3.13282 0
M  V30 9268 N 872.079 0.78992 -1.36375 0
M  V30 9269 C 873.325 1.55007 -1.3077 0
M  V30 9270 C 873.658 1.93871 0.112979 0
M  V30 9271 O 872.933 1.6267 1.06625 0
M  V30 9272 C 873.216 2.82748 -2.22993 0
M  V30 9273 C 873.069 2.50253 -3.73756 0
M  V30 9274 C 874.388 3.84569 -2.13998 0
M  V30 9275 H 871.507 0.562362 -0.476359 0
M  V30 9276 H 874.149 0.907582 -1.66922 0
M  V30 9277 H 872.299 3.37573 -1.92292 0
M  V30 9278 H 873.971 2.01482 -4.14973 0
M  V30 9279 H 872.214 1.83203 -3.93216 0
M  V30 9280 H 872.885 3.41487 -4.33694 0
M  V30 9281 H 875.361 3.39188 -2.4102 0
M  V30 9282 H 874.237 4.717 -2.80697 0
M  V30 9283 H 874.498 4.27491 -1.12711 0
M  V30 9284 N 873.557 1.20646 1.01402 0
M  V30 9285 C 874.52 0.959314 2.08158 0
M  V30 9286 C 875.52 -0.0661558 1.60664 0
M  V30 9287 O 876.71 0.170177 1.73367 0
M  V30 9288 C 873.842 0.444785 3.37986 0
M  V30 9289 H 875.035 1.90631 2.31517 0
M  V30 9290 H 872.588 1.02219 1.18241 0
M  V30 9291 H 873.323 -0.507553 3.20304 0
M  V30 9292 H 873.108 1.18435 3.73785 0
M  V30 9293 H 874.598 0.291443 4.16582 0
M  V30 9294 N 875.035 -1.20752 1.01276 0
M  V30 9295 C 875.965 -2.25658 0.600064 0
M  V30 9296 C 876.946 -1.65733 -0.38298 0
M  V30 9297 O 878.131 -1.92324 -0.269256 0
M  V30 9298 C 875.261 -3.47237 -0.0663197 0
M  V30 9299 C 874.215 -4.1973 0.83731 0
M  V30 9300 C 873.541 -5.34687 0.0369102 0
M  V30 9301 C 874.841 -4.76286 2.14357 0
M  V30 9302 H 876.535 -2.60432 1.477 0
M  V30 9303 H 874.081 -1.25187 0.711634 0
M  V30 9304 H 876.034 -4.19803 -0.366563 0
M  V30 9305 H 874.758 -3.11615 -0.977944 0
M  V30 9306 H 873.417 -3.49024 1.1215 0
M  V30 9307 H 873.065 -4.95309 -0.876244 0
M  V30 9308 H 872.765 -5.84119 0.63865 0
M  V30 9309 H 874.289 -6.10059 -0.256968 0
M  V30 9310 H 875.703 -5.40691 1.90595 0
M  V30 9311 H 874.1 -5.36139 2.69583 0
M  V30 9312 H 875.17 -3.9524 2.80916 0
M  V30 9313 N 876.513 -0.788492 -1.36457 0
M  V30 9314 C 877.738 -0.371224 -2.04051 0
M  V30 9315 C 878.163 1.004 -1.59064 0
M  V30 9316 O 877.521 1.64663 -0.758679 0
M  V30 9317 C 877.569 -0.442275 -3.57877 0
M  V30 9318 O 876.673 0.55113 -4.08701 0
M  V30 9319 H 876.014 -0.157808 -0.644975 0
M  V30 9320 H 878.544 -1.06935 -1.74431 0
M  V30 9321 H 878.554 -0.305548 -4.06854 0
M  V30 9322 H 877.229 -1.44547 -3.89973 0
M  V30 9323 H 875.806 0.37614 -3.70998 0
M  V30 9324 N 877.991 1.48044 -0.54043 0
M  V30 9325 C 879.231 2.04396 -0.012296 0
M  V30 9326 C 879.595 1.40748 1.30591 0
M  V30 9327 O 880.796 1.88048 1.92072 0
M  V30 9328 C 879.067 3.5727 0.0964302 0
M  V30 9329 S 880.626 4.35041 0.573117 0
M  V30 9330 H 877.444 0.710795 -0.0170735 0
M  V30 9331 H 880.046 1.81625 -0.723362 0
M  V30 9332 H 878.75 4.01124 -0.86762 0
M  V30 9333 H 878.281 3.84511 0.83156 0
M  V30 9334 H 880.296 4.6099 1.83583 0
M  V30 9335 N 879.47 0.276058 1.55163 0
M  V30 9336 C 880.698 -0.343772 2.04024 0
M  V30 9337 C 881.113 -1.49397 1.15438 0
M  V30 9338 O 880.47 -1.81662 0.174692 0
M  V30 9339 C 880.521 -0.823885 3.51986 0
M  V30 9340 O 880.242 0.280507 4.37201 0
M  V30 9341 C 881.743 -1.51143 4.16738 0
M  V30 9342 H 878.963 -0.07828 0.666418 0
M  V30 9343 H 881.507 0.408427 2.0038 0
M  V30 9344 H 879.662 -1.52617 3.56071 0
M  V30 9345 H 880.076 -0.0887831 5.24425 0
M  V30 9346 H 881.55 -1.79878 5.2187 0
M  V30 9347 H 882.027 -2.44327 3.64967 0
M  V30 9348 H 882.633 -0.852975 4.16659 0
M  V30 9349 N 880.948 -1.576 0.00335426 0
M  V30 9350 C 882.195 -1.90713 -0.680791 0
M  V30 9351 C 882.523 -0.877263 -1.73592 0
M  V30 9352 O 881.778 0.117497 -1.95347 0
M  V30 9353 C 882.077 -3.3058 -1.35837 0
M  V30 9354 C 881.743 -4.48786 -0.436111 0
M  V30 9355 C 880.405 -4.80855 -0.182195 0
M  V30 9356 C 882.757 -5.20821 0.198677 0
M  V30 9357 C 880.085 -5.8233 0.714747 0
M  V30 9358 C 882.437 -6.23252 1.08351 0
M  V30 9359 C 881.101 -6.53776 1.34658 0
M  V30 9360 H 880.371 -0.697869 -0.249119 0
M  V30 9361 H 883.018 -1.91407 0.0596011 0
M  V30 9362 H 881.323 -3.26026 -2.17289 0
M  V30 9363 H 883.02 -3.53462 -1.89383 0
M  V30 9364 H 879.61 -4.23731 -0.644186 0
M  V30 9365 H 883.794 -4.96298 0.0155259 0
M  V30 9366 H 879.05 -6.04339 0.926529 0
M  V30 9367 H 883.224 -6.78199 1.58172 0
M  V30 9368 H 880.851 -7.32225 2.04328 0
M  V30 9369 N 882.426 0.269451 -1.5528 0
M  V30 9370 C 883.842 0.616827 -1.47199 0
M  V30 9371 C 884.042 1.89354 -0.68901 0
M  V30 9372 O 883.098 2.51631 -0.209287 0
M  V30 9373 C 884.411 0.740492 -2.9144 0
M  V30 9374 C 885.959 0.834312 -3.01676 0
M  V30 9375 C 886.434 0.989725 -4.47178 0
M  V30 9376 N 887.925 1.05516 -4.51022 0
M  V30 9377 C 888.66 1.19427 -5.60825 0
M  V30 9378 N 888.156 1.30035 -6.80487 0
M  V30 9379 N 889.949 1.22566 -5.48575 0
M  V30 9380 H 882.1 -0.568962 -2.04638 0
M  V30 9381 H 884.363 -0.193153 -0.928114 0
M  V30 9382 H 884.069 -0.127234 -3.5147 0
M  V30 9383 H 883.943 1.61965 -3.40657 0
M  V30 9384 H 886.33 1.6925 -2.4174 0
M  V30 9385 H 886.411 -0.0695298 -2.55705 0
M  V30 9386 H 886.055 0.136179 -5.07717 0
M  V30 9387 H 885.985 1.90827 -4.90808 0
M  V30 9388 H 888.476 0.985434 -3.64825 0
M  V30 9389 H 888.789 1.40494 -7.59922 0
M  V30 9390 H 887.134 1.27033 -6.83292 0
M  V30 9391 H 890.325 1.13911 -4.54029 0
M  V30 9392 H 890.498 1.33063 -6.34191 0
M  V30 9393 N 883.904 1.48273 0.534124 0
M  V30 9394 C 885.181 1.46567 1.29528 0
M  V30 9395 C 885.561 0.17509 2.10373 0
M  V30 9396 O 884.909 -0.843228 2.12372 0
M  V30 9397 C 885.119 2.72519 2.18023 0
M  V30 9398 C 886.467 3.2068 2.78298 0
M  V30 9399 O 887.491 2.73408 2.28313 0
M  V30 9400 O 886.35 4.02924 3.69208 0
M  V30 9401 H 883.444 0.585151 0.584403 0
M  V30 9402 H 885.99 1.60502 0.551119 0
M  V30 9403 H 884.762 3.57965 1.5804 0
M  V30 9404 H 884.385 2.61285 2.99693 0
M  V30 9405 N 885.382 -0.782676 1.36792 0
M  V30 9406 C 886.312 -1.90973 1.34356 0
M  V30 9407 C 887.293 -1.6875 0.213917 0
M  V30 9408 O 888.478 -1.89766 0.412601 0
M  V30 9409 C 885.608 -3.28097 1.13884 0
M  V30 9410 C 884.562 -3.6486 2.23744 0
M  V30 9411 C 883.888 -5.00406 1.88408 0
M  V30 9412 C 885.188 -3.72742 3.6587 0
M  V30 9413 H 886.882 -1.93268 2.28665 0
M  V30 9414 H 884.428 -0.928447 1.10072 0
M  V30 9415 H 886.381 -4.06569 1.10813 0
M  V30 9416 H 885.105 -3.26206 0.160275 0
M  V30 9417 H 883.764 -2.88689 2.25952 0
M  V30 9418 H 883.412 -4.95044 0.891083 0
M  V30 9419 H 883.112 -5.25973 2.61966 0
M  V30 9420 H 884.636 -5.81291 1.86905 0
M  V30 9421 H 886.05 -4.4139 3.65852 0
M  V30 9422 H 884.447 -4.09798 4.38389 0
M  V30 9423 H 885.517 -2.73676 4.00287 0
M  V30 9424 N 886.86 -1.21182 -1.00761 0
M  V30 9425 C 888.276 -0.968607 -1.26847 0
M  V30 9426 C 888.476 0.346561 -1.98497 0
M  V30 9427 O 887.532 1.07287 -2.28573 0
M  V30 9428 C 888.845 -2.1574 -2.09467 0
M  V30 9429 C 890.393 -2.19937 -2.22703 0
M  V30 9430 C 890.868 -3.38328 -3.08704 0
M  V30 9431 N 892.359 -3.38398 -3.16293 0
M  V30 9432 C 893.094 -4.26653 -3.83086 0
M  V30 9433 N 892.59 -5.25101 -4.5193 0
M  V30 9434 N 894.383 -4.14469 -3.797 0
M  V30 9435 H 886.534 -2.05763 -0.526816 0
M  V30 9436 H 888.797 -0.90087 -0.29519 0
M  V30 9437 H 888.503 -3.11034 -1.64167 0
M  V30 9438 H 888.377 -2.14584 -3.10216 0
M  V30 9439 H 890.764 -1.25201 -2.67224 0
M  V30 9440 H 890.845 -2.25139 -1.21433 0
M  V30 9441 H 890.489 -4.33356 -2.64886 0
M  V30 9442 H 890.419 -3.30364 -4.10082 0
M  V30 9443 H 892.91 -2.67149 -2.67282 0
M  V30 9444 H 893.223 -5.8875 -5.00592 0
M  V30 9445 H 891.568 -5.29029 -4.50726 0
M  V30 9446 H 894.759 -3.3682 -3.25069 0
M  V30 9447 H 894.932 -4.83458 -4.31477 0
M  V30 9448 N 888.338 1.20213 -1.01915 0
M  V30 9449 C 889.268 2.25336 -0.612023 0
M  V30 9450 C 890.249 1.65933 0.374186 0
M  V30 9451 O 891.434 1.92464 0.259053 0
M  V30 9452 C 888.564 3.47267 0.047904 0
M  V30 9453 C 887.518 4.1928 -0.859557 0
M  V30 9454 C 886.844 5.3466 -0.0652655 0
M  V30 9455 C 888.144 4.75143 -2.1688 0
M  V30 9456 H 889.838 2.59645 -1.49079 0
M  V30 9457 H 887.384 1.24808 -0.718263 0
M  V30 9458 H 889.337 4.19991 0.344294 0
M  V30 9459 H 888.061 3.12129 0.961404 0
M  V30 9460 H 886.72 3.48425 -1.13999 0
M  V30 9461 H 886.368 4.95767 0.849964 0
M  V30 9462 H 886.068 5.83772 -0.669618 0
M  V30 9463 H 887.592 6.10187 0.224612 0
M  V30 9464 H 889.006 5.39672 -1.9346 0
M  V30 9465 H 887.403 5.34702 -2.72422 0
M  V30 9466 H 888.473 3.93744 -2.83008 0
M  V30 9467 N 889.816 0.795718 1.36037 0
M  V30 9468 C 890.779 0.204318 2.28287 0
M  V30 9469 C 891.779 -0.602017 1.49105 0
M  V30 9470 O 892.969 -0.422089 1.69009 0
M  V30 9471 C 890.101 -0.716431 3.33287 0
M  V30 9472 H 891.294 1.01781 2.821 0
M  V30 9473 H 888.847 0.565588 1.45708 0
M  V30 9474 H 889.582 -1.55403 2.84641 0
M  V30 9475 H 889.367 -0.140096 3.9185 0
M  V30 9476 H 890.857 -1.12488 4.02164 0
M  V30 9477 N 891.294 -1.47756 0.548274 0
M  V30 9478 C 892.224 -2.32702 -0.19284 0
M  V30 9479 C 893.205 -1.43237 -0.917457 0
M  V30 9480 O 894.39 -1.72103 -0.89967 0
M  V30 9481 C 891.52 -3.24831 -1.22891 0
M  V30 9482 C 890.474 -4.23466 -0.621312 0
M  V30 9483 C 889.8 -5.04856 -1.76137 0
M  V30 9484 C 891.1 -5.20616 0.419055 0
M  V30 9485 H 892.794 -2.94914 0.516323 0
M  V30 9486 H 890.34 -1.41818 0.24975 0
M  V30 9487 H 892.293 -3.83094 -1.75547 0
M  V30 9488 H 891.017 -2.60656 -1.9679 0
M  V30 9489 H 889.676 -3.66416 -0.116123 0
M  V30 9490 H 889.324 -4.37091 -2.48918 0
M  V30 9491 H 889.024 -5.71629 -1.36065 0
M  V30 9492 H 890.548 -5.65976 -2.29136 0
M  V30 9493 H 891.962 -5.73296 -0.0211034 0
M  V30 9494 H 890.359 -5.95543 0.738163 0
M  V30 9495 H 891.429 -4.66638 1.31822 0
M  V30 9496 N 892.772 -0.284283 -1.55015 0
M  V30 9497 C 893.722 0.613913 -2.19579 0
M  V30 9498 C 894.706 1.11153 -1.16335 0
M  V30 9499 O 895.898 1.05508 -1.42116 0
M  V30 9500 C 893.027 1.79329 -2.92739 0
M  V30 9501 C 892.113 1.31242 -4.03282 0
M  V30 9502 N 892.504 0.548344 -5.02819 0
M  V30 9503 C 890.802 1.5946 -4.1652 0
M  V30 9504 C 891.503 0.294358 -5.80955 0
M  V30 9505 N 890.479 0.869406 -5.36603 0
M  V30 9506 H 894.281 0.0224088 -2.93891 0
M  V30 9507 H 891.795 -0.0882619 -1.6216 0
M  V30 9508 H 893.792 2.44814 -3.37449 0
M  V30 9509 H 892.452 2.38865 -2.1994 0
M  V30 9510 H 893.463 0.194812 -5.17533 0
M  V30 9511 H 890.14 2.19866 -3.54916 0
M  V30 9512 H 891.53 -0.318195 -6.71146 0
M  V30 9513 N 894.251 1.57596 -0.0117121 0
M  V30 9514 C 895.667 1.55837 0.344506 0
M  V30 9515 C 895.867 1.01557 1.74036 0
M  V30 9516 O 894.923 0.654563 2.43868 0
M  V30 9517 C 896.236 2.99973 0.209023 0
M  V30 9518 C 897.784 3.11717 0.283092 0
M  V30 9519 C 898.259 4.57659 0.176599 0
M  V30 9520 N 899.75 4.62608 0.234133 0
M  V30 9521 C 900.485 5.73132 0.175252 0
M  V30 9522 N 899.981 6.92768 0.0662888 0
M  V30 9523 N 901.774 5.61638 0.227972 0
M  V30 9524 H 893.925 1.91215 -0.924692 0
M  V30 9525 H 896.188 0.878807 -0.355531 0
M  V30 9526 H 895.894 3.4357 -0.751826 0
M  V30 9527 H 895.768 3.64075 0.98635 0
M  V30 9528 H 898.155 2.68043 1.23439 0
M  V30 9529 H 898.236 2.50369 -0.52431 0
M  V30 9530 H 897.88 5.02011 -0.771205 0
M  V30 9531 H 897.81 5.16967 1.00264 0
M  V30 9532 H 900.301 3.76549 0.319203 0
M  V30 9533 H 900.614 7.72795 0.0275765 0
M  V30 9534 H 898.959 6.94993 0.0317502 0
M  V30 9535 H 902.15 4.67063 0.311377 0
M  V30 9536 H 902.323 6.47754 0.178621 0
M  V30 9537 N 895.729 -0.261212 1.5542 0
M  V30 9538 C 896.957 -1.00916 1.8062 0
M  V30 9539 C 897.372 -1.79494 0.585444 0
M  V30 9540 O 896.729 -1.76974 -0.445702 0
M  V30 9541 C 896.78 -1.95841 3.03856 0
M  V30 9542 O 896.501 -1.20445 4.21218 0
M  V30 9543 C 898.002 -2.82352 3.41749 0
M  V30 9544 H 895.222 -0.297596 0.601397 0
M  V30 9545 H 897.766 -0.288427 2.02456 0
M  V30 9546 H 895.921 -2.63361 2.84112 0
M  V30 9547 H 896.335 -1.84528 4.90968 0
M  V30 9548 H 897.809 -3.44733 4.31118 0
M  V30 9549 H 898.286 -3.5273 2.61683 0
M  V30 9550 H 898.892 -2.20306 3.63793 0
M  V30 9551 N 897.207 -1.48554 -0.526253 0
M  V30 9552 C 898.154 -1.63354 -1.63046 0
M  V30 9553 C 899.124 -0.475509 -1.59148 0
M  V30 9554 O 900.309 -0.699453 -1.77517 0
M  V30 9555 C 897.449 -1.68271 -3.01295 0
M  V30 9556 C 896.562 -2.95207 -3.15399 0
M  V30 9557 C 895.697 -2.91262 -4.4423 0
M  V30 9558 C 894.736 -4.12886 -4.51876 0
M  V30 9559 N 893.873 -4.06996 -5.721 0
M  V30 9560 H 898.713 -2.57649 -1.49737 0
M  V30 9561 H 896.25 -1.27769 -0.728938 0
M  V30 9562 H 898.208 -1.69104 -3.81392 0
M  V30 9563 H 896.838 -0.774641 -3.13367 0
M  V30 9564 H 895.89 -3.04102 -2.2853 0
M  V30 9565 H 897.202 -3.85187 -3.1691 0
M  V30 9566 H 896.356 -2.90516 -5.32621 0
M  V30 9567 H 895.095 -1.99016 -4.45246 0
M  V30 9568 H 894.1 -4.13902 -3.61891 0
M  V30 9569 H 895.325 -5.06294 -4.52596 0
M  V30 9570 H 893.271 -3.17573 -5.74006 0
M  V30 9571 H 893.188 -4.90685 -5.75121 0
M  V30 9572 H 894.456 -4.10315 -6.62768 0
M  V30 9573 N 898.685 0.775411 -1.37205 0
M  V30 9574 C 899.933 1.53081 -1.3195 0
M  V30 9575 C 900.254 1.9476 0.0966864 0
M  V30 9576 O 899.524 1.66019 1.03993 0
M  V30 9577 H 898.104 0.567762 -0.485444 0
M  V30 9578 H 900.766 0.92309 -1.71654 0
M  V30 9579 H 899.862 2.4319 -1.95614 0
M  V30 9580 N 900.163 1.21714 1.00117 0
M  V30 9581 C 901.579 0.97532 1.26332 0
M  V30 9582 C 901.779 -0.336029 1.98678 0
M  V30 9583 O 900.835 -1.06073 2.29139 0
M  V30 9584 C 902.148 2.16848 2.0832 0
M  V30 9585 C 903.696 2.21115 2.21533 0
M  V30 9586 C 904.171 3.3996 3.06906 0
M  V30 9587 N 905.662 3.40071 3.14494 0
M  V30 9588 C 906.397 4.28678 3.80818 0
M  V30 9589 N 905.893 5.2749 4.49139 0
M  V30 9590 N 907.686 4.16476 3.77497 0
M  V30 9591 H 899.837 2.06039 0.515897 0
M  V30 9592 H 902.1 0.902423 0.290408 0
M  V30 9593 H 901.806 3.119 1.62515 0
M  V30 9594 H 901.68 2.16226 3.09073 0
M  V30 9595 H 904.067 1.26616 2.66557 0
M  V30 9596 H 904.148 2.2578 1.20238 0
M  V30 9597 H 903.792 4.34755 2.62585 0
M  V30 9598 H 903.722 3.32534 4.08324 0
M  V30 9599 H 906.213 2.68563 2.65861 0
M  V30 9600 H 906.526 5.91397 4.97463 0
M  V30 9601 H 904.871 5.31412 4.47914 0
M  V30 9602 H 908.062 3.38539 3.23278 0
M  V30 9603 H 908.235 4.85739 4.28908 0
M  V30 9604 N 901.641 -1.19671 1.02551 0
M  V30 9605 C 902.574 -2.21522 0.547998 0
M  V30 9606 C 903.552 -1.57363 -0.409349 0
M  V30 9607 O 904.736 -1.85638 -0.327248 0
M  V30 9608 C 901.863 -3.38101 -0.201375 0
M  V30 9609 C 900.909 -4.20601 0.706886 0
M  V30 9610 S 901.742 -4.89066 2.18116 0
M  V30 9611 C 902.898 -6.09058 1.4422 0
M  V30 9612 H 903.131 -2.61684 1.41099 0
M  V30 9613 H 900.664 -1.29864 0.835153 0
M  V30 9614 H 902.622 -4.05674 -0.627607 0
M  V30 9615 H 901.283 -2.96381 -1.04005 0
M  V30 9616 H 900.476 -5.03836 0.128554 0
M  V30 9617 H 900.078 -3.58329 1.07129 0
M  V30 9618 H 902.37 -6.73588 0.726975 0
M  V30 9619 H 903.313 -6.71368 2.25102 0
M  V30 9620 H 903.721 -5.56599 0.941176 0
M  V30 9621 N 903.119 -0.802921 -1.35613 0
M  V30 9622 C 904.049 -0.225131 -2.32412 0
M  V30 9623 C 905.03 0.647383 -1.57299 0
M  V30 9624 O 906.215 0.578414 -1.85386 0
M  V30 9625 C 903.345 0.630085 -3.41537 0
M  V30 9626 C 902.299 -0.143635 -4.27759 0
M  V30 9627 C 901.625 0.833046 -5.28171 0
M  V30 9628 C 902.925 -1.34054 -5.04804 0
M  V30 9629 H 904.619 -1.03385 -2.80984 0
M  V30 9630 H 902.165 -0.498593 -1.35093 0
M  V30 9631 H 904.118 1.04433 -4.08254 0
M  V30 9632 H 902.842 1.47165 -2.91565 0
M  V30 9633 H 901.501 -0.539015 -3.62616 0
M  V30 9634 H 901.149 1.67001 -4.74468 0
M  V30 9635 H 900.849 0.319697 -5.8673 0
M  V30 9636 H 902.373 1.24558 -5.97761 0
M  V30 9637 H 903.787 -1.00136 -5.64487 0
M  V30 9638 H 902.184 -1.78812 -5.72841 0
M  V30 9639 H 903.254 -2.12906 -4.35659 0
M  V30 9640 N 904.597 1.47463 -0.556102 0
M  V30 9641 C 905.56 2.28478 0.181743 0
M  V30 9642 C 906.56 1.36886 0.843738 0
M  V30 9643 O 907.75 1.59527 0.69977 0
M  V30 9644 C 904.882 3.16534 1.26566 0
M  V30 9645 H 906.075 2.95182 -0.529892 0
M  V30 9646 H 903.628 1.53134 -0.313005 0
M  V30 9647 H 904.363 2.5452 2.00973 0
M  V30 9648 H 904.148 3.83939 0.795798 0
M  V30 9649 H 905.638 3.77579 1.78393 0
M  V30 9650 N 906.075 0.2925 1.54862 0
M  V30 9651 C 907.005 -0.580677 2.26165 0
M  V30 9652 C 907.986 -1.14485 1.25806 0
M  V30 9653 O 909.171 -1.17577 1.54562 0
M  V30 9654 C 906.301 -1.75668 2.99596 0
M  V30 9655 C 905.255 -1.32325 4.07031 0
M  V30 9656 C 904.581 -2.58374 4.68131 0
M  V30 9657 C 905.881 -0.460703 5.20264 0
M  V30 9658 H 907.575 0.0140075 2.99397 0
M  V30 9659 H 905.121 0.00817706 1.43998 0
M  V30 9660 H 907.074 -2.37356 3.48195 0
M  V30 9661 H 905.798 -2.37747 2.23928 0
M  V30 9662 H 904.457 -0.729477 3.59269 0
M  V30 9663 H 904.105 -3.18749 3.89112 0
M  V30 9664 H 903.805 -2.30078 5.40683 0
M  V30 9665 H 905.329 -3.2088 5.19489 0
M  V30 9666 H 906.743 -0.983037 5.64809 0
M  V30 9667 H 905.14 -0.271881 5.99484 0
M  V30 9668 H 906.21 0.516304 4.82143 0
M  V30 9669 N 907.553 -1.57587 0.0200696 0
M  V30 9670 C 908.799 -1.91708 -0.661503 0
M  V30 9671 C 909.132 -0.895968 -1.72296 0
M  V30 9672 O 908.407 0.082577 -1.94325 0
M  V30 9673 C 908.69 -3.36344 -1.28627 0
M  V30 9674 C 908.543 -4.49186 -0.234982 0
M  V30 9675 C 909.862 -3.80771 -2.20685 0
M  V30 9676 H 906.981 -0.69717 -0.239005 0
M  V30 9677 H 909.623 -1.8985 0.0754764 0
M  V30 9678 H 907.773 -3.38058 -1.91439 0
M  V30 9679 H 909.445 -4.59606 0.395011 0
M  V30 9680 H 907.688 -4.31557 0.440565 0
M  V30 9681 H 908.359 -5.47395 -0.711558 0
M  V30 9682 H 910.835 -3.80735 -1.67868 0
M  V30 9683 H 909.711 -4.82685 -2.61356 0
M  V30 9684 H 909.972 -3.15764 -3.09428 0
M  V30 9685 N 909.032 0.252966 -1.55557 0
M  V30 9686 C 909.942 1.33472 -1.92931 0
M  V30 9687 C 910.958 1.52983 -0.828985 0
M  V30 9688 O 912.134 1.66723 -1.12984 0
M  V30 9689 C 909.199 2.6704 -2.21112 0
M  V30 9690 C 908.26 2.56103 -3.44542 0
M  V30 9691 C 907.493 3.83302 -3.71369 0
M  V30 9692 O 907.716 4.84907 -3.00368 0
M  V30 9693 O 906.65 3.823 -4.64898 0
M  V30 9694 H 910.476 1.04768 -2.85057 0
M  V30 9695 H 908.061 0.453208 -1.4236 0
M  V30 9696 H 909.943 3.45981 -2.40572 0
M  V30 9697 H 908.618 2.95489 -1.32166 0
M  V30 9698 H 907.525 1.7547 -3.30396 0
M  V30 9699 H 908.858 2.32601 -4.33772 0
M  V30 9700 N 910.51 1.48831 0.518367 0
M  V30 9701 C 911.735 1.61379 1.30275 0
M  V30 9702 C 912.16 0.278571 1.86026 0
M  V30 9703 O 911.518 -0.751427 1.64995 0
M  V30 9704 C 911.566 2.67225 2.42122 0
M  V30 9705 O 910.67 2.25192 3.45489 0
M  V30 9706 H 910.011 0.540742 0.385349 0
M  V30 9707 H 912.541 1.949 0.622498 0
M  V30 9708 H 912.551 2.88859 2.8814 0
M  V30 9709 H 911.226 3.64155 2.00907 0
M  V30 9710 H 909.803 2.13819 3.05509 0
M  V30 9711 N 911.988 -0.768124 1.37614 0
M  V30 9712 C 913.399 -1.34462 1.29525 0
M  V30 9713 C 913.75 -1.96121 -0.0555168 0
M  V30 9714 O 912.875 -1.94069 -0.957406 0
M  V30 9715 C 913.47 -2.44475 2.34558 0
M  V30 9716 C 912.029 -2.97883 2.30093 0
M  V30 9717 C 911.176 -1.71131 2.18196 0
M  V30 9718 H 914.127 -0.568103 1.48183 0
M  V30 9719 H 914.148 -3.24047 1.99434 0
M  V30 9720 H 913.66 -1.99568 3.32858 0
M  V30 9721 H 911.761 -3.47156 1.35328 0
M  V30 9722 H 911.874 -3.53251 3.23652 0
M  V30 9723 H 910.238 -1.94197 1.64802 0
M  V30 9724 H 911.021 -1.28323 3.18415 0
M  V30 9725 N 913.466 -1.22244 -0.994698 0
M  V30 9726 C 914.376 -1.00722 -2.11878 0
M  V30 9727 C 915.392 0.043919 -1.73945 0
M  V30 9728 O 916.568 -0.148411 -2.00852 0
M  V30 9729 C 913.633 -0.585723 -3.41717 0
M  V30 9730 C 912.694 -1.71027 -3.93762 0
M  V30 9731 C 911.927 -1.30879 -5.17403 0
M  V30 9732 O 912.15 -0.18681 -5.70094 0
M  V30 9733 O 911.084 -2.1246 -5.63156 0
M  V30 9734 H 914.91 -1.94894 -2.32916 0
M  V30 9735 H 912.495 -1.00822 -1.10251 0
M  V30 9736 H 914.377 -0.360935 -4.19851 0
M  V30 9737 H 913.052 0.327166 -3.22042 0
M  V30 9738 H 911.959 -1.98956 -3.16808 0
M  V30 9739 H 913.292 -2.60096 -4.17865 0
M  V30 9740 N 914.944 1.19125 -1.03184 0
M  V30 9741 C 916.169 1.93379 -0.749628 0
M  V30 9742 C 916.594 1.75153 0.685785 0
M  V30 9743 O 915.952 1.05579 1.47386 0
M  V30 9744 C 916 3.43101 -1.1097 0
M  V30 9745 O 915.104 4.11758 -0.230053 0
M  V30 9746 H 914.445 0.603605 -0.276689 0
M  V30 9747 H 916.975 1.51116 -1.37931 0
M  V30 9748 H 916.985 3.93778 -1.06785 0
M  V30 9749 H 915.66 3.55688 -2.15544 0
M  V30 9750 H 914.237 3.7143 -0.330748 0
M  V30 9751 N 916.422 0.810101 1.35185 0
M  V30 9752 C 917.355 0.168416 2.27578 0
M  V30 9753 C 918.333 -0.667664 1.4826 0
M  V30 9754 O 919.517 -0.634184 1.77512 0
M  V30 9755 C 916.644 -0.765994 3.29925 0
M  V30 9756 C 915.69 -0.00908802 4.26499 0
M  V30 9757 S 916.523 1.32936 5.18737 0
M  V30 9758 C 917.679 0.399485 6.24624 0
M  V30 9759 H 917.912 0.951753 2.81654 0
M  V30 9760 H 915.445 0.60534 1.42039 0
M  V30 9761 H 917.403 -1.2996 3.89385 0
M  V30 9762 H 916.064 -1.52275 2.7472 0
M  V30 9763 H 915.257 -0.718919 4.98846 0
M  V30 9764 H 914.859 0.454663 3.71226 0
M  V30 9765 H 917.151 -0.413904 6.76234 0
M  V30 9766 H 918.094 1.09225 6.99625 0
M  V30 9767 H 918.502 -0.00638358 5.645 0
M  V30 9768 N 917.9 -1.47166 0.563914 0
M  V30 9769 C 919.149 -2.0166 0.0401871 0
M  V30 9770 C 919.462 -1.44303 -1.32046 0
M  V30 9771 O 920.668 -1.905 -1.93448 0
M  V30 9772 C 919.124 -3.59894 0.0213257 0
M  V30 9773 C 918.732 -4.26244 1.37914 0
M  V30 9774 C 920.476 -4.22114 -0.449442 0
M  V30 9775 C 918.383 -5.76503 1.31902 0
M  V30 9776 H 917.313 -0.753916 0.0112534 0
M  V30 9777 H 919.964 -1.69091 0.712766 0
M  V30 9778 H 918.346 -3.89454 -0.717038 0
M  V30 9779 H 919.52 -4.08317 2.13574 0
M  V30 9780 H 917.835 -3.76039 1.78839 0
M  V30 9781 H 920.432 -5.32234 -0.51292 0
M  V30 9782 H 920.775 -3.89749 -1.46291 0
M  V30 9783 H 921.308 -3.9711 0.23427 0
M  V30 9784 H 918.047 -6.13498 2.3087 0
M  V30 9785 H 917.567 -5.96748 0.604324 0
M  V30 9786 H 919.246 -6.38846 1.02392 0
M  V30 9787 N 919.378 -0.300708 -1.54705 0
M  V30 9788 C 920.308 0.568675 -2.26469 0
M  V30 9789 C 921.289 1.13817 -1.26411 0
M  V30 9790 O 922.474 1.16756 -1.55183 0
M  V30 9791 C 919.604 1.74077 -3.00524 0
M  V30 9792 C 918.558 1.30165 -4.07727 0
M  V30 9793 C 917.884 2.55888 -4.69495 0
M  V30 9794 C 919.184 0.433106 -5.20501 0
M  V30 9795 H 920.878 -0.0298851 -2.99385 0
M  V30 9796 H 918.424 -0.0158135 -1.43991 0
M  V30 9797 H 920.377 2.35506 -3.49449 0
M  V30 9798 H 919.101 2.36556 -2.25186 0
M  V30 9799 H 917.76 0.710414 -3.59651 0
M  V30 9800 H 917.408 3.16681 -3.90797 0
M  V30 9801 H 917.108 2.27207 -5.41895 0
M  V30 9802 H 918.632 3.18121 -5.21183 0
M  V30 9803 H 920.046 0.95307 -5.65322 0
M  V30 9804 H 918.443 0.240085 -5.9962 0
M  V30 9805 H 919.513 -0.541866 -4.81863 0
M  V30 9806 N 920.856 1.57574 -0.0284266 0
M  V30 9807 C 921.786 2.1321 0.952039 0
M  V30 9808 C 922.767 1.04806 1.33977 0
M  V30 9809 O 923.952 1.32635 1.41851 0
M  V30 9810 C 921.082 2.65862 2.23461 0
M  V30 9811 C 920.036 3.79047 1.98765 0
M  V30 9812 C 919.362 4.18124 3.33281 0
M  V30 9813 C 920.662 5.05151 1.32739 0
M  V30 9814 H 922.356 2.95385 0.488705 0
M  V30 9815 H 919.902 1.42092 0.233628 0
M  V30 9816 H 921.855 3.03417 2.92431 0
M  V30 9817 H 920.579 1.80848 2.71959 0
M  V30 9818 H 919.238 3.41929 1.32213 0
M  V30 9819 H 918.886 3.30092 3.79537 0
M  V30 9820 H 918.586 4.94396 3.17563 0
M  V30 9821 H 920.11 4.58262 4.0352 0
M  V30 9822 H 921.524 5.40297 1.91708 0
M  V30 9823 H 919.921 5.86416 1.27421 0
M  V30 9824 H 920.991 4.83969 0.300261 0
M  V30 9825 N 922.334 -0.244713 1.55689 0
M  V30 9826 C 923.582 -0.970525 1.77272 0
M  V30 9827 C 923.903 -1.85771 0.592804 0
M  V30 9828 O 923.173 -1.91952 -0.391323 0
M  V30 9829 H 921.753 -0.361342 0.653789 0
M  V30 9830 H 924.415 -0.262134 1.93129 0
M  V30 9831 H 923.511 -1.59096 2.68505 0
M  V30 9832 N 923.813 -1.49104 -0.510467 0
M  V30 9833 C 925.038 -1.62068 -1.29417 0
M  V30 9834 C 925.463 -0.288432 -1.85875 0
M  V30 9835 O 924.821 0.742667 -1.65391 0
M  V30 9836 C 924.869 -2.68506 -2.40701 0
M  V30 9837 O 923.973 -2.27021 -3.4429 0
M  V30 9838 H 923.314 -0.542778 -0.382476 0
M  V30 9839 H 925.844 -1.95228 -0.612154 0
M  V30 9840 H 925.854 -2.90383 -2.86604 0
M  V30 9841 H 924.529 -3.65216 -1.98973 0
M  V30 9842 H 923.106 -2.15436 -3.04371 0
M  V30 9843 N 925.291 0.760815 -1.38019 0
M  V30 9844 C 926.54 1.51506 -1.3315 0
M  V30 9845 C 926.853 1.95444 0.0782124 0
M  V30 9846 O 928.059 2.70352 0.249418 0
M  V30 9847 C 926.515 2.73636 -2.33776 0
M  V30 9848 C 926.123 2.36753 -3.80332 0
M  V30 9849 C 927.867 3.51548 -2.37937 0
M  V30 9850 C 925.774 3.55451 -4.72661 0
M  V30 9851 H 924.704 0.568844 -0.494907 0
M  V30 9852 H 927.355 0.832343 -1.63537 0
M  V30 9853 H 925.737 3.43852 -1.96422 0
M  V30 9854 H 926.911 1.7425 -4.26584 0
M  V30 9855 H 925.226 1.71991 -3.7922 0
M  V30 9856 H 927.823 4.39791 -3.04119 0
M  V30 9857 H 928.166 3.9219 -1.39617 0
M  V30 9858 H 928.699 2.88339 -2.74054 0
M  V30 9859 H 925.438 3.19882 -5.7215 0
M  V30 9860 H 924.958 4.17022 -4.31107 0
M  V30 9861 H 926.637 4.22125 -4.90326 0
M  V30 9862 N 926.769 1.22769 0.988202 0
M  V30 9863 C 927.679 1.01844 2.11341 0
M  V30 9864 C 928.695 -0.0346937 1.73965 0
M  V30 9865 O 929.871 0.159061 2.00771 0
M  V30 9866 C 926.936 0.603837 3.41401 0
M  V30 9867 C 925.997 1.73113 3.92849 0
M  V30 9868 C 925.23 1.33621 5.16702 0
M  V30 9869 O 925.453 0.217041 5.69987 0
M  V30 9870 O 924.387 2.15444 5.62021 0
M  V30 9871 H 928.213 1.96127 2.31879 0
M  V30 9872 H 925.798 1.01405 1.09715 0
M  V30 9873 H 927.68 0.383196 4.19654 0
M  V30 9874 H 926.355 -0.310082 3.22211 0
M  V30 9875 H 925.262 2.00634 3.15748 0
M  V30 9876 H 926.595 2.62308 4.1648 0
M  V30 9877 N 928.247 -1.18576 1.03814 0
M  V30 9878 C 929.663 -1.4051 0.756909 0
M  V30 9879 C 929.863 -1.9057 -0.654631 0
M  V30 9880 O 928.919 -2.0884 -1.41922 0
M  V30 9881 C 930.232 -2.4081 1.80087 0
M  V30 9882 C 931.78 -2.54541 1.82148 0
M  V30 9883 C 932.255 -3.58102 2.85529 0
M  V30 9884 N 933.746 -3.65607 2.84404 0
M  V30 9885 C 934.481 -4.45458 3.61047 0
M  V30 9886 N 933.977 -5.28937 4.47434 0
M  V30 9887 N 935.77 -4.40196 3.49548 0
M  V30 9888 H 927.921 -0.844075 1.94908 0
M  V30 9889 H 930.184 -0.433287 0.843188 0
M  V30 9890 H 929.89 -2.1107 2.81322 0
M  V30 9891 H 929.764 -3.4012 1.63089 0
M  V30 9892 H 932.151 -2.83598 0.815855 0
M  V30 9893 H 932.232 -1.55352 2.03223 0
M  V30 9894 H 931.876 -3.29786 3.86269 0
M  V30 9895 H 931.806 -4.56963 2.6171 0
M  V30 9896 H 934.297 -3.05994 2.21756 0
M  V30 9897 H 934.61 -5.8701 5.02632 0
M  V30 9898 H 932.955 -5.28366 4.51503 0
M  V30 9899 H 936.146 -3.74026 2.81464 0
M  V30 9900 H 936.319 -5.02186 4.09528 0
M  V30 9901 N 929.725 -0.817259 -1.34754 0
M  V30 9902 C 930.95 -0.414423 -2.03217 0
M  V30 9903 C 931.375 0.970037 -1.61158 0
M  V30 9904 O 930.733 1.63016 -0.793436 0
M  V30 9905 C 930.781 -0.518087 -3.56859 0
M  V30 9906 O 929.885 0.464314 -4.09778 0
M  V30 9907 H 929.226 -0.171454 -0.641482 0
M  V30 9908 H 931.756 -1.10611 -1.72123 0
M  V30 9909 H 931.766 -0.391779 -4.06115 0
M  V30 9910 H 930.441 -1.52786 -3.86819 0
M  V30 9911 H 929.018 0.297361 -3.71712 0
M  V30 9912 N 931.203 1.46865 -0.571711 0
M  V30 9913 C 932.135 2.28277 0.205479 0
M  V30 9914 C 933.148 1.37866 0.865835 0
M  V30 9915 O 934.337 1.62564 0.737247 0
M  V30 9916 C 931.437 3.12572 1.30965 0
M  V30 9917 C 930.61 4.31038 0.743328 0
M  V30 9918 C 929.669 4.96815 1.73382 0
M  V30 9919 O 928.695 5.54755 1.2742 0
M  V30 9920 N 929.897 4.92825 3.06764 0
M  V30 9921 H 932.662 2.95618 -0.49294 0
M  V30 9922 H 930.223 1.56655 -0.408744 0
M  V30 9923 H 932.215 3.53442 1.97131 0
M  V30 9924 H 930.785 2.47378 1.91109 0
M  V30 9925 H 930.005 3.94084 -0.0955004 0
M  V30 9926 H 931.293 5.07632 0.344556 0
M  V30 9927 H 930.691 4.46978 3.46738 0
M  V30 9928 H 929.248 5.3767 3.68449 0
M  V30 9929 N 932.681 0.308908 1.54543 0
M  V30 9930 C 933.927 -0.298478 2.00592 0
M  V30 9931 C 934.26 -1.52929 1.19692 0
M  V30 9932 O 933.535 -1.9254 0.27542 0
M  V30 9933 C 933.818 -0.647218 3.54236 0
M  V30 9934 C 933.671 0.593284 4.4587 0
M  V30 9935 C 934.99 -1.47064 4.14801 0
M  V30 9936 H 932.109 -0.107012 0.72919 0
M  V30 9937 H 934.751 0.422578 1.85241 0
M  V30 9938 H 932.901 -1.26153 3.67447 0
M  V30 9939 H 934.573 1.2317 4.44552 0
M  V30 9940 H 932.816 1.22501 4.16144 0
M  V30 9941 H 933.487 0.305018 5.51157 0
M  V30 9942 H 935.963 -0.951511 4.05075 0
M  V30 9943 H 934.839 -1.68343 5.22448 0
M  V30 9944 H 935.1 -2.4623 3.67183 0
M  V30 9945 N 934.159 -1.57557 0.0367827 0
M  V30 9946 C 935.405 -1.92399 -0.641133 0
M  V30 9947 C 935.738 -0.914191 -1.71336 0
M  V30 9948 O 935.013 0.0619616 -1.94401 0
M  V30 9949 C 935.296 -3.37689 -1.25052 0
M  V30 9950 C 935.149 -4.4941 -0.187326 0
M  V30 9951 C 936.468 -3.8309 -2.16634 0
M  V30 9952 H 933.587 -0.699666 -0.231597 0
M  V30 9953 H 936.229 -1.89759 0.0956083 0
M  V30 9954 H 934.379 -3.40069 -1.87843 0
M  V30 9955 H 936.051 -4.59161 0.443736 0
M  V30 9956 H 934.294 -4.31065 0.486313 0
M  V30 9957 H 934.965 -5.48119 -0.653459 0
M  V30 9958 H 937.441 -3.82494 -1.63821 0
M  V30 9959 H 936.317 -4.85429 -2.56222 0
M  V30 9960 H 936.578 -3.19028 -3.06062 0
M  V30 9961 N 935.637 0.236453 -1.55816 0
M  V30 9962 C 936.6 1.27633 -1.90375 0
M  V30 9963 C 937.6 1.40557 -0.781048 0
M  V30 9964 O 938.79 1.39078 -1.04895 0
M  V30 9965 C 935.922 2.65247 -2.14142 0
M  V30 9966 H 937.115 0.982019 -2.83366 0
M  V30 9967 H 934.668 0.476215 -1.48869 0
M  V30 9968 H 935.403 2.99801 -1.23653 0
M  V30 9969 H 935.188 2.57246 -2.95917 0
M  V30 9970 H 936.678 3.40313 -2.42026 0
M  V30 9971 N 937.115 1.49373 0.502552 0
M  V30 9972 C 938.045 1.68839 1.61294 0
M  V30 9973 C 939.026 0.537096 1.61398 0
M  V30 9974 O 940.211 0.772764 1.78163 0
M  V30 9975 C 937.341 1.75347 2.99784 0
M  V30 9976 C 936.295 2.90251 3.14545 0
M  V30 9977 C 935.621 2.8187 4.54371 0
M  V30 9978 C 936.921 4.31207 2.94717 0
M  V30 9979 H 938.615 2.61803 1.45257 0
M  V30 9980 H 936.161 1.25987 0.697371 0
M  V30 9981 H 938.114 1.87552 3.77362 0
M  V30 9982 H 936.838 0.789814 3.16906 0
M  V30 9983 H 935.497 2.77646 2.39392 0
M  V30 9984 H 935.145 1.83416 4.68367 0
M  V30 9985 H 934.845 3.5899 4.65188 0
M  V30 9986 H 936.369 2.96081 5.34012 0
M  V30 9987 H 937.783 4.44501 3.62065 0
M  V30 9988 H 936.18 5.09536 3.17007 0
M  V30 9989 H 937.25 4.45759 1.90857 0
M  V30 9990 N 938.594 -0.753485 1.38421 0
M  V30 9991 C 939.524 -1.8808 1.38377 0
M  V30 9992 C 940.505 -1.68258 0.249664 0
M  V30 9993 O 941.69 -1.88848 0.45276 0
M  V30 9994 C 938.82 -3.25608 1.20818 0
M  V30 9995 C 937.774 -3.60032 2.31433 0
M  V30 9996 C 937.1 -4.96297 1.9898 0
M  V30 9997 C 938.4 -3.64898 3.73694 0
M  V30 9998 H 940.094 -1.88375 2.32713 0
M  V30 9999 H 937.64 -0.90489 1.12017 0
M  V30 10000 H 939.593 -4.04127 1.19412 0
M  V30 10001 H 938.317 -3.25793 0.229433 0
M  V30 10002 H 936.976 -2.83831 2.32025 0
M  V30 10003 H 936.624 -4.93043 0.995889 0
M  V30 10004 H 936.324 -5.20298 2.73063 0
M  V30 10005 H 937.848 -5.77196 1.99193 0
M  V30 10006 H 939.262 -4.33531 3.75132 0
M  V30 10007 H 937.659 -4.00407 4.46983 0
M  V30 10008 H 938.729 -2.65124 4.06002 0
M  V30 10009 N 940.072 -1.23292 -0.981677 0
M  V30 10010 C 941.32 -1.06214 -1.71939 0
M  V30 10011 C 941.641 0.401989 -1.90812 0
M  V30 10012 O 940.911 1.28825 -1.47584 0
M  V30 10013 H 939.491 -0.390042 -0.637084 0
M  V30 10014 H 942.153 -1.54988 -1.18173 0
M  V30 10015 H 941.249 -1.54904 -2.70945 0
M  V30 10016 N 941.55 1.18024 -1.04442 0
M  V30 10017 C 942.513 2.19992 -0.643136 0
M  V30 10018 C 943.513 1.57949 0.301444 0
M  V30 10019 O 944.703 1.73986 0.0863341 0
M  V30 10020 C 941.835 3.40853 0.0565208 0
M  V30 10021 H 943.028 2.57008 -1.54554 0
M  V30 10022 H 940.581 1.31974 -0.837408 0
M  V30 10023 H 941.316 3.09373 0.972553 0
M  V30 10024 H 941.101 3.87128 -0.622439 0
M  V30 10025 H 942.591 4.16344 0.323652 0
M  V30 10026 N 943.028 0.824394 1.34319 0
M  V30 10027 C 943.96 0.204805 2.28283 0
M  V30 10028 C 944.973 -0.606162 1.51094 0
M  V30 10029 O 946.162 -0.435602 1.73103 0
M  V30 10030 C 943.262 -0.73139 3.30914 0
M  V30 10031 C 942.435 0.0370723 4.37384 0
M  V30 10032 C 941.494 -0.820272 5.19767 0
M  V30 10033 O 940.52 -0.264721 5.68584 0
M  V30 10034 N 941.722 -2.13984 5.39621 0
M  V30 10035 H 944.487 1.0121 2.82093 0
M  V30 10036 H 942.048 0.681494 1.46858 0
M  V30 10037 H 944.04 -1.30958 3.82926 0
M  V30 10038 H 942.61 -1.43943 2.77487 0
M  V30 10039 H 941.83 0.796578 3.86068 0
M  V30 10040 H 943.118 0.566014 5.05642 0
M  V30 10041 H 942.516 -2.61492 5.01636 0
M  V30 10042 H 941.073 -2.66685 5.94746 0
M  V30 10043 N 944.506 -1.46559 0.579492 0
M  V30 10044 C 945.436 -2.33059 -0.143437 0
M  V30 10045 C 946.417 -1.4515 -0.886868 0
M  V30 10046 O 947.602 -1.73973 -0.862961 0
M  V30 10047 C 944.732 -3.27364 -1.15973 0
M  V30 10048 C 943.686 -4.24689 -0.531348 0
M  V30 10049 C 943.012 -5.08479 -1.65388 0
M  V30 10050 C 944.312 -5.1961 0.529391 0
M  V30 10051 H 946.006 -2.93753 0.578762 0
M  V30 10052 H 943.552 -1.41256 0.279775 0
M  V30 10053 H 945.505 -3.86732 -1.67382 0
M  V30 10054 H 944.229 -2.64771 -1.91217 0
M  V30 10055 H 942.888 -3.6658 -0.0383749 0
M  V30 10056 H 942.536 -4.42273 -2.3959 0
M  V30 10057 H 942.236 -5.74387 -1.23909 0
M  V30 10058 H 943.76 -5.70709 -2.17079 0
M  V30 10059 H 945.174 -5.73212 0.100506 0
M  V30 10060 H 943.571 -5.93843 0.86432 0
M  V30 10061 H 944.641 -4.63737 1.4169 0
M  V30 10062 N 945.984 -0.3171 -1.54377 0
M  V30 10063 C 947.209 0.292311 -2.0533 0
M  V30 10064 C 947.634 1.45503 -1.19207 0
M  V30 10065 O 946.992 1.80197 -0.199721 0
M  V30 10066 C 947.04 0.710787 -3.53525 0
M  V30 10067 O 946.144 1.81387 -3.70368 0
M  V30 10068 H 945.485 0.0539976 -0.661801 0
M  V30 10069 H 948.015 -0.463629 -1.99278 0
M  V30 10070 H 948.025 0.995216 -3.95676 0
M  V30 10071 H 946.7 -0.139668 -4.15665 0
M  V30 10072 H 945.277 1.52875 -3.40123 0
M  V30 10073 N 947.462 1.57535 -0.0451378 0
M  V30 10074 C 948.873 1.80116 0.491426 0
M  V30 10075 C 949.224 0.956846 1.71286 0
M  V30 10076 O 948.349 0.17173 2.15718 0
M  V30 10077 C 948.944 3.26674 0.898315 0
M  V30 10078 C 947.503 3.50194 1.37989 0
M  V30 10079 C 946.65 2.75054 0.352202 0
M  V30 10080 H 949.601 1.56368 -0.271065 0
M  V30 10081 H 949.622 3.37263 1.76164 0
M  V30 10082 H 949.134 3.88099 0.009141 0
M  V30 10083 H 947.235 2.94041 2.28846 0
M  V30 10084 H 947.348 4.58909 1.37622 0
M  V30 10085 H 945.712 2.4101 0.823784 0
M  V30 10086 H 946.495 3.39203 -0.528782 0
M  V30 10087 N 948.94 -0.228186 1.55939 0
M  V30 10088 C 949.903 -1.26621 1.91049 0
M  V30 10089 C 950.903 -1.40141 0.788491 0
M  V30 10090 O 952.093 -1.3852 1.05631 0
M  V30 10091 C 949.225 -2.64108 2.15545 0
M  V30 10092 H 950.418 -0.966978 2.83883 0
M  V30 10093 H 947.971 -0.468313 1.49119 0
M  V30 10094 H 948.706 -2.99141 1.25241 0
M  V30 10095 H 948.491 -2.55673 2.97277 0
M  V30 10096 H 949.981 -3.39025 2.43827 0
M  V30 10097 N 950.418 -1.49637 -0.494624 0
M  V30 10098 C 951.834 -1.36541 -0.826361 0
M  V30 10099 C 952.034 -0.403386 -1.97421 0
M  V30 10100 O 951.09 0.162614 -2.51976 0
M  V30 10101 C 952.403 -2.77401 -1.16057 0
M  V30 10102 C 953.951 -2.86148 -1.26841 0
M  V30 10103 C 954.426 -4.27789 -1.63587 0
M  V30 10104 N 955.917 -4.3063 -1.70624 0
M  V30 10105 C 956.652 -5.37198 -2.00514 0
M  V30 10106 N 956.148 -6.54004 -2.28584 0
M  V30 10107 N 957.941 -5.2462 -2.01818 0
M  V30 10108 H 950.092 -2.10776 0.26219 0
M  V30 10109 H 952.355 -0.946419 0.0547235 0
M  V30 10110 H 952.061 -3.49526 -0.390434 0
M  V30 10111 H 951.935 -3.1317 -2.10249 0
M  V30 10112 H 954.322 -2.14256 -2.02925 0
M  V30 10113 H 954.403 -2.53953 -0.30684 0
M  V30 10114 H 954.047 -5.00209 -0.880507 0
M  V30 10115 H 953.977 -4.57453 -2.60854 0
M  V30 10116 H 956.468 -3.46393 -1.51065 0
M  V30 10117 H 956.781 -7.31041 -2.50598 0
M  V30 10118 H 955.126 -6.57219 -2.26027 0
M  V30 10119 H 958.317 -4.32371 -1.79369 0
M  V30 10120 H 958.49 -6.07765 -2.24778 0
M  V30 10121 N 951.896 0.746133 -1.38819 0
M  V30 10122 C 953.312 1.0502 -1.20179 0
M  V30 10123 C 953.512 2.01423 -0.0556271 0
M  V30 10124 O 952.568 2.45359 0.59625 0
M  V30 10125 C 953.881 1.62315 -2.53129 0
M  V30 10126 C 955.429 1.74449 -2.59878 0
M  V30 10127 C 955.904 2.35155 -3.93022 0
M  V30 10128 N 957.395 2.42577 -3.94602 0
M  V30 10129 C 958.13 2.9046 -4.94389 0
M  V30 10130 N 957.626 3.38322 -6.04574 0
M  V30 10131 N 959.419 2.89568 -4.81775 0
M  V30 10132 H 951.57 0.106551 -2.12133 0
M  V30 10133 H 953.833 0.109897 -0.941609 0
M  V30 10134 H 953.539 0.98946 -3.37495 0
M  V30 10135 H 953.413 2.61276 -2.72057 0
M  V30 10136 H 955.8 2.36943 -1.75903 0
M  V30 10137 H 955.881 0.741721 -2.4481 0
M  V30 10138 H 955.525 1.73292 -4.77422 0
M  V30 10139 H 955.455 3.36088 -4.05404 0
M  V30 10140 H 957.946 2.08735 -3.15021 0
M  V30 10141 H 958.259 3.73336 -6.76639 0
M  V30 10142 H 956.604 3.3636 -6.08184 0
M  V30 10143 H 959.795 2.51492 -3.94803 0
M  V30 10144 H 959.968 3.26571 -5.59692 0
M  V30 10145 N 953.375 1.23811 0.975125 0
M  V30 10146 C 954.791 1.0019 1.24234 0
M  V30 10147 C 954.991 -0.293811 1.99346 0
M  V30 10148 O 954.047 -1.01189 2.31337 0
M  V30 10149 C 955.36 2.21218 2.03674 0
M  V30 10150 C 956.908 2.25764 2.16793 0
M  V30 10151 C 957.383 3.46394 2.99626 0
M  V30 10152 N 958.874 3.46665 3.07209 0
M  V30 10153 C 959.609 4.3666 3.71639 0
M  V30 10154 N 959.105 5.36899 4.37849 0
M  V30 10155 N 960.898 4.2439 3.68578 0
M  V30 10156 H 953.049 2.07087 0.472076 0
M  V30 10157 H 955.312 0.90838 0.271201 0
M  V30 10158 H 955.018 3.15277 1.55862 0
M  V30 10159 H 954.892 2.22733 3.04417 0
M  V30 10160 H 957.279 1.32242 2.63811 0
M  V30 10161 H 957.36 2.28279 1.15422 0
M  V30 10162 H 957.004 4.40227 2.53304 0
M  V30 10163 H 956.934 3.41121 4.01178 0
M  V30 10164 H 959.425 2.74142 2.60105 0
M  V30 10165 H 959.738 6.01816 4.84807 0
M  V30 10166 H 958.083 5.40793 4.36541 0
M  V30 10167 H 961.274 3.4532 3.16025 0
M  V30 10168 H 961.447 4.94727 4.18508 0
M  V30 10169 N 954.853 -1.17469 1.05066 0
M  V30 10170 C 955.785 -2.20974 0.608526 0
M  V30 10171 C 956.798 -1.59481 -0.327066 0
M  V30 10172 O 957.987 -1.78096 -0.12 0
M  V30 10173 C 955.087 -3.38652 -0.12969 0
M  V30 10174 C 954.26 -4.29716 0.816285 0
M  V30 10175 C 953.319 -5.26064 0.119556 0
M  V30 10176 O 952.345 -5.64194 0.753241 0
M  V30 10177 N 953.547 -5.69126 -1.14347 0
M  V30 10178 H 956.312 -2.59529 1.49882 0
M  V30 10179 H 953.873 -1.32355 0.932406 0
M  V30 10180 H 955.865 -4.00139 -0.605886 0
M  V30 10181 H 954.435 -2.98705 -0.921638 0
M  V30 10182 H 953.655 -3.6568 1.47213 0
M  V30 10183 H 954.943 -4.87449 1.45845 0
M  V30 10184 H 954.341 -5.4022 -1.67866 0
M  V30 10185 H 952.898 -6.32764 -1.56376 0
M  V30 10186 N 956.331 -0.831506 -1.3388 0
M  V30 10187 C 957.281 -0.231656 -2.2682 0
M  V30 10188 C 958.265 0.609075 -1.48926 0
M  V30 10189 O 959.457 0.462249 -1.70857 0
M  V30 10190 C 956.586 0.59846 -3.38043 0
M  V30 10191 C 955.672 -0.253372 -4.23342 0
M  V30 10192 N 956.063 -1.32854 -4.8804 0
M  V30 10193 C 954.361 -0.0391537 -4.45983 0
M  V30 10194 C 955.062 -1.85069 -5.51475 0
M  V30 10195 N 954.038 -1.15327 -5.31226 0
M  V30 10196 H 957.84 -1.05396 -2.74352 0
M  V30 10197 H 955.354 -0.675195 -1.47699 0
M  V30 10198 H 957.351 1.04443 -4.03605 0
M  V30 10199 H 956.011 1.41882 -2.92061 0
M  V30 10200 H 957.022 -1.71139 -4.88806 0
M  V30 10201 H 953.699 0.748356 -4.10738 0
M  V30 10202 H 955.089 -2.75065 -6.13016 0
M  V30 10203 N 957.809 1.4625 -0.587256 0
M  V30 10204 C 958.742 2.27392 0.191837 0
M  V30 10205 C 959.72 1.35905 0.89267 0
M  V30 10206 O 960.904 1.65319 0.905643 0
M  V30 10207 C 958.031 3.13758 1.27567 0
M  V30 10208 C 957.077 4.21041 0.680186 0
M  V30 10209 S 957.91 5.33194 -0.496419 0
M  V30 10210 C 959.066 6.23127 0.588506 0
M  V30 10211 H 959.299 2.93123 -0.496635 0
M  V30 10212 H 956.832 1.49795 -0.37426 0
M  V30 10213 H 958.79 3.6408 1.8962 0
M  V30 10214 H 957.451 2.47332 1.93612 0
M  V30 10215 H 956.644 4.81316 1.49503 0
M  V30 10216 H 956.246 3.73755 0.135227 0
M  V30 10217 H 958.538 6.61294 1.47298 0
M  V30 10218 H 959.481 7.08096 0.0224093 0
M  V30 10219 H 959.889 5.57365 0.894696 0
M  V30 10220 N 959.287 0.325282 1.54207 0
M  V30 10221 C 960.219 -0.57395 2.21897 0
M  V30 10222 C 961.232 -1.0785 1.21952 0
M  V30 10223 O 962.421 -0.991782 1.48411 0
M  V30 10224 C 959.521 -1.8005 2.87115 0
M  V30 10225 C 958.694 -1.43435 4.13213 0
M  V30 10226 C 957.753 -2.51862 4.62009 0
M  V30 10227 O 956.779 -2.15934 5.26651 0
M  V30 10228 N 957.981 -3.8282 4.36382 0
M  V30 10229 H 960.746 0.00566918 2.99699 0
M  V30 10230 H 958.307 0.148563 1.61217 0
M  V30 10231 H 960.299 -2.51981 3.16682 0
M  V30 10232 H 958.869 -2.28792 2.13009 0
M  V30 10233 H 958.089 -0.546598 3.90392 0
M  V30 10234 H 959.377 -1.16544 4.95273 0
M  V30 10235 H 958.775 -4.14807 3.84645 0
M  V30 10236 H 957.332 -4.50976 4.70599 0
M  V30 10237 N 960.765 -1.57509 0.0534917 0
M  V30 10238 C 961.675 -2.15152 -0.935249 0
M  V30 10239 C 962.691 -1.10991 -1.34003 0
M  V30 10240 O 963.867 -1.43171 -1.41648 0
M  V30 10241 C 960.932 -2.68699 -2.19093 0
M  V30 10242 C 959.993 -3.87666 -1.84428 0
M  V30 10243 C 959.226 -4.3865 -3.0401 0
M  V30 10244 O 959.449 -3.887 -4.17455 0
M  V30 10245 O 958.383 -5.30209 -2.84889 0
M  V30 10246 H 962.209 -2.99962 -0.475009 0
M  V30 10247 H 959.794 -1.48446 -0.16854 0
M  V30 10248 H 961.676 -3.03098 -2.92762 0
M  V30 10249 H 960.351 -1.86958 -2.6425 0
M  V30 10250 H 959.258 -3.58151 -1.08068 0
M  V30 10251 H 960.591 -4.70643 -1.44068 0
M  V30 10252 N 962.243 0.219913 -1.56058 0
M  V30 10253 C 963.659 0.569685 -1.49086 0
M  V30 10254 C 963.859 1.87066 -0.748903 0
M  V30 10255 O 962.915 2.50838 -0.289235 0
M  V30 10256 C 964.228 0.647397 -2.93648 0
M  V30 10257 C 965.776 0.737914 -3.04177 0
M  V30 10258 C 966.251 0.846957 -4.50101 0
M  V30 10259 N 967.742 0.911136 -4.5415 0
M  V30 10260 C 968.477 1.01525 -5.64341 0
M  V30 10261 N 967.973 1.0832 -6.8428 0
M  V30 10262 N 969.766 1.05051 -5.52196 0
M  V30 10263 H 961.917 -0.633778 -2.02724 0
M  V30 10264 H 964.18 -0.222583 -0.921499 0
M  V30 10265 H 963.886 -0.238987 -3.50887 0
M  V30 10266 H 963.76 1.51046 -3.45637 0
M  V30 10267 H 966.147 1.61474 -2.47002 0
M  V30 10268 H 966.228 -0.150845 -2.55355 0
M  V30 10269 H 965.872 -0.0254166 -5.07894 0
M  V30 10270 H 965.802 1.75116 -4.96631 0
M  V30 10271 H 968.293 0.868869 -3.67776 0
M  V30 10272 H 968.606 1.16247 -7.64007 0
M  V30 10273 H 966.951 1.05231 -6.86987 0
M  V30 10274 H 970.142 0.994086 -4.57423 0
M  V30 10275 H 970.315 1.12819 -6.38103 0
M  V30 10276 N 963.721 1.49897 0.486681 0
M  V30 10277 C 965.137 1.36977 0.819109 0
M  V30 10278 C 965.337 0.41385 1.97204 0
M  V30 10279 O 964.393 -0.149249 2.52059 0
M  V30 10280 C 965.706 2.78013 1.14584 0
M  V30 10281 C 967.254 2.86816 1.25321 0
M  V30 10282 C 967.729 4.28651 1.61316 0
M  V30 10283 N 969.22 4.31528 1.68337 0
M  V30 10284 C 969.955 5.38254 1.97662 0
M  V30 10285 N 969.451 6.55207 2.25113 0
M  V30 10286 N 971.244 5.25683 1.99033 0
M  V30 10287 H 963.395 2.10634 -0.273364 0
M  V30 10288 H 965.658 0.946116 -0.0597418 0
M  V30 10289 H 965.364 3.49728 0.371892 0
M  V30 10290 H 965.238 3.1428 2.08585 0
M  V30 10291 H 967.625 2.15329 2.01785 0
M  V30 10292 H 967.706 2.54112 0.293368 0
M  V30 10293 H 967.35 5.00669 0.853968 0
M  V30 10294 H 967.28 4.5883 2.58424 0
M  V30 10295 H 969.771 3.47189 1.49226 0
M  V30 10296 H 970.084 7.32359 2.46717 0
M  V30 10297 H 968.429 6.58408 2.22538 0
M  V30 10298 H 971.62 4.33316 1.77074 0
M  V30 10299 H 971.793 6.08949 2.21552 0
M  V30 10300 N 965.199 -0.738761 1.39212 0
M  V30 10301 C 966.162 -1.83441 1.37412 0
M  V30 10302 C 967.162 -1.58484 0.271908 0
M  V30 10303 O 968.352 -1.65954 0.529609 0
M  V30 10304 C 965.484 -3.21167 1.143 0
M  V30 10305 H 966.677 -1.86441 2.34904 0
M  V30 10306 H 964.23 -0.942023 1.24722 0
M  V30 10307 H 964.965 -3.23829 0.174756 0
M  V30 10308 H 964.75 -3.40678 1.94116 0
M  V30 10309 H 966.24 -4.01231 1.15773 0
M  V30 10310 N 966.677 -1.24326 -0.968545 0
M  V30 10311 C 967.905 -1.10947 -1.74638 0
M  V30 10312 C 968.32 0.338064 -1.85749 0
M  V30 10313 O 967.677 1.23331 -1.3452 0
M  V30 10314 C 967.728 -1.74254 -3.1673 0
M  V30 10315 O 967.449 -3.13347 -3.06178 0
M  V30 10316 C 968.95 -1.66473 -4.10855 0
M  V30 10317 H 966.17 -0.38767 -0.547679 0
M  V30 10318 H 968.714 -1.64415 -1.21605 0
M  V30 10319 H 966.869 -1.2479 -3.66751 0
M  V30 10320 H 967.283 -3.44255 -3.95713 0
M  V30 10321 H 968.757 -2.15452 -5.08217 0
M  V30 10322 H 969.234 -0.625785 -4.34719 0
M  V30 10323 H 969.84 -2.15359 -3.66743 0
M  V30 10324 N 968.156 1.1691 -1.05688 0
M  V30 10325 C 969.088 2.20648 -0.620237 0
M  V30 10326 C 970.101 1.59652 0.318604 0
M  V30 10327 O 971.29 1.78157 0.110553 0
M  V30 10328 C 968.39 3.38716 0.111729 0
M  V30 10329 C 967.563 4.29277 -0.839062 0
M  V30 10330 C 966.622 5.25993 -0.147453 0
M  V30 10331 O 965.648 5.63787 -0.783151 0
M  V30 10332 N 966.85 5.69725 1.11327 0
M  V30 10333 H 969.615 2.58731 -1.51256 0
M  V30 10334 H 967.176 1.31858 -0.939412 0
M  V30 10335 H 969.168 4.00455 0.584657 0
M  V30 10336 H 967.738 2.99189 0.905784 0
M  V30 10337 H 966.958 3.64894 -1.4915 0
M  V30 10338 H 968.246 4.86669 -1.48428 0
M  V30 10339 H 967.644 5.41103 1.64999 0
M  V30 10340 H 966.201 6.33584 1.53018 0
M  V30 10341 N 969.634 0.838594 1.33437 0
M  V30 10342 C 970.862 0.447644 2.01999 0
M  V30 10343 C 971.277 -0.951053 1.63096 0
M  V30 10344 O 970.634 -1.61802 0.844169 0
M  V30 10345 C 970.685 0.558378 3.57162 0
M  V30 10346 O 970.406 1.90196 3.94661 0
M  V30 10347 C 971.907 0.164348 4.42995 0
M  V30 10348 H 969.127 0.177736 0.647032 0
M  V30 10349 H 971.671 1.13109 1.70372 0
M  V30 10350 H 969.826 -0.0771563 3.87323 0
M  V30 10351 H 970.24 1.88729 4.89369 0
M  V30 10352 H 971.714 0.292876 5.51222 0
M  V30 10353 H 972.191 -0.893713 4.30011 0
M  V30 10354 H 972.797 0.774306 4.18192 0
M  V30 10355 N 971.112 -1.45937 0.595003 0
M  V30 10356 C 972.337 -2.07207 0.0894416 0
M  V30 10357 C 972.762 -1.43884 -1.21157 0
M  V30 10358 O 972.12 -0.526998 -1.73472 0
M  V30 10359 C 972.168 -3.60565 -0.0499828 0
M  V30 10360 O 971.272 -3.97364 -1.10342 0
M  V30 10361 H 970.613 -0.660471 0.0683627 0
M  V30 10362 H 973.143 -1.87386 0.82144 0
M  V30 10363 H 973.153 -4.0722 -0.252234 0
M  V30 10364 H 971.828 -4.06044 0.90006 0
M  V30 10365 H 970.405 -3.62401 -0.878645 0
M  V30 10366 N 972.59 -0.333456 -1.54032 0
M  V30 10367 C 974.001 0.15256 -1.86076 0
M  V30 10368 C 974.352 1.50819 -1.25492 0
M  V30 10369 O 973.477 2.08903 -0.564665 0
M  V30 10370 C 974.072 0.283599 -3.37611 0
M  V30 10371 C 972.631 0.713841 -3.69569 0
M  V30 10372 C 971.778 -0.158515 -2.76847 0
M  V30 10373 H 974.729 -0.553404 -1.48738 0
M  V30 10374 H 974.75 1.11284 -3.63863 0
M  V30 10375 H 974.262 -0.703193 -3.81676 0
M  V30 10376 H 972.363 1.71002 -3.31042 0
M  V30 10377 H 972.476 0.510731 -4.7637 0
M  V30 10378 H 970.84 0.367531 -2.52034 0
M  V30 10379 H 971.623 -1.14226 -3.2374 0
M  V30 10380 N 974.068 1.57479 -0.061844 0
M  V30 10381 C 974.998 2.15181 0.9066 0
M  V30 10382 C 975.979 1.07624 1.31724 0
M  V30 10383 O 977.164 1.35614 1.39006 0
M  V30 10384 C 974.294 2.70542 2.17771 0
M  V30 10385 C 973.248 3.83178 1.9068 0
M  V30 10386 C 972.574 4.25099 3.24337 0
M  V30 10387 C 973.874 5.07853 1.21994 0
M  V30 10388 H 975.568 2.96355 0.42594 0
M  V30 10389 H 973.114 1.42556 0.203435 0
M  V30 10390 H 975.067 3.09552 2.85929 0
M  V30 10391 H 973.791 1.86575 2.68062 0
M  V30 10392 H 972.45 3.44656 1.24931 0
M  V30 10393 H 972.098 3.38069 3.72449 0
M  V30 10394 H 971.798 5.01021 3.07005 0
M  V30 10395 H 973.322 4.66718 3.93709 0
M  V30 10396 H 974.736 5.44242 1.80204 0
M  V30 10397 H 973.133 5.88987 1.14954 0
M  V30 10398 H 974.203 4.84497 0.197536 0
M  V30 10399 N 975.546 -0.211634 1.56173 0
M  V30 10400 C 976.771 -0.955324 1.84088 0
M  V30 10401 C 977.196 -1.76754 0.643407 0
M  V30 10402 O 976.554 -1.76653 -0.407842 0
M  V30 10403 C 976.602 -1.84063 3.10085 0
M  V30 10404 O 975.706 -2.9373 2.89476 0
M  V30 10405 H 975.047 -0.26996 0.606645 0
M  V30 10406 H 977.577 -0.221947 2.03393 0
M  V30 10407 H 977.587 -2.24852 3.40449 0
M  V30 10408 H 976.262 -1.24373 3.96868 0
M  V30 10409 H 974.839 -2.56816 2.7037 0
M  V30 10410 N 977.024 -1.50153 -0.478725 0
M  V30 10411 C 978.301 -1.51274 -1.23999 0
M  V30 10412 C 978.681 -0.253048 -2.09578 0
M  V30 10413 O 978.029 0.763827 -2.15355 0
M  V30 10414 C 978.239 -2.80423 -2.07759 0
M  V30 10415 C 979.587 -3.30788 -2.66204 0
M  V30 10416 O 980.611 -2.81693 -2.18008 0
M  V30 10417 O 979.47 -4.1635 -3.53999 0
M  V30 10418 H 976.564 -0.606438 -0.562283 0
M  V30 10419 H 979.11 -1.62436 -0.491171 0
M  V30 10420 H 977.882 -3.63584 -1.44645 0
M  V30 10421 H 977.505 -2.72228 -2.89789 0
M  V30 10422 N 978.502 0.731368 -1.39602 0
M  V30 10423 C 979.434 1.85575 -1.34516 0
M  V30 10424 C 980.447 1.60818 -0.253287 0
M  V30 10425 O 981.636 1.70984 -0.512505 0
M  V30 10426 C 978.736 3.21673 -1.06676 0
M  V30 10427 C 977.909 3.73757 -2.27211 0
M  V30 10428 C 976.968 4.88426 -1.95773 0
M  V30 10429 O 975.994 5.01898 -2.68491 0
M  V30 10430 N 977.196 5.73065 -0.926083 0
M  V30 10431 H 979.961 1.90442 -2.31413 0
M  V30 10432 H 977.522 0.912258 -1.33752 0
M  V30 10433 H 979.514 3.95959 -0.836577 0
M  V30 10434 H 978.084 3.12052 -0.185003 0
M  V30 10435 H 977.304 2.90781 -2.66158 0
M  V30 10436 H 978.592 4.05289 -3.07601 0
M  V30 10437 H 977.99 5.64774 -0.323497 0
M  V30 10438 H 976.547 6.47403 -0.755795 0
M  V30 10439 N 979.98 1.24838 0.961938 0
M  V30 10440 C 980.89 1.06304 2.09133 0
M  V30 10441 C 981.906 0.00221475 1.74 0
M  V30 10442 O 983.082 0.201611 2.00388 0
M  V30 10443 C 980.147 0.676117 3.40043 0
M  V30 10444 C 979.208 1.81407 3.89089 0
M  V30 10445 C 978.441 1.44551 5.13752 0
M  V30 10446 O 978.664 0.337894 5.69398 0
M  V30 10447 O 977.598 2.27316 5.57325 0
M  V30 10448 H 981.424 2.01001 2.27667 0
M  V30 10449 H 979.009 1.0371 1.07539 0
M  V30 10450 H 980.891 0.472124 4.18747 0
M  V30 10451 H 979.566 -0.241667 3.22797 0
M  V30 10452 H 978.473 2.07286 3.11421 0
M  V30 10453 H 979.806 2.71083 4.10822 0
M  V30 10454 N 981.458 -1.16348 1.06306 0
M  V30 10455 C 982.706 -1.86512 0.778311 0
M  V30 10456 C 983.027 -1.82107 -0.697273 0
M  V30 10457 O 982.297 -1.2547 -1.50446 0
M  V30 10458 H 980.877 -0.690529 0.284919 0
M  V30 10459 H 983.539 -1.41092 1.34458 0
M  V30 10460 H 982.635 -2.91947 1.10333 0
M  V30 10461 N 982.937 -0.845659 -1.3299 0
M  V30 10462 C 984.348 -0.50048 -1.79867 0
M  V30 10463 C 984.699 0.981027 -1.69913 0
M  V30 10464 O 983.824 1.76477 -1.25239 0
M  V30 10465 C 984.419 -0.901679 -3.26581 0
M  V30 10466 C 982.978 -0.608536 -3.71448 0
M  V30 10467 C 982.125 -1.10632 -2.54275 0
M  V30 10468 H 985.076 -1.03372 -1.20416 0
M  V30 10469 H 985.097 -0.214433 -3.79895 0
M  V30 10470 H 984.609 -1.97998 -3.33794 0
M  V30 10471 H 982.71 0.459416 -3.69757 0
M  V30 10472 H 982.823 -1.16853 -4.64631 0
M  V30 10473 H 981.187 -0.526925 -2.4919 0
M  V30 10474 H 981.97 -2.19154 -2.64247 0
M  V30 10475 N 984.415 1.45619 -0.602734 0
M  V30 10476 C 985.826 1.85814 -0.181636 0
M  V30 10477 C 986.177 1.5037 1.26029 0
M  V30 10478 O 985.302 0.928068 1.95489 0
M  V30 10479 C 985.897 3.37258 -0.322866 0
M  V30 10480 C 984.456 3.76375 0.043504 0
M  V30 10481 C 983.603 2.69585 -0.649561 0
M  V30 10482 H 986.554 1.36489 -0.809721 0
M  V30 10483 H 986.575 3.77874 0.446279 0
M  V30 10484 H 986.087 3.63024 -1.37241 0
M  V30 10485 H 984.188 3.56226 1.09241 0
M  V30 10486 H 984.301 4.77843 -0.346765 0
M  V30 10487 H 982.665 2.54549 -0.087706 0
M  V30 10488 H 983.448 2.98188 -1.70115 0
M  V30 10489 N 985.893 0.34162 1.53853 0
M  V30 10490 C 987.121 -0.256929 2.05299 0
M  V30 10491 C 987.536 -1.44366 1.21671 0
M  V30 10492 O 986.893 -1.80758 0.251584 0
M  V30 10493 C 986.944 -0.673854 3.55164 0
M  V30 10494 O 986.665 0.465687 4.35618 0
M  V30 10495 C 988.166 -1.33332 4.22773 0
M  V30 10496 H 985.386 -0.0499445 0.669139 0
M  V30 10497 H 987.93 0.493048 1.98467 0
M  V30 10498 H 986.085 -1.37378 3.62224 0
M  V30 10499 H 986.499 0.133723 5.2433 0
M  V30 10500 H 987.973 -1.57582 5.29029 0
M  V30 10501 H 988.45 -2.28628 3.75001 0
M  V30 10502 H 989.056 -0.675489 4.19901 0
M  V30 10503 N 987.371 -1.57444 0.0701946 0
M  V30 10504 C 988.782 -1.80875 -0.462709 0
M  V30 10505 C 989.133 -0.983975 -1.69742 0
M  V30 10506 O 988.258 -0.206027 -2.15417 0
M  V30 10507 C 988.853 -3.28062 -0.84623 0
M  V30 10508 C 987.412 -3.52345 -1.32401 0
M  V30 10509 C 986.559 -2.7558 -0.308399 0
M  V30 10510 H 989.51 -1.55917 0.295907 0
M  V30 10511 H 989.531 -3.40023 -1.70776 0
M  V30 10512 H 989.043 -3.88064 0.0526033 0
M  V30 10513 H 987.144 -2.97645 -2.24139 0
M  V30 10514 H 987.257 -4.6104 -1.30304 0
M  V30 10515 H 985.621 -2.4229 -0.785337 0
M  V30 10516 H 986.404 -3.38319 0.582679 0
M  V30 10517 N 988.849 0.203349 -1.56283 0
M  V30 10518 C 989.759 1.27266 -1.9708 0
M  V30 10519 C 990.775 1.50268 -0.877236 0
M  V30 10520 O 991.951 1.63044 -1.18231 0
M  V30 10521 C 989.016 2.59871 -2.29495 0
M  V30 10522 C 988.077 2.45012 -3.52516 0
M  V30 10523 C 987.31 3.71293 -3.83376 0
M  V30 10524 O 987.533 4.75106 -3.15643 0
M  V30 10525 O 986.467 3.67316 -4.76826 0
M  V30 10526 H 990.293 0.956461 -2.88246 0
M  V30 10527 H 987.878 0.407688 -1.4373 0
M  V30 10528 H 989.76 3.38152 -2.51458 0
M  V30 10529 H 988.435 2.91135 -1.415 0
M  V30 10530 H 987.342 1.6487 -3.35811 0
M  V30 10531 H 988.675 2.18683 -4.40952 0
M  V30 10532 N 990.327 1.50405 0.470755 0
M  V30 10533 C 991.29 1.68741 1.5511 0
M  V30 10534 C 992.29 0.558116 1.50804 0
M  V30 10535 O 993.48 0.825149 1.53418 0
M  V30 10536 C 990.612 1.71295 2.94739 0
M  V30 10537 H 991.805 2.65127 1.40169 0
M  V30 10538 H 989.358 1.39891 0.697156 0
M  V30 10539 H 990.093 0.766029 3.15123 0
M  V30 10540 H 989.878 2.53336 2.99271 0
M  V30 10541 H 991.368 1.87434 3.73173 0
M  V30 10542 N 991.805 -0.723954 1.39988 0
M  V30 10543 C 993.03 -1.5182 1.41299 0
M  V30 10544 C 993.455 -1.88096 0.0122636 0
M  V30 10545 O 992.813 -1.52687 -0.977559 0
M  V30 10546 C 992.861 -2.77532 2.30235 0
M  V30 10547 O 991.965 -3.73903 1.73984 0
M  V30 10548 H 991.306 -0.458058 0.480707 0
M  V30 10549 H 993.836 -0.892291 1.84118 0
M  V30 10550 H 993.846 -3.2615 2.45132 0
M  V30 10551 H 992.521 -2.50462 3.32026 0
M  V30 10552 H 991.098 -3.32715 1.68389 0
M  V30 10553 N 993.283 -1.25346 -0.955304 0
M  V30 10554 C 994.529 -1.10218 -1.70235 0
M  V30 10555 C 994.862 0.356124 -1.90907 0
M  V30 10556 O 994.137 1.26253 -1.47954 0
M  V30 10557 C 994.42 -1.85627 -3.08569 0
M  V30 10558 C 994.273 -3.39281 -2.95311 0
M  V30 10559 C 995.592 -1.63886 -4.08448 0
M  V30 10560 H 992.711 -0.401781 -0.617852 0
M  V30 10561 H 995.353 -1.5417 -1.11048 0
M  V30 10562 H 993.503 -1.48269 -3.59094 0
M  V30 10563 H 995.175 -3.8631 -2.52116 0
M  V30 10564 H 993.418 -3.67027 -2.31244 0
M  V30 10565 H 994.089 -3.87258 -3.93364 0
M  V30 10566 H 996.565 -1.96406 -3.6683 0
M  V30 10567 H 995.441 -2.19087 -5.03281 0
M  V30 10568 H 995.702 -0.580021 -4.38279 0
M  V30 10569 N 994.761 1.15782 -1.06922 0
M  V30 10570 C 996.001 1.88135 -0.799043 0
M  V30 10571 C 996.365 1.80203 0.662632 0
M  V30 10572 O 997.566 2.47543 1.04767 0
M  V30 10573 C 995.837 3.3339 -1.28786 0
M  V30 10574 S 997.396 4.23525 -1.1477 0
M  V30 10575 H 994.214 0.649313 -0.289679 0
M  V30 10576 H 996.816 1.3972 -1.36743 0
M  V30 10577 H 995.52 3.36705 -2.34645 0
M  V30 10578 H 995.051 3.86857 -0.714489 0
M  V30 10579 H 997.066 4.96131 -0.0825264 0
M  V30 10580 N 996.239 0.8527 1.3254 0
M  V30 10581 C 997.486 0.455123 1.97319 0
M  V30 10582 C 997.814 -0.988814 1.67489 0
M  V30 10583 O 997.069 -1.70845 0.954483 0
M  V30 10584 C 997.368 0.638757 3.51646 0
M  V30 10585 C 997.034 2.05287 4.01458 0
M  V30 10586 C 995.696 2.43963 4.14771 0
M  V30 10587 C 998.048 2.9759 4.27889 0
M  V30 10588 C 995.376 3.7422 4.51859 0
M  V30 10589 C 997.728 4.27343 4.66434 0
M  V30 10590 C 996.392 4.65957 4.77954 0
M  V30 10591 H 995.662 0.166541 0.722042 0
M  V30 10592 H 998.309 1.08238 1.57977 0
M  V30 10593 H 996.614 -0.0717394 3.91734 0
M  V30 10594 H 998.311 0.311219 3.9979 0
M  V30 10595 H 994.901 1.74253 3.91579 0
M  V30 10596 H 999.085 2.68942 4.17114 0
M  V30 10597 H 994.341 4.03923 4.58973 0
M  V30 10598 H 998.515 4.9893 4.85841 0
M  V30 10599 H 996.142 5.66934 5.06449 0
M  V30 10600 N 997.718 -1.45297 0.610449 0
M  V30 10601 C 998.65 -2.28742 -0.144884 0
M  V30 10602 C 999.663 -1.40114 -0.828977 0
M  V30 10603 O 1000.85 -1.64461 -0.693887 0
M  V30 10604 C 997.952 -3.15934 -1.22632 0
M  V30 10605 C 997.125 -4.32857 -0.628785 0
M  V30 10606 C 996.184 -5.01237 -1.60148 0
M  V30 10607 O 995.21 -5.57938 -1.12667 0
M  V30 10608 N 996.412 -5.00785 -2.9359 0
M  V30 10609 H 999.177 -2.94207 0.571145 0
M  V30 10610 H 996.738 -1.55517 0.450134 0
M  V30 10611 H 998.73 -3.58545 -1.87691 0
M  V30 10612 H 997.3 -2.52358 -1.84483 0
M  V30 10613 H 996.52 -3.93693 0.199951 0
M  V30 10614 H 997.808 -5.08367 -0.209845 0
M  V30 10615 H 997.206 -4.56014 -3.34765 0
M  V30 10616 H 995.763 -5.4725 -3.54064 0
M  V30 10617 N 999.196 -0.349774 -1.5367 0
M  V30 10618 C 1000.44 0.245189 -2.01312 0
M  V30 10619 C 1000.77 1.49702 -1.23705 0
M  V30 10620 O 1000.05 1.91742 -0.326371 0
M  V30 10621 C 1000.33 0.553071 -3.55827 0
M  V30 10622 C 1000.19 -0.71129 -4.4414 0
M  V30 10623 C 1001.5 1.36015 -4.18555 0
M  V30 10624 H 998.624 0.0876415 -0.73177 0
M  V30 10625 H 1001.27 -0.471543 -1.84056 0
M  V30 10626 H 999.416 1.16367 -3.70663 0
M  V30 10627 H 1001.09 -1.34913 -4.41131 0
M  V30 10628 H 999.331 -1.33491 -4.1275 0
M  V30 10629 H 1000 -0.45104 -5.50154 0
M  V30 10630 H 1002.48 0.843778 -4.07455 0
M  V30 10631 H 1001.35 1.54432 -5.26728 0
M  V30 10632 H 1001.61 2.36408 -3.73582 0
M  V30 10633 N 1000.67 1.57404 -0.0785433 0
M  V30 10634 C 1001.62 2.14316 0.903949 0
M  V30 10635 C 1002.62 1.08176 1.30362 0
M  V30 10636 O 1003.82 1.26546 1.28008 0
M  V30 10637 H 1000.2 0.685367 0.309477 0
M  V30 10638 H 1002.17 2.95719 0.399081 0
M  V30 10639 C 1000.92 2.72504 2.15956 0
M  V30 10640 H 1000.24 3.53853 1.86087 0
M  V30 10641 H 1001.68 3.15914 2.82798 0
M  V30 10642 C 1000.14 1.6759 2.92259 0
M  V30 10643 O 1000.67 1.10492 3.86205 0
M  V30 10644 N 998.875 1.38467 2.5549 0
M  V30 10645 H 998.422 1.85088 1.79166 0
M  V30 10646 H 998.38 0.685053 3.06846 0
M  V30 10647 N 1002.15 -0.195058 1.56388 0
M  V30 10648 C 1003.38 -0.931642 1.84738 0
M  V30 10649 C 1003.79 -1.76849 0.661046 0
M  V30 10650 O 1003.15 -1.78705 -0.370241 0
M  V30 10651 C 1003.2 -1.82777 3.11889 0
M  V30 10652 O 1002.92 -1.02471 4.25948 0
M  V30 10653 C 1004.42 -2.67603 3.53417 0
M  V30 10654 H 1001.64 -0.271821 0.613477 0
M  V30 10655 H 1004.19 -0.202299 2.03497 0
M  V30 10656 H 1002.34 -2.51074 2.95027 0
M  V30 10657 H 1002.76 -1.63539 4.98353 0
M  V30 10658 H 1004.23 -3.26138 4.45352 0
M  V30 10659 H 1004.71 -3.41314 2.76408 0
M  V30 10660 H 1005.31 -2.04678 3.7281 0
M  V30 10661 N 1003.63 -1.50653 -0.462772 0
M  V30 10662 C 1004.54 -1.72923 -1.58539 0
M  V30 10663 C 1005.56 -0.612577 -1.6286 0
M  V30 10664 O 1006.73 -0.891885 -1.80575 0
M  V30 10665 C 1003.8 -1.82623 -2.94703 0
M  V30 10666 C 1002.86 -3.06392 -3.00704 0
M  V30 10667 C 1002.09 -3.15618 -4.30373 0
M  V30 10668 O 1002.31 -2.31423 -5.21344 0
M  V30 10669 O 1001.25 -4.0841 -4.42136 0
M  V30 10670 H 1005.07 -2.68103 -1.42669 0
M  V30 10671 H 1002.66 -1.34848 -0.643144 0
M  V30 10672 H 1004.54 -1.91134 -3.7556 0
M  V30 10673 H 1003.22 -0.906275 -3.10754 0
M  V30 10674 H 1002.12 -3.03375 -2.18894 0
M  V30 10675 H 1003.46 -3.97992 -2.89591 0
M  V30 10676 N 1005.11 0.71652 -1.4037 0
M  V30 10677 C 1006.39 1.46947 -1.29097 0
M  V30 10678 C 1006.77 2.10903 0.0911182 0
M  V30 10679 O 1006.11 2.00068 1.10385 0
M  V30 10680 C 1006.32 2.50594 -2.42907 0
M  V30 10681 C 1007.67 3.16451 -2.83097 0
M  V30 10682 O 1008.7 2.60913 -2.42493 0
M  V30 10683 O 1007.55 4.16991 -3.53244 0
M  V30 10684 H 1004.65 0.653413 -0.506932 0
M  V30 10685 H 1007.19 0.748774 -1.52287 0
M  V30 10686 H 1005.97 2.01843 -3.35224 0
M  V30 10687 H 1005.59 3.302 -2.21481 0
M  V30 10688 N 1006.59 1.25851 0.948643 0
M  V30 10689 C 1007.81 1.13813 1.73382 0
M  V30 10690 C 1008.24 -0.303615 1.85633 0
M  V30 10691 O 1007.59 -1.21997 1.34114 0
M  V30 10692 C 1007.64 1.80388 3.12238 0
M  V30 10693 O 1006.75 1.08759 3.978 0
M  V30 10694 H 1006.09 0.397006 0.532243 0
M  V30 10695 H 1008.62 1.66529 1.18866 0
M  V30 10696 H 1008.63 1.86913 3.62667 0
M  V30 10697 H 1007.3 2.85278 3.02637 0
M  V30 10698 H 1005.88 1.10157 3.56258 0
M  V30 10699 N 1008.06 -1.15214 1.07534 0
M  V30 10700 C 1009.03 -2.18209 0.701237 0
M  V30 10701 C 1010.03 -1.58693 -0.25946 0
M  V30 10702 O 1011.22 -1.74154 -0.0401744 0
M  V30 10703 C 1008.35 -3.40883 0.0338703 0
M  V30 10704 H 1009.54 -2.5282 1.61314 0
M  V30 10705 H 1007.1 -1.29707 0.872105 0
M  V30 10706 H 1007.83 -3.11843 -0.890187 0
M  V30 10707 H 1007.62 -3.85342 0.72486 0
M  V30 10708 H 1009.11 -4.17056 -0.213152 0
M  V30 10709 N 1009.54 -0.859717 -1.32086 0
M  V30 10710 C 1010.79 -0.465581 -1.97075 0
M  V30 10711 C 1011.12 0.979917 -1.68012 0
M  V30 10712 O 1010.37 1.70337 -0.96353 0
M  V30 10713 C 1010.67 -0.657397 -3.51302 0
M  V30 10714 C 1010.34 -2.07413 -4.00363 0
M  V30 10715 C 1009 -2.4616 -4.13472 0
M  V30 10716 C 1011.35 -2.99855 -4.26305 0
M  V30 10717 C 1008.68 -3.76611 -4.49868 0
M  V30 10718 C 1011.03 -4.2981 -4.64161 0
M  V30 10719 C 1009.7 -4.68485 -4.75476 0
M  V30 10720 H 1008.97 -0.170368 -0.721149 0
M  V30 10721 H 1011.61 -1.09074 -1.57401 0
M  V30 10722 H 1009.92 0.0509638 -3.91767 0
M  V30 10723 H 1011.61 -0.332416 -3.9962 0
M  V30 10724 H 1008.2 -1.76327 -3.90649 0
M  V30 10725 H 1012.39 -2.7115 -4.15682 0
M  V30 10726 H 1007.64 -4.06352 -4.56824 0
M  V30 10727 H 1011.82 -5.015 -4.83188 0
M  V30 10728 H 1009.45 -5.69612 -5.03435 0
M  V30 10729 N 1011.02 1.44971 -0.618145 0
M  V30 10730 C 1012.43 1.85611 -0.201334 0
M  V30 10731 C 1012.78 1.51698 1.24427 0
M  V30 10732 O 1011.91 0.94875 1.94493 0
M  V30 10733 C 1012.5 3.36897 -0.358619 0
M  V30 10734 C 1011.06 3.764 0.00358196 0
M  V30 10735 C 1010.21 2.68881 -0.678118 0
M  V30 10736 H 1013.16 1.35622 -0.824152 0
M  V30 10737 H 1013.18 3.78326 0.406176 0
M  V30 10738 H 1012.69 3.61548 -1.41084 0
M  V30 10739 H 1010.79 3.57365 1.05457 0
M  V30 10740 H 1010.91 4.77449 -0.397427 0
M  V30 10741 H 1009.27 2.54442 -0.114699 0
M  V30 10742 H 1010.05 2.96367 -1.73268 0
M  V30 10743 N 1012.5 0.357919 1.53482 0
M  V30 10744 C 1013.46 -0.479797 2.24122 0
M  V30 10745 C 1014.46 -1.01596 1.24639 0
M  V30 10746 O 1015.65 -0.902928 1.48973 0
M  V30 10747 C 1012.78 -1.66983 2.97203 0
M  V30 10748 H 1013.98 0.138219 2.99581 0
M  V30 10749 H 1011.53 0.109484 1.55916 0
M  V30 10750 H 1012.26 -2.32615 2.25966 0
M  V30 10751 H 1012.05 -1.29242 3.70188 0
M  V30 10752 H 1013.54 -2.26367 3.50924 0
M  V30 10753 N 1013.98 -1.5736 0.0868897 0
M  V30 10754 C 1014.94 -2.12436 -0.860439 0
M  V30 10755 C 1015.94 -1.05175 -1.21634 0
M  V30 10756 O 1017.13 -1.31098 -1.14713 0
M  V30 10757 C 1014.26 -2.63818 -2.159 0
M  V30 10758 H 1015.45 -2.97453 -0.382346 0
M  V30 10759 H 1013.01 -1.55458 -0.162009 0
M  V30 10760 H 1013.74 -1.82298 -2.68212 0
M  V30 10761 H 1013.53 -3.42234 -1.91359 0
M  V30 10762 H 1015.02 -3.06452 -2.83685 0
M  V30 10763 N 1015.45 0.186762 -1.56489 0
M  V30 10764 C 1016.87 0.537933 -1.50261 0
M  V30 10765 C 1017.07 1.85435 -0.788414 0
M  V30 10766 O 1016.13 2.50168 -0.342377 0
M  V30 10767 C 1017.44 0.584965 -2.94955 0
M  V30 10768 C 1018.99 0.673228 -3.05674 0
M  V30 10769 C 1019.46 0.751294 -4.51796 0
M  V30 10770 N 1020.95 0.814599 -4.55981 0
M  V30 10771 C 1021.69 0.895313 -5.66367 0
M  V30 10772 N 1021.18 0.937814 -6.86423 0
M  V30 10773 N 1022.98 0.933145 -5.543 0
M  V30 10774 H 1015.13 -0.676636 -2.01334 0
M  V30 10775 H 1017.39 -0.242079 -0.916571 0
M  V30 10776 H 1017.1 -0.313361 -3.50301 0
M  V30 10777 H 1016.97 1.4368 -3.48763 0
M  V30 10778 H 1019.36 1.56198 -2.50372 0
M  V30 10779 H 1019.44 -0.204976 -2.54977 0
M  V30 10780 H 1019.08 -0.133143 -5.07725 0
M  V30 10781 H 1019.01 1.64542 -5.00233 0
M  V30 10782 H 1021.5 0.790662 -3.69536 0
M  V30 10783 H 1021.82 1.00015 -7.66301 0
M  V30 10784 H 1020.16 0.906351 -6.89065 0
M  V30 10785 H 1023.35 0.896836 -4.59428 0
M  V30 10786 H 1023.53 0.992588 -6.40353 0
M  V30 10787 N 1016.93 1.50896 0.454776 0
M  V30 10788 C 1018.18 1.62378 1.20324 0
M  V30 10789 C 1018.5 0.333883 1.9212 0
M  V30 10790 O 1017.77 -0.649477 1.8482 0
M  V30 10791 H 1016.35 0.598395 0.447139 0
M  V30 10792 H 1019.01 1.87749 0.523102 0
M  V30 10793 H 1018.11 2.44296 1.94232 0
M  V30 10794 N 1018.41 -0.709066 1.40748 0
M  V30 10795 C 1019.32 -1.85314 1.43861 0
M  V30 10796 C 1020.34 -1.70832 0.330539 0
M  V30 10797 O 1021.51 -1.92983 0.576152 0
M  V30 10798 C 1018.58 -3.21174 1.30568 0
M  V30 10799 C 1017.64 -3.47863 2.51574 0
M  V30 10800 C 1016.87 -4.77241 2.38906 0
M  V30 10801 O 1017.09 -5.52791 1.40636 0
M  V30 10802 O 1016.03 -5.04413 3.28407 0
M  V30 10803 H 1019.85 -1.85644 2.40354 0
M  V30 10804 H 1017.44 -0.860352 1.2214 0
M  V30 10805 H 1019.32 -4.02313 1.25388 0
M  V30 10806 H 1018 -3.21557 0.371841 0
M  V30 10807 H 1016.9 -2.66708 2.62331 0
M  V30 10808 H 1018.24 -3.52283 3.43741 0
M  V30 10809 N 1019.89 -1.26353 -0.941956 0
M  V30 10810 C 1021.12 -1.14626 -1.72245 0
M  V30 10811 C 1021.53 0.298588 -1.86424 0
M  V30 10812 O 1020.89 1.2045 -1.37106 0
M  V30 10813 C 1020.94 -1.80933 -3.12963 0
M  V30 10814 O 1020.66 -3.19771 -2.99463 0
M  V30 10815 C 1022.16 -1.7515 -4.07231 0
M  V30 10816 H 1019.38 -0.3992 -0.539333 0
M  V30 10817 H 1021.93 -1.66958 -1.1809 0
M  V30 10818 H 1020.08 -1.32541 -3.64021 0
M  V30 10819 H 1020.5 -3.52571 -3.88322 0
M  V30 10820 H 1021.97 -2.26183 -5.03533 0
M  V30 10821 H 1022.45 -0.717855 -4.33294 0
M  V30 10822 H 1023.05 -2.2309 -3.62093 0
M  V30 10823 N 1021.37 1.14642 -1.08144 0
M  V30 10824 C 1022.32 2.17665 -0.678661 0
M  V30 10825 C 1023.3 1.58072 0.300336 0
M  V30 10826 O 1024.49 1.7664 0.112781 0
M  V30 10827 C 1021.62 3.43191 -0.0866362 0
M  V30 10828 C 1020.71 4.0982 -1.09126 0
M  V30 10829 N 1021.1 4.51814 -2.27372 0
M  V30 10830 C 1019.4 4.36272 -0.926411 0
M  V30 10831 C 1020.1 5.03581 -2.91172 0
M  V30 10832 N 1019.07 4.97624 -2.18795 0
M  V30 10833 H 1022.88 2.47872 -1.57914 0
M  V30 10834 H 1020.39 1.31296 -0.955772 0
M  V30 10835 H 1022.39 4.1632 0.219859 0
M  V30 10836 H 1021.05 3.14464 0.80886 0
M  V30 10837 H 1022.06 4.44941 -2.65044 0
M  V30 10838 H 1018.74 4.17414 -0.084492 0
M  V30 10839 H 1020.13 5.45969 -3.91621 0
M  V30 10840 N 1022.85 0.866709 1.31628 0
M  V30 10841 C 1023.79 0.318169 2.28596 0
M  V30 10842 C 1024.76 -0.581558 1.55586 0
M  V30 10843 O 1025.95 -0.513895 1.83749 0
M  V30 10844 C 1023.09 -0.477137 3.41786 0
M  V30 10845 C 1022.2 0.449739 4.29653 0
M  V30 10846 C 1021.34 -0.359373 5.29983 0
M  V30 10847 C 1020.37 0.564138 6.09495 0
M  V30 10848 N 1019.51 -0.208526 7.0179 0
M  V30 10849 H 1024.35 1.15029 2.74904 0
M  V30 10850 H 1021.89 0.578649 1.35241 0
M  V30 10851 H 1023.85 -0.953985 4.06146 0
M  V30 10852 H 1022.48 -1.27398 2.96597 0
M  V30 10853 H 1021.53 1.04502 3.65764 0
M  V30 10854 H 1022.84 1.158 4.85172 0
M  V30 10855 H 1021.99 -0.89887 6.00004 0
M  V30 10856 H 1020.73 -1.10094 4.75111 0
M  V30 10857 H 1019.74 1.11542 5.38366 0
M  V30 10858 H 1020.96 1.30451 6.66453 0
M  V30 10859 H 1018.91 -0.932969 6.49332 0
M  V30 10860 H 1018.83 0.440463 7.54716 0
M  V30 10861 H 1020.09 -0.72936 7.7608 0
M  V30 10862 N 1024.32 -1.44642 0.625825 0
M  V30 10863 C 1025.73 -1.85502 0.211175 0
M  V30 10864 C 1026.09 -1.52356 -1.2362 0
M  V30 10865 O 1025.21 -0.959051 -1.93988 0
M  V30 10866 C 1025.81 -3.36702 0.37648 0
M  V30 10867 C 1024.36 -3.76396 0.0163795 0
M  V30 10868 C 1023.51 -2.68517 0.692368 0
M  V30 10869 H 1026.46 -1.35183 0.831333 0
M  V30 10870 H 1026.48 -3.78536 -0.386106 0
M  V30 10871 H 1026 -3.60795 1.42999 0
M  V30 10872 H 1024.1 -3.57919 -1.0356 0
M  V30 10873 H 1024.21 -4.77231 0.422742 0
M  V30 10874 H 1022.57 -2.54377 0.128191 0
M  V30 10875 H 1023.36 -2.95444 1.74837 0
M  V30 10876 N 1025.8 -0.366053 -1.5329 0
M  V30 10877 C 1026.73 0.47211 -2.28677 0
M  V30 10878 C 1027.71 1.08353 -1.31125 0
M  V30 10879 O 1028.9 1.10069 -1.59995 0
M  V30 10880 C 1026.03 1.61174 -3.07637 0
M  V30 10881 C 1024.98 1.12755 -4.12881 0
M  V30 10882 C 1024.31 2.35745 -4.79925 0
M  V30 10883 C 1025.61 0.211954 -5.2187 0
M  V30 10884 H 1027.3 -0.156838 -2.98989 0
M  V30 10885 H 1024.85 -0.0768709 -1.43795 0
M  V30 10886 H 1026.8 2.20473 -3.59123 0
M  V30 10887 H 1025.52 2.26793 -2.35016 0
M  V30 10888 H 1024.18 0.557234 -3.6234 0
M  V30 10889 H 1023.83 2.99821 -4.03877 0
M  V30 10890 H 1023.53 2.04019 -5.51044 0
M  V30 10891 H 1025.06 2.95729 -5.34207 0
M  V30 10892 H 1026.47 0.71244 -5.68856 0
M  V30 10893 H 1024.87 -0.0144501 -6.00098 0
M  V30 10894 H 1025.94 -0.745753 -4.79131 0
M  V30 10895 N 1027.28 1.57312 -0.0952337 0
M  V30 10896 C 1028.23 2.14032 0.863657 0
M  V30 10897 C 1029.2 1.0589 1.27971 0
M  V30 10898 O 1030.38 1.33678 1.36143 0
M  V30 10899 C 1027.52 2.72513 2.11733 0
M  V30 10900 C 1026.63 3.94887 1.7518 0
M  V30 10901 C 1025.77 4.41533 2.95334 0
M  V30 10902 C 1024.81 5.56496 2.54908 0
M  V30 10903 N 1023.95 5.97993 3.67897 0
M  V30 10904 H 1028.79 2.95655 0.373115 0
M  V30 10905 H 1026.32 1.46085 0.172497 0
M  V30 10906 H 1028.28 3.04539 2.85153 0
M  V30 10907 H 1026.91 1.93618 2.58287 0
M  V30 10908 H 1025.96 3.69175 0.917279 0
M  V30 10909 H 1027.27 4.78322 1.41455 0
M  V30 10910 H 1026.43 4.75343 3.77007 0
M  V30 10911 H 1025.17 3.56999 3.3227 0
M  V30 10912 H 1024.17 5.22314 1.71662 0
M  V30 10913 H 1025.4 6.42779 2.19117 0
M  V30 10914 H 1023.34 5.16405 4.04551 0
M  V30 10915 H 1023.26 6.76225 3.38018 0
M  V30 10916 H 1024.53 6.36434 4.5008 0
M  V30 10917 N 1028.76 -0.17846 1.56586 0
M  V30 10918 C 1030.17 -0.741599 1.71339 0
M  V30 10919 C 1030.52 -1.83112 0.704579 0
M  V30 10920 O 1029.64 -2.15975 -0.135557 0
M  V30 10921 C 1030.24 -1.35198 3.10656 0
M  V30 10922 C 1028.8 -1.86202 3.27118 0
M  V30 10923 C 1027.95 -0.738255 2.67292 0
M  V30 10924 H 1030.9 0.0468424 1.58631 0
M  V30 10925 H 1030.92 -2.2216 3.0891 0
M  V30 10926 H 1030.43 -0.558776 3.84056 0
M  V30 10927 H 1028.53 -2.68188 2.58661 0
M  V30 10928 H 1028.64 -2.01237 4.34788 0
M  V30 10929 H 1027.01 -1.15686 2.26912 0
M  V30 10930 H 1027.79 0.0429821 3.43273 0
M  V30 10931 N 1030.24 -1.51135 -0.446768 0
M  V30 10932 C 1031.2 -1.71187 -1.52406 0
M  V30 10933 C 1032.2 -0.582037 -1.49897 0
M  V30 10934 O 1033.39 -0.849452 -1.52085 0
M  V30 10935 C 1030.52 -1.75962 -2.91976 0
M  V30 10936 H 1031.71 -2.67324 -1.35934 0
M  V30 10937 H 1029.27 -1.40982 -0.674813 0
M  V30 10938 H 1030 -0.816065 -3.13864 0
M  V30 10939 H 1029.79 -2.58065 -2.95203 0
M  V30 10940 H 1031.28 -1.93347 -3.70144 0
M  V30 10941 N 1031.71 0.701592 -1.41122 0
M  V30 10942 C 1032.64 1.82815 -1.45262 0
M  V30 10943 C 1033.62 1.67215 -0.311939 0
M  V30 10944 O 1034.81 1.87038 -0.522538 0
M  V30 10945 C 1031.94 3.20899 -1.32819 0
M  V30 10946 C 1030.89 3.51194 -2.44636 0
M  V30 10947 C 1030.22 4.8857 -2.17263 0
M  V30 10948 C 1031.52 3.50777 -3.86979 0
M  V30 10949 H 1033.21 1.79608 -2.39544 0
M  V30 10950 H 1030.76 0.862693 -1.15298 0
M  V30 10951 H 1032.71 3.99417 -1.34329 0
M  V30 10952 H 1031.44 3.24717 -0.350191 0
M  V30 10953 H 1030.1 2.75024 -2.42399 0
M  V30 10954 H 1029.74 4.89007 -1.17819 0
M  V30 10955 H 1029.44 5.09805 -2.92186 0
M  V30 10956 H 1030.97 5.69405 -2.20478 0
M  V30 10957 H 1032.38 4.19309 -3.90964 0
M  V30 10958 H 1030.78 3.83542 -4.61536 0
M  V30 10959 H 1031.85 2.49873 -4.15562 0
M  V30 10960 N 1033.19 1.2685 0.935242 0
M  V30 10961 C 1034.14 1.08923 2.03481 0
M  V30 10962 C 1035.11 -0.00749786 1.66098 0
M  V30 10963 O 1036.29 0.153401 1.90182 0
M  V30 10964 C 1033.43 0.734529 3.37192 0
M  V30 10965 C 1032.55 1.90812 3.87576 0
M  V30 10966 C 1031.68 1.49599 5.097 0
M  V30 10967 C 1030.72 2.63752 5.5236 0
M  V30 10968 N 1029.86 2.23179 6.65684 0
M  V30 10969 H 1034.7 2.03016 2.18148 0
M  V30 10970 H 1032.23 1.01072 1.06878 0
M  V30 10971 H 1034.19 0.509734 4.14074 0
M  V30 10972 H 1032.82 -0.169438 3.22355 0
M  V30 10973 H 1031.87 2.24567 3.0704 0
M  V30 10974 H 1033.19 2.7647 4.1517 0
M  V30 10975 H 1032.34 1.23199 5.9406 0
M  V30 10976 H 1031.08 0.61039 4.83865 0
M  V30 10977 H 1030.08 2.90874 4.66554 0
M  V30 10978 H 1031.31 3.5292 5.80193 0
M  V30 10979 H 1029.26 1.37061 6.41522 0
M  V30 10980 H 1029.17 3.02379 6.92895 0
M  V30 10981 H 1030.44 2.00007 7.53404 0
M  V30 10982 N 1034.67 -1.14067 1.0875 0
M  V30 10983 C 1036.09 -1.37173 0.815823 0
M  V30 10984 C 1036.29 -1.93175 -0.573215 0
M  V30 10985 O 1035.34 -2.14672 -1.32937 0
M  V30 10986 C 1036.66 -2.32955 1.90138 0
M  V30 10987 C 1038.2 -2.46586 1.9278 0
M  V30 10988 C 1038.68 -3.4567 3.0046 0
M  V30 10989 N 1040.17 -3.53216 2.99655 0
M  V30 10990 C 1040.9 -4.29743 3.79616 0
M  V30 10991 N 1040.4 -5.09484 4.69466 0
M  V30 10992 N 1042.19 -4.24975 3.67903 0
M  V30 10993 H 1034.34 -0.760648 1.98313 0
M  V30 10994 H 1036.61 -0.397135 0.860807 0
M  V30 10995 H 1036.31 -1.98949 2.90021 0
M  V30 10996 H 1036.19 -3.32897 1.77368 0
M  V30 10997 H 1038.57 -2.79882 0.935404 0
M  V30 10998 H 1038.66 -1.46593 2.09629 0
M  V30 10999 H 1038.3 -3.13106 3.99909 0
M  V30 11000 H 1038.23 -4.45452 2.80856 0
M  V30 11001 H 1040.72 -2.96314 2.34535 0
M  V30 11002 H 1041.03 -5.65163 5.27077 0
M  V30 11003 H 1039.38 -5.08741 4.73506 0
M  V30 11004 H 1042.57 -3.61751 2.97075 0
M  V30 11005 H 1042.74 -4.84364 4.30459 0
M  V30 11006 N 1036.15 -0.873678 -1.31166 0
M  V30 11007 C 1037.4 -0.485497 -1.96182 0
M  V30 11008 C 1037.72 0.96621 -1.69379 0
M  V30 11009 O 1036.99 1.67783 -1.01121 0
M  V30 11010 H 1035.57 -0.176547 -0.725838 0
M  V30 11011 H 1038.23 -1.11428 -1.59906 0
M  V30 11012 H 1037.33 -0.646325 -3.05334 0
M  V30 11013 N 1037.63 1.44308 -0.633487 0
M  V30 11014 C 1039.04 1.85387 -0.221009 0
M  V30 11015 C 1039.39 1.5301 1.22811 0
M  V30 11016 O 1038.51 0.969325 1.93476 0
M  V30 11017 C 1039.11 3.36497 -0.394331 0
M  V30 11018 C 1037.67 3.76382 -0.0363405 0
M  V30 11019 C 1036.81 2.68146 -0.706598 0
M  V30 11020 H 1039.77 1.34741 -0.83849 0
M  V30 11021 H 1039.79 3.78735 0.366026 0
M  V30 11022 H 1039.3 3.60031 -1.44911 0
M  V30 11023 H 1037.4 3.58463 1.01661 0
M  V30 11024 H 1037.51 4.77 -0.448045 0
M  V30 11025 H 1035.88 2.54306 -0.14168 0
M  V30 11026 H 1036.66 2.94512 -1.76401 0
M  V30 11027 N 1039.1 0.374177 1.53094 0
M  V30 11028 C 1040.33 -0.215903 2.06273 0
M  V30 11029 C 1040.75 -1.40979 1.24526 0
M  V30 11030 O 1040.11 -1.79331 0.266462 0
M  V30 11031 C 1040.16 -0.579089 3.5592 0
M  V30 11032 O 1039.26 -1.67516 3.76845 0
M  V30 11033 H 1038.61 -0.0293981 0.663349 0
M  V30 11034 H 1041.14 0.537271 1.9742 0
M  V30 11035 H 1041.15 -0.847678 3.99097 0
M  V30 11036 H 1039.82 0.293843 4.14861 0
M  V30 11037 H 1038.4 -1.40146 3.45563 0
M  V30 11038 N 1040.58 -1.57259 0.103575 0
M  V30 11039 C 1041.83 -1.94945 -0.558953 0
M  V30 11040 C 1042.16 -0.986038 -1.67305 0
M  V30 11041 O 1041.44 -0.0205464 -1.94489 0
M  V30 11042 C 1041.72 -3.42689 -1.10617 0
M  V30 11043 C 1041.57 -4.498 0.00345246 0
M  V30 11044 C 1042.89 -3.91933 -2.00191 0
M  V30 11045 H 1040.01 -0.708859 -0.201713 0
M  V30 11046 H 1042.65 -1.89183 0.176006 0
M  V30 11047 H 1040.8 -3.4773 -1.73251 0
M  V30 11048 H 1042.47 -4.56866 0.638082 0
M  V30 11049 H 1040.72 -4.28615 0.668705 0
M  V30 11050 H 1041.39 -5.50397 -0.420396 0
M  V30 11051 H 1043.86 -3.89098 -1.4745 0
M  V30 11052 H 1042.74 -4.9586 -2.35402 0
M  V30 11053 H 1043 -3.31722 -2.92255 0
M  V30 11054 N 1042.06 0.170153 -1.56679 0
M  V30 11055 C 1043.29 0.902134 -1.86197 0
M  V30 11056 C 1043.7 1.75775 -0.689098 0
M  V30 11057 O 1043.06 1.79271 0.341763 0
M  V30 11058 C 1043.11 1.77792 -3.14757 0
M  V30 11059 O 1042.83 0.956817 -4.27524 0
M  V30 11060 C 1044.33 2.61947 -3.57629 0
M  V30 11061 H 1041.55 0.262026 -0.617724 0
M  V30 11062 H 1044.1 0.169899 -2.03793 0
M  V30 11063 H 1042.25 2.46348 -2.98984 0
M  V30 11064 H 1042.67 1.5559 -5.00891 0
M  V30 11065 H 1044.14 3.19011 -4.50484 0
M  V30 11066 H 1044.62 3.36873 -2.81803 0
M  V30 11067 H 1045.22 1.98721 -3.76019 0
M  V30 11068 N 1043.54 1.5137 0.438746 0
M  V30 11069 C 1044.95 1.39514 0.775116 0
M  V30 11070 C 1045.15 0.47638 1.95788 0
M  V30 11071 O 1044.21 -0.0689832 2.52406 0
M  V30 11072 C 1045.52 2.81517 1.05681 0
M  V30 11073 C 1047.07 2.90658 1.16133 0
M  V30 11074 C 1047.55 4.33566 1.47597 0
M  V30 11075 N 1049.04 4.36665 1.54524 0
M  V30 11076 C 1049.77 5.4427 1.80438 0
M  V30 11077 N 1049.27 6.62037 2.04154 0
M  V30 11078 N 1051.06 5.31749 1.82208 0
M  V30 11079 H 1043.21 2.09657 -0.340237 0
M  V30 11080 H 1045.48 0.943736 -0.0898115 0
M  V30 11081 H 1045.18 3.50734 0.260441 0
M  V30 11082 H 1045.06 3.20757 1.98481 0
M  V30 11083 H 1047.44 2.2164 1.94833 0
M  V30 11084 H 1047.52 2.54917 0.212376 0
M  V30 11085 H 1047.17 5.03133 0.694251 0
M  V30 11086 H 1047.1 4.66819 2.43696 0
M  V30 11087 H 1049.59 3.51761 1.38105 0
M  V30 11088 H 1049.9 7.39838 2.23293 0
M  V30 11089 H 1048.25 6.65155 2.01479 0
M  V30 11090 H 1051.44 4.3873 1.63198 0
M  V30 11091 H 1051.61 6.15689 2.02067 0
M  V30 11092 N 1045.02 -0.694098 1.41492 0
M  V30 11093 C 1045.96 -1.82932 1.43662 0
M  V30 11094 C 1046.96 -1.66455 0.31449 0
M  V30 11095 O 1048.16 -1.73298 0.486589 0
M  V30 11096 H 1044.54 -0.602847 0.449533 0
M  V30 11097 H 1046.51 -1.78218 2.39334 0
M  V30 11098 C 1045.26 -3.20962 1.33712 0
M  V30 11099 H 1044.58 -3.34257 2.19345 0
M  V30 11100 H 1046.02 -4.00467 1.39291 0
M  V30 11101 C 1044.48 -3.36863 0.0496332 0
M  V30 11102 O 1045.01 -3.91371 -0.905093 0
M  V30 11103 N 1043.22 -2.90588 -0.0269299 0
M  V30 11104 H 1042.76 -2.46417 0.750752 0
M  V30 11105 H 1042.72 -3.01605 -0.887781 0
M  V30 11106 N 1046.49 -1.27344 -0.928501 0
M  V30 11107 C 1047.42 -1.12517 -2.04602 0
M  V30 11108 C 1048.41 -0.0268563 -1.70079 0
M  V30 11109 O 1049.59 -0.201197 -1.93155 0
M  V30 11110 C 1046.72 -0.770749 -3.3864 0
M  V30 11111 C 1045.67 -1.8222 -3.87272 0
M  V30 11112 C 1045 -1.32178 -5.18105 0
M  V30 11113 C 1046.3 -3.22614 -4.10752 0
M  V30 11114 H 1047.99 -2.06 -2.17265 0
M  V30 11115 H 1045.54 -0.991827 -1.04397 0
M  V30 11116 H 1047.49 -0.653843 -4.16297 0
M  V30 11117 H 1046.22 0.19979 -3.25988 0
M  V30 11118 H 1044.88 -1.928 -3.11807 0
M  V30 11119 H 1044.52 -0.340719 -5.01845 0
M  V30 11120 H 1044.22 -2.02474 -5.51614 0
M  V30 11121 H 1045.75 -1.2178 -5.98333 0
M  V30 11122 H 1047.16 -3.1504 -4.78981 0
M  V30 11123 H 1045.56 -3.90614 -4.55566 0
M  V30 11124 H 1046.63 -3.67727 -3.16077 0
M  V30 11125 N 1047.97 1.13488 -1.09353 0
M  V30 11126 C 1049.22 1.84383 -0.827488 0
M  V30 11127 C 1049.54 1.83892 0.648745 0
M  V30 11128 O 1048.81 1.29415 1.47066 0
M  V30 11129 H 1047.39 0.682732 -0.303127 0
M  V30 11130 H 1050.05 1.37477 -1.38152 0
M  V30 11131 H 1049.15 2.88919 -1.18035 0
M  V30 11132 N 1049.45 0.880621 1.30701 0
M  V30 11133 C 1050.36 0.348034 2.32004 0
M  V30 11134 C 1051.38 -0.547508 1.65162 0
M  V30 11135 O 1052.55 -0.441673 1.96497 0
M  V30 11136 C 1049.62 -0.432585 3.43991 0
M  V30 11137 C 1048.68 0.492189 4.26469 0
M  V30 11138 C 1047.91 -0.25127 5.33108 0
M  V30 11139 O 1048.14 -1.47795 5.5092 0
M  V30 11140 O 1047.07 0.396376 6.00593 0
M  V30 11141 H 1050.9 1.18798 2.79501 0
M  V30 11142 H 1048.48 0.64432 1.34792 0
M  V30 11143 H 1050.36 -0.874733 4.12221 0
M  V30 11144 H 1049.04 -1.2489 2.98637 0
M  V30 11145 H 1047.94 0.983058 3.60953 0
M  V30 11146 H 1049.28 1.27439 4.75416 0
M  V30 11147 N 1050.93 -1.4397 0.641131 0
M  V30 11148 C 1052.15 -2.06818 0.155318 0
M  V30 11149 C 1052.58 -1.47665 -1.16519 0
M  V30 11150 O 1051.94 -0.58192 -1.71707 0
M  V30 11151 C 1051.99 -3.60542 0.0647537 0
M  V30 11152 O 1051.09 -4.00674 -0.976447 0
M  V30 11153 H 1050.43 -0.657962 0.0893404 0
M  V30 11154 H 1052.96 -1.84678 0.88064 0
M  V30 11155 H 1052.97 -4.07816 -0.122552 0
M  V30 11156 H 1051.65 -4.02975 1.02878 0
M  V30 11157 H 1050.22 -3.65013 -0.762905 0
M  V30 11158 N 1052.41 -0.382291 -1.52893 0
M  V30 11159 C 1053.82 0.0932841 -1.86467 0
M  V30 11160 C 1054.17 1.4675 -1.30226 0
M  V30 11161 O 1053.29 2.07001 -0.63084 0
M  V30 11162 C 1053.89 0.176048 -3.38342 0
M  V30 11163 C 1052.45 0.595904 -3.71653 0
M  V30 11164 C 1051.6 -0.246511 -2.76202 0
M  V30 11165 H 1054.55 -0.600443 -1.46903 0
M  V30 11166 H 1054.57 0.996512 -3.67219 0
M  V30 11167 H 1054.08 -0.824264 -3.79246 0
M  V30 11168 H 1052.18 1.60384 -3.36315 0
M  V30 11169 H 1052.29 0.358919 -4.77754 0
M  V30 11170 H 1050.66 0.287162 -2.53076 0
M  V30 11171 H 1051.44 -1.24467 -3.19942 0
M  V30 11172 N 1053.89 1.57202 -0.111913 0
M  V30 11173 C 1055.11 1.99297 0.555713 0
M  V30 11174 C 1055.53 0.991444 1.60673 0
M  V30 11175 O 1054.89 -0.0166672 1.82492 0
M  V30 11176 C 1054.94 3.41413 1.18826 0
M  V30 11177 O 1054.66 4.37733 0.179261 0
M  V30 11178 C 1056.16 3.98602 1.93989 0
M  V30 11179 H 1053.38 0.654543 0.147695 0
M  V30 11180 H 1055.92 2.03557 -0.196163 0
M  V30 11181 H 1054.08 3.38115 1.89096 0
M  V30 11182 H 1054.49 5.20606 0.637935 0
M  V30 11183 H 1055.97 5.00143 2.33584 0
M  V30 11184 H 1056.44 3.37349 2.81233 0
M  V30 11185 H 1057.05 4.05424 1.28497 0
M  V30 11186 N 1055.36 -0.161842 1.56767 0
M  V30 11187 C 1056.61 -0.875192 1.82167 0
M  V30 11188 C 1056.93 -1.82367 0.690444 0
M  V30 11189 O 1056.2 -1.93756 -0.289023 0
M  V30 11190 H 1054.78 -0.326178 0.672024 0
M  V30 11191 H 1057.44 -0.159392 1.94247 0
M  V30 11192 H 1056.54 -1.44639 2.76561 0
M  V30 11193 N 1056.84 -1.516 -0.430713 0
M  V30 11194 C 1058.07 -1.687 -1.20644 0
M  V30 11195 C 1058.49 -0.386555 -1.84085 0
M  V30 11196 O 1057.85 0.653952 -1.69095 0
M  V30 11197 C 1057.9 -2.80887 -2.2613 0
M  V30 11198 O 1057 -2.44952 -3.31772 0
M  V30 11199 H 1056.34 -0.562289 -0.353167 0
M  V30 11200 H 1058.87 -1.98198 -0.507807 0
M  V30 11201 H 1058.88 -3.05167 -2.70809 0
M  V30 11202 H 1057.56 -3.75249 -1.79334 0
M  V30 11203 H 1056.13 -2.31267 -2.92523 0
M  V30 11204 N 1058.32 0.686584 -1.41858 0
M  V30 11205 C 1059.28 1.78214 -1.44126 0
M  V30 11206 C 1060.28 1.57366 -0.330541 0
M  V30 11207 O 1061.47 1.63874 -0.590837 0
M  V30 11208 C 1058.6 3.16704 -1.26142 0
M  V30 11209 H 1059.8 1.77594 -2.41661 0
M  V30 11210 H 1057.35 0.895085 -1.28132 0
M  V30 11211 H 1058.09 3.22957 -0.294823 0
M  V30 11212 H 1057.87 3.33238 -2.06627 0
M  V30 11213 H 1059.36 3.96658 -1.30584 0
M  V30 11214 N 1059.8 1.27835 0.921735 0
M  V30 11215 C 1060.71 1.12904 2.05645 0
M  V30 11216 C 1061.72 0.0575704 1.73905 0
M  V30 11217 O 1062.9 0.265261 1.99645 0
M  V30 11218 C 1059.96 0.783957 3.3772 0
M  V30 11219 C 1059.03 1.93694 3.8312 0
M  V30 11220 C 1058.26 1.60823 5.08893 0
M  V30 11221 O 1058.48 0.518873 5.68035 0
M  V30 11222 O 1057.42 2.44932 5.49811 0
M  V30 11223 H 1061.24 2.08143 2.21157 0
M  V30 11224 H 1058.83 1.07078 1.04185 0
M  V30 11225 H 1060.71 0.605107 4.17033 0
M  V30 11226 H 1059.38 -0.138849 3.23402 0
M  V30 11227 H 1058.29 2.17089 3.04669 0
M  V30 11228 H 1059.62 2.84016 4.0199 0
M  V30 11229 N 1061.28 -1.12907 1.09954 0
M  V30 11230 C 1062.5 -1.88679 0.861099 0
M  V30 11231 C 1062.93 -1.78853 -0.582499 0
M  V30 11232 O 1062.28 -1.13992 -1.4098 0
M  V30 11233 C 1062.33 -3.36047 1.30785 0
M  V30 11234 O 1061.44 -4.09716 0.469728 0
M  V30 11235 H 1060.78 -0.586447 0.31141 0
M  V30 11236 H 1063.31 -1.42818 1.46507 0
M  V30 11237 H 1063.32 -3.86882 1.29562 0
M  V30 11238 H 1061.99 -3.42516 2.35914 0
M  V30 11239 H 1060.57 -3.6887 0.54674 0
M  V30 11240 N 1062.75 -0.88754 -1.30232 0
M  V30 11241 C 1063.72 -0.361095 -2.26338 0
M  V30 11242 C 1064.72 0.497871 -1.52898 0
M  V30 11243 O 1065.91 0.30466 -1.71515 0
M  V30 11244 C 1063.04 0.485135 -3.3743 0
M  V30 11245 H 1064.23 -1.20973 -2.74419 0
M  V30 11246 H 1061.78 -0.664619 -1.41466 0
M  V30 11247 H 1062.52 1.35425 -2.9467 0
M  V30 11248 H 1062.3 -0.130173 -3.91884 0
M  V30 11249 H 1063.79 0.845169 -4.08958 0
M  V30 11250 N 1064.23 1.43628 -0.648757 0
M  V30 11251 C 1065.48 2.01465 -0.16002 0
M  V30 11252 C 1065.8 1.51413 1.22878 0
M  V30 11253 O 1065.07 0.724919 1.81994 0
M  V30 11254 H 1063.65 0.744885 -0.0561672 0
M  V30 11255 H 1066.31 1.75897 -0.839422 0
M  V30 11256 H 1065.41 3.1178 -0.141213 0
M  V30 11257 N 1065.71 0.390394 1.52688 0
M  V30 11258 C 1066.96 -0.192697 2.00777 0
M  V30 11259 C 1067.27 -1.4781 1.28108 0
M  V30 11260 O 1068.48 -2.1413 1.66914 0
M  V30 11261 C 1066.93 -0.393955 3.57737 0
M  V30 11262 C 1066.54 0.878259 4.39307 0
M  V30 11263 C 1068.29 -0.933352 4.14112 0
M  V30 11264 C 1066.19 0.645218 5.8787 0
M  V30 11265 H 1065.12 -0.0757862 0.750182 0
M  V30 11266 H 1067.77 0.512961 1.76184 0
M  V30 11267 H 1066.16 -1.16149 3.78583 0
M  V30 11268 H 1067.33 1.65049 4.30227 0
M  V30 11269 H 1065.65 1.34269 3.94158 0
M  V30 11270 H 1068.24 -1.12343 5.22765 0
M  V30 11271 H 1068.59 -1.90272 3.70273 0
M  V30 11272 H 1069.12 -0.225361 3.97161 0
M  V30 11273 H 1065.86 1.58562 6.36033 0
M  V30 11274 H 1065.38 -0.0880609 5.99735 0
M  V30 11275 H 1067.06 0.280178 6.46393 0
M  V30 11276 N 1067.19 -1.57141 0.120249 0
M  V30 11277 C 1068.15 -2.14213 -0.815185 0
M  V30 11278 C 1069.15 -1.07731 -1.19376 0
M  V30 11279 O 1070.34 -1.33502 -1.11906 0
M  V30 11280 C 1067.47 -2.68339 -2.10255 0
M  V30 11281 H 1068.67 -2.98197 -0.319166 0
M  V30 11282 H 1066.22 -1.55767 -0.128997 0
M  V30 11283 H 1066.95 -1.87946 -2.64285 0
M  V30 11284 H 1066.74 -3.46216 -1.84057 0
M  V30 11285 H 1068.23 -3.124 -2.77121 0
M  V30 11286 N 1068.67 0.153526 -1.5685 0
M  V30 11287 C 1069.6 1.19162 -2.00805 0
M  V30 11288 C 1070.58 1.45172 -0.886518 0
M  V30 11289 O 1071.76 1.56203 -1.15387 0
M  V30 11290 C 1068.89 2.52637 -2.38311 0
M  V30 11291 C 1067.85 2.41161 -3.53589 0
M  V30 11292 C 1067.17 3.79287 -3.76889 0
M  V30 11293 C 1068.47 1.90122 -4.86468 0
M  V30 11294 H 1070.17 0.82617 -2.87776 0
M  V30 11295 H 1067.71 0.395972 -1.38449 0
M  V30 11296 H 1069.67 3.25478 -2.6766 0
M  V30 11297 H 1068.39 2.91005 -1.4827 0
M  V30 11298 H 1067.05 1.70772 -3.24395 0
M  V30 11299 H 1066.7 4.15079 -2.84109 0
M  V30 11300 H 1066.4 3.72472 -4.54465 0
M  V30 11301 H 1067.92 4.53687 -4.08657 0
M  V30 11302 H 1069.33 2.52752 -5.14577 0
M  V30 11303 H 1067.73 1.94214 -5.67804 0
M  V30 11304 H 1068.8 0.856517 -4.77275 0
M  V30 11305 N 1070.14 1.51827 0.422667 0
M  V30 11306 C 1071.56 1.40328 0.760275 0
M  V30 11307 C 1071.76 0.497119 1.95272 0
M  V30 11308 O 1070.82 -0.0422083 2.52465 0
M  V30 11309 C 1072.13 2.82622 1.02689 0
M  V30 11310 C 1073.68 2.91874 1.13044 0
M  V30 11311 C 1074.15 4.35107 1.4299 0
M  V30 11312 N 1075.64 4.3828 1.49883 0
M  V30 11313 C 1076.38 5.46153 1.74655 0
M  V30 11314 N 1075.87 6.64165 1.9712 0
M  V30 11315 N 1077.67 5.33651 1.76558 0
M  V30 11316 H 1069.82 2.09285 -0.362455 0
M  V30 11317 H 1072.08 0.94273 -0.0998161 0
M  V30 11318 H 1071.79 3.50991 0.223226 0
M  V30 11319 H 1071.66 3.22844 1.95068 0
M  V30 11320 H 1074.05 2.23694 1.92471 0
M  V30 11321 H 1074.13 2.55128 0.185326 0
M  V30 11322 H 1073.77 5.03841 0.640848 0
M  V30 11323 H 1073.7 4.69377 2.38731 0
M  V30 11324 H 1076.19 3.53206 1.34366 0
M  V30 11325 H 1076.51 7.42165 2.15434 0
M  V30 11326 H 1074.85 6.67255 1.94413 0
M  V30 11327 H 1078.04 4.40436 1.58536 0
M  V30 11328 H 1078.22 6.17798 1.95525 0
M  V30 11329 N 1071.62 -0.679052 1.4222 0
M  V30 11330 C 1072.85 -1.47248 1.46058 0
M  V30 11331 C 1073.27 -1.87962 0.0720987 0
M  V30 11332 O 1072.63 -1.5572 -0.928488 0
M  V30 11333 C 1072.68 -2.70067 2.38948 0
M  V30 11334 O 1071.78 -3.68178 1.85791 0
M  V30 11335 H 1071.12 -0.442533 0.495036 0
M  V30 11336 H 1073.65 -0.833263 1.86863 0
M  V30 11337 H 1073.66 -3.18187 2.55385 0
M  V30 11338 H 1072.34 -2.39773 3.39826 0
M  V30 11339 H 1070.92 -3.2719 1.78889 0
M  V30 11340 N 1073.1 -1.28322 -0.914942 0
M  V30 11341 C 1074.03 -1.14681 -2.03398 0
M  V30 11342 C 1075.01 -0.0448939 -1.70041 0
M  V30 11343 O 1076.2 -0.221672 -1.92931 0
M  V30 11344 C 1073.33 -0.806623 -3.37803 0
M  V30 11345 C 1072.28 -1.86318 -3.85318 0
M  V30 11346 C 1071.61 -1.37665 -5.16674 0
M  V30 11347 C 1072.91 -3.26953 -4.07307 0
M  V30 11348 H 1074.6 -2.08293 -2.15068 0
M  V30 11349 H 1072.15 -1.00284 -1.03339 0
M  V30 11350 H 1074.1 -0.69796 -4.1558 0
M  V30 11351 H 1072.82 0.165203 -3.26182 0
M  V30 11352 H 1071.48 -1.96096 -3.09745 0
M  V30 11353 H 1071.13 -0.393927 -5.01455 0
M  V30 11354 H 1070.83 -2.08313 -5.49435 0
M  V30 11355 H 1072.35 -1.28119 -5.97007 0
M  V30 11356 H 1073.77 -3.20102 -4.75613 0
M  V30 11357 H 1072.17 -3.95424 -4.51398 0
M  V30 11358 H 1073.24 -3.71059 -3.12159 0
M  V30 11359 N 1074.58 1.12322 -1.10551 0
M  V30 11360 C 1075.83 1.83858 -0.848674 0
M  V30 11361 C 1076.15 1.84159 0.62575 0
M  V30 11362 O 1075.41 1.28341 1.4774 0
M  V30 11363 C 1075.71 3.31177 -1.34375 0
M  V30 11364 C 1075.37 3.51046 -2.8298 0
M  V30 11365 C 1074.04 3.56177 -3.23561 0
M  V30 11366 C 1076.39 3.58061 -3.78737 0
M  V30 11367 C 1073.72 3.65868 -4.58647 0
M  V30 11368 C 1076.07 3.69283 -5.13627 0
M  V30 11369 C 1074.73 3.7267 -5.53781 0
M  V30 11370 H 1074 0.672784 -0.310552 0
M  V30 11371 H 1076.65 1.3253 -1.38232 0
M  V30 11372 H 1074.95 3.84937 -0.730144 0
M  V30 11373 H 1076.65 3.84998 -1.12148 0
M  V30 11374 H 1073.24 3.47716 -2.50582 0
M  V30 11375 H 1077.42 3.53366 -3.48491 0
M  V30 11376 H 1072.68 3.66763 -4.89178 0
M  V30 11377 H 1076.85 3.73654 -5.8767 0
M  V30 11378 H 1074.48 3.79932 -6.58449 0
M  V30 11379 N 1076.06 0.894434 1.2976 0
M  V30 11380 C 1077.3 0.524501 1.97556 0
M  V30 11381 C 1077.66 -0.911202 1.69 0
M  V30 11382 O 1078.86 -1.38774 2.30207 0
M  V30 11383 C 1077.13 0.802636 3.48271 0
M  V30 11384 S 1078.69 0.536223 4.35511 0
M  V30 11385 H 1075.51 0.194786 0.683798 0
M  V30 11386 H 1078.11 1.15574 1.5768 0
M  V30 11387 H 1076.82 1.84586 3.66546 0
M  V30 11388 H 1076.35 0.159316 3.93077 0
M  V30 11389 H 1078.36 -0.621056 4.92298 0
M  V30 11390 N 1077.53 -1.43282 0.656365 0
M  V30 11391 C 1078.78 -2.01378 0.170702 0
M  V30 11392 C 1079.1 -1.52063 -1.22073 0
M  V30 11393 O 1078.37 -0.73456 -1.81607 0
M  V30 11394 H 1076.95 -0.744577 0.0601168 0
M  V30 11395 H 1079.62 -1.75449 0.848739 0
M  V30 11396 H 1078.71 -3.11701 0.157745 0
M  V30 11397 N 1079.01 -0.398486 -1.52479 0
M  V30 11398 C 1080.24 0.183059 -2.06591 0
M  V30 11399 C 1080.66 1.3898 -1.26753 0
M  V30 11400 O 1080.02 1.78885 -0.294959 0
M  V30 11401 C 1080.07 0.522392 -3.56796 0
M  V30 11402 O 1079.17 1.61499 -3.79462 0
M  V30 11403 H 1078.51 0.0188411 -0.663733 0
M  V30 11404 H 1081.04 -0.56861 -1.9654 0
M  V30 11405 H 1081.05 0.784078 -4.00395 0
M  V30 11406 H 1079.73 -0.359807 -4.14341 0
M  V30 11407 H 1078.31 1.3463 -3.47749 0
M  V30 11408 N 1080.49 1.57075 -0.12858 0
M  V30 11409 C 1081.9 1.82468 0.39526 0
M  V30 11410 C 1082.25 1.0463 1.65973 0
M  V30 11411 O 1081.38 0.285835 2.14504 0
M  V30 11412 C 1081.97 3.30976 0.723889 0
M  V30 11413 C 1080.53 3.57016 1.19232 0
M  V30 11414 C 1079.68 2.76534 0.205907 0
M  V30 11415 H 1082.63 1.54711 -0.353571 0
M  V30 11416 H 1082.65 3.46127 1.58039 0
M  V30 11417 H 1082.16 3.87602 -0.196595 0
M  V30 11418 H 1080.26 3.05758 2.12938 0
M  V30 11419 H 1080.38 4.65558 1.13103 0
M  V30 11420 H 1078.74 2.45038 0.694872 0
M  V30 11421 H 1079.52 3.35923 -0.707842 0
M  V30 11422 N 1081.97 -0.145205 1.5693 0
M  V30 11423 C 1083.38 -0.705089 1.72874 0
M  V30 11424 C 1083.73 -1.81577 0.743261 0
M  V30 11425 O 1082.86 -2.16214 -0.0897153 0
M  V30 11426 C 1083.45 -1.28578 3.13454 0
M  V30 11427 C 1082.01 -1.79221 3.30994 0
M  V30 11428 C 1081.16 -0.681392 2.68798 0
M  V30 11429 H 1084.11 0.0804798 1.58496 0
M  V30 11430 H 1084.13 -2.15558 3.13552 0
M  V30 11431 H 1083.64 -0.477186 3.85155 0
M  V30 11432 H 1081.74 -2.62642 2.64292 0
M  V30 11433 H 1081.86 -1.91969 4.38959 0
M  V30 11434 H 1080.22 -1.10847 2.29314 0
M  V30 11435 H 1081 0.115786 3.43105 0
M  V30 11436 N 1083.45 -1.52049 -0.414609 0
M  V30 11437 C 1084.86 -1.58062 -0.993638 0
M  V30 11438 C 1085.21 -0.417795 -1.917 0
M  V30 11439 O 1084.33 0.462558 -2.11399 0
M  V30 11440 C 1084.93 -2.86471 -1.80886 0
M  V30 11441 C 1083.49 -2.94981 -2.33801 0
M  V30 11442 C 1082.64 -2.52949 -1.13631 0
M  V30 11443 H 1085.59 -1.57497 -0.19504 0
M  V30 11444 H 1085.61 -2.71515 -2.66571 0
M  V30 11445 H 1085.12 -3.71085 -1.13657 0
M  V30 11446 H 1083.22 -2.14849 -3.04419 0
M  V30 11447 H 1083.33 -3.99111 -2.65042 0
M  V30 11448 H 1081.7 -2.0667 -1.48861 0
M  V30 11449 H 1082.48 -3.39931 -0.479765 0
M  V30 11450 N 1084.93 0.6715 -1.42579 0
M  V30 11451 C 1085.84 1.81435 -1.48723 0
M  V30 11452 C 1086.85 1.69895 -0.375716 0
M  V30 11453 O 1088.03 1.91388 -0.627115 0
M  V30 11454 C 1085.09 3.17599 -1.39038 0
M  V30 11455 C 1084.15 3.41071 -2.60709 0
M  V30 11456 C 1083.39 4.7074 -2.51476 0
M  V30 11457 O 1083.61 5.48868 -1.55243 0
M  V30 11458 O 1082.54 4.95528 -3.41666 0
M  V30 11459 H 1086.37 1.79206 -2.45191 0
M  V30 11460 H 1083.95 0.827666 -1.24379 0
M  V30 11461 H 1085.84 3.98847 -1.3601 0
M  V30 11462 H 1084.51 3.20458 -0.456966 0
M  V30 11463 H 1083.42 2.59659 -2.69311 0
M  V30 11464 H 1084.75 3.43045 -3.5296 0
M  V30 11465 N 1086.4 1.28806 0.908124 0
M  V30 11466 C 1087.37 1.13228 1.99279 0
M  V30 11467 C 1088.37 0.0702456 1.60646 0
M  V30 11468 O 1089.56 0.316494 1.71301 0
M  V30 11469 C 1086.69 0.729629 3.33 0
M  V30 11470 H 1087.88 2.09566 2.14528 0
M  V30 11471 H 1085.43 1.11872 1.09153 0
M  V30 11472 H 1086.17 -0.234268 3.23453 0
M  V30 11473 H 1085.95 1.49688 3.62403 0
M  V30 11474 H 1087.44 0.643449 4.12613 0
M  V30 11475 N 1087.88 -1.11734 1.11145 0
M  V30 11476 C 1088.84 -2.15868 0.770303 0
M  V30 11477 C 1089.84 -1.59438 -0.208842 0
M  V30 11478 O 1091.03 -1.74193 0.0152516 0
M  V30 11479 C 1088.17 -3.40603 0.142303 0
M  V30 11480 H 1089.36 -2.4756 1.69276 0
M  V30 11481 H 1086.91 -1.26867 0.912929 0
M  V30 11482 H 1087.65 -3.14517 -0.790526 0
M  V30 11483 H 1087.43 -3.8284 0.847087 0
M  V30 11484 H 1088.92 -4.17523 -0.0803608 0
M  V30 11485 N 1089.36 -0.901303 -1.29284 0
M  V30 11486 C 1090.58 -0.542823 -2.0017 0
M  V30 11487 C 1091.01 0.865583 -1.67001 0
M  V30 11488 O 1090.37 1.5764 -0.895502 0
M  V30 11489 C 1090.42 -0.743987 -3.52842 0
M  V30 11490 O 1089.52 0.202771 -4.11901 0
M  V30 11491 H 1088.86 -0.211903 -0.62928 0
M  V30 11492 H 1091.39 -1.21333 -1.64741 0
M  V30 11493 H 1091.4 -0.64926 -4.02801 0
M  V30 11494 H 1090.08 -1.77077 -3.7632 0
M  V30 11495 H 1088.65 0.0603637 -3.72851 0
M  V30 11496 N 1090.84 1.42931 -0.663954 0
M  V30 11497 C 1091.75 2.3459 0.0214234 0
M  V30 11498 C 1092.76 1.54487 0.800611 0
M  V30 11499 O 1093.94 1.87098 0.74541 0
M  V30 11500 C 1091 3.32896 0.968556 0
M  V30 11501 C 1090.07 4.28901 0.185108 0
M  V30 11502 C 1089.3 5.2251 1.08713 0
M  V30 11503 O 1089.52 5.20795 2.32655 0
M  V30 11504 O 1088.46 5.99347 0.553758 0
M  V30 11505 H 1092.28 2.94714 -0.733308 0
M  V30 11506 H 1089.87 1.43252 -0.424159 0
M  V30 11507 H 1091.75 3.93318 1.51257 0
M  V30 11508 H 1090.42 2.75261 1.70333 0
M  V30 11509 H 1089.33 3.71926 -0.402752 0
M  V30 11510 H 1090.66 4.89547 -0.510319 0
M  V30 11511 N 1092.32 0.406567 1.52266 0
M  V30 11512 C 1093.26 -0.420182 2.26943 0
M  V30 11513 C 1094.23 -1.04323 1.29251 0
M  V30 11514 O 1095.42 -1.06799 1.5811 0
M  V30 11515 C 1092.56 -1.5323 3.09216 0
M  V30 11516 C 1091.67 -0.930419 4.21862 0
M  V30 11517 C 1090.81 -2.01502 4.91498 0
M  V30 11518 C 1089.84 -1.38994 5.9611 0
M  V30 11519 N 1088.98 -2.41458 6.59274 0
M  V30 11520 H 1093.82 0.223066 2.97164 0
M  V30 11521 H 1091.36 0.121842 1.46595 0
M  V30 11522 H 1093.32 -2.18803 3.5522 0
M  V30 11523 H 1091.95 -2.14561 2.41171 0
M  V30 11524 H 1091 -0.163809 3.80047 0
M  V30 11525 H 1092.31 -0.433785 4.9691 0
M  V30 11526 H 1091.46 -2.74807 5.40894 0
M  V30 11527 H 1090.2 -2.5453 4.16012 0
M  V30 11528 H 1089.21 -0.642213 5.46036 0
M  V30 11529 H 1090.43 -0.867386 6.73538 0
M  V30 11530 H 1088.38 -2.93623 5.86619 0
M  V30 11531 H 1088.3 -1.96599 7.2999 0
M  V30 11532 H 1089.56 -3.14341 7.13309 0
M  V30 11533 N 1093.79 -1.57004 0.136909 0
M  V30 11534 C 1094.72 -2.19262 -0.802902 0
M  V30 11535 C 1095.71 -1.13786 -1.26439 0
M  V30 11536 O 1096.89 -1.42091 -1.32377 0
M  V30 11537 C 1094.02 -2.80624 -2.04615 0
M  V30 11538 C 1092.97 -3.91839 -1.72181 0
M  V30 11539 C 1092.3 -4.4009 -3.03686 0
M  V30 11540 C 1093.6 -5.13095 -0.976249 0
M  V30 11541 H 1095.29 -2.98049 -0.28406 0
M  V30 11542 H 1092.84 -1.43364 -0.135189 0
M  V30 11543 H 1094.79 -3.22842 -2.70834 0
M  V30 11544 H 1093.52 -1.99153 -2.58855 0
M  V30 11545 H 1092.18 -3.50224 -1.08344 0
M  V30 11546 H 1091.82 -3.55454 -3.55896 0
M  V30 11547 H 1091.52 -5.15098 -2.82751 0
M  V30 11548 H 1093.05 -4.84971 -3.70993 0
M  V30 11549 H 1094.46 -5.5222 -1.54033 0
M  V30 11550 H 1092.86 -5.93801 -0.867214 0
M  V30 11551 H 1093.93 -4.84888 0.0338488 0
M  V30 11552 N 1095.27 0.136881 -1.57004 0
M  V30 11553 C 1096.18 1.18793 -2.023 0
M  V30 11554 C 1097.2 1.46412 -0.94018 0
M  V30 11555 O 1098.37 1.57883 -1.2504 0
M  V30 11556 C 1095.44 2.49903 -2.40311 0
M  V30 11557 C 1094.5 2.29841 -3.6259 0
M  V30 11558 C 1093.73 3.54699 -3.98779 0
M  V30 11559 O 1093.96 4.61291 -3.3551 0
M  V30 11560 O 1092.89 3.46761 -4.91976 0
M  V30 11561 H 1096.72 0.833345 -2.92043 0
M  V30 11562 H 1094.3 0.346361 -1.4533 0
M  V30 11563 H 1096.18 3.27183 -2.65574 0
M  V30 11564 H 1094.86 2.84872 -1.5372 0
M  V30 11565 H 1093.77 1.50478 -3.42501 0
M  V30 11566 H 1095.1 1.99784 -4.4983 0
M  V30 11567 N 1096.75 1.52266 0.40654 0
M  V30 11568 C 1097.98 1.70598 1.17945 0
M  V30 11569 C 1098.4 0.415793 1.83447 0
M  V30 11570 O 1097.76 -0.626968 1.70114 0
M  V30 11571 C 1097.81 2.84449 2.21633 0
M  V30 11572 O 1096.91 2.50199 3.27833 0
M  V30 11573 H 1096.25 0.567837 0.344177 0
M  V30 11574 H 1098.78 1.98981 0.476211 0
M  V30 11575 H 1098.79 3.09436 2.65919 0
M  V30 11576 H 1097.47 3.78055 1.73341 0
M  V30 11577 H 1096.04 2.35892 2.88807 0
M  V30 11578 N 1098.23 -0.663929 1.42933 0
M  V30 11579 C 1099.47 -1.43583 1.45476 0
M  V30 11580 C 1099.83 -1.91862 0.0728387 0
M  V30 11581 O 1101.03 -2.68786 -0.0270249 0
M  V30 11582 C 1099.3 -2.59316 2.45947 0
M  V30 11583 S 1100.86 -3.48004 2.6728 0
M  V30 11584 H 1097.68 -0.490261 0.514942 0
M  V30 11585 H 1100.28 -0.771834 1.79619 0
M  V30 11586 H 1098.99 -2.22104 3.45106 0
M  V30 11587 H 1098.52 -3.30577 2.13266 0
M  V30 11588 H 1100.53 -4.55677 1.96399 0
M  V30 11589 N 1099.71 -1.29285 -0.901281 0
M  V30 11590 C 1100.62 -1.16161 -2.03823 0
M  V30 11591 C 1101.63 -0.0852298 -1.73791 0
M  V30 11592 O 1102.81 -0.29699 -1.99198 0
M  V30 11593 C 1099.87 -0.837586 -3.3643 0
M  V30 11594 C 1098.93 -1.99764 -3.7999 0
M  V30 11595 C 1098.17 -1.68898 -5.0627 0
M  V30 11596 O 1098.39 -0.609177 -5.67138 0
M  V30 11597 O 1097.32 -2.53648 -5.45845 0
M  V30 11598 H 1101.15 -2.11635 -2.17817 0
M  V30 11599 H 1098.74 -1.08722 -1.02468 0
M  V30 11600 H 1100.62 -0.671376 -4.16017 0
M  V30 11601 H 1099.29 0.0873811 -3.23582 0
M  V30 11602 H 1098.2 -2.21908 -3.01177 0
M  V30 11603 H 1099.53 -2.90376 -3.9742 0
M  V30 11604 N 1101.18 1.11143 -1.11736 0
M  V30 11605 C 1102.13 2.17274 -0.778513 0
M  V30 11606 C 1103.1 1.64186 0.251405 0
M  V30 11607 O 1104.29 1.90373 0.127629 0
M  V30 11608 C 1101.43 3.44324 -0.231246 0
M  V30 11609 C 1100.54 4.114 -1.31809 0
M  V30 11610 C 1099.67 5.26146 -0.73104 0
M  V30 11611 C 1098.71 5.85112 -1.79752 0
M  V30 11612 N 1097.85 6.91247 -1.22973 0
M  V30 11613 H 1102.69 2.45603 -1.68769 0
M  V30 11614 H 1100.23 1.20565 -0.842759 0
M  V30 11615 H 1102.19 4.1707 0.104045 0
M  V30 11616 H 1100.82 3.16369 0.641119 0
M  V30 11617 H 1099.87 3.36697 -1.77029 0
M  V30 11618 H 1101.18 4.51278 -2.12485 0
M  V30 11619 H 1100.33 6.05713 -0.345987 0
M  V30 11620 H 1099.07 4.87583 0.107 0
M  V30 11621 H 1098.08 5.0422 -2.19185 0
M  V30 11622 H 1099.3 6.25741 -2.63865 0
M  V30 11623 H 1097.25 6.54696 -0.41339 0
M  V30 11624 H 1097.17 7.29796 -1.97316 0
M  V30 11625 H 1098.43 7.74611 -0.87167 0
M  V30 11626 N 1102.66 0.908147 1.28804 0
M  V30 11627 C 1104.08 0.605474 1.47669 0
M  V30 11628 C 1104.28 -0.850759 1.82659 0
M  V30 11629 O 1103.33 -1.63029 1.92816 0
M  V30 11630 C 1104.65 1.53856 2.58358 0
M  V30 11631 C 1106.2 1.54467 2.7223 0
M  V30 11632 C 1106.67 2.46424 3.86056 0
M  V30 11633 N 1108.16 2.44519 3.93402 0
M  V30 11634 C 1108.9 3.12371 4.80845 0
M  V30 11635 N 1108.39 3.89533 5.72919 0
M  V30 11636 N 1110.19 3.01486 4.74407 0
M  V30 11637 H 1102.34 1.84988 1.04371 0
M  V30 11638 H 1104.6 0.793132 0.519274 0
M  V30 11639 H 1104.31 2.57651 2.39393 0
M  V30 11640 H 1104.18 1.26543 3.5534 0
M  V30 11641 H 1106.57 0.514127 2.90587 0
M  V30 11642 H 1106.65 1.85821 1.75796 0
M  V30 11643 H 1106.29 3.49577 3.68454 0
M  V30 11644 H 1106.22 2.12375 4.81876 0
M  V30 11645 H 1108.71 1.88464 3.27551 0
M  V30 11646 H 1109.03 4.3834 6.36457 0
M  V30 11647 H 1107.37 3.93639 5.72777 0
M  V30 11648 H 1110.56 2.40713 4.01466 0
M  V30 11649 H 1110.73 3.5464 5.42342 0
M  V30 11650 N 1104.14 -1.42577 0.671525 0
M  V30 11651 C 1105.09 -2.30798 -0.00883676 0
M  V30 11652 C 1106.06 -1.4578 -0.796076 0
M  V30 11653 O 1107.24 -1.74617 -0.768987 0
M  V30 11654 C 1104.38 -3.31581 -0.956452 0
M  V30 11655 C 1103.5 -4.31691 -0.163381 0
M  V30 11656 C 1102.63 -5.19549 -1.10645 0
M  V30 11657 C 1101.67 -6.1134 -0.304876 0
M  V30 11658 N 1100.81 -6.91761 -1.20048 0
M  V30 11659 H 1105.65 -2.88426 0.749301 0
M  V30 11660 H 1103.18 -1.42074 0.381251 0
M  V30 11661 H 1105.14 -3.88539 -1.51966 0
M  V30 11662 H 1103.77 -2.75561 -1.68126 0
M  V30 11663 H 1102.82 -3.76879 0.516396 0
M  V30 11664 H 1104.14 -4.96683 0.459099 0
M  V30 11665 H 1103.29 -5.81223 -1.73969 0
M  V30 11666 H 1102.03 -4.54726 -1.76282 0
M  V30 11667 H 1101.03 -5.48738 0.341597 0
M  V30 11668 H 1102.26 -6.78211 0.347352 0
M  V30 11669 H 1100.2 -6.2957 -1.84331 0
M  V30 11670 H 1100.12 -7.53345 -0.633003 0
M  V30 11671 H 1101.39 -7.57924 -1.82129 0
M  V30 11672 N 1105.62 -0.414636 -1.52048 0
M  V30 11673 C 1106.55 0.399119 -2.30064 0
M  V30 11674 C 1107.53 1.04126 -1.34506 0
M  V30 11675 O 1108.71 1.04923 -1.63416 0
M  V30 11676 C 1105.84 1.51305 -3.12608 0
M  V30 11677 C 1104.8 0.995621 -4.16259 0
M  V30 11678 C 1104.12 2.20357 -4.87183 0
M  V30 11679 C 1105.42 0.0458178 -5.2228 0
M  V30 11680 H 1107.12 -0.251879 -2.98339 0
M  V30 11681 H 1104.66 -0.122579 -1.43477 0
M  V30 11682 H 1106.62 2.08936 -3.65956 0
M  V30 11683 H 1105.34 2.19201 -2.42113 0
M  V30 11684 H 1104 0.441676 -3.6393 0
M  V30 11685 H 1103.65 2.8682 -4.13211 0
M  V30 11686 H 1103.35 1.86385 -5.57256 0
M  V30 11687 H 1104.87 2.78584 -5.43345 0
M  V30 11688 H 1106.29 0.531102 -5.70835 0
M  V30 11689 H 1104.68 -0.20536 -5.99749 0
M  V30 11690 H 1105.75 -0.897807 -4.76516 0
M  V30 11691 N 1107.1 1.56929 -0.145233 0
M  V30 11692 C 1108.04 2.16671 0.795128 0
M  V30 11693 C 1109.01 1.09908 1.24537 0
M  V30 11694 O 1110.2 1.37941 1.31821 0
M  V30 11695 C 1107.34 2.79111 2.02956 0
M  V30 11696 C 1106.45 4.00261 1.62528 0
M  V30 11697 C 1105.59 4.50705 2.81137 0
M  V30 11698 C 1104.63 5.64324 2.37075 0
M  V30 11699 N 1103.76 6.09395 3.48687 0
M  V30 11700 H 1108.6 2.96692 0.278865 0
M  V30 11701 H 1106.14 1.4656 0.125934 0
M  V30 11702 H 1108.1 3.13456 2.7532 0
M  V30 11703 H 1106.73 2.01737 2.51996 0
M  V30 11704 H 1105.78 3.71906 0.799365 0
M  V30 11705 H 1107.09 4.8258 1.26166 0
M  V30 11706 H 1106.25 4.87096 3.61693 0
M  V30 11707 H 1104.98 3.67389 3.20744 0
M  V30 11708 H 1103.99 5.27511 1.54958 0
M  V30 11709 H 1105.21 6.49425 1.98556 0
M  V30 11710 H 1103.16 5.29014 3.87917 0
M  V30 11711 H 1103.08 6.86636 3.16333 0
M  V30 11712 H 1104.35 6.50431 4.29605 0
M  V30 11713 N 1108.58 -0.128553 1.57075 0
M  V30 11714 C 1109.99 -0.481794 1.52154 0
M  V30 11715 C 1110.19 -1.82381 0.856694 0
M  V30 11716 O 1109.25 -2.48725 0.434989 0
M  V30 11717 C 1110.56 -0.475091 2.96923 0
M  V30 11718 C 1112.11 -0.559315 3.07962 0
M  V30 11719 C 1112.58 -0.583095 4.54273 0
M  V30 11720 N 1114.07 -0.644803 4.5869 0
M  V30 11721 C 1114.81 -0.684493 5.693 0
M  V30 11722 N 1114.31 -0.682407 6.89431 0
M  V30 11723 N 1116.1 -0.726777 5.57382 0
M  V30 11724 H 1108.25 0.750894 1.98684 0
M  V30 11725 H 1110.51 0.27593 0.906955 0
M  V30 11726 H 1110.22 0.443157 3.48897 0
M  V30 11727 H 1110.09 -1.30637 3.53856 0
M  V30 11728 H 1112.48 -1.46798 2.55997 0
M  V30 11729 H 1112.56 0.299468 2.54041 0
M  V30 11730 H 1112.2 0.32149 5.06881 0
M  V30 11731 H 1112.13 -1.45863 5.05996 0
M  V30 11732 H 1114.63 -0.652967 3.72216 0
M  V30 11733 H 1114.94 -0.715051 7.69485 0
M  V30 11734 H 1113.28 -0.649984 6.91954 0
M  V30 11735 H 1116.47 -0.725704 4.6244 0
M  V30 11736 H 1116.65 -0.754242 6.43596 0
M  V30 11737 N 1110.05 -1.5248 -0.398459 0
M  V30 11738 C 1111.3 -1.67309 -1.1461 0
M  V30 11739 C 1111.63 -0.407095 -1.89885 0
M  V30 11740 O 1110.91 0.594834 -1.85181 0
M  V30 11741 C 1111.19 -2.90204 -2.13198 0
M  V30 11742 C 1111.04 -4.26881 -1.4175 0
M  V30 11743 C 1112.36 -3.08634 -3.13741 0
M  V30 11744 H 1109.48 -0.608853 -0.415292 0
M  V30 11745 H 1112.12 -1.85057 -0.430573 0
M  V30 11746 H 1110.27 -2.75204 -2.74218 0
M  V30 11747 H 1111.95 -4.53631 -0.837676 0
M  V30 11748 H 1110.19 -4.27793 -0.719387 0
M  V30 11749 H 1110.86 -5.08939 -2.1374 0
M  V30 11750 H 1113.34 -3.22603 -2.62805 0
M  V30 11751 H 1112.21 -3.96117 -3.79977 0
M  V30 11752 H 1112.47 -2.22425 -3.82073 0
M  V30 11753 N 1111.53 0.65634 -1.43283 0
M  V30 11754 C 1112.95 0.971645 -1.26614 0
M  V30 11755 C 1113.15 2.00662 -0.183612 0
M  V30 11756 O 1112.2 2.48654 0.439003 0
M  V30 11757 C 1113.52 1.45888 -2.6294 0
M  V30 11758 C 1115.06 1.57569 -2.70446 0
M  V30 11759 C 1115.54 2.09684 -4.07181 0
M  V30 11760 N 1117.03 2.16991 -4.0923 0
M  V30 11761 C 1117.77 2.5843 -5.11861 0
M  V30 11762 N 1117.26 2.99188 -6.24867 0
M  V30 11763 N 1119.05 2.58342 -4.99215 0
M  V30 11764 H 1111.21 -0.028573 -2.12381 0
M  V30 11765 H 1113.47 0.0497918 -0.946691 0
M  V30 11766 H 1113.17 0.772823 -3.43104 0
M  V30 11767 H 1113.05 2.43445 -2.88122 0
M  V30 11768 H 1115.44 2.25277 -1.90616 0
M  V30 11769 H 1115.52 0.584529 -2.49032 0
M  V30 11770 H 1115.16 1.42579 -4.87477 0
M  V30 11771 H 1115.09 3.09625 -4.25958 0
M  V30 11772 H 1117.58 1.88278 -3.27658 0
M  V30 11773 H 1117.89 3.29549 -6.99012 0
M  V30 11774 H 1116.24 2.97 -6.28344 0
M  V30 11775 H 1119.43 2.25875 -4.09998 0
M  V30 11776 H 1119.6 2.90316 -5.79328 0
M  V30 11777 N 1113.01 1.29761 0.894412 0
M  V30 11778 C 1114.26 1.17409 1.64006 0
M  V30 11779 C 1114.57 -0.272355 1.93695 0
M  V30 11780 O 1115.78 -0.517269 2.66527 0
M  V30 11781 C 1114.23 2.05379 2.95546 0
M  V30 11782 C 1113.84 3.54878 2.73433 0
M  V30 11783 C 1115.59 2.01765 3.73485 0
M  V30 11784 C 1113.49 4.34935 4.00731 0
M  V30 11785 H 1112.42 0.43583 0.615279 0
M  V30 11786 H 1115.07 1.5444 0.990983 0
M  V30 11787 H 1113.46 1.61222 3.61695 0
M  V30 11788 H 1114.63 4.07122 2.15844 0
M  V30 11789 H 1112.94 3.60218 2.08882 0
M  V30 11790 H 1115.54 2.58835 4.67877 0
M  V30 11791 H 1115.88 0.998876 4.04139 0
M  V30 11792 H 1116.42 2.43994 3.14184 0
M  V30 11793 H 1113.16 5.3747 3.75241 0
M  V30 11794 H 1112.68 3.87458 4.5786 0
M  V30 11795 H 1114.36 4.45875 4.68833 0
M  V30 11796 N 1114.49 -1.10549 1.12324 0
M  V30 11797 C 1115.71 -1.8681 0.900927 0
M  V30 11798 C 1116.14 -1.80049 -0.54443 0
M  V30 11799 O 1115.5 -1.16957 -1.38531 0
M  V30 11800 C 1115.54 -3.33197 1.37883 0
M  V30 11801 O 1114.65 -4.08628 0.556529 0
M  V30 11802 H 1113.99 -0.579709 0.32378 0
M  V30 11803 H 1116.52 -1.39678 1.49503 0
M  V30 11804 H 1116.53 -3.84047 1.37739 0
M  V30 11805 H 1115.2 -3.37435 2.43127 0
M  V30 11806 H 1113.78 -3.67627 0.62486 0
M  V30 11807 N 1115.97 -0.914965 -1.28321 0
M  V30 11808 C 1116.9 -0.421292 -2.29668 0
M  V30 11809 C 1117.88 0.511743 -1.6222 0
M  V30 11810 O 1119.06 0.419218 -1.89621 0
M  V30 11811 C 1116.19 0.338364 -3.45648 0
M  V30 11812 C 1115.15 -0.505646 -4.25003 0
M  V30 11813 C 1114.47 0.382421 -5.33331 0
M  V30 11814 C 1115.77 -1.76354 -4.91626 0
M  V30 11815 H 1117.47 -1.26826 -2.71211 0
M  V30 11816 H 1115.01 -0.611291 -1.30381 0
M  V30 11817 H 1116.96 0.694578 -4.15636 0
M  V30 11818 H 1115.69 1.21925 -3.02988 0
M  V30 11819 H 1114.35 -0.844395 -3.56743 0
M  V30 11820 H 1114 1.26189 -4.86914 0
M  V30 11821 H 1113.7 -0.17871 -5.87328 0
M  V30 11822 H 1115.22 0.73449 -6.06166 0
M  V30 11823 H 1116.63 -1.47616 -5.5397 0
M  V30 11824 H 1115.03 -2.26717 -5.55625 0
M  V30 11825 H 1116.1 -2.49063 -4.16048 0
M  V30 11826 N 1117.44 1.42219 -0.679077 0
M  V30 11827 C 1118.41 2.29197 -0.0125475 0
M  V30 11828 C 1119.41 1.43544 0.724691 0
M  V30 11829 O 1120.6 1.64884 0.562052 0
M  V30 11830 C 1117.73 3.26122 0.992846 0
M  V30 11831 H 1118.92 2.89629 -0.778154 0
M  V30 11832 H 1116.47 1.4993 -0.44166 0
M  V30 11833 H 1117.21 2.70637 1.78679 0
M  V30 11834 H 1116.99 3.89302 0.467544 0
M  V30 11835 H 1118.48 3.91339 1.45751 0
M  V30 11836 N 1118.92 0.422693 1.51826 0
M  V30 11837 C 1120.15 -0.15017 2.06856 0
M  V30 11838 C 1120.57 -1.36946 1.28948 0
M  V30 11839 O 1119.93 -1.78393 0.32338 0
M  V30 11840 C 1119.98 -0.465563 3.57582 0
M  V30 11841 O 1119.08 -1.55442 3.81984 0
M  V30 11842 H 1118.42 -0.00827931 0.663948 0
M  V30 11843 H 1120.95 0.599806 1.95611 0
M  V30 11844 H 1120.96 -0.720279 4.01592 0
M  V30 11845 H 1119.64 0.425679 4.13716 0
M  V30 11846 H 1118.21 -1.29081 3.49846 0
M  V30 11847 N 1120.4 -1.5685 0.153553 0
M  V30 11848 C 1121.68 -1.8796 -0.541328 0
M  V30 11849 C 1122.06 -1.06059 -1.82523 0
M  V30 11850 O 1121.4 -0.149295 -2.28012 0
M  V30 11851 C 1121.61 -3.39697 -0.800442 0
M  V30 11852 C 1122.96 -4.09057 -1.13832 0
M  V30 11853 O 1123.99 -3.44913 -0.889578 0
M  V30 11854 O 1122.85 -5.22347 -1.60673 0
M  V30 11855 H 1119.94 -0.779268 -0.276895 0
M  V30 11856 H 1122.49 -1.68626 0.190657 0
M  V30 11857 H 1121.26 -3.91151 0.107935 0
M  V30 11858 H 1120.88 -3.64582 -1.58638 0
M  V30 11859 N 1121.88 0.120221 -1.57141 0
M  V30 11860 C 1122.84 1.13159 -1.99318 0
M  V30 11861 C 1123.84 1.34376 -0.883158 0
M  V30 11862 O 1125.03 1.30914 -1.14922 0
M  V30 11863 C 1122.16 2.48632 -2.33227 0
M  V30 11864 H 1123.36 0.769119 -2.8987 0
M  V30 11865 H 1120.91 0.364475 -1.51991 0
M  V30 11866 H 1121.64 2.89802 -1.45551 0
M  V30 11867 H 1121.43 2.34587 -3.14184 0
M  V30 11868 H 1122.92 3.21423 -2.66603 0
M  V30 11869 N 1123.36 1.52689 0.390367 0
M  V30 11870 C 1124.63 1.58246 1.14968 0
M  V30 11871 C 1125.01 0.374808 2.07746 0
M  V30 11872 O 1124.36 -0.636969 2.19442 0
M  V30 11873 C 1124.57 2.92059 1.91056 0
M  V30 11874 C 1125.92 3.45745 2.46466 0
M  V30 11875 O 1126.94 2.93924 2.01214 0
M  V30 11876 O 1125.8 4.3628 3.29122 0
M  V30 11877 H 1122.9 0.638189 0.52597 0
M  V30 11878 H 1125.44 1.65024 0.39563 0
M  V30 11879 H 1124.21 3.71399 1.23201 0
M  V30 11880 H 1123.84 2.8866 2.73425 0
M  V30 11881 N 1124.83 -0.648732 1.43629 0
M  V30 11882 C 1125.76 -1.77298 1.51947 0
M  V30 11883 C 1126.75 -1.65942 0.373785 0
M  V30 11884 O 1127.93 -1.8497 0.591596 0
M  V30 11885 C 1125.06 -3.15749 1.44638 0
M  V30 11886 C 1124.01 -3.41872 2.57502 0
M  V30 11887 C 1123.34 -4.8017 2.35246 0
M  V30 11888 C 1124.64 -3.36173 3.99731 0
M  V30 11889 H 1126.33 -1.70594 2.46045 0
M  V30 11890 H 1123.88 -0.819306 1.1842 0
M  V30 11891 H 1125.83 -3.94156 1.4906 0
M  V30 11892 H 1124.56 -3.23194 0.470466 0
M  V30 11893 H 1123.22 -2.65838 2.5244 0
M  V30 11894 H 1122.86 -4.84297 1.35887 0
M  V30 11895 H 1122.56 -4.9861 3.10906 0
M  V30 11896 H 1124.09 -5.6083 2.41459 0
M  V30 11897 H 1125.5 -4.0451 4.06257 0
M  V30 11898 H 1123.9 -3.66148 4.75453 0
M  V30 11899 H 1124.97 -2.34277 4.24549 0
M  V30 11900 N 1126.31 -1.30234 -0.887518 0
M  V30 11901 C 1127.22 -1.18316 -2.02579 0
M  V30 11902 C 1128.24 -0.103658 -1.73691 0
M  V30 11903 O 1129.41 -0.3181 -1.98872 0
M  V30 11904 C 1126.48 -0.873222 -3.35523 0
M  V30 11905 C 1125.54 -2.03783 -3.7785 0
M  V30 11906 C 1124.77 -1.74258 -5.0445 0
M  V30 11907 O 1125 -0.669295 -5.6646 0
M  V30 11908 O 1123.93 -2.59423 -5.43124 0
M  V30 11909 H 1127.76 -2.13933 -2.15561 0
M  V30 11910 H 1125.34 -1.09803 -1.0131 0
M  V30 11911 H 1127.22 -0.715463 -4.15282 0
M  V30 11912 H 1125.9 0.053056 -3.23657 0
M  V30 11913 H 1124.81 -2.2509 -2.98806 0
M  V30 11914 H 1126.14 -2.94574 -3.94318 0
M  V30 11915 N 1127.79 1.09952 -1.12909 0
M  V30 11916 C 1129.04 1.81657 -0.885729 0
M  V30 11917 C 1129.36 1.85863 0.589913 0
M  V30 11918 O 1128.63 1.34028 1.42875 0
M  V30 11919 H 1127.21 0.672743 -0.324694 0
M  V30 11920 H 1129.87 1.33013 -1.42456 0
M  V30 11921 H 1128.97 2.85018 -1.27167 0
M  V30 11922 N 1129.27 0.921757 1.27833 0
M  V30 11923 C 1130.18 0.421668 2.30779 0
M  V30 11924 C 1131.19 -0.494686 1.6682 0
M  V30 11925 O 1132.37 -0.378935 1.97803 0
M  V30 11926 C 1129.44 -0.322928 3.45193 0
M  V30 11927 C 1128.5 0.627618 4.24687 0
M  V30 11928 C 1127.73 -0.0815385 5.33638 0
M  V30 11929 O 1127.95 -1.30193 5.55343 0
M  V30 11930 O 1126.89 0.58725 5.99028 0
M  V30 11931 H 1130.71 1.2763 2.7558 0
M  V30 11932 H 1128.3 0.686877 1.32674 0
M  V30 11933 H 1130.18 -0.743145 4.14796 0
M  V30 11934 H 1128.85 -1.15326 3.02459 0
M  V30 11935 H 1127.76 1.09739 3.57642 0
M  V30 11936 H 1129.09 1.425 4.71121 0
M  V30 11937 N 1130.75 -1.41857 0.686609 0
M  V30 11938 C 1131.68 -2.28174 -0.0347358 0
M  V30 11939 C 1132.66 -1.41732 -0.796928 0
M  V30 11940 O 1133.84 -1.71165 -0.789607 0
M  V30 11941 C 1130.97 -3.21801 -1.0565 0
M  V30 11942 C 1130.01 -4.24727 -0.388523 0
M  V30 11943 S 1130.85 -5.28508 0.862546 0
M  V30 11944 C 1132 -6.25701 -0.157849 0
M  V30 11945 H 1132.24 -2.89005 0.697381 0
M  V30 11946 H 1129.77 -1.46861 0.476562 0
M  V30 11947 H 1131.73 -3.76278 -1.64089 0
M  V30 11948 H 1130.39 -2.60082 -1.76114 0
M  V30 11949 H 1129.58 -4.90471 -1.15991 0
M  V30 11950 H 1129.18 -3.73799 0.122567 0
M  V30 11951 H 1131.48 -6.6987 -1.01393 0
M  V30 11952 H 1132.42 -7.06569 0.465437 0
M  V30 11953 H 1132.83 -5.62204 -0.508614 0
M  V30 11954 N 1132.22 -0.430739 -1.51599 0
M  V30 11955 C 1133.45 0.139197 -2.06932 0
M  V30 11956 C 1133.87 1.3626 -1.29672 0
M  V30 11957 O 1133.23 1.78219 -0.332836 0
M  V30 11958 C 1133.28 0.446593 -3.57824 0
M  V30 11959 O 1132.38 1.53414 -3.82803 0
M  V30 11960 H 1131.73 0.00475812 -0.663983 0
M  V30 11961 H 1134.26 -0.610171 -1.9529 0
M  V30 11962 H 1134.27 0.698972 -4.01968 0
M  V30 11963 H 1132.94 -0.447613 -4.13484 0
M  V30 11964 H 1131.52 1.27224 -3.50526 0
M  V30 11965 N 1133.7 1.56767 -0.161869 0
M  V30 11966 C 1135.11 1.83265 0.356466 0
M  V30 11967 C 1135.46 1.08127 1.63716 0
M  V30 11968 O 1134.59 0.33127 2.13849 0
M  V30 11969 C 1135.18 3.32437 0.653521 0
M  V30 11970 C 1133.74 3.59465 1.11633 0
M  V30 11971 C 1132.89 2.76909 0.147204 0
M  V30 11972 H 1135.84 1.53926 -0.386308 0
M  V30 11973 H 1135.86 3.49401 1.50662 0
M  V30 11974 H 1135.37 3.87098 -0.278766 0
M  V30 11975 H 1133.48 3.10206 2.06404 0
M  V30 11976 H 1133.59 4.67853 1.03202 0
M  V30 11977 H 1131.95 2.46457 0.642739 0
M  V30 11978 H 1132.74 3.34346 -0.778938 0
M  V30 11979 N 1135.18 -0.111886 1.57202 0
M  V30 11980 C 1136.09 -1.1556 2.04165 0
M  V30 11981 C 1137.11 -1.44898 0.963354 0
M  V30 11982 O 1138.28 -1.55873 1.27536 0
M  V30 11983 C 1135.35 -2.46048 2.44256 0
M  V30 11984 C 1134.41 -2.24043 3.66201 0
M  V30 11985 C 1133.64 -3.4831 4.04371 0
M  V30 11986 O 1133.86 -4.55895 3.42806 0
M  V30 11987 O 1132.8 -3.38891 4.9743 0
M  V30 11988 H 1136.62 -0.786778 2.93332 0
M  V30 11989 H 1134.21 -0.323196 1.45862 0
M  V30 11990 H 1136.09 -3.22916 2.70745 0
M  V30 11991 H 1134.77 -2.8239 1.58233 0
M  V30 11992 H 1133.67 -1.4501 3.44852 0
M  V30 11993 H 1135.01 -1.92602 4.52952 0
M  V30 11994 N 1136.66 -1.52894 -0.382264 0
M  V30 11995 C 1137.57 -1.81084 -1.4915 0
M  V30 11996 C 1138.58 -0.698045 -1.59384 0
M  V30 11997 O 1139.76 -0.98635 -1.75594 0
M  V30 11998 C 1136.83 -1.97987 -2.84608 0
M  V30 11999 C 1135.89 -3.219 -2.8404 0
M  V30 12000 C 1135.12 -3.37988 -4.13037 0
M  V30 12001 O 1135.34 -2.58733 -5.08344 0
M  V30 12002 O 1134.28 -4.31273 -4.19866 0
M  V30 12003 H 1138.1 -2.75289 -1.28257 0
M  V30 12004 H 1135.69 -1.38068 -0.57076 0
M  V30 12005 H 1137.57 -2.10773 -3.64901 0
M  V30 12006 H 1136.24 -1.06972 -3.05514 0
M  V30 12007 H 1135.15 -3.14551 -2.02505 0
M  V30 12008 H 1136.48 -4.12783 -2.68087 0
M  V30 12009 N 1138.14 0.641106 -1.43971 0
M  V30 12010 C 1139.39 1.39676 -1.45511 0
M  V30 12011 C 1139.7 1.95403 -0.0877084 0
M  V30 12012 O 1140.91 2.71493 0.0193965 0
M  V30 12013 C 1139.36 2.52839 -2.56126 0
M  V30 12014 C 1138.97 2.03668 -3.99028 0
M  V30 12015 C 1140.71 3.30118 -2.66875 0
M  V30 12016 C 1138.62 3.14114 -5.01085 0
M  V30 12017 H 1137.55 0.524854 -0.541336 0
M  V30 12018 H 1140.2 0.69075 -1.70003 0
M  V30 12019 H 1138.58 3.25968 -2.24857 0
M  V30 12020 H 1139.76 1.3747 -4.39817 0
M  V30 12021 H 1138.07 1.39233 -3.92432 0
M  V30 12022 H 1140.67 4.12434 -3.40297 0
M  V30 12023 H 1141.01 3.78946 -1.72353 0
M  V30 12024 H 1141.55 2.64075 -2.97505 0
M  V30 12025 H 1138.28 2.70241 -5.97202 0
M  V30 12026 H 1137.8 3.78985 -4.64898 0
M  V30 12027 H 1139.48 3.79051 -5.24337 0
M  V30 12028 N 1139.62 1.30703 0.880598 0
M  V30 12029 C 1140.55 1.20033 2.00286 0
M  V30 12030 C 1141.53 0.0899614 1.69862 0
M  V30 12031 O 1142.71 0.272747 1.92275 0
M  V30 12032 C 1139.84 0.895902 3.35546 0
M  V30 12033 C 1138.8 1.96468 3.80242 0
M  V30 12034 C 1138.12 1.51316 5.12843 0
M  V30 12035 C 1139.42 3.37637 3.98496 0
M  V30 12036 H 1141.12 2.13922 2.0947 0
M  V30 12037 H 1138.66 1.02989 1.00644 0
M  V30 12038 H 1140.61 0.807899 4.13583 0
M  V30 12039 H 1139.34 -0.0786636 3.26505 0
M  V30 12040 H 1138 2.0424 3.04437 0
M  V30 12041 H 1137.65 0.52674 5.00234 0
M  V30 12042 H 1137.35 2.22807 5.43719 0
M  V30 12043 H 1138.87 1.43903 5.93401 0
M  V30 12044 H 1140.28 3.326 4.66959 0
M  V30 12045 H 1138.68 4.07253 4.40755 0
M  V30 12046 H 1139.75 3.79205 3.02211 0
M  V30 12047 N 1141.09 -1.09351 1.1349 0
M  V30 12048 C 1142 -2.19564 0.826366 0
M  V30 12049 C 1143.02 -1.72967 -0.189339 0
M  V30 12050 O 1144.2 -2.0139 -0.0202033 0
M  V30 12051 C 1141.26 -3.4542 0.297685 0
M  V30 12052 C 1140.32 -4.06694 1.37473 0
M  V30 12053 C 1139.55 -5.26542 0.871183 0
M  V30 12054 O 1139.78 -5.69657 -0.290958 0
M  V30 12055 O 1138.71 -5.78961 1.64584 0
M  V30 12056 H 1142.54 -2.4841 1.74718 0
M  V30 12057 H 1140.12 -1.18302 0.912414 0
M  V30 12058 H 1142 -4.21399 0.00829479 0
M  V30 12059 H 1140.68 -3.18175 -0.595536 0
M  V30 12060 H 1139.59 -3.32347 1.71745 0
M  V30 12061 H 1140.92 -4.38166 2.24212 0
M  V30 12062 N 1142.57 -0.928524 -1.27343 0
M  V30 12063 C 1143.82 -0.579726 -1.94963 0
M  V30 12064 C 1144.17 0.869595 -1.71627 0
M  V30 12065 O 1143.47 1.61223 -1.03526 0
M  V30 12066 C 1143.66 -0.84269 -3.47323 0
M  V30 12067 C 1143.49 -2.31602 -3.85474 0
M  V30 12068 C 1142.26 -2.96888 -4.08884 0
M  V30 12069 C 1144.46 -3.2936 -3.95002 0
M  V30 12070 N 1142.44 -4.34365 -4.33821 0
M  V30 12071 C 1143.81 -4.5205 -4.24324 0
M  V30 12072 C 1145.86 -3.24557 -3.7758 0
M  V30 12073 C 1144.57 -5.70539 -4.38038 0
M  V30 12074 C 1146.59 -4.4236 -3.9252 0
M  V30 12075 C 1145.96 -5.63828 -4.22229 0
M  V30 12076 H 1142.05 -0.262279 -0.736705 0
M  V30 12077 H 1144.64 -1.19531 -1.53689 0
M  V30 12078 H 1142.81 -0.256254 -3.87554 0
M  V30 12079 H 1144.54 -0.456438 -4.02118 0
M  V30 12080 H 1141.3 -2.47555 -4.03749 0
M  V30 12081 H 1141.72 -5.05488 -4.50345 0
M  V30 12082 H 1146.36 -2.31713 -3.53651 0
M  V30 12083 H 1144.08 -6.63849 -4.60793 0
M  V30 12084 H 1147.67 -4.40162 -3.80458 0
M  V30 12085 H 1146.55 -6.53463 -4.33539 0
M  V30 12086 N 1144.05 1.41491 -0.694123 0
M  V30 12087 C 1144.96 2.34583 -0.0283414 0
M  V30 12088 C 1145.98 1.5615 0.767662 0
M  V30 12089 O 1147.15 1.88637 0.705556 0
M  V30 12090 C 1144.22 3.34876 0.897726 0
M  V30 12091 C 1143.28 4.29197 0.0940905 0
M  V30 12092 C 1142.51 5.24699 0.976051 0
M  V30 12093 O 1142.73 5.25613 2.21556 0
M  V30 12094 O 1141.67 6.00387 0.426503 0
M  V30 12095 H 1145.49 2.93092 -0.795656 0
M  V30 12096 H 1143.08 1.4232 -0.45445 0
M  V30 12097 H 1144.96 3.96438 1.4288 0
M  V30 12098 H 1143.64 2.78812 1.64456 0
M  V30 12099 H 1142.54 3.70988 -0.481552 0
M  V30 12100 H 1143.88 4.88355 -0.614045 0
M  V30 12101 N 1145.53 0.438773 1.51369 0
M  V30 12102 C 1146.44 -0.378074 2.31534 0
M  V30 12103 C 1147.45 -1.02632 1.40508 0
M  V30 12104 O 1148.63 -1.02138 1.73579 0
M  V30 12105 C 1145.69 -1.46374 3.14286 0
M  V30 12106 C 1144.76 -0.835473 4.21092 0
M  V30 12107 C 1143.99 -1.86941 4.99889 0
M  V30 12108 O 1144.21 -3.0918 4.79337 0
M  V30 12109 O 1143.15 -1.45914 5.83946 0
M  V30 12110 H 1146.97 0.276401 3.0244 0
M  V30 12111 H 1144.56 0.201281 1.48038 0
M  V30 12112 H 1146.44 -2.09335 3.65728 0
M  V30 12113 H 1145.11 -2.10227 2.46143 0
M  V30 12114 H 1144.02 -0.167775 3.73724 0
M  V30 12115 H 1145.35 -0.240406 4.91613 0
M  V30 12116 N 1147.01 -1.56678 0.170181 0
M  V30 12117 C 1147.94 -2.15083 -0.791961 0
M  V30 12118 C 1148.95 -1.10612 -1.19452 0
M  V30 12119 O 1150.14 -1.37803 -1.13457 0
M  V30 12120 C 1147.24 -2.67769 -2.07733 0
M  V30 12121 C 1146.41 -3.96885 -1.83851 0
M  V30 12122 C 1145.47 -4.34646 -2.96596 0
M  V30 12123 O 1144.5 -5.02543 -2.67281 0
M  V30 12124 N 1145.7 -3.96112 -4.24353 0
M  V30 12125 H 1148.46 -2.98268 -0.292658 0
M  V30 12126 H 1146.03 -1.61895 -0.0126383 0
M  V30 12127 H 1148.02 -2.90029 -2.8225 0
M  V30 12128 H 1146.59 -1.89179 -2.48858 0
M  V30 12129 H 1145.81 -3.83013 -0.932452 0
M  V30 12130 H 1147.1 -4.81213 -1.65261 0
M  V30 12131 H 1146.49 -3.41448 -4.51032 0
M  V30 12132 H 1145.05 -4.23375 -4.95577 0
M  V30 12133 N 1148.48 0.103547 -1.57259 0
M  V30 12134 C 1149.42 1.15225 -1.98131 0
M  V30 12135 C 1150.43 1.36793 -0.882692 0
M  V30 12136 O 1151.62 1.35595 -1.16088 0
M  V30 12137 C 1148.72 2.50941 -2.27776 0
M  V30 12138 C 1147.89 2.49765 -3.59077 0
M  V30 12139 C 1146.95 3.67344 -3.76756 0
M  V30 12140 O 1145.98 3.50221 -4.48702 0
M  V30 12141 N 1147.18 4.86504 -3.16692 0
M  V30 12142 H 1149.94 0.804448 -2.88702 0
M  V30 12143 H 1147.5 0.292636 -1.59233 0
M  V30 12144 H 1149.5 3.28186 -2.36804 0
M  V30 12145 H 1148.07 2.77843 -1.43255 0
M  V30 12146 H 1147.29 1.58125 -3.61096 0
M  V30 12147 H 1148.57 2.4605 -4.4535 0
M  V30 12148 H 1147.97 5.03319 -2.58236 0
M  V30 12149 H 1146.53 5.61371 -3.31218 0
M  V30 12150 N 1149.96 1.53094 0.37415 0
M  V30 12151 C 1150.89 1.81901 1.46404 0
M  V30 12152 C 1151.87 0.671949 1.56265 0
M  V30 12153 O 1153.06 0.920978 1.70973 0
M  V30 12154 C 1150.19 2.00123 2.83845 0
M  V30 12155 C 1149.14 3.15864 2.88814 0
M  V30 12156 C 1148.47 3.19364 4.28848 0
M  V30 12157 C 1149.77 4.54633 2.57112 0
M  V30 12158 H 1151.46 2.73172 1.22546 0
M  V30 12159 H 1149.01 1.31444 0.588087 0
M  V30 12160 H 1150.96 2.18859 3.6011 0
M  V30 12161 H 1149.68 1.05555 3.09072 0
M  V30 12162 H 1148.34 2.96935 2.15 0
M  V30 12163 H 1147.99 2.2245 4.51137 0
M  V30 12164 H 1147.69 3.97123 4.3309 0
M  V30 12165 H 1149.22 3.40273 5.06997 0
M  V30 12166 H 1150.63 4.73587 3.23091 0
M  V30 12167 H 1149.03 5.34569 2.72683 0
M  V30 12168 H 1150.1 4.60331 1.52392 0
M  V30 12169 N 1151.44 -0.633461 1.44309 0
M  V30 12170 C 1152.72 -1.3917 1.37444 0
M  V30 12171 C 1153.1 -2.11076 0.0319994 0
M  V30 12172 O 1152.44 -2.06164 -0.98533 0
M  V30 12173 C 1152.65 -2.36005 2.57104 0
M  V30 12174 C 1154 -2.99407 3.01065 0
M  V30 12175 O 1155.03 -2.46331 2.57292 0
M  V30 12176 O 1153.89 -3.95686 3.76954 0
M  V30 12177 H 1150.98 -0.622746 0.544166 0
M  V30 12178 H 1153.53 -0.658712 1.56394 0
M  V30 12179 H 1152.3 -1.81955 3.46422 0
M  V30 12180 H 1151.92 -3.16725 2.40356 0
M  V30 12181 N 1152.92 -1.31168 -0.873655 0
M  V30 12182 C 1153.83 -1.20458 -2.01313 0
M  V30 12183 C 1154.84 -0.122074 -1.73571 0
M  V30 12184 O 1156.02 -0.339176 -1.98523 0
M  V30 12185 C 1153.09 -0.90876 -3.34578 0
M  V30 12186 C 1152.15 -2.07779 -3.75668 0
M  V30 12187 C 1151.38 -1.79599 -5.02573 0
M  V30 12188 O 1151.6 -0.729338 -5.65718 0
M  V30 12189 O 1150.54 -2.65169 -5.40341 0
M  V30 12190 H 1154.36 -2.16207 -2.13279 0
M  V30 12191 H 1151.95 -1.10871 -1.00139 0
M  V30 12192 H 1153.83 -0.759469 -4.145 0
M  V30 12193 H 1152.5 0.0187249 -3.23695 0
M  V30 12194 H 1151.41 -2.28247 -2.96402 0
M  V30 12195 H 1152.74 -2.9874 -3.91172 0
M  V30 12196 N 1154.4 1.08748 -1.14068 0
M  V30 12197 C 1155.81 1.62551 -0.918379 0
M  V30 12198 C 1156.16 1.8852 0.543583 0
M  V30 12199 O 1155.28 1.64007 1.41176 0
M  V30 12200 C 1155.88 2.95309 -1.66066 0
M  V30 12201 C 1154.44 3.4591 -1.48403 0
M  V30 12202 C 1153.58 2.20204 -1.6854 0
M  V30 12203 H 1156.54 0.920196 -1.29298 0
M  V30 12204 H 1156.56 3.63587 -1.12181 0
M  V30 12205 H 1156.07 2.76377 -2.72465 0
M  V30 12206 H 1154.17 3.69953 -0.443353 0
M  V30 12207 H 1154.28 4.2289 -2.25169 0
M  V30 12208 H 1152.65 2.29203 -1.11077 0
M  V30 12209 H 1153.43 2.03783 -2.76274 0
M  V30 12210 N 1155.87 0.935264 1.26849 0
M  V30 12211 C 1157.12 0.580548 1.94313 0
M  V30 12212 C 1157.45 -0.877205 1.73259 0
M  V30 12213 O 1156.73 -1.62679 1.06611 0
M  V30 12214 C 1157.01 0.916445 3.48243 0
M  V30 12215 C 1156.86 2.42851 3.78607 0
M  V30 12216 C 1158.18 0.427665 4.38017 0
M  V30 12217 H 1155.3 0.21239 0.705733 0
M  V30 12218 H 1157.94 1.16841 1.49827 0
M  V30 12219 H 1156.09 0.416169 3.86265 0
M  V30 12220 H 1157.77 3.00106 3.50335 0
M  V30 12221 H 1156.01 2.8745 3.24892 0
M  V30 12222 H 1156.68 2.61405 4.8618 0
M  V30 12223 H 1159.16 0.856525 4.07189 0
M  V30 12224 H 1158.03 0.691571 5.44526 0
M  V30 12225 H 1158.29 -0.672344 4.36958 0
M  V30 12226 N 1157.35 -1.41121 0.701616 0
M  V30 12227 C 1158.3 -2.32582 0.0288052 0
M  V30 12228 C 1159.29 -1.5129 -0.762074 0
M  V30 12229 O 1160.5 -1.67185 -0.667014 0
M  V30 12230 H 1156.88 -0.75194 -0.00948675 0
M  V30 12231 H 1158.85 -2.86994 0.817141 0
M  V30 12232 C 1157.6 -3.36137 -0.889217 0
M  V30 12233 H 1156.92 -3.98746 -0.290062 0
M  V30 12234 H 1158.36 -4.0266 -1.32819 0
M  V30 12235 C 1156.82 -2.70504 -2.00821 0
M  V30 12236 O 1157.35 -2.55753 -3.09763 0
M  V30 12237 N 1155.55 -2.29105 -1.78772 0
M  V30 12238 H 1155.1 -2.41303 -0.901708 0
M  V30 12239 H 1155.06 -1.85527 -2.53825 0
M  V30 12240 N 1158.83 -0.446794 -1.51134 0
M  V30 12241 C 1160.08 0.116493 -2.02165 0
M  V30 12242 C 1160.41 1.41884 -1.33039 0
M  V30 12243 O 1159.66 1.90757 -0.437071 0
M  V30 12244 C 1159.96 0.373015 -3.55448 0
M  V30 12245 C 1159.63 -0.844659 -4.42918 0
M  V30 12246 C 1158.29 -1.17857 -4.66544 0
M  V30 12247 C 1160.64 -1.65653 -4.94174 0
M  V30 12248 C 1157.97 -2.32486 -5.38672 0
M  V30 12249 C 1160.32 -2.7939 -5.6756 0
M  V30 12250 C 1158.98 -3.13224 -5.89446 0
M  V30 12251 H 1158.25 0.0426279 -0.739773 0
M  V30 12252 H 1160.9 -0.595921 -1.81992 0
M  V30 12253 H 1159.21 1.16742 -3.74003 0
M  V30 12254 H 1160.9 0.822425 -3.92476 0
M  V30 12255 H 1157.49 -0.574478 -4.24733 0
M  V30 12256 H 1161.68 -1.41176 -4.75797 0
M  V30 12257 H 1156.93 -2.59003 -5.5383 0
M  V30 12258 H 1161.11 -3.42662 -6.06264 0
M  V30 12259 H 1158.73 -4.02158 -6.45115 0
M  V30 12260 N 1160.31 1.56586 -0.178487 0
M  V30 12261 C 1161.53 2.01915 0.473841 0
M  V30 12262 C 1161.96 1.05789 1.55533 0
M  V30 12263 O 1161.32 0.0386018 1.81259 0
M  V30 12264 C 1161.36 3.45799 1.02251 0
M  V30 12265 O 1160.47 3.52761 2.1362 0
M  V30 12266 H 1159.81 0.654372 0.112666 0
M  V30 12267 H 1162.34 2.02613 -0.284486 0
M  V30 12268 H 1162.35 3.85252 1.34332 0
M  V30 12269 H 1161.02 4.1526 0.230719 0
M  V30 12270 H 1159.6 3.25172 1.8253 0
M  V30 12271 N 1161.79 -0.095206 1.57312 0
M  V30 12272 C 1163.06 -0.830388 1.77099 0
M  V30 12273 C 1163.44 -1.9694 0.760121 0
M  V30 12274 O 1162.79 -2.2752 -0.211403 0
M  V30 12275 C 1163 -1.32507 3.22867 0
M  V30 12276 C 1164.35 -1.7679 3.86045 0
M  V30 12277 O 1165.37 -1.42131 3.26615 0
M  V30 12278 O 1164.23 -2.40876 4.90552 0
M  V30 12279 H 1161.33 -0.396083 0.72598 0
M  V30 12280 H 1163.87 -0.0770965 1.69525 0
M  V30 12281 H 1162.64 -0.508992 3.87975 0
M  V30 12282 H 1162.27 -2.14037 3.35073 0
M  V30 12283 N 1163.26 -1.53291 -0.366026 0
M  V30 12284 C 1164.5 -1.71153 -1.11741 0
M  V30 12285 C 1164.87 -0.453416 -1.86569 0
M  V30 12286 O 1166.07 -0.508724 -2.63942 0
M  V30 12287 C 1164.34 -2.92657 -2.0515 0
M  V30 12288 S 1165.9 -3.31223 -2.87814 0
M  V30 12289 H 1162.72 -0.602251 -0.377909 0
M  V30 12290 H 1165.32 -1.91391 -0.398721 0
M  V30 12291 H 1164.02 -3.8242 -1.48939 0
M  V30 12292 H 1163.55 -2.7482 -2.81492 0
M  V30 12293 H 1165.57 -2.83201 -4.07445 0
M  V30 12294 N 1164.74 0.6258 -1.44643 0
M  V30 12295 C 1165.69 1.73751 -1.51919 0
M  V30 12296 C 1166.66 1.62007 -0.36647 0
M  V30 12297 O 1167.84 1.81852 -0.577439 0
M  V30 12298 C 1164.98 3.12015 -1.47448 0
M  V30 12299 C 1164.1 3.34696 -2.73135 0
M  V30 12300 C 1163.23 4.62962 -2.6046 0
M  V30 12301 C 1162.27 4.7884 -3.81286 0
M  V30 12302 N 1161.41 5.98388 -3.67255 0
M  V30 12303 H 1166.25 1.66867 -2.46899 0
M  V30 12304 H 1163.79 0.813921 -1.22531 0
M  V30 12305 H 1165.74 3.91983 -1.42846 0
M  V30 12306 H 1164.37 3.179 -0.560312 0
M  V30 12307 H 1163.43 2.4863 -2.87901 0
M  V30 12308 H 1164.74 3.42306 -3.62806 0
M  V30 12309 H 1163.89 5.51099 -2.53722 0
M  V30 12310 H 1162.63 4.57719 -1.68359 0
M  V30 12311 H 1161.64 3.89131 -3.88403 0
M  V30 12312 H 1162.86 4.85893 -4.74431 0
M  V30 12313 H 1160.81 5.94224 -2.77909 0
M  V30 12314 H 1160.72 6.07078 -4.50547 0
M  V30 12315 H 1161.99 6.89072 -3.64417 0
M  V30 12316 N 1166.22 1.31629 0.866686 0
M  V30 12317 C 1167.47 1.20861 1.61479 0
M  V30 12318 C 1167.78 -0.231208 1.94229 0
M  V30 12319 O 1168.99 -0.460618 2.67564 0
M  V30 12320 C 1167.44 2.11602 2.91123 0
M  V30 12321 C 1167.05 3.60598 2.65844 0
M  V30 12322 C 1168.8 2.09642 3.69121 0
M  V30 12323 C 1166.7 4.43337 3.91415 0
M  V30 12324 H 1165.63 0.448783 0.605896 0
M  V30 12325 H 1168.28 1.56507 0.958001 0
M  V30 12326 H 1166.67 1.68858 3.58194 0
M  V30 12327 H 1167.84 4.11609 2.07159 0
M  V30 12328 H 1166.16 3.64568 2.01194 0
M  V30 12329 H 1168.75 2.68701 4.62281 0
M  V30 12330 H 1169.1 1.08438 4.01929 0
M  V30 12331 H 1169.63 2.50603 3.08938 0
M  V30 12332 H 1166.37 5.45309 3.63756 0
M  V30 12333 H 1165.89 3.97083 4.49539 0
M  V30 12334 H 1167.57 4.5572 4.5927 0
M  V30 12335 N 1167.7 -1.08142 1.14644 0
M  V30 12336 C 1168.98 -1.77254 0.827071 0
M  V30 12337 C 1169.36 -1.99885 -0.67891 0
M  V30 12338 O 1168.7 -1.61084 -1.62062 0
M  V30 12339 C 1168.91 -3.08658 1.62884 0
M  V30 12340 C 1170.26 -3.83143 1.82993 0
M  V30 12341 O 1171.29 -3.18447 1.59593 0
M  V30 12342 O 1170.15 -4.9932 2.2213 0
M  V30 12343 H 1167.24 -0.769356 0.30335 0
M  V30 12344 H 1169.79 -1.1458 1.25178 0
M  V30 12345 H 1168.56 -2.87753 2.65168 0
M  V30 12346 H 1168.18 -3.79061 1.19994 0
M  V30 12347 N 1169.18 -0.941978 -1.26351 0
M  V30 12348 C 1170.59 -0.632522 -1.75659 0
M  V30 12349 C 1170.94 0.852287 -1.76722 0
M  V30 12350 O 1170.06 1.66701 -1.37985 0
M  V30 12351 C 1170.66 -1.14145 -3.18993 0
M  V30 12352 C 1169.22 -0.882391 -3.65911 0
M  V30 12353 C 1168.37 -1.29189 -2.45368 0
M  V30 12354 H 1171.32 -1.12019 -1.12416 0
M  V30 12355 H 1171.34 -0.495639 -3.77258 0
M  V30 12356 H 1170.85 -2.22213 -3.18187 0
M  V30 12357 H 1168.95 0.183873 -3.72146 0
M  V30 12358 H 1169.06 -1.50996 -4.54683 0
M  V30 12359 H 1167.43 -0.710316 -2.44595 0
M  V30 12360 H 1168.21 -2.38152 -2.47262 0
M  V30 12361 N 1170.66 1.40747 -0.709091 0
M  V30 12362 C 1171.62 2.29118 -0.0611607 0
M  V30 12363 C 1172.62 1.45049 0.694081 0
M  V30 12364 O 1173.81 1.66039 0.526952 0
M  V30 12365 C 1170.94 3.28154 0.923447 0
M  V30 12366 H 1172.13 2.87913 -0.839413 0
M  V30 12367 H 1169.69 1.4896 -0.473363 0
M  V30 12368 H 1170.42 2.74366 1.72899 0
M  V30 12369 H 1170.21 3.90207 0.384862 0
M  V30 12370 H 1171.7 3.94343 1.37417 0
M  V30 12371 N 1172.13 0.454803 1.50895 0
M  V30 12372 C 1173.54 -0.00421212 1.867 0
M  V30 12373 C 1173.9 -1.4037 1.3708 0
M  V30 12374 O 1173.02 -2.03755 0.728884 0
M  V30 12375 C 1173.62 -0.0144196 3.38797 0
M  V30 12376 C 1172.17 -0.417905 3.74073 0
M  V30 12377 C 1171.32 0.37801 2.74711 0
M  V30 12378 H 1174.27 0.669849 1.4387 0
M  V30 12379 H 1174.29 -0.820172 3.71555 0
M  V30 12380 H 1173.81 1.00427 3.74881 0
M  V30 12381 H 1171.91 -1.44155 3.43584 0
M  V30 12382 H 1172.02 -0.130568 4.78922 0
M  V30 12383 H 1170.38 -0.166089 2.54158 0
M  V30 12384 H 1171.17 1.3959 3.13639 0
M  V30 12385 N 1173.61 -1.56489 0.186789 0
M  V30 12386 C 1174.86 -1.97341 -0.454158 0
M  V30 12387 C 1175.19 -1.07337 -1.622 0
M  V30 12388 O 1174.44 -0.1107 -1.95387 0
M  V30 12389 C 1174.74 -3.44145 -0.964315 0
M  V30 12390 C 1174.41 -4.50812 0.0892734 0
M  V30 12391 C 1173.07 -4.79707 0.378794 0
M  V30 12392 C 1175.42 -5.14968 0.8036 0
M  V30 12393 C 1172.75 -5.70051 1.38776 0
M  V30 12394 C 1175.1 -6.06402 1.80166 0
M  V30 12395 C 1173.76 -6.33657 2.09847 0
M  V30 12396 H 1173.03 -0.722124 -0.166188 0
M  V30 12397 H 1175.68 -1.89412 0.282008 0
M  V30 12398 H 1173.99 -3.49103 -1.7786 0
M  V30 12399 H 1175.68 -3.73104 -1.4695 0
M  V30 12400 H 1172.27 -4.28349 -0.146552 0
M  V30 12401 H 1176.46 -4.92743 0.593147 0
M  V30 12402 H 1171.71 -5.89445 1.62373 0
M  V30 12403 H 1175.89 -6.55176 2.36045 0
M  V30 12404 H 1173.51 -7.03462 2.88175 0
M  V30 12405 N 1175.09 0.086862 -1.5736 0
M  V30 12406 C 1176.02 1.13117 -1.99342 0
M  V30 12407 C 1177.03 1.35849 -0.897151 0
M  V30 12408 O 1178.22 1.34356 -1.17519 0
M  V30 12409 C 1175.32 2.48511 -2.30425 0
M  V30 12410 C 1174.5 2.45942 -3.61706 0
M  V30 12411 C 1173.56 3.63327 -3.80631 0
M  V30 12412 O 1172.58 3.45443 -4.52392 0
M  V30 12413 N 1173.78 4.83118 -3.21835 0
M  V30 12414 H 1176.55 0.773782 -2.89539 0
M  V30 12415 H 1174.11 0.275731 -1.59535 0
M  V30 12416 H 1176.1 3.25656 -2.40272 0
M  V30 12417 H 1174.67 2.76308 -1.46194 0
M  V30 12418 H 1173.89 1.54287 -3.62752 0
M  V30 12419 H 1175.18 2.41313 -4.47935 0
M  V30 12420 H 1174.58 5.00552 -2.6356 0
M  V30 12421 H 1173.13 5.57827 -3.37154 0
M  V30 12422 N 1176.57 1.53483 0.357892 0
M  V30 12423 C 1177.5 1.83444 1.44466 0
M  V30 12424 C 1178.48 0.688486 1.55544 0
M  V30 12425 O 1179.66 0.93906 1.69986 0
M  V30 12426 C 1176.79 2.03122 2.81707 0
M  V30 12427 C 1175.75 3.1891 2.85448 0
M  V30 12428 C 1175.07 3.23895 4.25436 0
M  V30 12429 C 1176.37 4.57334 2.52275 0
M  V30 12430 H 1178.07 2.74456 1.19642 0
M  V30 12431 H 1175.61 1.3206 0.574112 0
M  V30 12432 H 1177.57 2.22666 3.57768 0
M  V30 12433 H 1176.29 1.08827 3.07935 0
M  V30 12434 H 1174.95 2.99199 2.11838 0
M  V30 12435 H 1174.6 2.27223 4.48753 0
M  V30 12436 H 1174.3 4.01694 4.28854 0
M  V30 12437 H 1175.82 3.45632 5.0336 0
M  V30 12438 H 1177.24 4.76988 3.1805 0
M  V30 12439 H 1175.63 5.37431 2.66998 0
M  V30 12440 H 1176.7 4.61921 1.47501 0
M  V30 12441 N 1178.05 -0.61812 1.44973 0
M  V30 12442 C 1179.29 -1.37944 1.48658 0
M  V30 12443 C 1179.62 -1.93805 0.123749 0
M  V30 12444 O 1178.9 -1.74434 -0.860401 0
M  V30 12445 C 1179.18 -2.53515 2.55739 0
M  V30 12446 C 1179.04 -2.02918 4.01428 0
M  V30 12447 C 1180.35 -3.55674 2.59199 0
M  V30 12448 H 1177.47 -0.500223 0.541244 0
M  V30 12449 H 1180.12 -0.69774 1.76725 0
M  V30 12450 H 1178.27 -3.11669 2.31937 0
M  V30 12451 H 1179.94 -1.49494 4.36405 0
M  V30 12452 H 1178.18 -1.33999 4.12586 0
M  V30 12453 H 1178.85 -2.86181 4.72021 0
M  V30 12454 H 1181.33 -3.07343 2.80499 0
M  V30 12455 H 1180.2 -4.34042 3.36004 0
M  V30 12456 H 1180.46 -4.10601 1.63888 0
M  V30 12457 N 1179.52 -1.32087 -0.859693 0
M  V30 12458 C 1180.43 -1.22587 -2.00024 0
M  V30 12459 C 1181.45 -0.140477 -1.73432 0
M  V30 12460 O 1182.63 -0.360213 -1.98153 0
M  V30 12461 C 1179.69 -0.944195 -3.33595 0
M  V30 12462 C 1178.75 -2.11752 -3.73443 0
M  V30 12463 C 1177.98 -1.84919 -5.0064 0
M  V30 12464 O 1178.21 -0.789299 -5.64913 0
M  V30 12465 O 1177.14 -2.70885 -5.37499 0
M  V30 12466 H 1180.97 -2.18457 -2.10974 0
M  V30 12467 H 1178.55 -1.11927 -0.989577 0
M  V30 12468 H 1180.43 -0.803389 -4.13671 0
M  V30 12469 H 1179.11 -0.0156083 -3.23696 0
M  V30 12470 H 1178.02 -2.31378 -2.93965 0
M  V30 12471 H 1179.35 -3.02872 -3.87981 0
M  V30 12472 N 1181 1.07532 -1.15215 0
M  V30 12473 C 1182.42 1.32183 -0.894411 0
M  V30 12474 C 1182.62 1.96188 0.459614 0
M  V30 12475 O 1181.67 2.22057 1.20195 0
M  V30 12476 C 1182.99 2.21473 -2.03397 0
M  V30 12477 C 1184.53 2.34927 -2.06829 0
M  V30 12478 C 1185.01 3.27564 -3.20103 0
M  V30 12479 N 1186.5 3.35144 -3.19738 0
M  V30 12480 C 1187.24 4.0688 -4.04025 0
M  V30 12481 N 1186.73 4.81246 -4.98371 0
M  V30 12482 N 1188.52 4.02802 -3.92055 0
M  V30 12483 H 1180.68 0.643732 -2.0241 0
M  V30 12484 H 1182.94 0.346272 -0.882496 0
M  V30 12485 H 1182.64 1.81701 -3.01127 0
M  V30 12486 H 1182.52 3.2199 -1.96475 0
M  V30 12487 H 1184.91 2.73953 -1.09699 0
M  V30 12488 H 1184.99 1.34121 -2.17819 0
M  V30 12489 H 1184.63 2.89258 -4.17483 0
M  V30 12490 H 1184.56 4.2832 -3.06349 0
M  V30 12491 H 1187.05 2.82135 -2.51412 0
M  V30 12492 H 1187.36 5.33472 -5.59131 0
M  V30 12493 H 1185.71 4.80268 -5.02362 0
M  V30 12494 H 1188.9 3.43816 -3.17661 0
M  V30 12495 H 1189.07 4.58443 -4.57967 0
M  V30 12496 N 1182.48 0.948665 1.2585 0
M  V30 12497 C 1183.71 0.617229 1.97479 0
M  V30 12498 C 1184.12 -0.809406 1.7057 0
M  V30 12499 O 1183.48 -1.54066 0.97826 0
M  V30 12500 C 1183.53 0.859065 3.51144 0
M  V30 12501 O 1183.25 2.2296 3.77121 0
M  V30 12502 C 1184.75 0.539197 4.40009 0
M  V30 12503 H 1181.97 0.231933 0.629641 0
M  V30 12504 H 1184.52 1.27141 1.60173 0
M  V30 12505 H 1182.67 0.25138 3.86584 0
M  V30 12506 H 1183.09 2.29524 4.71613 0
M  V30 12507 H 1184.56 0.758986 5.46757 0
M  V30 12508 H 1185.04 -0.526062 4.36038 0
M  V30 12509 H 1185.64 1.12594 4.10125 0
M  V30 12510 N 1183.96 -1.40369 0.716545 0
M  V30 12511 C 1185.18 -2.05704 0.264729 0
M  V30 12512 C 1185.61 -1.53634 -1.08527 0
M  V30 12513 O 1184.97 -0.67212 -1.68381 0
M  V30 12514 C 1185.01 -3.59692 0.255778 0
M  V30 12515 O 1184.12 -4.05286 -0.762686 0
M  V30 12516 H 1183.46 -0.652301 0.124092 0
M  V30 12517 H 1185.99 -1.7975 0.977295 0
M  V30 12518 H 1186 -4.07892 0.0937944 0
M  V30 12519 H 1184.67 -3.96955 1.24095 0
M  V30 12520 H 1183.25 -3.68543 -0.568347 0
M  V30 12521 N 1185.44 -0.462799 -1.50652 0
M  V30 12522 C 1186.37 0.325724 -2.31217 0
M  V30 12523 C 1187.35 0.997942 -1.3775 0
M  V30 12524 O 1188.53 0.996707 -1.66671 0
M  V30 12525 C 1185.66 1.41283 -3.17264 0
M  V30 12526 C 1184.62 0.862687 -4.19216 0
M  V30 12527 C 1183.94 2.04746 -4.93946 0
M  V30 12528 C 1185.24 -0.120365 -5.22161 0
M  V30 12529 H 1186.94 -0.346666 -2.97386 0
M  V30 12530 H 1184.48 -0.168163 -1.43015 0
M  V30 12531 H 1186.44 1.97188 -3.72418 0
M  V30 12532 H 1185.16 2.11387 -2.48964 0
M  V30 12533 H 1183.82 0.325671 -3.65151 0
M  V30 12534 H 1183.47 2.73529 -4.22127 0
M  V30 12535 H 1183.17 1.68562 -5.62904 0
M  V30 12536 H 1184.69 2.61157 -5.51932 0
M  V30 12537 H 1186.1 0.349226 -5.72235 0
M  V30 12538 H 1184.5 -0.396061 -5.98792 0
M  V30 12539 H 1185.57 -1.04895 -4.73418 0
M  V30 12540 N 1186.91 1.56388 -0.195085 0
M  V30 12541 C 1187.86 2.15705 0.738595 0
M  V30 12542 C 1188.85 1.09782 1.1763 0
M  V30 12543 O 1190.04 1.35844 1.1347 0
M  V30 12544 C 1187.17 2.81994 1.95791 0
M  V30 12545 C 1186.26 3.95108 1.54111 0
M  V30 12546 N 1186.65 4.98856 0.835261 0
M  V30 12547 C 1184.94 4.06709 1.8304 0
M  V30 12548 C 1185.65 5.78317 0.626417 0
M  V30 12549 N 1184.62 5.30746 1.17513 0
M  V30 12550 H 1188.42 2.93281 0.190597 0
M  V30 12551 H 1185.94 1.62399 0.00470391 0
M  V30 12552 H 1187.93 3.22883 2.63728 0
M  V30 12553 H 1186.59 2.05906 2.51063 0
M  V30 12554 H 1187.61 5.1557 0.490732 0
M  V30 12555 H 1184.28 3.41749 2.39821 0
M  V30 12556 H 1185.67 6.71867 0.0664935 0
M  V30 12557 N 1188.39 -0.0785156 1.57404 0
M  V30 12558 C 1189.34 -1.09402 2.03224 0
M  V30 12559 C 1190.31 -1.38849 0.911596 0
M  V30 12560 O 1191.49 -1.50031 1.17878 0
M  V30 12561 C 1188.63 -2.40444 2.47549 0
M  V30 12562 C 1187.75 -2.17585 3.73203 0
M  V30 12563 C 1186.88 -3.42143 4.06339 0
M  V30 12564 C 1185.92 -3.14619 5.25054 0
M  V30 12565 N 1185.06 -4.31489 5.5386 0
M  V30 12566 H 1189.9 -0.696307 2.89751 0
M  V30 12567 H 1187.44 -0.332261 1.43298 0
M  V30 12568 H 1189.39 -3.16944 2.71298 0
M  V30 12569 H 1188.02 -2.78031 1.64009 0
M  V30 12570 H 1187.08 -1.3181 3.56834 0
M  V30 12571 H 1188.39 -1.93249 4.59844 0
M  V30 12572 H 1187.54 -4.27042 4.30953 0
M  V30 12573 H 1186.28 -3.69549 3.18253 0
M  V30 12574 H 1185.29 -2.28116 5.00243 0
M  V30 12575 H 1186.51 -2.88543 6.14752 0
M  V30 12576 H 1184.46 -4.58939 4.68734 0
M  V30 12577 H 1184.37 -4.10403 6.34906 0
M  V30 12578 H 1185.64 -5.17404 5.83021 0
M  V30 12579 N 1189.87 -1.5367 -0.349747 0
M  V30 12580 C 1191.1 -1.74547 -1.11089 0
M  V30 12581 C 1191.51 -0.481741 -1.82551 0
M  V30 12582 O 1190.87 0.546272 -1.74132 0
M  V30 12583 C 1190.92 -2.92148 -2.12913 0
M  V30 12584 O 1190.64 -4.13633 -1.44358 0
M  V30 12585 C 1192.14 -3.25027 -3.01451 0
M  V30 12586 H 1189.36 -0.583376 -0.331532 0
M  V30 12587 H 1191.91 -2.00473 -0.403841 0
M  V30 12588 H 1190.06 -2.68572 -2.79192 0
M  V30 12589 H 1190.48 -4.79601 -2.12329 0
M  V30 12590 H 1191.95 -4.10679 -3.68845 0
M  V30 12591 H 1192.43 -2.41064 -3.67131 0
M  V30 12592 H 1193.03 -3.50586 -2.40768 0
M  V30 12593 N 1191.35 0.610423 -1.45298 0
M  V30 12594 C 1192.3 1.71552 -1.5018 0
M  V30 12595 C 1193.28 1.56697 -0.365357 0
M  V30 12596 O 1194.47 1.66082 -0.612029 0
M  V30 12597 C 1191.6 3.10298 -1.46867 0
M  V30 12598 C 1190.69 3.30549 -2.65703 0
M  V30 12599 N 1191.08 3.21073 -3.90827 0
M  V30 12600 C 1189.38 3.6141 -2.6134 0
M  V30 12601 C 1190.08 3.42577 -4.70123 0
M  V30 12602 N 1189.06 3.66434 -4.01531 0
M  V30 12603 H 1192.86 1.62714 -2.44747 0
M  V30 12604 H 1190.37 0.813587 -1.40551 0
M  V30 12605 H 1192.37 3.89575 -1.48449 0
M  V30 12606 H 1191.03 3.20286 -0.533548 0
M  V30 12607 H 1192.04 2.99537 -4.2249 0
M  V30 12608 H 1188.72 3.78253 -1.76722 0
M  V30 12609 H 1190.11 3.40669 -5.79132 0
M  V30 12610 N 1192.83 1.32541 0.852676 0
M  V30 12611 C 1194.05 1.2622 1.6394 0
M  V30 12612 C 1194.47 -0.169455 1.88038 0
M  V30 12613 O 1193.83 -1.10719 1.45078 0
M  V30 12614 C 1193.88 2.02062 2.99755 0
M  V30 12615 O 1193.6 3.39641 2.76723 0
M  V30 12616 C 1195.1 2.02787 3.94198 0
M  V30 12617 H 1192.32 0.435405 0.510552 0
M  V30 12618 H 1194.86 1.74696 1.06309 0
M  V30 12619 H 1193.02 1.57303 3.54026 0
M  V30 12620 H 1193.43 3.78484 3.63111 0
M  V30 12621 H 1194.91 2.60333 4.86755 0
M  V30 12622 H 1195.38 1.01464 4.27319 0
M  V30 12623 H 1195.99 2.47504 3.45864 0
M  V30 12624 N 1194.3 -1.0692 1.15784 0
M  V30 12625 C 1195.55 -1.78983 0.929944 0
M  V30 12626 C 1195.87 -1.87884 -0.543969 0
M  V30 12627 O 1197.07 -2.56513 -0.889578 0
M  V30 12628 C 1195.53 -3.21657 1.61446 0
M  V30 12629 C 1195.14 -3.20943 3.12569 0
M  V30 12630 C 1196.88 -3.98299 1.46828 0
M  V30 12631 C 1194.79 -4.58298 3.73788 0
M  V30 12632 H 1193.72 -0.670809 0.344284 0
M  V30 12633 H 1196.37 -1.19975 1.38846 0
M  V30 12634 H 1194.75 -3.80885 1.08364 0
M  V30 12635 H 1195.92 -2.71334 3.72444 0
M  V30 12636 H 1194.24 -2.57799 3.26999 0
M  V30 12637 H 1196.84 -4.99822 1.89952 0
M  V30 12638 H 1197.18 -4.14213 0.416358 0
M  V30 12639 H 1197.71 -3.45577 1.97031 0
M  V30 12640 H 1194.45 -4.47588 4.789 0
M  V30 12641 H 1193.97 -5.08126 3.18698 0
M  V30 12642 H 1195.65 -5.27262 3.74972 0
M  V30 12643 N 1195.78 -0.955326 -1.25345 0
M  V30 12644 C 1197.03 -0.610484 -1.93079 0
M  V30 12645 C 1197.36 0.852591 -1.74817 0
M  V30 12646 O 1196.61 1.6272 -1.08723 0
M  V30 12647 C 1196.91 -0.916173 -3.45458 0
M  V30 12648 C 1196.58 -2.36539 -3.83875 0
M  V30 12649 C 1195.24 -2.76152 -3.94073 0
M  V30 12650 C 1197.59 -3.30652 -4.02888 0
M  V30 12651 C 1194.92 -4.08944 -4.20692 0
M  V30 12652 C 1197.27 -4.63057 -4.31 0
M  V30 12653 C 1195.94 -5.02464 -4.39415 0
M  V30 12654 H 1195.21 -0.223392 -0.706525 0
M  V30 12655 H 1197.85 -1.20449 -1.48877 0
M  V30 12656 H 1196.16 -0.23978 -3.91066 0
M  V30 12657 H 1197.85 -0.627929 -3.96053 0
M  V30 12658 H 1194.44 -2.04819 -3.76493 0
M  V30 12659 H 1198.63 -3.01237 -3.94423 0
M  V30 12660 H 1193.88 -4.39118 -4.25423 0
M  V30 12661 H 1198.06 -5.3596 -4.44657 0
M  V30 12662 H 1195.69 -6.05386 -4.59795 0
M  V30 12663 N 1197.26 1.39987 -0.723979 0
M  V30 12664 C 1198.49 2.0556 -0.275634 0
M  V30 12665 C 1198.91 1.54207 1.07711 0
M  V30 12666 O 1198.27 0.681041 1.68022 0
M  V30 12667 C 1198.32 3.59551 -0.27485 0
M  V30 12668 O 1197.42 4.05685 0.741182 0
M  V30 12669 H 1196.76 0.651634 -0.12755 0
M  V30 12670 H 1199.29 1.79229 -0.986814 0
M  V30 12671 H 1199.3 4.07837 -0.115425 0
M  V30 12672 H 1197.98 3.96291 -1.26198 0
M  V30 12673 H 1196.55 3.6884 0.548795 0
M  V30 12674 N 1198.74 0.470782 1.50404 0
M  V30 12675 C 1199.67 -0.313458 2.31386 0
M  V30 12676 C 1200.65 -0.990623 1.38278 0
M  V30 12677 O 1201.84 -0.987854 1.67198 0
M  V30 12678 C 1198.97 -1.39599 3.18009 0
M  V30 12679 C 1197.92 -0.840443 4.19667 0
M  V30 12680 C 1197.25 -2.02124 4.95025 0
M  V30 12681 C 1198.55 0.148055 5.2209 0
M  V30 12682 H 1200.24 0.362432 2.97198 0
M  V30 12683 H 1197.79 0.175745 1.42924 0
M  V30 12684 H 1199.74 -1.9521 3.73458 0
M  V30 12685 H 1198.46 -2.10064 2.50081 0
M  V30 12686 H 1197.12 -0.306302 3.65318 0
M  V30 12687 H 1196.77 -2.71286 4.23571 0
M  V30 12688 H 1196.47 -1.65574 5.6379 0
M  V30 12689 H 1197.99 -2.58226 5.5331 0
M  V30 12690 H 1199.41 -0.318874 5.72413 0
M  V30 12691 H 1197.8 0.427811 5.98573 0
M  V30 12692 H 1198.87 1.07404 4.72855 0
M  V30 12693 N 1200.22 -1.56282 0.203376 0
M  V30 12694 C 1201.15 -2.2247 -0.709183 0
M  V30 12695 C 1202.13 -1.19046 -1.21499 0
M  V30 12696 O 1203.31 -1.47578 -1.26231 0
M  V30 12697 C 1200.44 -2.8905 -1.92529 0
M  V30 12698 C 1199.4 -3.98789 -1.55407 0
M  V30 12699 C 1198.72 -4.52574 -2.84747 0
M  V30 12700 C 1200.02 -5.16774 -0.75775 0
M  V30 12701 H 1201.72 -2.98986 -0.157392 0
M  V30 12702 H 1199.26 -1.43808 -0.0742613 0
M  V30 12703 H 1201.22 -3.34038 -2.56898 0
M  V30 12704 H 1199.94 -2.09952 -2.50175 0
M  V30 12705 H 1198.6 -3.54504 -0.933928 0
M  V30 12706 H 1198.25 -3.70229 -3.40499 0
M  V30 12707 H 1197.95 -5.26627 -2.6065 0
M  V30 12708 H 1199.47 -5.00269 -3.5009 0
M  V30 12709 H 1200.89 -5.58256 -1.30472 0
M  V30 12710 H 1199.28 -5.96945 -0.614583 0
M  V30 12711 H 1200.35 -4.84308 0.239476 0
M  V30 12712 N 1201.7 0.070167 -1.57444 0
M  V30 12713 C 1202.94 0.767495 -1.8696 0
M  V30 12714 C 1203.26 1.78032 -0.795595 0
M  V30 12715 O 1202.53 1.95112 0.175566 0
M  V30 12716 H 1201.11 0.286443 -0.689898 0
M  V30 12717 H 1203.78 0.0458692 -1.94846 0
M  V30 12718 H 1202.87 1.28269 -2.84523 0
M  V30 12719 N 1203.17 1.53854 0.341593 0
M  V30 12720 C 1204.42 1.71447 1.08322 0
M  V30 12721 C 1204.75 0.477289 1.88243 0
M  V30 12722 O 1204.03 -0.525695 1.87261 0
M  V30 12723 C 1204.31 2.97917 2.02281 0
M  V30 12724 C 1204.16 4.31847 1.25809 0
M  V30 12725 C 1205.48 3.20065 3.0207 0
M  V30 12726 H 1202.6 0.623847 0.392408 0
M  V30 12727 H 1205.24 1.86527 0.361594 0
M  V30 12728 H 1203.39 2.85191 2.63815 0
M  V30 12729 H 1205.07 4.56427 0.668737 0
M  V30 12730 H 1203.31 4.30169 0.560119 0
M  V30 12731 H 1203.98 5.16522 1.94704 0
M  V30 12732 H 1206.46 3.32135 2.50651 0
M  V30 12733 H 1205.33 4.09947 3.65013 0
M  V30 12734 H 1205.59 2.36452 3.73554 0
M  V30 12735 N 1204.65 -0.602709 1.4562 0
M  V30 12736 C 1205.93 -1.36224 1.40366 0
M  V30 12737 C 1206.31 -2.1096 0.0767645 0
M  V30 12738 O 1205.66 -2.08207 -0.941378 0
M  V30 12739 C 1205.87 -2.30499 2.62052 0
M  V30 12740 C 1207.21 -2.92954 3.07348 0
M  V30 12741 O 1208.24 -2.40818 2.62459 0
M  V30 12742 O 1207.1 -3.87601 3.85263 0
M  V30 12743 H 1204.19 -0.611064 0.557253 0
M  V30 12744 H 1206.74 -0.625391 1.57756 0
M  V30 12745 H 1205.51 -1.74566 3.50203 0
M  V30 12746 H 1205.13 -3.11556 2.4702 0
M  V30 12747 N 1206.13 -1.32992 -0.845635 0
M  V30 12748 C 1207.08 -1.19256 -1.94325 0
M  V30 12749 C 1208.06 -0.0971701 -1.60606 0
M  V30 12750 O 1209.26 -0.324591 -1.73998 0
M  V30 12751 C 1206.38 -0.927027 -3.30547 0
M  V30 12752 C 1205.47 -2.06454 -3.70456 0
M  V30 12753 N 1205.86 -3.31393 -3.82116 0
M  V30 12754 C 1204.16 -1.96972 -4.00147 0
M  V30 12755 C 1204.86 -4.05955 -4.16624 0
M  V30 12756 N 1203.84 -3.34332 -4.28629 0
M  V30 12757 H 1207.64 -2.13965 -2.01485 0
M  V30 12758 H 1205.15 -1.24901 -1.03795 0
M  V30 12759 H 1207.15 -0.809565 -4.08964 0
M  V30 12760 H 1205.81 0.011597 -3.24698 0
M  V30 12761 H 1206.82 -3.66222 -3.662 0
M  V30 12762 H 1203.5 -1.10728 -4.02549 0
M  V30 12763 H 1204.89 -5.13738 -4.33039 0
M  V30 12764 N 1207.61 1.06304 -1.1635 0
M  V30 12765 C 1208.57 2.11947 -0.872419 0
M  V30 12766 C 1209.57 1.60253 0.132534 0
M  V30 12767 O 1210.76 1.73922 -0.0983441 0
M  V30 12768 C 1207.89 3.39536 -0.304646 0
M  V30 12769 H 1209.09 2.39201 -1.80894 0
M  V30 12770 H 1206.64 1.22367 -0.972419 0
M  V30 12771 H 1207.37 3.17931 0.639565 0
M  V30 12772 H 1207.16 3.78363 -1.02878 0
M  V30 12773 H 1208.65 4.17431 -0.118936 0
M  V30 12774 N 1209.09 0.96196 1.24836 0
M  V30 12775 C 1210.32 0.637214 1.96528 0
M  V30 12776 C 1210.72 -0.79638 1.71623 0
M  V30 12777 O 1210.07 -1.54524 0.993372 0
M  V30 12778 C 1210.13 0.824972 3.49906 0
M  V30 12779 C 1209.79 2.23711 3.985 0
M  V30 12780 C 1210.79 3.21439 4.08623 0
M  V30 12781 C 1208.47 2.56327 4.31974 0
M  V30 12782 C 1210.47 4.49872 4.51546 0
M  V30 12783 C 1208.16 3.84987 4.74582 0
M  V30 12784 C 1209.15 4.81572 4.84332 0
M  V30 12785 O 1208.84 6.07938 5.25991 0
M  V30 12786 H 1208.57 0.237214 0.633013 0
M  V30 12787 H 1211.13 1.29081 1.59773 0
M  V30 12788 H 1209.36 0.114219 3.86531 0
M  V30 12789 H 1211.05 0.500179 4.02806 0
M  V30 12790 H 1211.81 2.97569 3.82985 0
M  V30 12791 H 1207.69 1.81872 4.23608 0
M  V30 12792 H 1211.24 5.25261 4.59071 0
M  V30 12793 H 1207.13 4.08661 4.99666 0
M  V30 12794 H 1207.9 6.11421 5.44157 0
M  V30 12795 N 1210.56 -1.39601 0.731392 0
M  V30 12796 C 1211.81 -2.00883 0.278168 0
M  V30 12797 C 1212.14 -1.57897 -1.13059 0
M  V30 12798 O 1211.42 -0.806203 -1.77005 0
M  V30 12799 C 1211.7 -3.58132 0.375969 0
M  V30 12800 C 1211.55 -4.11147 1.82423 0
M  V30 12801 C 1212.87 -4.39425 -0.243702 0
M  V30 12802 H 1209.99 -0.729831 0.102549 0
M  V30 12803 H 1212.63 -1.65859 0.926869 0
M  V30 12804 H 1210.78 -3.881 -0.176329 0
M  V30 12805 H 1212.46 -3.91914 2.43313 0
M  V30 12806 H 1210.7 -3.64842 2.34675 0
M  V30 12807 H 1211.37 -5.20291 1.84396 0
M  V30 12808 H 1213.85 -4.1548 0.227067 0
M  V30 12809 H 1212.72 -5.48709 -0.144907 0
M  V30 12810 H 1212.98 -4.21642 -1.32929 0
M  V30 12811 N 1212.04 -0.478751 -1.50152 0
M  V30 12812 C 1213.27 0.0710485 -2.06778 0
M  V30 12813 C 1213.69 1.32826 -1.34174 0
M  V30 12814 O 1213.04 1.77758 -0.413304 0
M  V30 12815 C 1213.09 0.351351 -3.59789 0
M  V30 12816 O 1212.81 -0.855998 -4.29656 0
M  V30 12817 C 1214.32 0.947269 -4.33061 0
M  V30 12818 H 1211.54 -0.0105032 -0.670918 0
M  V30 12819 H 1214.08 -0.669732 -1.93222 0
M  V30 12820 H 1212.23 1.04207 -3.73121 0
M  V30 12821 H 1212.65 -0.605252 -5.20996 0
M  V30 12822 H 1214.12 1.09312 -5.41068 0
M  V30 12823 H 1214.6 1.93937 -3.94062 0
M  V30 12824 H 1215.21 0.294693 -4.24278 0
M  V30 12825 N 1213.52 1.56172 -0.211661 0
M  V30 12826 C 1214.75 2.02874 0.430905 0
M  V30 12827 C 1215.17 1.09064 1.53254 0
M  V30 12828 O 1214.53 0.0770408 1.81136 0
M  V30 12829 C 1214.58 3.4789 0.948933 0
M  V30 12830 O 1213.68 3.57213 2.0609 0
M  V30 12831 H 1213.02 0.656614 0.0987607 0
M  V30 12832 H 1215.55 2.01964 -0.327399 0
M  V30 12833 H 1215.56 3.88015 1.2613 0
M  V30 12834 H 1214.24 4.15656 0.142584 0
M  V30 12835 H 1212.81 3.28971 1.75592 0
M  V30 12836 N 1215 -0.0618163 1.57479 0
M  V30 12837 C 1216.25 -0.75794 1.86918 0
M  V30 12838 C 1216.56 -1.78234 0.80572 0
M  V30 12839 O 1217.77 -2.52874 0.98827 0
M  V30 12840 C 1216.22 -1.39898 3.31597 0
M  V30 12841 C 1215.83 -0.412621 4.46096 0
M  V30 12842 C 1217.57 -2.07688 3.70224 0
M  V30 12843 C 1215.48 -1.06014 5.8182 0
M  V30 12844 H 1214.41 -0.286825 0.697314 0
M  V30 12845 H 1217.06 -0.0114386 1.83496 0
M  V30 12846 H 1215.44 -2.19408 3.29661 0
M  V30 12847 H 1216.62 0.353392 4.59443 0
M  V30 12848 H 1214.93 0.161383 4.16087 0
M  V30 12849 H 1217.53 -2.56928 4.68927 0
M  V30 12850 H 1217.87 -2.88073 3.00532 0
M  V30 12851 H 1218.41 -1.34996 3.74194 0
M  V30 12852 H 1215.15 -0.296405 6.5483 0
M  V30 12853 H 1214.67 -1.79677 5.72255 0
M  V30 12854 H 1216.34 -1.57708 6.27485 0
M  V30 12855 N 1216.48 -1.54033 -0.333429 0
M  V30 12856 C 1217.72 -1.71426 -1.0704 0
M  V30 12857 C 1218.05 -0.485496 -1.8886 0
M  V30 12858 O 1217.32 0.500555 -1.89397 0
M  V30 12859 H 1215.9 -0.632034 -0.398173 0
M  V30 12860 H 1218.56 -1.91312 -0.372252 0
M  V30 12861 H 1217.65 -2.58958 -1.74205 0
M  V30 12862 N 1217.95 0.594978 -1.45938 0
M  V30 12863 C 1219.37 0.917069 -1.30622 0
M  V30 12864 C 1219.57 1.99702 -0.268554 0
M  V30 12865 O 1218.63 2.50293 0.333146 0
M  V30 12866 C 1219.94 1.34604 -2.68891 0
M  V30 12867 C 1221.49 1.45957 -2.76886 0
M  V30 12868 C 1221.96 1.92225 -4.15708 0
M  V30 12869 N 1223.45 1.99439 -4.18065 0
M  V30 12870 C 1224.19 2.36488 -5.22361 0
M  V30 12871 N 1223.68 2.72416 -6.36994 0
M  V30 12872 N 1225.48 2.36936 -5.09723 0
M  V30 12873 H 1217.63 -0.118625 -2.12068 0
M  V30 12874 H 1219.89 0.00959453 -0.947951 0
M  V30 12875 H 1219.6 0.626605 -3.46073 0
M  V30 12876 H 1219.47 2.31006 -2.98188 0
M  V30 12877 H 1221.86 2.16989 -1.99999 0
M  V30 12878 H 1221.94 0.47838 -2.51287 0
M  V30 12879 H 1221.58 1.21775 -4.93085 0
M  V30 12880 H 1221.51 2.9128 -4.38707 0
M  V30 12881 H 1224 1.74212 -3.35349 0
M  V30 12882 H 1224.32 2.99604 -7.1236 0
M  V30 12883 H 1222.66 2.70083 -6.40375 0
M  V30 12884 H 1225.85 2.08282 -4.19209 0
M  V30 12885 H 1226.03 2.65483 -5.9112 0
M  V30 12886 N 1219.43 1.33438 0.838571 0
M  V30 12887 C 1220.36 1.26344 1.96365 0
M  V30 12888 C 1221.34 0.143956 1.6949 0
M  V30 12889 O 1222.53 0.333779 1.9131 0
M  V30 12890 C 1219.66 1.0022 3.32526 0
M  V30 12891 C 1218.61 2.08466 3.73799 0
M  V30 12892 C 1217.94 1.67555 5.07769 0
M  V30 12893 C 1219.24 3.50144 3.87552 0
M  V30 12894 H 1220.93 2.20478 2.02558 0
M  V30 12895 H 1218.48 1.06139 0.973168 0
M  V30 12896 H 1220.43 0.939068 4.10803 0
M  V30 12897 H 1219.16 0.0252514 3.2659 0
M  V30 12898 H 1217.81 2.13822 2.97785 0
M  V30 12899 H 1217.46 0.685619 4.98305 0
M  V30 12900 H 1217.16 2.39993 5.36356 0
M  V30 12901 H 1218.69 1.62708 5.88522 0
M  V30 12902 H 1220.1 3.47287 4.56141 0
M  V30 12903 H 1218.5 4.21069 4.27575 0
M  V30 12904 H 1219.57 3.88628 2.89994 0
M  V30 12905 N 1220.91 -1.05686 1.16912 0
M  V30 12906 C 1222.16 -1.77987 0.948875 0
M  V30 12907 C 1222.47 -1.8845 -0.524011 0
M  V30 12908 O 1223.68 -2.57442 -0.862322 0
M  V30 12909 C 1222.13 -3.19927 1.64848 0
M  V30 12910 C 1221.74 -3.1761 3.15956 0
M  V30 12911 C 1223.49 -3.96719 1.51044 0
M  V30 12912 C 1221.39 -4.54307 3.78628 0
M  V30 12913 H 1220.32 -0.667119 0.35138 0
M  V30 12914 H 1222.97 -1.18496 1.40111 0
M  V30 12915 H 1221.36 -3.79714 1.12397 0
M  V30 12916 H 1222.53 -2.67369 3.75301 0
M  V30 12917 H 1220.85 -2.54317 3.29715 0
M  V30 12918 H 1223.44 -4.97779 1.95243 0
M  V30 12919 H 1223.79 -4.13748 0.460268 0
M  V30 12920 H 1224.32 -3.43468 2.00685 0
M  V30 12921 H 1221.06 -4.42484 4.8362 0
M  V30 12922 H 1220.58 -5.04717 3.24069 0
M  V30 12923 H 1222.26 -5.23255 3.80543 0
M  V30 12924 N 1222.39 -0.968567 -1.24324 0
M  V30 12925 C 1223.64 -0.629682 -1.9204 0
M  V30 12926 C 1223.96 0.837906 -1.7608 0
M  V30 12927 O 1223.23 1.5982 -1.13289 0
M  V30 12928 H 1221.81 -0.229901 -0.710742 0
M  V30 12929 H 1224.47 -1.22982 -1.512 0
M  V30 12930 H 1223.57 -0.871034 -2.99699 0
M  V30 12931 N 1223.87 1.39211 -0.738786 0
M  V30 12932 C 1225.12 1.99673 -0.285254 0
M  V30 12933 C 1225.43 1.59297 1.13507 0
M  V30 12934 O 1226.63 2.12622 1.68832 0
M  V30 12935 C 1225.09 3.5696 -0.45906 0
M  V30 12936 C 1224.7 4.06297 -1.88751 0
M  V30 12937 C 1226.44 4.24446 -0.0674954 0
M  V30 12938 C 1224.35 5.56171 -2.01067 0
M  V30 12939 H 1223.28 0.746945 -0.102901 0
M  V30 12940 H 1225.93 1.59163 -0.913209 0
M  V30 12941 H 1224.31 3.95285 0.23785 0
M  V30 12942 H 1225.49 3.79297 -2.61669 0
M  V30 12943 H 1223.8 3.51486 -2.23264 0
M  V30 12944 H 1226.4 5.34521 -0.138475 0
M  V30 12945 H 1226.74 4.04653 0.977823 0
M  V30 12946 H 1227.27 3.91309 -0.715704 0
M  V30 12947 H 1224.01 5.80849 -3.03801 0
M  V30 12948 H 1223.53 5.84961 -1.32591 0
M  V30 12949 H 1225.21 6.21642 -1.79362 0
M  V30 12950 N 1225.34 0.486708 1.49896 0
M  V30 12951 C 1226.59 -0.0629451 2.02702 0
M  V30 12952 C 1226.92 -1.37956 1.36681 0
M  V30 12953 O 1226.2 -1.88025 0.497678 0
M  V30 12954 C 1226.48 -0.230461 3.59362 0
M  V30 12955 C 1226.33 1.10828 4.35933 0
M  V30 12956 C 1227.65 -0.977785 4.29101 0
M  V30 12957 H 1224.77 -0.0214017 0.736689 0
M  V30 12958 H 1227.41 0.635339 1.79063 0
M  V30 12959 H 1225.56 -0.825222 3.79634 0
M  V30 12960 H 1227.24 1.74082 4.27192 0
M  V30 12961 H 1225.48 1.7011 3.99055 0
M  V30 12962 H 1226.15 0.944532 5.43859 0
M  V30 12963 H 1228.63 -0.473505 4.13397 0
M  V30 12964 H 1227.5 -1.06382 5.38492 0
M  V30 12965 H 1227.76 -2.01813 3.9335 0
M  V30 12966 N 1226.82 -1.56058 0.219941 0
M  V30 12967 C 1228.05 -2.02652 -0.417101 0
M  V30 12968 C 1228.47 -1.09977 -1.53461 0
M  V30 12969 O 1227.82 -0.109088 -1.82174 0
M  V30 12970 C 1227.87 -3.48787 -0.950244 0
M  V30 12971 O 1227.6 -4.37928 0.12271 0
M  V30 12972 C 1229.1 -4.11018 -1.66069 0
M  V30 12973 H 1226.32 -0.663163 -0.102254 0
M  V30 12974 H 1228.86 -2.01722 0.335923 0
M  V30 12975 H 1227.02 -3.50338 -1.65355 0
M  V30 12976 H 1227.43 -5.23764 -0.277785 0
M  V30 12977 H 1228.9 -5.15046 -1.98575 0
M  V30 12978 H 1229.38 -3.55921 -2.57326 0
M  V30 12979 H 1229.99 -4.13313 -1.00263 0
M  V30 12980 N 1228.3 0.053464 -1.57509 0
M  V30 12981 C 1229.23 1.06151 -2.07977 0
M  V30 12982 C 1230.21 1.3924 -0.977047 0
M  V30 12983 O 1231.4 1.48549 -1.25087 0
M  V30 12984 C 1228.53 2.36969 -2.53895 0
M  V30 12985 C 1227.48 2.18186 -3.6821 0
M  V30 12986 C 1226.81 3.54551 -4.00247 0
M  V30 12987 C 1228.11 1.588 -4.97574 0
M  V30 12988 H 1229.8 0.641483 -2.92447 0
M  V30 12989 H 1227.35 0.307122 -1.40687 0
M  V30 12990 H 1229.3 3.07797 -2.87817 0
M  V30 12991 H 1228.02 2.80986 -1.66476 0
M  V30 12992 H 1226.68 1.49796 -3.34599 0
M  V30 12993 H 1226.33 3.96171 -3.09932 0
M  V30 12994 H 1226.03 3.42816 -4.77232 0
M  V30 12995 H 1227.56 4.2678 -4.36682 0
M  V30 12996 H 1228.97 2.19515 -5.29609 0
M  V30 12997 H 1227.37 1.57711 -5.79006 0
M  V30 12998 H 1228.44 0.551254 -4.81756 0
M  V30 12999 N 1229.78 1.54207 0.325255 0
M  V30 13000 C 1230.73 1.83474 1.40021 0
M  V30 13001 C 1231.7 0.681719 1.51466 0
M  V30 13002 O 1232.88 0.92798 1.66713 0
M  V30 13003 C 1230.02 2.06624 2.76407 0
M  V30 13004 C 1229.13 3.3431 2.73607 0
M  V30 13005 C 1228.27 3.4743 4.01828 0
M  V30 13006 C 1227.31 4.68997 3.93329 0
M  V30 13007 N 1226.45 4.79052 5.13277 0
M  V30 13008 H 1231.29 2.75182 1.14363 0
M  V30 13009 H 1228.82 1.36284 0.553639 0
M  V30 13010 H 1230.78 2.18037 3.5569 0
M  V30 13011 H 1229.41 1.18209 3.00377 0
M  V30 13012 H 1228.46 3.31643 1.86324 0
M  V30 13013 H 1229.77 4.237 2.6321 0
M  V30 13014 H 1228.93 3.58376 4.89542 0
M  V30 13015 H 1227.67 2.56128 4.1503 0
M  V30 13016 H 1226.67 4.58109 3.04 0
M  V30 13017 H 1227.9 5.61681 3.81695 0
M  V30 13018 H 1225.84 3.90666 5.26988 0
M  V30 13019 H 1225.76 5.62406 5.05208 0
M  V30 13020 H 1227.03 4.94328 6.02711 0
M  V30 13021 N 1231.26 -0.58723 1.46251 0
M  V30 13022 C 1232.17 -1.72455 1.59048 0
M  V30 13023 C 1233.18 -1.67416 0.47413 0
M  V30 13024 O 1234.36 -1.87406 0.737633 0
M  V30 13025 C 1231.42 -3.08953 1.57318 0
M  V30 13026 C 1230.49 -3.25291 2.80151 0
M  V30 13027 C 1229.72 -4.55277 2.78493 0
M  V30 13028 O 1229.94 -5.38883 1.8698 0
M  V30 13029 O 1228.88 -4.74765 3.69975 0
M  V30 13030 H 1232.7 -1.64606 2.55223 0
M  V30 13031 H 1230.29 -0.753742 1.28993 0
M  V30 13032 H 1232.17 -3.90239 1.59033 0
M  V30 13033 H 1230.84 -3.17249 0.643025 0
M  V30 13034 H 1229.75 -2.43515 2.83991 0
M  V30 13035 H 1231.08 -3.21883 3.7236 0
M  V30 13036 N 1232.74 -1.33881 -0.831482 0
M  V30 13037 C 1233.67 -1.27384 -1.95693 0
M  V30 13038 C 1234.65 -0.152943 -1.69411 0
M  V30 13039 O 1235.83 -0.34392 -1.9113 0
M  V30 13040 C 1232.96 -1.01982 -3.31989 0
M  V30 13041 C 1231.92 -2.10445 -3.72689 0
M  V30 13042 C 1231.24 -1.70245 -5.06873 0
M  V30 13043 C 1232.54 -3.52194 -3.8569 0
M  V30 13044 H 1234.24 -2.21549 -2.01386 0
M  V30 13045 H 1231.78 -1.06653 -0.967526 0
M  V30 13046 H 1233.73 -0.960841 -4.103 0
M  V30 13047 H 1232.46 -0.0425709 -3.26572 0
M  V30 13048 H 1231.12 -2.15398 -2.96647 0
M  V30 13049 H 1230.77 -0.712036 -4.97935 0
M  V30 13050 H 1230.47 -2.42834 -5.35075 0
M  V30 13051 H 1231.99 -1.65827 -5.87651 0
M  V30 13052 H 1233.4 -3.49701 -4.54293 0
M  V30 13053 H 1231.8 -4.23331 -4.25336 0
M  V30 13054 H 1232.87 -3.9016 -2.87929 0
M  V30 13055 N 1234.21 1.05064 -1.1747 0
M  V30 13056 C 1235.63 1.30256 -0.922248 0
M  V30 13057 C 1235.83 1.97119 0.417896 0
M  V30 13058 O 1234.89 2.24557 1.15457 0
M  V30 13059 C 1236.2 2.17109 -2.08049 0
M  V30 13060 C 1237.75 2.30487 -2.11766 0
M  V30 13061 C 1238.22 3.20701 -3.26979 0
M  V30 13062 N 1239.71 3.28287 -3.26775 0
M  V30 13063 C 1240.45 3.98218 -4.12565 0
M  V30 13064 N 1239.94 4.70567 -5.08467 0
M  V30 13065 N 1241.74 3.94395 -4.00511 0
M  V30 13066 H 1233.89 0.600653 -2.0373 0
M  V30 13067 H 1236.15 0.327475 -0.889643 0
M  V30 13068 H 1235.86 1.75273 -3.04914 0
M  V30 13069 H 1235.73 3.1775 -2.03261 0
M  V30 13070 H 1238.12 2.71564 -1.15486 0
M  V30 13071 H 1238.2 1.29471 -2.20615 0
M  V30 13072 H 1237.84 2.80337 -4.23525 0
M  V30 13073 H 1237.77 4.21725 -3.15366 0
M  V30 13074 H 1240.26 2.76739 -2.5734 0
M  V30 13075 H 1240.58 5.21492 -5.70321 0
M  V30 13076 H 1238.92 4.69505 -5.12436 0
M  V30 13077 H 1242.11 3.37 -3.24882 0
M  V30 13078 H 1242.29 4.48626 -4.67588 0
M  V30 13079 N 1235.69 0.975146 1.23809 0
M  V30 13080 C 1236.64 0.510761 2.25077 0
M  V30 13081 C 1237.61 -0.447605 1.59955 0
M  V30 13082 O 1238.79 -0.356318 1.87443 0
M  V30 13083 C 1235.93 -0.185755 3.446 0
M  V30 13084 C 1235.05 0.812254 4.24295 0
M  V30 13085 C 1234.18 0.0910835 5.31122 0
M  V30 13086 C 1233.22 1.07866 6.02521 0
M  V30 13087 N 1232.36 0.386995 7.01033 0
M  V30 13088 H 1237.2 1.37913 2.64166 0
M  V30 13089 H 1234.73 0.691184 1.2985 0
M  V30 13090 H 1236.69 -0.606341 4.1277 0
M  V30 13091 H 1235.32 -1.01803 3.06327 0
M  V30 13092 H 1234.37 1.35125 3.55592 0
M  V30 13093 H 1235.69 1.56502 4.73612 0
M  V30 13094 H 1234.84 -0.387129 6.05464 0
M  V30 13095 H 1233.58 -0.694324 4.82732 0
M  V30 13096 H 1232.58 1.56767 5.26976 0
M  V30 13097 H 1233.81 1.86464 6.52999 0
M  V30 13098 H 1231.76 -0.3793 6.54903 0
M  V30 13099 H 1231.67 1.0785 7.48268 0
M  V30 13100 H 1232.94 -0.0690036 7.79469 0
M  V30 13101 N 1237.17 -1.38817 0.746158 0
M  V30 13102 C 1238.13 -2.28876 0.121886 0
M  V30 13103 C 1239.13 -1.46838 -0.655379 0
M  V30 13104 O 1240.32 -1.67377 -0.482744 0
M  V30 13105 C 1237.45 -3.30487 -0.836118 0
M  V30 13106 H 1238.65 -2.85586 0.915453 0
M  V30 13107 H 1236.2 -1.47652 0.512691 0
M  V30 13108 H 1236.94 -2.78853 -1.65563 0
M  V30 13109 H 1236.72 -3.9109 -0.281271 0
M  V30 13110 H 1238.21 -3.97848 -1.26914 0
M  V30 13111 N 1238.65 -0.49465 -1.49636 0
M  V30 13112 C 1239.9 0.0539277 -2.01628 0
M  V30 13113 C 1240.21 1.38634 -1.37986 0
M  V30 13114 O 1241.42 2.02123 -1.81269 0
M  V30 13115 C 1239.87 0.146582 -3.59601 0
M  V30 13116 C 1239.48 -1.1788 -4.32213 0
M  V30 13117 C 1241.22 0.645862 -4.19558 0
M  V30 13118 C 1239.13 -1.04866 -5.82028 0
M  V30 13119 H 1238.06 0.0239278 -0.75362 0
M  V30 13120 H 1240.71 -0.633112 -1.72232 0
M  V30 13121 H 1239.09 0.897931 -3.85685 0
M  V30 13122 H 1240.27 -1.94295 -4.17835 0
M  V30 13123 H 1238.58 -1.61102 -3.83973 0
M  V30 13124 H 1241.18 0.76064 -5.29262 0
M  V30 13125 H 1241.52 1.64313 -3.82501 0
M  V30 13126 H 1242.06 -0.04877 -3.9777 0
M  V30 13127 H 1238.79 -2.02 -6.23599 0
M  V30 13128 H 1238.31 -0.325293 -5.98917 0
M  V30 13129 H 1239.99 -0.724799 -6.42927 0
M  V30 13130 N 1240.13 1.55939 -0.228214 0
M  V30 13131 C 1241.04 2.24213 0.690339 0
M  V30 13132 C 1242.05 1.25197 1.20838 0
M  V30 13133 O 1243.23 1.58026 1.24859 0
M  V30 13134 C 1240.29 2.91384 1.87873 0
M  V30 13135 C 1239.35 4.05761 1.40201 0
M  V30 13136 C 1238.59 4.6972 2.53376 0
M  V30 13137 O 1238.81 4.32687 3.71669 0
M  V30 13138 O 1237.74 5.58587 2.24198 0
M  V30 13139 H 1241.57 3.03383 0.138692 0
M  V30 13140 H 1239.15 1.494 0.00251504 0
M  V30 13141 H 1241.04 3.33758 2.57262 0
M  V30 13142 H 1239.71 2.15168 2.41835 0
M  V30 13143 H 1238.62 3.67943 0.675945 0
M  V30 13144 H 1239.95 4.83739 0.908691 0
M  V30 13145 N 1241.6 -0.0451101 1.57535 0
M  V30 13146 C 1242.85 -0.737654 1.88157 0
M  V30 13147 C 1243.17 -1.76743 0.823817 0
M  V30 13148 O 1242.44 -1.95366 -0.144503 0
M  V30 13149 H 1241.02 -0.275431 0.694368 0
M  V30 13150 H 1243.69 -0.0148651 1.94894 0
M  V30 13151 H 1242.78 -1.23726 2.86528 0
M  V30 13152 N 1243.08 -1.54377 -0.317073 0
M  V30 13153 C 1244.31 -1.77184 -1.07798 0
M  V30 13154 C 1244.73 -0.52204 -1.80711 0
M  V30 13155 O 1244.09 0.52672 -1.7348 0
M  V30 13156 C 1244.14 -2.96887 -2.04671 0
M  V30 13157 O 1243.24 -2.68887 -3.12688 0
M  V30 13158 H 1242.58 -0.586937 -0.310485 0
M  V30 13159 H 1245.11 -2.01419 -0.35939 0
M  V30 13160 H 1245.12 -3.24414 -2.47426 0
M  V30 13161 H 1243.8 -3.87518 -1.51005 0
M  V30 13162 H 1242.38 -2.52329 -2.74562 0
M  V30 13163 N 1244.56 0.579466 -1.4656 0
M  V30 13164 C 1245.81 1.33954 -1.52264 0
M  V30 13165 C 1246.14 1.93409 -0.175089 0
M  V30 13166 O 1245.41 1.76654 0.81385 0
M  V30 13167 C 1245.7 2.46645 -2.6237 0
M  V30 13168 C 1245.55 1.92204 -4.06667 0
M  V30 13169 C 1246.87 3.48676 -2.68538 0
M  V30 13170 H 1243.99 0.485697 -0.554317 0
M  V30 13171 H 1246.63 0.650639 -1.78512 0
M  V30 13172 H 1244.78 3.0541 -2.40119 0
M  V30 13173 H 1246.45 1.37871 -4.40215 0
M  V30 13174 H 1244.7 1.23012 -4.15993 0
M  V30 13175 H 1245.37 2.73566 -4.79443 0
M  V30 13176 H 1247.84 2.99798 -2.88549 0
M  V30 13177 H 1246.72 4.24981 -3.47394 0
M  V30 13178 H 1246.98 4.06112 -1.74716 0
M  V30 13179 N 1246.04 1.3432 0.824371 0
M  V30 13180 C 1247.27 1.29669 1.61226 0
M  V30 13181 C 1247.68 -0.129532 1.88355 0
M  V30 13182 O 1247.04 -1.07616 1.47394 0
M  V30 13183 C 1247.09 2.08375 2.95402 0
M  V30 13184 O 1246.81 3.45434 2.69456 0
M  V30 13185 C 1248.31 2.11103 3.89808 0
M  V30 13186 H 1245.53 0.446137 0.501201 0
M  V30 13187 H 1248.08 1.76912 1.02579 0
M  V30 13188 H 1246.23 1.64777 3.5061 0
M  V30 13189 H 1246.64 3.86101 3.55001 0
M  V30 13190 H 1248.12 2.706 4.81124 0
M  V30 13191 H 1248.6 1.10505 4.25071 0
M  V30 13192 H 1249.2 2.54784 3.40537 0
M  V30 13193 N 1247.52 -1.0444 1.18026 0
M  V30 13194 C 1248.48 -2.10532 0.906028 0
M  V30 13195 C 1249.48 -1.60443 -0.107022 0
M  V30 13196 O 1250.67 -1.73744 0.126001 0
M  V30 13197 C 1247.8 -3.39008 0.358625 0
M  V30 13198 H 1248.99 -2.36293 1.84677 0
M  V30 13199 H 1246.55 -1.20805 0.991763 0
M  V30 13200 H 1247.28 -3.18908 -0.588904 0
M  V30 13201 H 1247.07 -3.76678 1.08884 0
M  V30 13202 H 1248.56 -4.17189 0.185331 0
M  V30 13203 N 1248.99 -0.981699 -1.2329 0
M  V30 13204 C 1249.93 -0.481042 -2.24095 0
M  V30 13205 C 1250.94 0.417818 -1.57347 0
M  V30 13206 O 1252.13 0.221746 -1.77117 0
M  V30 13207 C 1249.23 0.323324 -3.37354 0
M  V30 13208 C 1248.4 -0.568975 -4.33684 0
M  V30 13209 C 1247.46 0.181761 -5.25886 0
M  V30 13210 O 1246.49 -0.429059 -5.67581 0
M  V30 13211 N 1247.69 1.46737 -5.61648 0
M  V30 13212 H 1250.45 -1.34781 -2.67683 0
M  V30 13213 H 1248.01 -0.855117 -1.37475 0
M  V30 13214 H 1250.01 0.833934 -3.96015 0
M  V30 13215 H 1248.58 1.09111 -2.9294 0
M  V30 13216 H 1247.8 -1.2604 -3.73507 0
M  V30 13217 H 1249.08 -1.17704 -4.94998 0
M  V30 13218 H 1248.48 1.98513 -5.29725 0
M  V30 13219 H 1247.04 1.92339 -6.22775 0
M  V30 13220 N 1250.47 1.3842 -0.753509 0
M  V30 13221 C 1251.72 1.99723 -0.309021 0
M  V30 13222 C 1252.04 1.60111 1.11308 0
M  V30 13223 O 1251.31 0.85792 1.76115 0
M  V30 13224 H 1249.89 0.738667 -0.111266 0
M  V30 13225 H 1252.55 1.69186 -0.967586 0
M  V30 13226 H 1251.65 3.09874 -0.372095 0
M  V30 13227 N 1251.95 0.502579 1.49372 0
M  V30 13228 C 1253.2 -0.0414423 2.02758 0
M  V30 13229 C 1253.53 -1.36499 1.38136 0
M  V30 13230 O 1252.8 -1.87487 0.517593 0
M  V30 13231 C 1253.09 -0.192333 3.59586 0
M  V30 13232 C 1252.94 1.15445 4.34733 0
M  V30 13233 C 1254.26 -0.932218 4.30114 0
M  V30 13234 H 1251.38 -0.0135869 0.736875 0
M  V30 13235 H 1254.02 0.654296 1.78379 0
M  V30 13236 H 1252.17 -0.78491 3.80488 0
M  V30 13237 H 1253.84 1.78603 4.25322 0
M  V30 13238 H 1252.09 1.74333 3.97228 0
M  V30 13239 H 1252.76 1.00216 5.42827 0
M  V30 13240 H 1255.23 -0.429632 4.13876 0
M  V30 13241 H 1254.11 -1.00664 5.39591 0
M  V30 13242 H 1254.37 -1.9763 3.95468 0
M  V30 13243 N 1253.43 -1.55816 0.23648 0
M  V30 13244 C 1254.38 -2.20938 -0.66745 0
M  V30 13245 C 1255.35 -1.16982 -1.17917 0
M  V30 13246 O 1256.53 -1.45392 -1.23555 0
M  V30 13247 C 1253.67 -2.90469 -1.86337 0
M  V30 13248 C 1252.78 -4.09056 -1.38915 0
M  V30 13249 C 1251.92 -4.6633 -2.54382 0
M  V30 13250 C 1250.96 -5.77187 -2.0377 0
M  V30 13251 N 1250.09 -6.28688 -3.12564 0
M  V30 13252 H 1254.93 -2.97814 -0.105411 0
M  V30 13253 H 1252.47 -1.47045 -0.0402712 0
M  V30 13254 H 1254.43 -3.28975 -2.56576 0
M  V30 13255 H 1253.06 -2.16086 -2.39806 0
M  V30 13256 H 1252.11 -3.75934 -0.581173 0
M  V30 13257 H 1253.42 -4.89115 -0.978152 0
M  V30 13258 H 1252.58 -5.07355 -3.32679 0
M  V30 13259 H 1251.32 -3.85464 -2.98778 0
M  V30 13260 H 1250.32 -5.35648 -1.23939 0
M  V30 13261 H 1251.55 -6.59896 -1.60355 0
M  V30 13262 H 1249.49 -5.50731 -3.56414 0
M  V30 13263 H 1249.41 -7.03911 -2.75762 0
M  V30 13264 H 1250.68 -6.74371 -3.90952 0
M  V30 13265 N 1254.91 0.036755 -1.57557 0
M  V30 13266 C 1256.15 0.730186 -1.89199 0
M  V30 13267 C 1256.49 1.75414 -0.833271 0
M  V30 13268 O 1255.76 1.93901 0.152579 0
M  V30 13269 C 1256.04 1.40669 -3.31488 0
M  V30 13270 C 1255.9 0.396764 -4.48047 0
M  V30 13271 C 1257.22 2.34268 -3.72567 0
M  V30 13272 H 1254.33 0.263983 -0.6881 0
M  V30 13273 H 1256.98 -0.0069847 -1.89999 0
M  V30 13274 H 1255.13 2.03502 -3.30937 0
M  V30 13275 H 1256.8 -0.229062 -4.60731 0
M  V30 13276 H 1255.04 -0.284698 -4.32865 0
M  V30 13277 H 1255.71 0.908436 -5.44474 0
M  V30 13278 H 1258.19 1.81485 -3.74436 0
M  V30 13279 H 1257.06 2.78587 -4.72949 0
M  V30 13280 H 1257.33 3.20611 -3.04403 0
M  V30 13281 N 1256.39 1.54543 0.308881 0
M  V30 13282 C 1257.8 1.45581 0.654088 0
M  V30 13283 C 1258 0.640597 1.91046 0
M  V30 13284 O 1257.06 0.14518 2.52082 0
M  V30 13285 C 1258.37 2.89461 0.814422 0
M  V30 13286 C 1259.92 2.99455 0.910817 0
M  V30 13287 C 1260.39 4.44515 1.10321 0
M  V30 13288 N 1261.88 4.4819 1.1696 0
M  V30 13289 C 1262.62 5.57604 1.33661 0
M  V30 13290 N 1262.12 6.76957 1.47311 0
M  V30 13291 N 1263.91 5.45278 1.36487 0
M  V30 13292 H 1256.06 2.06019 -0.516699 0
M  V30 13293 H 1258.32 0.932729 -0.169471 0
M  V30 13294 H 1258.03 3.5168 -0.0377455 0
M  V30 13295 H 1257.9 3.36425 1.70582 0
M  V30 13296 H 1260.29 2.37355 1.75348 0
M  V30 13297 H 1260.37 2.558 -0.00443172 0
M  V30 13298 H 1260.01 5.07206 0.265346 0
M  V30 13299 H 1259.94 4.85793 2.03256 0
M  V30 13300 H 1262.44 3.62199 1.07796 0
M  V30 13301 H 1262.75 7.561 1.59788 0
M  V30 13302 H 1261.09 6.79837 1.44382 0
M  V30 13303 H 1264.28 4.50983 1.25429 0
M  V30 13304 H 1264.46 6.30599 1.4916 0
M  V30 13305 N 1257.86 -0.571685 1.46866 0
M  V30 13306 C 1259.27 -1.15383 1.46778 0
M  V30 13307 C 1259.63 -1.95023 0.214576 0
M  V30 13308 O 1258.75 -2.05386 -0.681574 0
M  V30 13309 C 1259.35 -2.09915 2.65935 0
M  V30 13310 C 1257.9 -2.6343 2.68852 0
M  V30 13311 C 1257.05 -1.39517 2.39646 0
M  V30 13312 H 1260 -0.359036 1.54585 0
M  V30 13313 H 1260.02 -2.9356 2.42081 0
M  V30 13314 H 1259.54 -1.51923 3.57129 0
M  V30 13315 H 1257.64 -3.2526 1.8176 0
M  V30 13316 H 1257.75 -3.05412 3.69134 0
M  V30 13317 H 1256.11 -1.69702 1.8993 0
M  V30 13318 H 1256.9 -0.833399 3.33031 0
M  V30 13319 N 1259.34 -1.34755 -0.817236 0
M  V30 13320 C 1260.75 -1.24594 -1.39044 0
M  V30 13321 C 1261.1 0.126184 -1.95794 0
M  V30 13322 O 1260.23 1.02675 -1.90491 0
M  V30 13323 C 1260.82 -2.25592 -2.52772 0
M  V30 13324 C 1259.38 -2.19204 -3.05984 0
M  V30 13325 C 1258.53 -2.11884 -1.78886 0
M  V30 13326 H 1261.48 -1.46039 -0.621155 0
M  V30 13327 H 1261.5 -1.87622 -3.31026 0
M  V30 13328 H 1261.01 -3.25447 -2.11438 0
M  V30 13329 H 1259.11 -1.22725 -3.51809 0
M  V30 13330 H 1259.23 -3.10707 -3.64689 0
M  V30 13331 H 1257.59 -1.57694 -2.00012 0
M  V30 13332 H 1258.37 -3.13582 -1.39719 0
M  V30 13333 N 1260.82 1.03812 -1.18578 0
M  V30 13334 C 1261.75 2.13802 -0.938665 0
M  V30 13335 C 1262.73 1.69643 0.124575 0
M  V30 13336 O 1263.92 1.94179 -0.0285421 0
M  V30 13337 C 1261.05 3.44154 -0.466392 0
M  V30 13338 C 1260 4.01949 -1.47041 0
M  V30 13339 C 1259.33 5.27811 -0.855558 0
M  V30 13340 C 1260.63 4.37827 -2.84789 0
M  V30 13341 H 1262.32 2.34732 -1.85852 0
M  V30 13342 H 1259.87 1.12808 -0.895007 0
M  V30 13343 H 1261.82 4.20463 -0.280856 0
M  V30 13344 H 1260.54 3.22918 0.489041 0
M  V30 13345 H 1259.2 3.27725 -1.64293 0
M  V30 13346 H 1258.85 5.02886 0.107142 0
M  V30 13347 H 1258.55 5.67441 -1.52592 0
M  V30 13348 H 1260.07 6.06795 -0.680609 0
M  V30 13349 H 1261.49 5.05112 -2.71173 0
M  V30 13350 H 1259.88 4.88514 -3.48532 0
M  V30 13351 H 1260.95 3.47541 -3.38147 0
M  V30 13352 N 1262.3 0.988223 1.22768 0
M  V30 13353 C 1263.26 0.539813 2.22752 0
M  V30 13354 C 1264.26 -0.374796 1.56371 0
M  V30 13355 O 1265.45 -0.167402 1.73394 0
M  V30 13356 C 1262.58 -0.215461 3.40218 0
M  V30 13357 H 1263.78 1.42397 2.63938 0
M  V30 13358 H 1261.33 0.774933 1.35737 0
M  V30 13359 H 1262.06 -1.11581 3.045 0
M  V30 13360 H 1261.85 0.441173 3.8961 0
M  V30 13361 H 1263.34 -0.517517 4.14381 0
M  V30 13362 N 1263.78 -1.38018 0.760839 0
M  V30 13363 C 1265 -2.04757 0.330038 0
M  V30 13364 C 1265.43 -1.57009 -1.03585 0
M  V30 13365 O 1264.78 -0.725349 -1.66158 0
M  V30 13366 C 1264.83 -3.58696 0.370082 0
M  V30 13367 O 1263.94 -4.07507 -0.633361 0
M  V30 13368 H 1263.28 -0.648023 0.144782 0
M  V30 13369 H 1265.81 -1.7655 1.03399 0
M  V30 13370 H 1265.82 -4.07387 0.223515 0
M  V30 13371 H 1264.49 -3.92806 1.36661 0
M  V30 13372 H 1263.07 -3.70165 -0.45081 0
M  V30 13373 N 1265.25 -0.510493 -1.49103 0
M  V30 13374 C 1266.5 0.0306436 -2.02477 0
M  V30 13375 C 1266.83 1.36113 -1.38937 0
M  V30 13376 O 1266.08 1.88731 -0.517584 0
M  V30 13377 C 1266.38 0.221921 -3.5671 0
M  V30 13378 C 1266.05 -1.03176 -4.38937 0
M  V30 13379 C 1264.71 -1.37539 -4.61125 0
M  V30 13380 C 1267.06 -1.86464 -4.86704 0
M  V30 13381 C 1264.39 -2.55124 -5.28326 0
M  V30 13382 C 1266.74 -3.03211 -5.55199 0
M  V30 13383 C 1265.41 -3.37943 -5.75631 0
M  V30 13384 H 1264.68 0.0112133 -0.740915 0
M  V30 13385 H 1267.32 -0.672574 -1.79301 0
M  V30 13386 H 1265.63 1.00775 -3.78618 0
M  V30 13387 H 1267.33 0.655223 -3.95611 0
M  V30 13388 H 1263.92 -0.754105 -4.21914 0
M  V30 13389 H 1268.1 -1.61229 -4.69381 0
M  V30 13390 H 1263.36 -2.8226 -5.42346 0
M  V30 13391 H 1267.53 -3.68068 -5.91185 0
M  V30 13392 H 1265.16 -4.29158 -6.27477 0
M  V30 13393 N 1266.73 1.55688 -0.24474 0
M  V30 13394 C 1268.15 1.59219 0.110159 0
M  V30 13395 C 1268.35 1.26187 1.57096 0
M  V30 13396 O 1267.4 1.00815 2.31501 0
M  V30 13397 C 1268.72 2.99764 -0.237075 0
M  V30 13398 C 1270.26 3.12475 -0.181198 0
M  V30 13399 C 1270.74 4.55236 -0.502435 0
M  V30 13400 N 1272.23 4.60981 -0.452855 0
M  V30 13401 C 1272.97 5.69418 -0.674605 0
M  V30 13402 N 1272.46 6.86125 -0.959366 0
M  V30 13403 N 1274.25 5.5883 -0.605459 0
M  V30 13404 H 1266.41 1.7543 -1.19741 0
M  V30 13405 H 1268.67 0.816537 -0.481634 0
M  V30 13406 H 1268.37 3.28666 -1.25185 0
M  V30 13407 H 1268.25 3.74662 0.436859 0
M  V30 13408 H 1270.64 2.83355 0.824248 0
M  V30 13409 H 1270.72 2.39857 -0.888952 0
M  V30 13410 H 1270.36 4.85077 -1.50543 0
M  V30 13411 H 1270.29 5.26111 0.226773 0
M  V30 13412 H 1272.78 3.77128 -0.241401 0
M  V30 13413 H 1273.09 7.64699 -1.11605 0
M  V30 13414 H 1271.44 6.87814 -0.996816 0
M  V30 13415 H 1274.63 4.6653 -0.383053 0
M  V30 13416 H 1274.8 6.43268 -0.781673 0
M  V30 13417 N 1268.21 -0.0283989 1.57574 0
M  V30 13418 C 1269.49 -0.754527 1.80461 0
M  V30 13419 C 1269.87 -1.93539 0.842966 0
M  V30 13420 O 1269.21 -2.28212 -0.114714 0
M  V30 13421 C 1269.42 -1.18694 3.28196 0
M  V30 13422 C 1270.77 -1.60257 3.93196 0
M  V30 13423 O 1271.8 -1.2815 3.32349 0
M  V30 13424 O 1270.66 -2.19853 5.00327 0
M  V30 13425 H 1267.75 -0.364936 0.742126 0
M  V30 13426 H 1270.3 -0.00512589 1.69699 0
M  V30 13427 H 1269.07 -0.34398 3.89785 0
M  V30 13428 H 1268.69 -1.99633 3.43849 0
M  V30 13429 N 1269.69 -1.54705 -0.300681 0
M  V30 13430 C 1270.91 -1.78318 -1.05913 0
M  V30 13431 C 1271.34 -0.541177 -1.80147 0
M  V30 13432 O 1270.7 0.508291 -1.74029 0
M  V30 13433 C 1270.74 -2.99041 -2.01511 0
M  V30 13434 O 1269.85 -2.72188 -3.09818 0
M  V30 13435 H 1269.19 -0.590197 -0.304242 0
M  V30 13436 H 1271.72 -2.01789 -0.338006 0
M  V30 13437 H 1271.73 -3.2702 -2.43971 0
M  V30 13438 H 1270.4 -3.89098 -1.46886 0
M  V30 13439 H 1268.98 -2.55227 -2.71871 0
M  V30 13440 N 1271.17 0.563888 -1.47167 0
M  V30 13441 C 1272.13 1.65359 -1.58711 0
M  V30 13442 C 1273.13 1.53999 -0.46272 0
M  V30 13443 O 1274.32 1.58277 -0.727595 0
M  V30 13444 C 1271.45 3.04874 -1.52529 0
M  V30 13445 H 1272.64 1.56475 -2.55843 0
M  V30 13446 H 1270.2 0.783271 -1.35257 0
M  V30 13447 H 1270.93 3.19297 -0.56747 0
M  V30 13448 H 1270.72 3.14528 -2.34125 0
M  V30 13449 H 1272.21 3.84164 -1.63731 0
M  V30 13450 N 1272.64 1.35187 0.810078 0
M  V30 13451 C 1273.87 1.31371 1.59841 0
M  V30 13452 C 1274.29 -0.109547 1.88482 0
M  V30 13453 O 1273.64 -1.06047 1.48527 0
M  V30 13454 C 1273.7 2.11496 2.93175 0
M  V30 13455 O 1273.42 3.48273 2.65777 0
M  V30 13456 C 1274.92 2.15226 3.87547 0
M  V30 13457 H 1272.14 0.451428 0.496441 0
M  V30 13458 H 1274.68 1.7799 1.00697 0
M  V30 13459 H 1272.84 1.68486 3.48843 0
M  V30 13460 H 1273.25 3.89845 3.50886 0
M  V30 13461 H 1274.72 2.75687 4.78226 0
M  V30 13462 H 1275.2 1.15007 4.23875 0
M  V30 13463 H 1275.81 2.58382 3.37815 0
M  V30 13464 N 1274.12 -1.03182 1.19127 0
M  V30 13465 C 1275.35 -1.80703 1.01791 0
M  V30 13466 C 1275.77 -1.83147 -0.428824 0
M  V30 13467 O 1275.13 -1.2553 -1.30812 0
M  V30 13468 C 1275.18 -3.23754 1.58794 0
M  V30 13469 O 1274.28 -4.04261 0.815274 0
M  V30 13470 H 1273.62 -0.557944 0.359992 0
M  V30 13471 H 1276.15 -1.29887 1.58084 0
M  V30 13472 H 1276.16 -3.7451 1.61884 0
M  V30 13473 H 1274.84 -3.2129 2.64094 0
M  V30 13474 H 1273.42 -3.62909 0.857392 0
M  V30 13475 N 1275.6 -0.99472 -1.22242 0
M  V30 13476 C 1276.83 -0.689809 -1.95592 0
M  V30 13477 C 1277.25 0.739321 -1.72961 0
M  V30 13478 O 1276.61 1.50563 -1.00997 0
M  V30 13479 C 1276.66 -1.00367 -3.46351 0
M  V30 13480 O 1275.76 -0.103326 -4.12271 0
M  V30 13481 H 1275.1 -0.257997 -0.611828 0
M  V30 13482 H 1277.63 -1.33219 -1.55286 0
M  V30 13483 H 1277.64 -0.946259 -3.96875 0
M  V30 13484 H 1276.32 -2.04504 -3.62148 0
M  V30 13485 H 1274.89 -0.216374 -3.72272 0
M  V30 13486 N 1277.08 1.37613 -0.768148 0
M  V30 13487 C 1278.3 2.04579 -0.340892 0
M  V30 13488 C 1278.73 1.57556 1.02751 0
M  V30 13489 O 1278.09 0.734151 1.65771 0
M  V30 13490 C 1278.13 3.58495 -0.389099 0
M  V30 13491 O 1277.24 4.07838 0.611741 0
M  V30 13492 H 1276.58 0.647246 -0.148216 0
M  V30 13493 H 1279.11 1.75999 -1.04333 0
M  V30 13494 H 1279.12 4.07263 -0.245116 0
M  V30 13495 H 1277.79 3.92076 -1.38742 0
M  V30 13496 H 1276.37 3.70399 0.431173 0
M  V30 13497 N 1278.56 0.518393 1.4883 0
M  V30 13498 C 1279.83 -0.0837498 1.95421 0
M  V30 13499 C 1280.21 -1.52435 1.46037 0
M  V30 13500 O 1279.56 -2.18093 0.681736 0
M  V30 13501 C 1279.77 0.0215333 3.48993 0
M  V30 13502 C 1281.12 -0.143615 4.24357 0
M  V30 13503 O 1282.14 -0.0528223 3.56161 0
M  V30 13504 O 1281 -0.332231 5.45489 0
M  V30 13505 H 1278.1 -0.0857132 0.822546 0
M  V30 13506 H 1280.64 0.582169 1.59402 0
M  V30 13507 H 1279.41 1.02549 3.77623 0
M  V30 13508 H 1279.04 -0.683756 3.91677 0
M  V30 13509 N 1280.03 -1.55556 0.252993 0
M  V30 13510 C 1281.26 -2.03491 -0.374022 0
M  V30 13511 C 1281.68 -1.13208 -1.51094 0
M  V30 13512 O 1281.03 -0.147705 -1.81901 0
M  V30 13513 C 1281.09 -3.50724 -0.876047 0
M  V30 13514 O 1280.81 -4.37569 0.215574 0
M  V30 13515 C 1282.31 -4.14448 -1.57313 0
M  V30 13516 H 1279.53 -0.665183 -0.0881644 0
M  V30 13517 H 1282.07 -2.00964 0.378636 0
M  V30 13518 H 1280.23 -3.53766 -1.57886 0
M  V30 13519 H 1280.64 -5.24235 -0.166625 0
M  V30 13520 H 1282.11 -5.19142 -1.87606 0
M  V30 13521 H 1282.59 -3.61299 -2.49719 0
M  V30 13522 H 1283.2 -4.15346 -0.914735 0
M  V30 13523 N 1281.51 0.0200419 -1.57587 0
M  V30 13524 C 1282.42 1.0346 -2.10555 0
M  V30 13525 C 1283.44 1.39035 -1.0462 0
M  V30 13526 O 1284.61 1.48172 -1.36407 0
M  V30 13527 C 1281.68 2.31389 -2.58186 0
M  V30 13528 C 1280.74 2.02311 -3.7864 0
M  V30 13529 C 1279.97 3.24141 -4.23991 0
M  V30 13530 O 1280.2 4.35132 -3.68803 0
M  V30 13531 O 1279.13 3.09312 -5.16342 0
M  V30 13532 H 1282.96 0.614419 -2.9742 0
M  V30 13533 H 1280.54 0.237604 -1.47498 0
M  V30 13534 H 1282.42 3.06582 -2.89112 0
M  V30 13535 H 1281.1 2.72684 -1.74428 0
M  V30 13536 H 1280.01 1.24658 -3.5272 0
M  V30 13537 H 1281.34 1.65866 -4.6341 0
M  V30 13538 N 1282.99 1.54862 0.292472 0
M  V30 13539 C 1284.22 1.7855 1.04534 0
M  V30 13540 C 1284.63 0.549161 1.80637 0
M  V30 13541 O 1283.99 -0.481268 1.7604 0
M  V30 13542 C 1284.04 2.99849 2.01923 0
M  V30 13543 O 1283.76 4.18706 1.28907 0
M  V30 13544 C 1285.26 3.35991 2.8918 0
M  V30 13545 H 1282.48 0.595279 0.309652 0
M  V30 13546 H 1285.03 2.01834 0.329159 0
M  V30 13547 H 1283.18 2.78749 2.69032 0
M  V30 13548 H 1283.6 4.87151 1.94383 0
M  V30 13549 H 1285.07 4.24085 3.53349 0
M  V30 13550 H 1285.55 2.54524 3.57931 0
M  V30 13551 H 1286.15 3.59281 2.27591 0
M  V30 13552 N 1284.47 -0.556076 1.47464 0
M  V30 13553 C 1285.7 -1.33858 1.57764 0
M  V30 13554 C 1286.11 -1.87415 0.22825 0
M  V30 13555 O 1285.47 -1.65054 -0.778674 0
M  V30 13556 C 1285.52 -2.5077 2.60378 0
M  V30 13557 O 1285.24 -1.99426 3.90078 0
M  V30 13558 C 1286.74 -3.42965 2.80873 0
M  V30 13559 H 1283.96 -0.408003 0.532705 0
M  V30 13560 H 1286.51 -0.673501 1.93091 0
M  V30 13561 H 1284.66 -3.13214 2.27982 0
M  V30 13562 H 1285.07 -2.75759 4.46158 0
M  V30 13563 H 1286.55 -4.21412 3.56533 0
M  V30 13564 H 1287.03 -3.96579 1.88737 0
M  V30 13565 H 1287.63 -2.86336 3.14471 0
M  V30 13566 N 1285.95 -1.35615 -0.802897 0
M  V30 13567 C 1286.86 -1.3096 -1.94645 0
M  V30 13568 C 1287.87 -0.213909 -1.7268 0
M  V30 13569 O 1289.05 -0.443932 -1.96446 0
M  V30 13570 C 1286.11 -1.08483 -3.2929 0
M  V30 13571 C 1285.18 -2.27401 -3.64126 0
M  V30 13572 C 1284.41 -2.05987 -4.92347 0
M  V30 13573 O 1284.63 -1.02819 -5.61057 0
M  V30 13574 O 1283.57 -2.93439 -5.25526 0
M  V30 13575 H 1287.39 -2.27209 -2.01519 0
M  V30 13576 H 1284.98 -1.16024 -0.941214 0
M  V30 13577 H 1286.86 -0.978118 -4.09891 0
M  V30 13578 H 1285.53 -0.152885 -3.23339 0
M  V30 13579 H 1284.44 -2.43638 -2.83886 0
M  V30 13580 H 1285.77 -3.19055 -3.74786 0
M  V30 13581 N 1287.43 1.02549 -1.19673 0
M  V30 13582 C 1288.67 1.76265 -1.00293 0
M  V30 13583 C 1289 1.88555 0.464816 0
M  V30 13584 O 1288.28 1.40484 1.34515 0
M  V30 13585 C 1288.56 3.18688 -1.6766 0
M  V30 13586 C 1288.42 3.14247 -3.21821 0
M  V30 13587 C 1289.73 4.17159 -1.40238 0
M  V30 13588 H 1286.85 0.639837 -0.365756 0
M  V30 13589 H 1289.5 1.19691 -1.4756 0
M  V30 13590 H 1287.65 3.66992 -1.27472 0
M  V30 13591 H 1289.32 2.73815 -3.71245 0
M  V30 13592 H 1287.56 2.51874 -3.53188 0
M  V30 13593 H 1288.23 4.14886 -3.64107 0
M  V30 13594 H 1290.71 3.77471 -1.75086 0
M  V30 13595 H 1289.58 5.14997 -1.89919 0
M  V30 13596 H 1289.84 4.4088 -0.328197 0
M  V30 13597 N 1288.9 1.00119 1.21713 0
M  V30 13598 C 1289.85 0.529464 2.21767 0
M  V30 13599 C 1290.84 -0.406858 1.55671 0
M  V30 13600 O 1292.03 -0.232329 1.75469 0
M  V30 13601 C 1289.16 -0.146336 3.42988 0
M  V30 13602 C 1288.24 0.81078 4.16278 0
M  V30 13603 N 1288.64 1.96204 4.66195 0
M  V30 13604 C 1286.93 0.628371 4.41551 0
M  V30 13605 C 1287.63 2.56346 5.2217 0
M  V30 13606 N 1286.61 1.8454 5.11318 0
M  V30 13607 H 1290.41 1.40738 2.58012 0
M  V30 13608 H 1287.93 0.864518 1.37477 0
M  V30 13609 H 1289.92 -0.501726 4.1387 0
M  V30 13610 H 1288.58 -1.02029 3.08254 0
M  V30 13611 H 1289.59 2.34255 4.61893 0
M  V30 13612 H 1286.27 -0.198819 4.17026 0
M  V30 13613 H 1287.66 3.53688 5.71274 0
M  V30 13614 N 1290.38 -1.37203 0.775435 0
M  V30 13615 C 1291.34 -2.28566 0.170406 0
M  V30 13616 C 1292.34 -1.48195 -0.624085 0
M  V30 13617 O 1293.53 -1.68364 -0.447132 0
M  V30 13618 C 1290.67 -3.32186 -0.765829 0
M  V30 13619 H 1291.86 -2.8358 0.975824 0
M  V30 13620 H 1289.41 -1.46531 0.543895 0
M  V30 13621 H 1290.15 -2.82303 -1.59611 0
M  V30 13622 H 1289.93 -3.91598 -0.198251 0
M  V30 13623 H 1291.42 -4.0045 -1.18446 0
M  V30 13624 N 1291.86 -0.526279 -1.48553 0
M  V30 13625 C 1292.79 0.227364 -2.3239 0
M  V30 13626 C 1293.77 0.93862 -1.41859 0
M  V30 13627 O 1294.96 0.925119 -1.70749 0
M  V30 13628 C 1292.09 1.277 -3.22971 0
M  V30 13629 C 1291.04 0.684107 -4.22497 0
M  V30 13630 C 1290.37 1.83612 -5.02186 0
M  V30 13631 C 1291.67 -0.341723 -5.21181 0
M  V30 13632 H 1293.36 -0.472486 -2.95648 0
M  V30 13633 H 1290.91 -0.228669 -1.42173 0
M  V30 13634 H 1292.86 1.81215 -3.80446 0
M  V30 13635 H 1291.58 2.00638 -2.57705 0
M  V30 13636 H 1290.24 0.170505 -3.66203 0
M  V30 13637 H 1289.89 2.55379 -4.33348 0
M  V30 13638 H 1289.59 1.44536 -5.69547 0
M  V30 13639 H 1291.11 2.37513 -5.62512 0
M  V30 13640 H 1292.53 0.106207 -5.73202 0
M  V30 13641 H 1290.92 -0.649673 -5.96573 0
M  V30 13642 H 1291.99 -1.2488 -4.68543 0
M  V30 13643 N 1293.34 1.5542 -0.261239 0
M  V30 13644 C 1294.58 2.00312 0.353075 0
M  V30 13645 C 1294.94 1.14642 1.54515 0
M  V30 13646 O 1294.23 0.205242 1.90498 0
M  V30 13647 C 1294.43 3.48354 0.799021 0
M  V30 13648 C 1294.25 4.48349 -0.348302 0
M  V30 13649 C 1293.02 4.98476 -0.827623 0
M  V30 13650 C 1295.22 5.00577 -1.18015 0
M  V30 13651 N 1293.2 5.82245 -1.94586 0
M  V30 13652 C 1294.58 5.81657 -2.14651 0
M  V30 13653 C 1296.63 4.82846 -1.21508 0
M  V30 13654 C 1295.33 6.46898 -3.14508 0
M  V30 13655 C 1297.36 5.48876 -2.20202 0
M  V30 13656 C 1296.72 6.29756 -3.15573 0
M  V30 13657 H 1292.82 0.776238 0.0947564 0
M  V30 13658 H 1295.4 1.90914 -0.382094 0
M  V30 13659 H 1293.58 3.58122 1.50345 0
M  V30 13660 H 1295.31 3.80099 1.3895 0
M  V30 13661 H 1292.06 4.71828 -0.409293 0
M  V30 13662 H 1292.49 6.28824 -2.50817 0
M  V30 13663 H 1297.13 4.19933 -0.491573 0
M  V30 13664 H 1294.85 7.08969 -3.87799 0
M  V30 13665 H 1298.43 5.37105 -2.23629 0
M  V30 13666 H 1297.31 6.79947 -3.90694 0
M  V30 13667 N 1294.82 -0.0116844 1.57596 0
M  V30 13668 C 1296.06 -0.697577 1.89679 0
M  V30 13669 C 1296.38 -1.74956 0.861122 0
M  V30 13670 O 1295.65 -1.95629 -0.103031 0
M  V30 13671 H 1294.23 -0.26064 0.700054 0
M  V30 13672 H 1296.9 0.0264782 1.94882 0
M  V30 13673 H 1295.99 -1.17621 2.89088 0
M  V30 13674 N 1296.29 -1.55015 -0.284256 0
M  V30 13675 C 1297.7 -1.65915 -0.856104 0
M  V30 13676 C 1298.06 -0.578758 -1.8747 0
M  V30 13677 O 1297.18 0.281733 -2.14558 0
M  V30 13678 C 1297.78 -3.0077 -1.55957 0
M  V30 13679 C 1296.33 -3.13735 -2.0796 0
M  V30 13680 C 1295.48 -2.61669 -0.917849 0
M  V30 13681 H 1298.43 -1.58583 -0.0608587 0
M  V30 13682 H 1298.45 -2.9313 -2.42601 0
M  V30 13683 H 1297.97 -3.79382 -0.81798 0
M  V30 13684 H 1296.07 -2.39875 -2.85115 0
M  V30 13685 H 1296.18 -4.20138 -2.30263 0
M  V30 13686 H 1294.54 -2.18542 -1.3081 0
M  V30 13687 H 1295.33 -3.42774 -0.189946 0
M  V30 13688 N 1297.77 0.548248 -1.47757 0
M  V30 13689 C 1298.72 1.65028 -1.57321 0
M  V30 13690 C 1299.71 1.55006 -0.431489 0
M  V30 13691 O 1300.9 1.63337 -0.681919 0
M  V30 13692 C 1298.03 3.0379 -1.59896 0
M  V30 13693 C 1297.11 3.18982 -2.79484 0
M  V30 13694 N 1297.5 3.04208 -4.04093 0
M  V30 13695 C 1295.8 3.50001 -2.76433 0
M  V30 13696 C 1296.5 3.2233 -4.8423 0
M  V30 13697 N 1295.48 3.49073 -4.16712 0
M  V30 13698 H 1299.28 1.52187 -2.51428 0
M  V30 13699 H 1296.79 0.753242 -1.43875 0
M  V30 13700 H 1298.79 3.82928 -1.64839 0
M  V30 13701 H 1297.45 3.17735 -0.668912 0
M  V30 13702 H 1298.46 2.81348 -4.34814 0
M  V30 13703 H 1295.14 3.70418 -1.92606 0
M  V30 13704 H 1296.53 3.15799 -5.9306 0
M  V30 13705 N 1299.25 1.36039 0.795694 0
M  V30 13706 C 1300.47 1.33222 1.58955 0
M  V30 13707 C 1300.9 -0.0854596 1.87906 0
M  V30 13708 O 1300.26 -1.05555 1.47403 0
M  V30 13709 C 1300.31 2.15508 2.89117 0
M  V30 13710 O 1299.41 1.54327 3.82436 0
M  V30 13711 H 1298.75 0.456264 0.48241 0
M  V30 13712 H 1301.28 1.79234 0.986726 0
M  V30 13713 H 1301.29 2.2786 3.38444 0
M  V30 13714 H 1299.97 3.18568 2.67371 0
M  V30 13715 H 1298.54 1.50879 3.41013 0
M  V30 13716 N 1300.73 -1.01913 1.20215 0
M  V30 13717 C 1302.14 -1.27766 0.956459 0
M  V30 13718 C 1302.34 -1.98158 -0.365486 0
M  V30 13719 O 1301.4 -2.27539 -1.09463 0
M  V30 13720 C 1302.71 -2.11516 2.13732 0
M  V30 13721 C 1304.26 -2.24792 2.17802 0
M  V30 13722 C 1304.74 -3.11919 3.35367 0
M  V30 13723 N 1306.23 -3.19507 3.35364 0
M  V30 13724 C 1306.96 -3.8714 4.22978 0
M  V30 13725 N 1306.46 -4.5692 5.20765 0
M  V30 13726 N 1308.25 -3.83638 4.10827 0
M  V30 13727 H 1300.4 -0.546426 2.05251 0
M  V30 13728 H 1302.67 -0.303772 0.898012 0
M  V30 13729 H 1302.37 -1.67127 3.09453 0
M  V30 13730 H 1302.25 -3.12249 2.11614 0
M  V30 13731 H 1304.63 -2.68407 1.22645 0
M  V30 13732 H 1304.71 -1.23576 2.2397 0
M  V30 13733 H 1304.36 -2.6901 4.30809 0
M  V30 13734 H 1304.29 -4.13215 3.26436 0
M  V30 13735 H 1306.78 -2.69819 2.64587 0
M  V30 13736 H 1307.09 -5.06188 5.83947 0
M  V30 13737 H 1305.44 -4.55753 5.24704 0
M  V30 13738 H 1308.63 -3.28268 3.33703 0
M  V30 13739 H 1308.8 -4.36071 4.79318 0
M  V30 13740 N 1302.21 -1.00763 -1.2118 0
M  V30 13741 C 1303.16 -0.541218 -2.21483 0
M  V30 13742 C 1304.14 0.398597 -1.55885 0
M  V30 13743 O 1305.33 0.22302 -1.75589 0
M  V30 13744 C 1302.46 0.128145 -3.43061 0
M  V30 13745 C 1301.55 -0.832845 -4.15842 0
M  V30 13746 N 1301.94 -1.98673 -4.65148 0
M  V30 13747 C 1300.24 -0.651779 -4.41212 0
M  V30 13748 C 1300.94 -2.59112 -5.20803 0
M  V30 13749 N 1299.91 -1.87249 -5.10332 0
M  V30 13750 H 1303.72 -1.42105 -2.57262 0
M  V30 13751 H 1301.23 -0.871796 -1.37016 0
M  V30 13752 H 1303.23 0.479771 -4.1413 0
M  V30 13753 H 1301.89 1.00392 -3.0879 0
M  V30 13754 H 1302.9 -2.36701 -4.60644 0
M  V30 13755 H 1299.57 0.1767 -4.17126 0
M  V30 13756 H 1300.96 -3.56713 -5.69391 0
M  V30 13757 N 1303.68 1.3679 -0.7827 0
M  V30 13758 C 1304.93 1.99023 -0.351316 0
M  V30 13759 C 1305.25 1.62436 1.07887 0
M  V30 13760 O 1304.52 0.895084 1.74256 0
M  V30 13761 H 1303.1 0.736141 -0.126909 0
M  V30 13762 H 1305.77 1.67095 -1.00325 0
M  V30 13763 H 1304.86 3.09015 -0.43774 0
M  V30 13764 N 1305.16 0.53415 1.48272 0
M  V30 13765 C 1306.09 -0.215037 2.32508 0
M  V30 13766 C 1307.07 -0.931083 1.42355 0
M  V30 13767 O 1308.26 -0.916051 1.71237 0
M  V30 13768 C 1305.39 -1.25985 3.23643 0
M  V30 13769 C 1304.34 -0.661692 4.22854 0
M  V30 13770 C 1303.67 -1.80946 5.03153 0
M  V30 13771 C 1304.97 0.369358 5.20992 0
M  V30 13772 H 1306.66 0.488158 2.95394 0
M  V30 13773 H 1304.21 0.236206 1.4205 0
M  V30 13774 H 1306.16 -1.79195 3.81402 0
M  V30 13775 H 1304.89 -1.99268 2.58766 0
M  V30 13776 H 1303.54 -0.151082 3.66289 0
M  V30 13777 H 1303.19 -2.53077 4.34696 0
M  V30 13778 H 1302.89 -1.41513 5.70305 0
M  V30 13779 H 1304.42 -2.34526 5.63764 0
M  V30 13780 H 1305.83 -0.0758076 5.7325 0
M  V30 13781 H 1304.23 0.681301 5.9622 0
M  V30 13782 H 1305.3 1.27363 4.67875 0
M  V30 13783 N 1306.64 -1.55279 0.269478 0
M  V30 13784 C 1308.05 -1.85286 -0.229372 0
M  V30 13785 C 1308.4 -1.19148 -1.55879 0
M  V30 13786 O 1307.53 -0.4778 -2.11059 0
M  V30 13787 C 1308.12 -3.3615 -0.42296 0
M  V30 13788 C 1306.68 -3.66301 -0.866047 0
M  V30 13789 C 1305.83 -2.77265 0.0439028 0
M  V30 13790 H 1308.78 -1.509 0.491427 0
M  V30 13791 H 1308.8 -3.5895 -1.26234 0
M  V30 13792 H 1308.31 -3.84258 0.544768 0
M  V30 13793 H 1306.41 -3.23688 -1.84545 0
M  V30 13794 H 1306.53 -4.73851 -0.707274 0
M  V30 13795 H 1304.89 -2.50299 -0.471433 0
M  V30 13796 H 1305.67 -3.28186 1.00741 0
M  V30 13797 N 1308.12 0.00332656 -1.576 0
M  V30 13798 C 1309.53 0.359361 -1.55502 0
M  V30 13799 C 1309.73 1.74997 -0.998914 0
M  V30 13800 O 1308.79 2.44482 -0.631263 0
M  V30 13801 C 1310.1 0.237638 -2.9976 0
M  V30 13802 C 1311.65 0.312824 -3.11433 0
M  V30 13803 C 1312.13 0.220262 -4.5747 0
M  V30 13804 N 1313.62 0.278265 -4.62363 0
M  V30 13805 C 1314.35 0.229933 -5.72939 0
M  V30 13806 N 1313.85 0.132391 -6.92673 0
M  V30 13807 N 1315.64 0.281555 -5.61394 0
M  V30 13808 H 1307.79 -0.906404 -1.92089 0
M  V30 13809 H 1310.06 -0.347129 -0.88216 0
M  V30 13810 H 1309.76 -0.719007 -3.44272 0
M  V30 13811 H 1309.64 1.02105 -3.63118 0
M  V30 13812 H 1312.02 1.25991 -2.66852 0
M  V30 13813 H 1312.1 -0.500395 -2.50858 0
M  V30 13814 H 1311.75 -0.723267 -5.02724 0
M  V30 13815 H 1311.68 1.05192 -5.15987 0
M  V30 13816 H 1314.17 0.35512 -3.76228 0
M  V30 13817 H 1314.48 0.101317 -7.72734 0
M  V30 13818 H 1312.83 0.0980665 -6.94931 0
M  V30 13819 H 1316.02 0.355931 -4.66745 0
M  V30 13820 H 1316.19 0.240423 -6.47554 0
M  V30 13821 N 1309.6 1.55164 0.276031 0
M  V30 13822 C 1310.51 1.90928 1.36321 0
M  V30 13823 C 1311.52 0.806183 1.54197 0
M  V30 13824 O 1312.7 1.10497 1.68382 0
M  V30 13825 C 1309.76 2.17123 2.70293 0
M  V30 13826 C 1308.82 3.40703 2.6119 0
M  V30 13827 C 1308.06 3.65638 3.88773 0
M  V30 13828 O 1308.28 2.93137 4.89313 0
M  V30 13829 O 1307.21 4.59172 3.89159 0
M  V30 13830 H 1311.04 2.8347 1.08988 0
M  V30 13831 H 1308.63 1.41672 0.474292 0
M  V30 13832 H 1310.51 2.3541 3.49514 0
M  V30 13833 H 1309.18 1.27765 2.97419 0
M  V30 13834 H 1308.09 3.27754 1.80355 0
M  V30 13835 H 1309.42 4.30271 2.39014 0
M  V30 13836 N 1311.07 -0.540404 1.48045 0
M  V30 13837 C 1312.32 -1.29422 1.55224 0
M  V30 13838 C 1312.64 -1.93716 0.223365 0
M  V30 13839 O 1311.91 -1.808 -0.754204 0
M  V30 13840 H 1310.49 -0.480658 0.571819 0
M  V30 13841 H 1313.16 -0.629712 1.84447 0
M  V30 13842 H 1312.25 -2.07897 2.32777 0
M  V30 13843 N 1312.55 -1.36459 -0.788468 0
M  V30 13844 C 1313.78 -1.34063 -1.58246 0
M  V30 13845 C 1314.2 0.0754933 -1.87948 0
M  V30 13846 O 1313.56 1.04772 -1.47961 0
M  V30 13847 C 1313.61 -2.17038 -2.8797 0
M  V30 13848 O 1312.71 -1.56353 -3.81612 0
M  V30 13849 H 1312.05 -0.458816 -0.479983 0
M  V30 13850 H 1314.58 -1.79755 -0.977207 0
M  V30 13851 H 1314.59 -2.29651 -3.3723 0
M  V30 13852 H 1313.27 -3.19981 -2.65678 0
M  V30 13853 H 1311.85 -1.52685 -3.40208 0
M  V30 13854 N 1314.03 1.01274 -1.20754 0
M  V30 13855 C 1315.44 1.56381 -1.0199 0
M  V30 13856 C 1315.79 1.91595 0.422591 0
M  V30 13857 O 1314.92 1.72653 1.3046 0
M  V30 13858 C 1315.51 2.8415 -1.8451 0
M  V30 13859 C 1314.07 3.35772 -1.70101 0
M  V30 13860 C 1313.22 2.0904 -1.82202 0
M  V30 13861 H 1316.17 0.836105 -1.34889 0
M  V30 13862 H 1316.19 3.55717 -1.35076 0
M  V30 13863 H 1315.7 2.5849 -2.8949 0
M  V30 13864 H 1313.8 3.66384 -0.677732 0
M  V30 13865 H 1313.92 4.07714 -2.51607 0
M  V30 13866 H 1312.28 2.21675 -1.25429 0
M  V30 13867 H 1313.06 1.858 -2.88675 0
M  V30 13868 N 1315.51 1.01404 1.20644 0
M  V30 13869 C 1316.73 0.720839 1.9447 0
M  V30 13870 C 1317.16 -0.711711 1.74116 0
M  V30 13871 O 1316.52 -1.48938 1.03379 0
M  V30 13872 C 1316.57 1.05864 3.4471 0
M  V30 13873 O 1315.67 0.168901 4.12054 0
M  V30 13874 H 1315.01 0.267698 0.607646 0
M  V30 13875 H 1317.54 1.35672 1.53147 0
M  V30 13876 H 1317.55 1.00928 3.9532 0
M  V30 13877 H 1316.23 2.1024 3.58848 0
M  V30 13878 H 1314.8 0.275572 3.7188 0
M  V30 13879 N 1316.99 -1.36373 0.789944 0
M  V30 13880 C 1318.26 -1.9349 0.286543 0
M  V30 13881 C 1318.64 -1.7218 -1.22136 0
M  V30 13882 O 1317.99 -1.08106 -2.01309 0
M  V30 13883 C 1318.2 -3.42316 0.679749 0
M  V30 13884 C 1319.55 -4.19442 0.659791 0
M  V30 13885 O 1320.57 -3.50758 0.620256 0
M  V30 13886 O 1319.43 -5.41957 0.703159 0
M  V30 13887 H 1316.53 -0.823942 0.0710537 0
M  V30 13888 H 1319.07 -1.45551 0.872523 0
M  V30 13889 H 1317.85 -3.51485 1.7197 0
M  V30 13890 H 1317.47 -3.97542 0.0676823 0
M  V30 13891 N 1318.47 -0.542005 -1.47987 0
M  V30 13892 C 1319.69 -0.0146835 -2.07395 0
M  V30 13893 C 1320.12 1.26266 -1.39422 0
M  V30 13894 O 1319.47 1.75259 -0.464118 0
M  V30 13895 C 1319.52 0.179937 -3.60151 0
M  V30 13896 O 1318.63 1.24596 -3.93128 0
M  V30 13897 H 1317.97 -0.0445076 -0.662507 0
M  V30 13898 H 1320.5 -0.753352 -1.90226 0
M  V30 13899 H 1320.51 0.398876 -4.06046 0
M  V30 13900 H 1319.18 -0.753093 -4.09025 0
M  V30 13901 H 1317.76 1.00872 -3.58997 0
M  V30 13902 N 1319.94 1.55134 -0.277709 0
M  V30 13903 C 1321.22 1.91667 0.390253 0
M  V30 13904 C 1321.6 1.20228 1.73518 0
M  V30 13905 O 1320.95 0.330013 2.26104 0
M  V30 13906 C 1321.16 3.44983 0.52797 0
M  V30 13907 C 1322.51 4.16809 0.809665 0
M  V30 13908 O 1323.53 3.50891 0.612679 0
M  V30 13909 O 1322.39 5.33463 1.18656 0
M  V30 13910 H 1319.48 0.798807 0.214095 0
M  V30 13911 H 1322.03 1.66577 -0.324053 0
M  V30 13912 H 1320.8 3.89056 -0.418422 0
M  V30 13913 H 1320.42 3.76035 1.29164 0
M  V30 13914 N 1321.42 0.00503138 1.57599 0
M  V30 13915 C 1322.7 -0.716079 1.82021 0
M  V30 13916 C 1323.08 -1.91707 0.883829 0
M  V30 13917 O 1322.43 -2.28404 -0.0662812 0
M  V30 13918 C 1322.64 -1.11706 3.3064 0
M  V30 13919 C 1323.98 -1.51881 3.96506 0
M  V30 13920 O 1325.01 -1.21071 3.34993 0
M  V30 13921 O 1323.87 -2.09191 5.04877 0
M  V30 13922 H 1320.96 -0.349112 0.7497 0
M  V30 13923 H 1323.51 0.030871 1.69672 0
M  V30 13924 H 1322.28 -0.261223 3.90427 0
M  V30 13925 H 1321.9 -1.92295 3.48006 0
M  V30 13926 N 1322.9 -1.55308 -0.267798 0
M  V30 13927 C 1323.85 -1.88544 -1.33115 0
M  V30 13928 C 1324.82 -0.737465 -1.48831 0
M  V30 13929 O 1326 -0.989215 -1.63154 0
M  V30 13930 C 1323.14 -2.1674 -2.68547 0
M  V30 13931 C 1322.25 -3.44234 -2.61011 0
M  V30 13932 C 1321.39 -3.62104 -3.88657 0
M  V30 13933 C 1320.43 -4.83272 -3.75652 0
M  V30 13934 N 1319.57 -4.97772 -4.95144 0
M  V30 13935 H 1324.41 -2.79237 -1.04071 0
M  V30 13936 H 1321.94 -1.38245 -0.502677 0
M  V30 13937 H 1323.9 -2.31088 -3.47353 0
M  V30 13938 H 1322.53 -1.29276 -2.95783 0
M  V30 13939 H 1321.58 -3.3833 -1.73887 0
M  V30 13940 H 1322.89 -4.33177 -2.47303 0
M  V30 13941 H 1322.05 -3.76298 -4.75904 0
M  V30 13942 H 1320.79 -2.71356 -4.05238 0
M  V30 13943 H 1319.79 -4.69076 -2.86788 0
M  V30 13944 H 1321.02 -5.75461 -3.60585 0
M  V30 13945 H 1318.96 -4.09956 -5.12125 0
M  V30 13946 H 1318.88 -5.80769 -4.83987 0
M  V30 13947 H 1320.15 -5.16357 -5.83949 0
M  V30 13948 N 1324.38 0.532545 -1.4833 0
M  V30 13949 C 1325.62 1.29902 -1.57812 0
M  V30 13950 C 1325.98 1.90427 -0.245283 0
M  V30 13951 O 1327.18 2.67938 -0.215083 0
M  V30 13952 C 1325.45 2.36119 -2.68296 0
M  V30 13953 S 1327.01 3.22526 -2.97527 0
M  V30 13954 H 1323.83 0.441908 -0.55699 0
M  V30 13955 H 1326.43 0.606983 -1.85839 0
M  V30 13956 H 1325.14 1.90131 -3.63701 0
M  V30 13957 H 1324.67 3.10033 -2.42163 0
M  V30 13958 H 1326.68 4.36144 -2.36628 0
M  V30 13959 N 1325.86 1.36875 0.78122 0
M  V30 13960 C 1326.79 1.27738 1.90304 0
M  V30 13961 C 1327.8 0.195147 1.61626 0
M  V30 13962 O 1328.99 0.450531 1.72721 0
M  V30 13963 C 1326.09 0.950103 3.25309 0
M  V30 13964 C 1325.26 2.13589 3.81705 0
M  V30 13965 C 1324.32 1.78037 4.95166 0
M  V30 13966 O 1323.35 2.50223 5.11251 0
M  V30 13967 N 1324.55 0.718886 5.76031 0
M  V30 13968 H 1327.31 2.24397 1.98661 0
M  V30 13969 H 1324.88 1.30376 0.959883 0
M  V30 13970 H 1326.87 0.693286 3.98717 0
M  V30 13971 H 1325.44 0.0723849 3.12516 0
M  V30 13972 H 1324.66 2.55502 3.00187 0
M  V30 13973 H 1325.95 2.9279 4.16114 0
M  V30 13974 H 1325.34 0.119681 5.65573 0
M  V30 13975 H 1323.9 0.521909 6.49707 0
M  V30 13976 O 1327.37 -0.920996 1.32665 0
M  V30 13977 H 1328.06 -1.55371 1.1567 0
M  V30 END ATOM
M  V30 BEGIN BOND
M  V30 END BOND
M  V30 END CTAB
M  END
$$$$
