drugbank_target|P40859 Monomeric sarcosine oxidase (DB01918; DB02083; DB02543; DB03098; DB03147; DB03366; DB03517)
 OpenBabel12092119523D

  0  0  0     0  0            999 V3000
M  V30 BEGIN CTAB
M  V30 COUNTS 6006 6081 0 0 0
M  V30 BEGIN ATOM
M  V30 1 H -0.908 1.98254 -0.117106 0
M  V30 2 N 0 1.576 0 0
M  V30 3 C 0.933 2.03868 1.02534 0
M  V30 4 C 1.911 0.928543 1.3348 0
M  V30 5 O 3.095 1.19667 1.45644 0
M  V30 6 C 0.222 2.43627 2.35294 0
M  V30 7 C -0.732 3.65373 2.2001 0
M  V30 8 S 0.101 5.13292 1.52614 0
M  V30 9 C 1.257 5.56322 2.86805 0
M  V30 10 H 1.49 2.90518 0.631377 0
M  V30 11 H -0.977 1.52953 0.210867 0
M  V30 12 H 0.981 2.67203 3.11629 0
M  V30 13 H -0.358 1.57376 2.7183 0
M  V30 14 H -1.165 3.90944 3.18086 0
M  V30 15 H -1.563 3.418 1.51819 0
M  V30 16 H 0.729 5.58782 3.83104 0
M  V30 17 H 1.672 6.56266 2.65933 0
M  V30 18 H 2.08 4.83886 2.90714 0
M  V30 19 N 1.4781 -0.272755 1.55222 0
M  V30 20 C 2.7031 -1.02683 1.80197 0
M  V30 21 C 3.1281 -1.79142 0.573551 0
M  V30 22 O 2.4861 -1.74917 -0.476849 0
M  V30 23 C 2.5341 -1.9609 3.02624 0
M  V30 24 O 1.6381 -3.04863 2.77727 0
M  V30 25 H 0.9791 -0.293557 0.595584 0
M  V30 26 H 3.5091 -0.30159 2.02365 0
M  V30 27 H 3.5191 -2.38039 3.31363 0
M  V30 28 H 2.1941 -1.39851 3.91682 0
M  V30 29 H 0.7711 -2.67228 2.60084 0
M  V30 30 N 2.9562 -1.48159 -0.537278 0
M  V30 31 C 4.1842 -1.59454 -1.31841 0
M  V30 32 C 4.5992 -0.252065 -1.8711 0
M  V30 33 O 3.9562 0.757621 -1.66031 0
M  V30 34 C 4.0072 -2.63546 -2.47439 0
M  V30 35 O 3.7282 -3.92583 -1.94449 0
M  V30 36 C 5.2292 -2.85212 -3.39366 0
M  V30 37 H 2.4492 -0.53785 -0.401196 0
M  V30 38 H 4.9932 -1.93932 -0.648891 0
M  V30 39 H 3.1482 -2.31946 -3.1029 0
M  V30 40 H 3.5622 -4.49629 -2.70063 0
M  V30 41 H 5.0362 -3.61863 -4.16844 0
M  V30 42 H 5.5132 -1.93765 -3.94147 0
M  V30 43 H 6.1192 -3.18086 -2.82314 0
M  V30 44 N 4.4343 0.785586 -1.36625 0
M  V30 45 C 5.3843 1.88822 -1.27789 0
M  V30 46 C 6.3683 1.60014 -0.168579 0
M  V30 47 O 7.5603 1.72381 -0.401737 0
M  V30 48 C 4.6893 3.26092 -1.07327 0
M  V30 49 C 3.7753 3.60897 -2.22743 0
M  V30 50 N 4.1663 3.66982 -3.48077 0
M  V30 51 C 2.4643 3.90981 -2.14593 0
M  V30 52 C 3.1653 3.98137 -4.24101 0
M  V30 53 N 2.1413 4.13319 -3.53084 0
M  V30 54 H 5.9433 1.91759 -2.22723 0
M  V30 55 H 3.4573 0.981311 -1.29399 0
M  V30 56 H 5.4543 4.04954 -0.990842 0
M  V30 57 H 4.1143 3.24428 -0.132977 0
M  V30 58 H 5.1253 3.49531 -3.82163 0
M  V30 59 H 1.8023 3.9722 -1.2854 0
M  V30 60 H 3.1923 4.09737 -5.32509 0
M  V30 61 N 5.9124 1.20967 1.01018 0
M  V30 62 C 7.1594 1.02374 1.74716 0
M  V30 63 C 7.4874 -0.443375 1.89379 0
M  V30 64 O 6.7424 -1.34535 1.42123 0
M  V30 65 C 7.0414 1.65997 3.16512 0
M  V30 66 C 6.7074 3.15831 3.2181 0
M  V30 67 C 5.3694 3.56719 3.22963 0
M  V30 68 C 7.7214 4.11816 3.19464 0
M  V30 69 C 5.0494 4.92107 3.19449 0
M  V30 70 C 7.4014 5.47158 3.17491 0
M  V30 71 C 6.0654 5.87451 3.16951 0
M  V30 72 H 5.3354 0.374614 0.639332 0
M  V30 73 H 7.9824 1.50485 1.18434 0
M  V30 74 H 6.2874 1.10166 3.75993 0
M  V30 75 H 7.9844 1.49119 3.72242 0
M  V30 76 H 4.5744 2.83263 3.21652 0
M  V30 77 H 8.7584 3.81257 3.17737 0
M  V30 78 H 4.0144 5.22579 3.17366 0
M  V30 79 H 8.1884 6.21274 3.14629 0
M  V30 80 H 5.8154 6.92329 3.13983 0
M  V30 81 N 7.3905 -1.2043 1.01659 0
M  V30 82 C 8.6675 -1.8548 0.621004 0
M  V30 83 C 9.0475 -1.9091 -0.900919 0
M  V30 84 O 8.3955 -1.41694 -1.79263 0
M  V30 85 C 8.6055 -3.25119 1.2688 0
M  V30 86 C 9.9535 -4.01403 1.38423 0
M  V30 87 O 10.9775 -3.34473 1.22501 0
M  V30 88 O 9.8365 -5.21265 1.64151 0
M  V30 89 H 6.9305 -0.798761 0.214266 0
M  V30 90 H 9.4765 -1.28019 1.11396 0
M  V30 91 H 8.2485 -3.15932 2.30873 0
M  V30 92 H 7.8715 -3.90212 0.762917 0
M  V30 93 N 8.8686 -0.792821 -1.36206 0
M  V30 94 C 10.1146 -0.36733 -1.99446 0
M  V30 95 C 10.4476 1.05917 -1.62774 0
M  V30 96 O 9.7226 1.7324 -0.88421 0
M  V30 97 C 10.0056 -0.535044 -3.56103 0
M  V30 98 C 9.8586 -2.00548 -4.02617 0
M  V30 99 C 11.1776 0.0478191 -4.40074 0
M  V30 100 H 8.2966 -0.134941 -0.724541 0
M  V30 101 H 10.9386 -0.999794 -1.61568 0
M  V30 102 H 9.0886 0.00336329 -3.885 0
M  V30 103 H 10.7606 -2.60521 -3.80692 0
M  V30 104 H 9.0036 -2.50686 -3.54032 0
M  V30 105 H 9.6746 -2.07377 -5.11565 0
M  V30 106 H 12.1506 -0.411822 -4.14057 0
M  V30 107 H 11.0266 -0.0995336 -5.4881 0
M  V30 108 H 11.2876 1.14025 -4.27142 0
M  V30 109 N 10.3467 1.47872 -0.545128 0
M  V30 110 C 11.5957 2.01695 -0.0145033 0
M  V30 111 C 11.9087 1.42609 1.33873 0
M  V30 112 O 13.1147 1.88021 1.95858 0
M  V30 113 C 11.5707 3.59892 0.0245068 0
M  V30 114 C 11.1787 4.27966 -1.32475 0
M  V30 115 C 12.9227 4.21507 0.50316 0
M  V30 116 C 10.8297 5.78136 -1.2455 0
M  V30 117 H 9.7597 0.753998 -0.00165172 0
M  V30 118 H 12.4107 1.69985 -0.691175 0
M  V30 119 H 10.7927 3.88509 0.766575 0
M  V30 120 H 11.9667 4.11003 -2.08357 0
M  V30 121 H 10.2817 3.78286 -1.74036 0
M  V30 122 H 12.8787 5.31538 0.580656 0
M  V30 123 H 13.2217 3.87855 1.51243 0
M  V30 124 H 13.7547 3.97376 -0.183681 0
M  V30 125 H 10.4937 6.16388 -2.23039 0
M  V30 126 H 10.0137 5.97469 -0.528282 0
M  V30 127 H 11.6927 6.40099 -0.942488 0
M  V30 128 N 11.8248 0.280983 1.55075 0
M  V30 129 C 13.0708 -0.33461 2.00021 0
M  V30 130 C 13.4038 -1.55063 1.16915 0
M  V30 131 O 12.6788 -1.93006 0.240646 0
M  V30 132 C 12.9618 -0.711007 3.53011 0
M  V30 133 C 12.8148 0.512766 4.46868 0
M  V30 134 C 14.1338 -1.54522 4.12081 0
M  V30 135 H 11.2528 -0.120147 0.727141 0
M  V30 136 H 13.8948 0.389097 1.85973 0
M  V30 137 H 12.0448 -1.32761 3.65112 0
M  V30 138 H 13.7168 1.15131 4.46702 0
M  V30 139 H 11.9598 1.14975 4.18286 0
M  V30 140 H 12.6308 0.205556 5.51617 0
M  V30 141 H 15.1068 -1.02442 4.03293 0
M  V30 142 H 13.9828 -1.77739 5.19327 0
M  V30 143 H 14.2438 -2.52813 3.62682 0
M  V30 144 N 13.3029 -1.57598 0.00835791 0
M  V30 145 C 14.5489 -1.91211 -0.675732 0
M  V30 146 C 14.8819 -0.883139 -1.72958 0
M  V30 147 O 14.1569 0.097016 -1.94258 0
M  V30 148 C 14.4399 -3.35379 -1.31123 0
M  V30 149 C 14.2929 -4.48999 -0.268356 0
M  V30 150 C 15.6119 -3.7912 -2.23508 0
M  V30 151 H 12.7309 -0.695374 -0.244179 0
M  V30 152 H 15.3729 -1.89901 0.0613655 0
M  V30 153 H 13.5229 -3.36626 -1.93946 0
M  V30 154 H 15.1949 -4.59887 0.360844 0
M  V30 155 H 13.4379 -4.31873 0.408482 0
M  V30 156 H 14.1089 -5.46851 -0.752218 0
M  V30 157 H 16.5849 -3.79477 -1.70693 0
M  V30 158 H 15.4609 -4.80729 -2.64936 0
M  V30 159 H 15.7219 -3.13455 -3.11766 0
M  V30 160 N 14.781 0.264519 -1.55364 0
M  V30 161 C 16.029 0.993021 -1.76021 0
M  V30 162 C 16.35 1.86511 -0.569099 0
M  V30 163 O 15.62 1.91438 0.415735 0
M  V30 164 H 14.2 0.369639 -0.649135 0
M  V30 165 H 16.862 0.286707 -1.9278 0
M  V30 166 H 15.958 1.62502 -2.66457 0
M  V30 167 N 16.2591 1.48442 0.529413 0
M  V30 168 C 17.2221 1.62524 1.61612 0
M  V30 169 C 18.2221 0.498509 1.52877 0
M  V30 170 O 19.4121 0.76431 1.56537 0
M  V30 171 C 16.5441 1.59597 3.01233 0
M  V30 172 H 17.7371 2.59423 1.50465 0
M  V30 173 H 15.2901 1.37047 0.751514 0
M  V30 174 H 16.0251 0.641781 3.17886 0
M  V30 175 H 15.8101 2.41397 3.08982 0
M  V30 176 H 17.3001 1.72646 3.80241 0
M  V30 177 N 17.7372 -0.778329 1.37039 0
M  V30 178 C 18.9852 -1.53361 1.31623 0
M  V30 179 C 19.3062 -1.94739 -0.100831 0
M  V30 180 O 18.5762 -1.65797 -1.04347 0
M  V30 181 H 17.1562 -0.568794 0.484234 0
M  V30 182 H 19.8182 -0.926742 1.71457 0
M  V30 183 H 18.9142 -2.43606 1.95096 0
M  V30 184 N 19.2153 -1.21501 -1.00376 0
M  V30 185 C 20.4403 -1.05977 -1.78279 0
M  V30 186 C 20.8653 0.385994 -1.84097 0
M  V30 187 O 20.2233 1.27849 -1.28547 0
M  V30 188 C 20.2713 -1.66302 -3.19963 0
M  V30 189 O 19.3753 -0.909333 -4.0225 0
M  V30 190 H 18.7163 -0.372906 -0.549397 0
M  V30 191 H 21.2463 -1.6107 -1.26165 0
M  V30 192 H 21.2563 -1.70574 -3.70632 0
M  V30 193 H 19.9313 -2.71515 -3.15043 0
M  V30 194 H 18.5083 -0.941795 -3.60811 0
M  V30 195 N 20.6934 1.19889 -1.02296 0
M  V30 196 C 21.6264 2.21639 -0.543282 0
M  V30 197 C 22.6044 1.57275 0.412698 0
M  V30 198 O 23.7884 1.85568 0.331198 0
M  V30 199 C 20.9154 3.38057 0.208571 0
M  V30 200 C 19.9614 4.20751 -0.697933 0
M  V30 201 S 20.7944 4.89529 -2.17075 0
M  V30 202 C 21.9504 6.09363 -1.42923 0
M  V30 203 H 22.1834 2.61984 -1.40541 0
M  V30 204 H 19.7164 1.30041 -0.832387 0
M  V30 205 H 21.6744 4.05539 0.63624 0
M  V30 206 H 20.3354 2.96159 1.04635 0
M  V30 207 H 19.5284 5.03862 -0.117831 0
M  V30 208 H 19.1304 3.58556 -1.06366 0
M  V30 209 H 21.4224 6.73742 -0.712637 0
M  V30 210 H 22.3654 6.71845 -2.23673 0
M  V30 211 H 22.7734 5.56798 -0.929327 0
M  V30 212 N 22.1715 0.800033 1.35784 0
M  V30 213 C 23.4195 0.376597 1.9856 0
M  V30 214 C 23.7405 -1.05812 1.63795 0
M  V30 215 O 23.0105 -1.73103 0.917171 0
M  V30 216 H 21.5905 0.136261 0.734467 0
M  V30 217 H 24.2525 1.02442 1.65806 0
M  V30 218 H 23.3485 0.477002 3.08433 0
M  V30 219 N 23.6496 -1.47581 0.552962 0
M  V30 220 C 24.5826 -2.26883 -0.244857 0
M  V30 221 C 25.5606 -1.33784 -0.924147 0
M  V30 222 O 26.7446 -1.6316 -0.943981 0
M  V30 223 C 23.8716 -3.10695 -1.34856 0
M  V30 224 C 22.9176 -4.19339 -0.778268 0
M  V30 225 S 23.7506 -5.34207 0.37184 0
M  V30 226 C 24.9066 -6.21584 -0.733779 0
M  V30 227 H 25.1396 -2.94202 0.428087 0
M  V30 228 H 22.6726 -1.50628 0.339197 0
M  V30 229 H 24.6306 -3.59555 -1.98066 0
M  V30 230 H 23.2916 -2.42746 -1.99332 0
M  V30 231 H 22.4846 -4.77695 -1.60696 0
M  V30 232 H 22.0866 -3.73338 -0.222422 0
M  V30 233 H 24.3786 -6.57676 -1.62692 0
M  V30 234 H 25.3216 -7.07851 -0.187668 0
M  V30 235 H 25.7296 -5.55125 -1.02454 0
M  V30 236 N 25.1277 -0.289203 -1.54924 0
M  V30 237 C 26.0907 0.579144 -2.21762 0
M  V30 238 C 27.0907 1.07047 -1.1999 0
M  V30 239 O 28.2807 0.968384 -1.44803 0
M  V30 240 C 25.4127 1.80055 -2.8947 0
M  V30 241 H 26.6057 -0.00464908 -2.999 0
M  V30 242 H 24.1587 -0.0399306 -1.56249 0
M  V30 243 H 24.8937 2.42449 -2.15381 0
M  V30 244 H 24.6787 1.45602 -3.64064 0
M  V30 245 H 26.1687 2.41773 -3.40493 0
M  V30 246 N 26.6058 1.57591 -0.0167156 0
M  V30 247 C 27.5688 2.08393 0.954204 0
M  V30 248 C 28.5688 0.996531 1.26198 0
M  V30 249 O 29.7588 1.25858 1.20438 0
M  V30 250 C 26.8908 2.5394 2.27436 0
M  V30 251 H 28.0838 2.95455 0.514451 0
M  V30 252 H 25.6368 1.54582 0.231089 0
M  V30 253 H 26.3718 1.70171 2.76066 0
M  V30 254 H 26.1568 3.33371 2.06412 0
M  V30 255 H 27.6468 2.93512 2.97053 0
M  V30 256 N 28.0839 -0.256276 1.55502 0
M  V30 257 C 29.3319 -0.983672 1.76545 0
M  V30 258 C 29.6529 -1.86206 0.578982 0
M  V30 259 O 28.9229 -1.91656 -0.405577 0
M  V30 260 H 27.5029 -0.366191 0.651086 0
M  V30 261 H 30.1649 -0.276479 1.92929 0
M  V30 262 H 29.2609 -1.61087 2.67315 0
M  V30 263 N 29.562 -1.4872 -0.521534 0
M  V30 264 C 30.792 -1.6061 -1.29954 0
M  V30 265 C 31.2 -0.268728 -1.87282 0
M  V30 266 O 30.543 0.753221 -1.67548 0
M  V30 267 C 30.605 -2.60013 -2.48261 0
M  V30 268 C 30.269 -4.04874 -2.11957 0
M  V30 269 C 31.266 -4.92304 -1.67132 0
M  V30 270 C 28.951 -4.5047 -2.22221 0
M  V30 271 C 30.945 -6.2336 -1.33047 0
M  V30 272 C 28.632 -5.81544 -1.87748 0
M  V30 273 C 29.63 -6.67812 -1.43234 0
M  V30 274 O 29.318 -7.96446 -1.09217 0
M  V30 275 H 29.05 -0.544116 -0.401141 0
M  V30 276 H 31.604 -1.95339 -0.634958 0
M  V30 277 H 29.834 -2.20422 -3.17728 0
M  V30 278 H 31.523 -2.61648 -3.10315 0
M  V30 279 H 32.289 -4.58312 -1.58665 0
M  V30 280 H 28.168 -3.83504 -2.55823 0
M  V30 281 H 31.712 -6.90649 -0.982299 0
M  V30 282 H 27.609 -6.15069 -1.95858 0
M  V30 283 H 28.377 -8.09275 -1.22542 0
M  V30 284 N 31.0401 0.771051 -1.3745 0
M  V30 285 C 31.9721 1.89352 -1.29146 0
M  V30 286 C 32.9851 1.61477 -0.207124 0
M  V30 287 O 34.1741 1.72382 -0.463324 0
M  V30 288 C 31.2741 3.24596 -0.974195 0
M  V30 289 C 30.4471 3.80111 -2.16413 0
M  V30 290 C 29.5061 4.93832 -1.81703 0
M  V30 291 O 28.5321 5.09382 -2.54006 0
M  V30 292 N 29.7341 5.75483 -0.761573 0
M  V30 293 H 32.4991 1.96991 -2.25864 0
M  V30 294 H 30.0601 0.950191 -1.31084 0
M  V30 295 H 32.0521 3.98193 -0.722828 0
M  V30 296 H 30.6221 3.12454 -0.0955527 0
M  V30 297 H 29.8421 2.98284 -2.57721 0
M  V30 298 H 31.1301 4.13932 -2.95867 0
M  V30 299 H 30.5281 5.65469 -0.161609 0
M  V30 300 H 29.0851 6.49302 -0.570064 0
M  V30 301 N 32.5182 1.22032 0.997298 0
M  V30 302 C 33.4482 1.01065 2.10495 0
M  V30 303 C 34.4292 -0.0669542 1.69968 0
M  V30 304 O 35.6142 0.0943987 1.9397 0
M  V30 305 C 32.7442 0.582874 3.42374 0
M  V30 306 C 31.6982 1.60592 3.96729 0
M  V30 307 C 31.0242 1.03412 5.24605 0
M  V30 308 C 32.3242 2.99478 4.27914 0
M  V30 309 H 34.0182 1.93708 2.28292 0
M  V30 310 H 31.5642 0.932761 1.09707 0
M  V30 311 H 33.5172 0.423332 4.19268 0
M  V30 312 H 32.2412 -0.379213 3.24391 0
M  V30 313 H 30.9002 1.75316 3.21963 0
M  V30 314 H 30.5482 0.063518 5.0296 0
M  V30 315 H 30.2482 1.71754 5.61938 0
M  V30 316 H 31.7722 0.886066 6.04137 0
M  V30 317 H 33.1862 2.88153 4.95622 0
M  V30 318 H 31.5832 3.64903 4.76409 0
M  V30 319 H 32.6532 3.49742 3.3587 0
M  V30 320 N 33.9963 -1.19345 1.0293 0
M  V30 321 C 34.9593 -2.20793 0.615069 0
M  V30 322 C 35.9593 -1.57553 -0.321533 0
M  V30 323 O 37.1493 -1.73862 -0.108483 0
M  V30 324 C 34.2813 -3.40754 -0.0999222 0
M  V30 325 H 35.4743 -2.58955 1.51269 0
M  V30 326 H 33.0273 -1.3303 0.820534 0
M  V30 327 H 33.7623 -3.0811 -1.01187 0
M  V30 328 H 33.5473 -3.87889 0.57309 0
M  V30 329 H 35.0373 -4.15898 -0.376645 0
M  V30 330 N 35.4744 -0.807222 -1.35358 0
M  V30 331 C 36.4214 -0.216037 -2.29787 0
M  V30 332 C 37.3914 0.650278 -1.52842 0
M  V30 333 O 38.5764 0.595227 -1.81278 0
M  V30 334 C 35.7164 0.628893 -3.39321 0
M  V30 335 C 34.8294 -0.257927 -4.31229 0
M  V30 336 C 33.9644 0.595069 -5.27856 0
M  V30 337 C 33.0034 -0.292111 -6.11403 0
M  V30 338 N 32.1404 0.520895 -7.00165 0
M  V30 339 H 36.9804 -1.02671 -2.79755 0
M  V30 340 H 34.5174 -0.517839 -1.37684 0
M  V30 341 H 36.4754 1.13393 -4.01494 0
M  V30 342 H 35.1054 1.40482 -2.90628 0
M  V30 343 H 34.1574 -0.881076 -3.70056 0
M  V30 344 H 35.4694 -0.940759 -4.89848 0
M  V30 345 H 34.6234 1.16522 -5.95405 0
M  V30 346 H 33.3624 1.31146 -4.69736 0
M  V30 347 H 32.3674 -0.874525 -5.428 0
M  V30 348 H 33.5924 -1.00638 -6.71602 0
M  V30 349 H 31.5384 1.22125 -6.44532 0
M  V30 350 H 31.4554 -0.103877 -7.55929 0
M  V30 351 H 32.7234 1.0743 -7.72062 0
M  V30 352 N 36.9525 1.47285 -0.560781 0
M  V30 353 C 37.8845 2.28118 0.222438 0
M  V30 354 C 38.8975 1.37219 0.876056 0
M  V30 355 O 40.0865 1.62011 0.749307 0
M  V30 356 C 37.1865 3.1159 1.33285 0
M  V30 357 C 36.3595 4.30473 0.77534 0
M  V30 358 C 35.4185 4.95513 1.77069 0
M  V30 359 O 34.4445 5.53792 1.31539 0
M  V30 360 N 35.6465 4.90531 3.10418 0
M  V30 361 H 38.4115 2.95976 -0.470958 0
M  V30 362 H 35.9725 1.56955 -0.39709 0
M  V30 363 H 37.9645 3.51967 1.99752 0
M  V30 364 H 36.5345 2.45951 1.92943 0
M  V30 365 H 35.7545 3.94144 -0.0662113 0
M  V30 366 H 37.0425 5.07362 0.382272 0
M  V30 367 H 36.4405 4.44389 3.5005 0
M  V30 368 H 34.9975 5.34917 3.72434 0
M  V30 369 N 38.4306 0.297415 1.54768 0
M  V30 370 C 39.6786 -0.312295 1.99673 0
M  V30 371 C 39.9996 -1.54686 1.18732 0
M  V30 372 O 39.2696 -1.93854 0.282382 0
M  V30 373 H 37.8496 -0.118381 0.73756 0
M  V30 374 H 40.5116 0.407915 1.90583 0
M  V30 375 H 39.6076 -0.586813 3.06534 0
M  V30 376 N 39.9087 -1.5758 0.0250728 0
M  V30 377 C 41.1547 -1.91917 -0.655413 0
M  V30 378 C 41.4877 -0.901433 -1.72011 0
M  V30 379 O 40.7627 0.0764069 -1.9435 0
M  V30 380 C 41.0457 -3.36751 -1.27558 0
M  V30 381 C 40.8987 -4.49258 -0.220719 0
M  V30 382 C 42.2177 -3.81469 -2.19475 0
M  V30 383 H 39.3367 -0.697925 -0.23679 0
M  V30 384 H 41.9787 -1.89825 0.0815036 0
M  V30 385 H 40.1287 -3.38664 -1.90365 0
M  V30 386 H 41.8007 -4.59478 0.409601 0
M  V30 387 H 40.0437 -4.31415 0.454264 0
M  V30 388 H 40.7147 -5.47618 -0.694175 0
M  V30 389 H 43.1907 -3.81266 -1.66659 0
M  V30 390 H 42.0667 -4.83512 -2.59822 0
M  V30 391 H 42.3277 -3.16744 -3.08424 0
M  V30 392 N 41.3868 0.248026 -1.55636 0
M  V30 393 C 42.3338 1.30707 -1.90222 0
M  V30 394 C 43.3038 1.47881 -0.756332 0
M  V30 395 O 44.4888 1.61883 -1.00988 0
M  V30 396 C 41.6288 2.65769 -2.20138 0
M  V30 397 C 40.7418 2.56612 -3.47526 0
M  V30 398 C 39.8768 3.8402 -3.67017 0
M  V30 399 C 38.9158 3.69476 -4.8801 0
M  V30 400 N 38.0528 4.88774 -5.04029 0
M  V30 401 H 42.8928 1.00512 -2.80538 0
M  V30 402 H 40.4298 0.485055 -1.38873 0
M  V30 403 H 42.3878 3.44386 -2.35487 0
M  V30 404 H 41.0178 2.94115 -1.33027 0
M  V30 405 H 40.0698 1.69571 -3.40514 0
M  V30 406 H 41.3818 2.41774 -4.36287 0
M  V30 407 H 40.5358 4.7108 -3.8232 0
M  V30 408 H 39.2748 4.01754 -2.76487 0
M  V30 409 H 38.2798 2.80799 -4.72686 0
M  V30 410 H 39.5048 3.53238 -5.8 0
M  V30 411 H 37.4508 5.0687 -4.16435 0
M  V30 412 H 37.3678 4.76562 -5.86877 0
M  V30 413 H 38.6358 5.77335 -5.23741 0
M  V30 414 N 42.8649 1.48995 0.513639 0
M  V30 415 C 44.0929 1.61531 1.29288 0
M  V30 416 C 44.5079 0.281801 1.86685 0
M  V30 417 O 43.8649 -0.731111 1.67215 0
M  V30 418 C 43.9159 2.67449 2.43215 0
M  V30 419 O 43.6369 3.95626 1.88179 0
M  V30 420 C 45.1379 2.90575 3.34785 0
M  V30 421 H 42.3579 0.544165 0.392588 0
M  V30 422 H 44.9019 1.9494 0.617956 0
M  V30 423 H 43.0569 2.36853 3.0656 0
M  V30 424 H 43.4709 4.53868 2.62876 0
M  V30 425 H 44.9449 3.68449 4.11035 0
M  V30 426 H 45.4219 2.00011 3.91015 0
M  V30 427 H 46.0279 3.22538 2.77218 0
M  V30 428 N 44.343 -0.763751 1.37857 0
M  V30 429 C 45.273 -1.89103 1.36975 0
M  V30 430 C 46.254 -1.68439 0.237152 0
M  V30 431 O 47.439 -1.8918 0.438713 0
M  V30 432 C 44.569 -3.26496 1.18395 0
M  V30 433 C 43.523 -3.61741 2.28751 0
M  V30 434 C 42.849 -4.97762 1.95286 0
M  V30 435 C 44.149 -3.67665 3.70972 0
M  V30 436 H 45.843 -1.90099 2.31307 0
M  V30 437 H 43.389 -0.91319 1.11341 0
M  V30 438 H 45.342 -4.05003 1.16406 0
M  V30 439 H 44.066 -3.25955 0.205215 0
M  V30 440 H 42.725 -2.85547 2.29909 0
M  V30 441 H 42.373 -4.93769 0.959221 0
M  V30 442 H 42.073 -5.22313 2.69189 0
M  V30 443 H 43.597 -5.7866 1.94898 0
M  V30 444 H 45.011 -4.36307 3.719 0
M  V30 445 H 43.408 -4.03718 4.43995 0
M  V30 446 H 44.478 -2.68134 4.0402 0
M  V30 447 N 45.8211 -1.22559 -0.990812 0
M  V30 448 C 46.7511 -1.0218 -2.09956 0
M  V30 449 C 47.7321 0.0579394 -1.70001 0
M  V30 450 O 48.9171 -0.104684 -1.93918 0
M  V30 451 C 46.0471 -0.601023 -3.4206 0
M  V30 452 C 45.0011 -1.62694 -3.95872 0
M  V30 453 C 44.3271 -1.06193 -5.24049 0
M  V30 454 C 45.6271 -3.01743 -4.2632 0
M  V30 455 H 47.3211 -1.94916 -2.27262 0
M  V30 456 H 44.8671 -0.938566 -1.09211 0
M  V30 457 H 46.8201 -0.445561 -4.19038 0
M  V30 458 H 45.5441 0.362005 -3.24588 0
M  V30 459 H 44.2031 -1.77021 -3.21028 0
M  V30 460 H 43.8511 -0.0901903 -5.02919 0
M  V30 461 H 43.5511 -1.74732 -5.61019 0
M  V30 462 H 45.0751 -0.918092 -6.03658 0
M  V30 463 H 46.4891 -2.90777 -4.94087 0
M  V30 464 H 44.8861 -3.67425 -4.74467 0
M  V30 465 H 45.9561 -3.51518 -3.34011 0
M  V30 466 N 47.2992 1.18797 -1.03562 0
M  V30 467 C 48.5452 1.8893 -0.737113 0
M  V30 468 C 48.8782 1.79837 0.732956 0
M  V30 469 O 48.1532 1.19525 1.5344 0
M  V30 470 C 48.4362 3.39607 -1.19745 0
M  V30 471 C 48.2892 3.57537 -2.72924 0
M  V30 472 C 49.6082 4.33069 -0.783526 0
M  V30 473 H 46.7272 0.686057 -0.269249 0
M  V30 474 H 49.3692 1.39797 -1.28673 0
M  V30 475 H 47.5192 3.81583 -0.729855 0
M  V30 476 H 49.1912 3.24688 -3.27682 0
M  V30 477 H 47.4342 3.00363 -3.12993 0
M  V30 478 H 48.1052 4.63238 -3.00191 0
M  V30 479 H 50.5812 3.98846 -1.18581 0
M  V30 480 H 49.4572 5.3707 -1.13343 0
M  V30 481 H 49.7182 4.40986 0.313681 0
M  V30 482 N 48.7773 0.814389 1.34928 0
M  V30 483 C 50.0543 0.321363 1.92942 0
M  V30 484 C 50.4343 -1.19014 1.74353 0
M  V30 485 O 49.7823 -1.99328 1.11716 0
M  V30 486 C 49.9923 0.741323 3.41036 0
M  V30 487 C 51.3403 0.735266 4.18185 0
M  V30 488 O 52.3643 0.68336 3.49584 0
M  V30 489 O 51.2233 0.800703 5.40602 0
M  V30 490 H 48.3173 0.0858893 0.822528 0
M  V30 491 H 50.8633 0.898609 1.43955 0
M  V30 492 H 49.6353 1.78276 3.4833 0
M  V30 493 H 49.2583 0.139307 3.97356 0
M  V30 494 N 50.2554 -1.46986 0.568584 0
M  V30 495 C 51.2184 -2.28624 -0.162366 0
M  V30 496 C 52.2184 -1.37596 -0.832103 0
M  V30 497 O 53.4084 -1.60115 -0.68622 0
M  V30 498 C 50.5404 -3.17596 -1.23878 0
M  V30 499 H 51.7334 -2.94722 0.554899 0
M  V30 500 H 49.2864 -1.52863 0.325976 0
M  V30 501 H 50.0214 -2.56214 -1.98808 0
M  V30 502 H 49.8064 -3.846 -0.763219 0
M  V30 503 H 51.2964 -3.79078 -1.75185 0
M  V30 504 N 51.7335 -0.305618 -1.54608 0
M  V30 505 C 52.9805 0.302298 -2.00231 0
M  V30 506 C 53.3085 1.5354 -1.19398 0
M  V30 507 O 52.5635 1.93973 -0.259423 0
M  V30 508 C 52.8625 0.698983 -3.50498 0
M  V30 509 C 52.5285 -0.432903 -4.48817 0
M  V30 510 C 51.1905 -0.743622 -4.75419 0
M  V30 511 C 53.5425 -1.19409 -5.07337 0
M  V30 512 C 50.8705 -1.81857 -5.57804 0
M  V30 513 C 53.2225 -2.25899 -5.90891 0
M  V30 514 C 51.8865 -2.57572 -6.15803 0
M  V30 515 H 51.1565 0.110619 -0.732697 0
M  V30 516 H 53.8035 -0.425674 -1.86709 0
M  V30 517 H 52.1085 1.50711 -3.61654 0
M  V30 518 H 53.8055 1.1806 -3.83227 0
M  V30 519 H 50.3955 -0.18063 -4.28219 0
M  V30 520 H 54.5795 -0.967295 -4.86782 0
M  V30 521 H 49.8355 -2.06864 -5.75341 0
M  V30 522 H 54.0095 -2.85335 -6.35261 0
M  V30 523 H 51.6365 -3.40998 -6.7943 0
M  V30 524 N 53.2116 1.57565 -0.0334293 0
M  V30 525 C 54.4886 1.83282 0.683163 0
M  V30 526 C 54.8686 0.91823 1.90084 0
M  V30 527 O 54.2166 -0.025113 2.28486 0
M  V30 528 C 54.4266 3.32599 1.0573 0
M  V30 529 C 55.7746 3.99179 1.44711 0
M  V30 530 O 56.7986 3.3712 1.15015 0
M  V30 531 O 55.6576 5.08565 2.0006 0
M  V30 532 H 52.7516 0.755869 0.335546 0
M  V30 533 H 55.2976 1.69589 -0.0614402 0
M  V30 534 H 54.0696 3.90834 0.190828 0
M  V30 535 H 53.6926 3.51415 1.85993 0
M  V30 536 N 54.6897 -0.239769 1.55765 0
M  V30 537 C 56.1007 -0.808263 1.68297 0
M  V30 538 C 56.4517 -1.85736 0.632181 0
M  V30 539 O 55.5767 -2.15277 -0.220204 0
M  V30 540 C 56.1717 -1.47284 3.05111 0
M  V30 541 C 54.7307 -1.98895 3.19559 0
M  V30 542 C 53.8777 -0.842575 2.64189 0
M  V30 543 H 56.8287 -0.0154422 1.58692 0
M  V30 544 H 56.8497 -2.34111 2.99954 0
M  V30 545 H 56.3617 -0.709053 3.81568 0
M  V30 546 H 54.4627 -2.78132 2.47938 0
M  V30 547 H 54.5757 -2.18143 4.26556 0
M  V30 548 H 52.9397 -1.24501 2.22197 0
M  V30 549 H 53.7227 -0.0917552 3.43177 0
M  V30 550 N 56.1678 -1.49265 -0.50573 0
M  V30 551 C 57.5788 -1.51769 -1.08734 0
M  V30 552 C 57.9298 -0.301192 -1.93874 0
M  V30 553 O 57.0548 0.589456 -2.08217 0
M  V30 554 C 57.6498 -2.75017 -1.97867 0
M  V30 555 C 56.2088 -2.80314 -2.51199 0
M  V30 556 C 55.3558 -2.4562 -1.28709 0
M  V30 557 H 58.3068 -1.56031 -0.289855 0
M  V30 558 H 58.3278 -2.5491 -2.82491 0
M  V30 559 H 57.8398 -3.63539 -1.35873 0
M  V30 560 H 55.9408 -1.96061 -3.16845 0
M  V30 561 H 56.0538 -3.82366 -2.88675 0
M  V30 562 H 54.4178 -1.97297 -1.61078 0
M  V30 563 H 55.2008 -3.36411 -0.6843 0
M  V30 564 N 57.6459 0.756429 -1.3826 0
M  V30 565 C 58.5959 1.86069 -1.31766 0
M  V30 566 C 59.5799 1.59621 -0.202483 0
M  V30 567 O 60.7719 1.7149 -0.438211 0
M  V30 568 C 57.9009 3.23742 -1.1422 0
M  V30 569 C 56.9869 3.56091 -2.30348 0
M  V30 570 N 57.3779 3.59517 -3.55783 0
M  V30 571 C 55.6759 3.86341 -2.22838 0
M  V30 572 C 56.3769 3.89052 -4.32451 0
M  V30 573 N 55.3529 4.05736 -3.61772 0
M  V30 574 H 59.1549 1.86992 -2.26741 0
M  V30 575 H 56.6689 0.953643 -1.31451 0
M  V30 576 H 58.6659 4.02761 -1.07652 0
M  V30 577 H 57.3259 3.24073 -0.201763 0
M  V30 578 H 58.3369 3.41347 -3.89491 0
M  V30 579 H 55.0139 3.94404 -1.36937 0
M  V30 580 H 56.4039 3.98349 -5.4108 0
M  V30 581 N 59.124 1.23083 0.984299 0
M  V30 582 C 60.352 1.08714 1.76037 0
M  V30 583 C 60.767 -0.361691 1.85303 0
M  V30 584 O 60.124 -1.25034 1.32939 0
M  V30 585 C 60.175 1.70206 3.18923 0
M  V30 586 O 59.896 3.09423 3.10144 0
M  V30 587 C 61.397 1.61227 4.12941 0
M  V30 588 H 58.617 0.380664 0.552572 0
M  V30 589 H 61.161 1.62853 1.23689 0
M  V30 590 H 59.316 1.20109 3.6831 0
M  V30 591 H 59.73 3.39188 4.00065 0
M  V30 592 H 61.204 2.08962 5.10919 0
M  V30 593 H 61.681 0.570375 4.35481 0
M  V30 594 H 62.287 2.10671 3.69456 0
M  V30 595 N 60.6021 -1.18246 1.0419 0
M  V30 596 C 61.5501 -2.23968 0.627792 0
M  V30 597 C 62.5441 -1.65828 -0.346019 0
M  V30 598 O 63.7501 -1.78733 -0.213175 0
M  V30 599 H 60.1251 -0.728939 0.184802 0
M  V30 600 H 62.0961 -2.56202 1.52981 0
M  V30 601 C 60.8451 -3.47699 0.00796591 0
M  V30 602 H 60.1681 -3.92734 0.748347 0
M  V30 603 H 61.6081 -4.23294 -0.24455 0
M  V30 604 C 60.0671 -3.13153 -1.24246 0
M  V30 605 O 60.5971 -3.27003 -2.33307 0
M  V30 606 N 58.8031 -2.67467 -1.13622 0
M  V30 607 H 58.3501 -2.56396 -0.248734 0
M  V30 608 H 58.3081 -2.44724 -1.97377 0
M  V30 609 N 62.0802 -0.821533 -1.34494 0
M  V30 610 C 63.3282 -0.408139 -1.97936 0
M  V30 611 C 63.6492 1.03193 -1.65457 0
M  V30 612 O 62.9192 1.71622 -0.944595 0
M  V30 613 H 61.4992 -0.147928 -0.732206 0
M  V30 614 H 64.1612 -1.05067 -1.64155 0
M  V30 615 H 63.2572 -0.52601 -3.07635 0
M  V30 616 N 63.5583 1.46682 -0.576371 0
M  V30 617 C 64.7833 2.07304 -0.0630475 0
M  V30 618 C 65.2083 1.42329 1.2298 0
M  V30 619 O 64.5663 0.504865 1.74129 0
M  V30 620 C 64.6143 3.60472 0.095895 0
M  V30 621 O 63.7183 3.95927 1.15394 0
M  V30 622 H 63.0593 0.661288 -0.0599463 0
M  V30 623 H 65.5893 1.88417 -0.797511 0
M  V30 624 H 65.5993 4.06865 0.304071 0
M  V30 625 H 64.2743 4.07157 -0.84828 0
M  V30 626 H 62.8513 3.61252 0.924724 0
M  V30 627 N 65.0364 0.313813 1.54444 0
M  V30 628 C 65.9864 -0.571898 2.20711 0
M  V30 629 C 66.9704 -1.08913 1.18435 0
M  V30 630 O 68.1624 -1.02777 1.44104 0
M  V30 631 C 65.2914 -1.7371 2.96108 0
M  V30 632 C 64.3774 -1.23522 4.05713 0
M  V30 633 N 64.7684 -0.452288 5.03774 0
M  V30 634 C 63.0664 -1.51482 4.19487 0
M  V30 635 C 63.7674 -0.183438 5.81411 0
M  V30 636 N 62.7434 -0.766845 5.38164 0
M  V30 637 H 66.5454 0.0336802 2.93881 0
M  V30 638 H 64.0594 0.119192 1.61962 0
M  V30 639 H 66.0564 -2.38329 3.4206 0
M  V30 640 H 64.7164 -2.34625 2.24458 0
M  V30 641 H 65.7274 -0.0960131 5.17811 0
M  V30 642 H 62.4044 -2.13053 3.59047 0
M  V30 643 H 63.7944 0.446216 6.70417 0
M  V30 644 N 66.5145 -1.57545 0.0417849 0
M  V30 645 C 67.4645 -2.07483 -0.945247 0
M  V30 646 C 68.4485 -0.977983 -1.27767 0
M  V30 647 O 69.6405 -1.24142 -1.26166 0
M  V30 648 C 66.7695 -2.61576 -2.22335 0
M  V30 649 C 65.8555 -3.78213 -1.91874 0
M  V30 650 N 66.2465 -4.88344 -1.31733 0
M  V30 651 C 64.5445 -3.8694 -2.21796 0
M  V30 652 C 65.2455 -5.69462 -1.1869 0
M  V30 653 N 64.2215 -5.16771 -1.68666 0
M  V30 654 H 68.0235 -2.90029 -0.475441 0
M  V30 655 H 65.5375 -1.61581 -0.162911 0
M  V30 656 H 67.5345 -2.95651 -2.93932 0
M  V30 657 H 66.1945 -1.80465 -2.69931 0
M  V30 658 H 67.2055 -5.08335 -0.990729 0
M  V30 659 H 63.8825 -3.16757 -2.71977 0
M  V30 660 H 65.2725 -6.68023 -0.720793 0
M  V30 661 N 67.9926 0.231505 -1.5589 0
M  V30 662 C 69.2406 0.955461 -1.78088 0
M  V30 663 C 69.5616 1.85262 -0.608533 0
M  V30 664 O 68.8316 1.92277 0.375035 0
M  V30 665 H 67.4116 0.355787 -0.656829 0
M  V30 666 H 70.0736 0.245751 -1.93344 0
M  V30 667 H 69.1696 1.56814 -2.69844 0
M  V30 668 N 69.4707 1.49531 0.497807 0
M  V30 669 C 70.7477 1.49682 1.25915 0
M  V30 670 C 71.1277 0.226339 2.09883 0
M  V30 671 O 70.4757 -0.791189 2.14365 0
M  V30 672 C 70.6857 2.77755 2.11313 0
M  V30 673 C 72.0337 3.27371 2.70395 0
M  V30 674 O 73.0577 2.78894 2.21578 0
M  V30 675 O 71.9167 4.11808 3.59272 0
M  V30 676 H 69.0107 0.599228 0.56996 0
M  V30 677 H 71.5567 1.61798 0.511816 0
M  V30 678 H 70.3287 3.61713 1.49264 0
M  V30 679 H 69.9517 2.68515 2.93233 0
M  V30 680 N 70.9488 -0.749086 1.3866 0
M  V30 681 C 72.1768 -1.53834 1.38358 0
M  V30 682 C 72.5918 -1.88783 -0.0255219 0
M  V30 683 O 71.9488 -1.53101 -0.993292 0
M  V30 684 C 71.9998 -2.83468 2.2434 0
M  V30 685 O 71.7208 -2.50008 3.5976 0
M  V30 686 C 73.2218 -3.7758 2.32267 0
M  V30 687 H 70.4418 -0.47585 0.473083 0
M  V30 688 H 72.9858 -0.926726 1.82297 0
M  V30 689 H 71.1408 -3.40995 1.83851 0
M  V30 690 H 71.5548 -3.33182 4.05081 0
M  V30 691 H 73.0288 -4.65478 2.96706 0
M  V30 692 H 73.5058 -4.18334 1.33765 0
M  V30 693 H 74.1118 -3.25976 2.73166 0
M  V30 694 N 72.4269 -1.23603 -0.977757 0
M  V30 695 C 73.8429 -0.999251 -1.24447 0
M  V30 696 C 74.0429 0.298053 -1.99283 0
M  V30 697 O 73.0989 1.01681 -2.31122 0
M  V30 698 C 74.4119 -2.20784 -2.04144 0
M  V30 699 C 75.9599 -2.25303 -2.17273 0
M  V30 700 C 76.4349 -3.45755 -3.00362 0
M  V30 701 N 77.9259 -3.4601 -3.07947 0
M  V30 702 C 78.6609 -4.35868 -3.72568 0
M  V30 703 N 78.1569 -5.35966 -4.38991 0
M  V30 704 N 79.9499 -4.23605 -3.6948 0
M  V30 705 H 72.1009 -2.06986 -0.476483 0
M  V30 706 H 74.3639 -0.907801 -0.273134 0
M  V30 707 H 74.0699 -3.14945 -1.56533 0
M  V30 708 H 73.9439 -2.22085 -3.04891 0
M  V30 709 H 76.3309 -1.3168 -2.64092 0
M  V30 710 H 76.4119 -2.28033 -1.15907 0
M  V30 711 H 76.0559 -4.39687 -2.5424 0
M  V30 712 H 75.9859 -3.40266 -4.01904 0
M  V30 713 H 78.4769 -2.73588 -2.60688 0
M  V30 714 H 78.7899 -6.00783 -4.86086 0
M  V30 715 H 77.1349 -5.39863 -4.37691 0
M  V30 716 H 80.3259 -3.44647 -3.16759 0
M  V30 717 H 80.4989 -4.93836 -4.1956 0
M  V30 718 N 73.905 1.17692 -1.04816 0
M  V30 719 C 75.154 1.87192 -0.751132 0
M  V30 720 C 75.467 1.8169 0.724441 0
M  V30 721 O 76.673 2.46625 1.13527 0
M  V30 722 C 75.129 3.35857 -1.29338 0
M  V30 723 C 74.737 3.4987 -2.79812 0
M  V30 724 C 76.481 4.10709 -1.07322 0
M  V30 725 C 74.388 4.92536 -3.27356 0
M  V30 726 H 73.318 0.701162 -0.277288 0
M  V30 727 H 75.969 1.32932 -1.26496 0
M  V30 728 H 74.351 3.89631 -0.707376 0
M  V30 729 H 75.525 3.06332 -3.44235 0
M  V30 730 H 73.84 2.88433 -3.00325 0
M  V30 731 H 76.437 5.15952 -1.4035 0
M  V30 732 H 76.78 4.16299 -0.0108001 0
M  V30 733 H 77.313 3.6313 -1.62423 0
M  V30 734 H 74.052 4.92119 -4.33012 0
M  V30 735 H 73.572 5.3676 -2.67673 0
M  V30 736 H 75.251 5.61288 -3.21815 0
M  V30 737 N 75.3831 0.828654 1.34056 0
M  V30 738 C 76.6321 0.415828 1.97367 0
M  V30 739 C 76.9451 -1.02796 1.6641 0
M  V30 740 O 78.1511 -1.54497 2.23255 0
M  V30 741 C 76.6071 0.692601 3.53173 0
M  V30 742 C 76.2151 2.15038 3.93017 0
M  V30 743 C 77.9591 0.346222 4.23086 0
M  V30 744 C 75.8661 2.37174 5.41758 0
M  V30 745 H 74.7961 0.151755 0.738571 0
M  V30 746 H 77.4471 1.01581 1.52819 0
M  V30 747 H 75.8291 0.0223764 3.95994 0
M  V30 748 H 77.0031 2.86024 3.61285 0
M  V30 749 H 75.3181 2.45875 3.36057 0
M  V30 750 H 77.9151 0.48937 5.32456 0
M  V30 751 H 78.2581 -0.709842 4.10204 0
M  V30 752 H 78.7911 0.971258 3.85761 0
M  V30 753 H 75.5301 3.41308 5.59633 0
M  V30 754 H 75.0501 1.70738 5.74986 0
M  V30 755 H 76.7291 2.19818 6.08514 0
M  V30 756 N 76.8612 -1.46375 0.584142 0
M  V30 757 C 78.2772 -1.57694 0.245929 0
M  V30 758 C 78.4772 -1.57903 -1.25175 0
M  V30 759 O 77.5332 -1.49676 -2.03355 0
M  V30 760 C 78.8462 -2.87028 0.896402 0
M  V30 761 C 80.3942 -3.00662 0.870127 0
M  V30 762 C 80.8692 -4.32734 1.50017 0
M  V30 763 N 82.3602 -4.39436 1.46458 0
M  V30 764 C 83.0952 -5.40248 1.92144 0
M  V30 765 N 82.5912 -6.47726 2.4581 0
M  V30 766 N 84.3842 -5.31459 1.83052 0
M  V30 767 H 76.5352 -1.44483 1.55687 0
M  V30 768 H 78.7982 -0.689291 0.650831 0
M  V30 769 H 78.5042 -2.9269 1.95002 0
M  V30 770 H 78.3782 -3.75014 0.405486 0
M  V30 771 H 80.7652 -2.94581 -0.174871 0
M  V30 772 H 80.8462 -2.14148 1.39908 0
M  V30 773 H 80.4902 -4.39573 2.54437 0
M  V30 774 H 80.4202 -5.18025 0.946432 0
M  V30 775 H 82.9112 -3.62367 1.07231 0
M  V30 776 H 83.2242 -7.20863 2.78525 0
M  V30 777 H 81.5692 -6.48542 2.49836 0
M  V30 778 H 84.7602 -4.46396 1.40883 0
M  V30 779 H 84.9332 -6.09881 2.18973 0
M  V30 780 N 78.3393 -0.321999 -1.54275 0
M  V30 781 C 79.2893 0.560185 -2.21011 0
M  V30 782 C 80.2733 1.08283 -1.19011 0
M  V30 783 O 81.4653 1.02011 -1.44647 0
M  V30 784 C 78.5943 1.72137 -2.97025 0
M  V30 785 C 77.6803 1.21369 -4.06363 0
M  V30 786 N 78.0713 0.425566 -5.04007 0
M  V30 787 C 76.3693 1.49255 -4.20284 0
M  V30 788 C 77.0703 0.152601 -5.815 0
M  V30 789 N 76.0463 0.738294 -5.38563 0
M  V30 790 H 79.8483 -0.049265 -2.93859 0
M  V30 791 H 77.3623 -0.127779 -1.61897 0
M  V30 792 H 79.3593 2.36512 -3.43319 0
M  V30 793 H 78.0193 2.33431 -2.25699 0
M  V30 794 H 79.0303 0.068551 -5.17855 0
M  V30 795 H 75.7073 2.11145 -3.60172 0
M  V30 796 H 77.0973 -0.481764 -6.70171 0
M  V30 797 N 79.8174 1.5752 -0.0501392 0
M  V30 798 C 80.7804 2.1037 0.909786 0
M  V30 799 C 81.7804 1.02308 1.24056 0
M  V30 800 O 82.9704 1.28385 1.17741 0
M  V30 801 C 80.1024 2.58708 2.21998 0
M  V30 802 H 81.2954 2.96479 0.451665 0
M  V30 803 H 78.8484 1.55038 0.198248 0
M  V30 804 H 79.5834 1.75989 2.72394 0
M  V30 805 H 79.3684 3.37675 1.99295 0
M  V30 806 H 80.8584 2.99747 2.9076 0
M  V30 807 N 81.2955 -0.223234 1.56011 0
M  V30 808 C 82.5255 -0.963413 1.82762 0
M  V30 809 C 82.9335 -1.78516 0.626804 0
M  V30 810 O 82.2765 -1.78974 -0.414014 0
M  V30 811 C 82.3385 -1.93126 3.0322 0
M  V30 812 C 82.0025 -1.2942 4.38291 0
M  V30 813 C 82.9995 -0.684916 5.15369 0
M  V30 814 C 80.6845 -1.30647 4.85012 0
M  V30 815 C 82.6785 -0.0963971 6.37327 0
M  V30 816 C 80.3655 -0.71411 6.06913 0
M  V30 817 C 81.3635 -0.110123 6.82911 0
M  V30 818 O 81.0515 0.47303 8.02507 0
M  V30 819 H 80.7835 -0.288011 0.611576 0
M  V30 820 H 83.3375 -0.244103 2.03944 0
M  V30 821 H 81.5675 -2.68952 2.77852 0
M  V30 822 H 83.2565 -2.53685 3.16857 0
M  V30 823 H 84.0225 -0.667774 4.80381 0
M  V30 824 H 79.9015 -1.76598 4.25833 0
M  V30 825 H 83.4455 0.375657 6.96588 0
M  V30 826 H 79.3425 -0.728659 6.41374 0
M  V30 827 H 80.1105 0.367186 8.17676 0
M  V30 828 N 82.7736 -1.49793 -0.48987 0
M  V30 829 C 84.0216 -1.59525 -1.24081 0
M  V30 830 C 84.3426 -0.288953 -1.92847 0
M  V30 831 O 83.6126 0.692436 -1.83254 0
M  V30 832 H 82.1926 -0.587796 -0.460983 0
M  V30 833 H 84.8546 -1.86477 -0.566778 0
M  V30 834 H 83.9506 -2.39696 -1.99881 0
M  V30 835 N 84.2517 0.741722 -1.39055 0
M  V30 836 C 85.1617 1.88621 -1.39496 0
M  V30 837 C 86.1777 1.71557 -0.290578 0
M  V30 838 O 87.3537 1.94275 -0.530954 0
M  V30 839 C 84.4187 3.24134 -1.23037 0
M  V30 840 C 83.4797 3.5364 -2.43387 0
M  V30 841 C 82.7127 4.82687 -2.27703 0
M  V30 842 O 82.9357 5.55922 -1.27696 0
M  V30 843 O 81.8697 5.1194 -3.16545 0
M  V30 844 H 85.6957 1.91203 -2.35956 0
M  V30 845 H 83.2807 0.888625 -1.20099 0
M  V30 846 H 85.1627 4.0513 -1.15964 0
M  V30 847 H 83.8377 3.22337 -0.296691 0
M  V30 848 H 82.7447 2.72758 -2.56035 0
M  V30 849 H 84.0777 3.60209 -3.35425 0
M  V30 850 N 85.7298 1.2412 0.971189 0
M  V30 851 C 86.9778 1.07668 1.71032 0
M  V30 852 C 87.2988 -0.385797 1.91146 0
M  V30 853 O 86.5688 -1.27569 1.4867 0
M  V30 854 H 85.1488 0.395429 0.633755 0
M  V30 855 H 87.8108 1.55984 1.16855 0
M  V30 856 H 86.9068 1.57195 2.69622 0
M  V30 857 N 87.2079 -1.17134 1.05439 0
M  V30 858 C 88.6239 -1.39454 0.776201 0
M  V30 859 C 88.8239 -1.91454 -0.628307 0
M  V30 860 O 87.8799 -2.10777 -1.39031 0
M  V30 861 C 89.1929 -2.38305 1.83388 0
M  V30 862 C 90.7409 -2.52006 1.85639 0
M  V30 863 C 91.2159 -3.54133 2.90437 0
M  V30 864 N 92.7069 -3.61653 2.89415 0
M  V30 865 C 93.4419 -4.4044 3.67152 0
M  V30 866 N 92.9379 -5.22721 4.54681 0
M  V30 867 N 94.7309 -4.35337 3.55581 0
M  V30 868 H 86.8819 -0.817134 1.96053 0
M  V30 869 H 89.1449 -0.421626 0.849079 0
M  V30 870 H 88.8509 -2.07173 2.84204 0
M  V30 871 H 88.7249 -3.37841 1.67761 0
M  V30 872 H 91.1119 -2.82447 0.85486 0
M  V30 873 H 91.1929 -1.52537 2.05344 0
M  V30 874 H 90.8369 -3.24431 3.90777 0
M  V30 875 H 90.7669 -4.53313 2.67983 0
M  V30 876 H 93.2579 -3.02909 2.25952 0
M  V30 877 H 93.5709 -5.80027 5.10674 0
M  V30 878 H 91.9159 -5.22093 4.58741 0
M  V30 879 H 95.1069 -3.70112 2.86592 0
M  V30 880 H 95.2799 -4.96494 4.1641 0
M  V30 881 N 88.686 -0.835752 -1.33615 0
M  V30 882 C 89.596 -0.269088 -2.33052 0
M  V30 883 C 90.612 0.603251 -1.63208 0
M  V30 884 O 91.788 0.508112 -1.94885 0
M  V30 885 C 88.853 0.549091 -3.42324 0
M  V30 886 C 87.914 -0.347156 -4.27894 0
M  V30 887 C 87.147 0.43207 -5.31948 0
M  V30 888 O 87.37 1.66409 -5.45586 0
M  V30 889 O 86.304 -0.192298 -6.01593 0
M  V30 890 H 90.13 -1.09243 -2.83372 0
M  V30 891 H 87.715 -0.598198 -1.36901 0
M  V30 892 H 89.597 1.01414 -4.09015 0
M  V30 893 H 88.272 1.34955 -2.94226 0
M  V30 894 H 87.179 -0.859979 -3.64081 0
M  V30 895 H 88.512 -1.1123 -4.79467 0
M  V30 896 N 90.1641 1.46063 -0.591896 0
M  V30 897 C 91.3941 2.06418 -0.0867676 0
M  V30 898 C 91.8021 1.43975 1.22751 0
M  V30 899 O 91.1451 0.542531 1.75506 0
M  V30 900 C 91.2071 3.59213 0.143725 0
M  V30 901 C 90.8711 4.439 -1.08635 0
M  V30 902 C 91.8681 4.79864 -2.00067 0
M  V30 903 C 89.5531 4.84896 -1.31077 0
M  V30 904 C 91.5471 5.55661 -3.12282 0
M  V30 905 C 89.2341 5.6045 -2.43596 0
M  V30 906 C 90.2321 5.95747 -3.34027 0
M  V30 907 O 89.9201 6.69772 -4.4459 0
M  V30 908 H 89.6521 0.673443 -0.0587447 0
M  V30 909 H 92.2061 1.88539 -0.814994 0
M  V30 910 H 90.4361 3.75433 0.926668 0
M  V30 911 H 92.1251 4.01463 0.5985 0
M  V30 912 H 92.8911 4.48763 -1.83947 0
M  V30 913 H 88.7701 4.56867 -0.61594 0
M  V30 914 H 92.3141 5.8313 -3.82891 0
M  V30 915 H 88.2111 5.90965 -2.59674 0
M  V30 916 H 88.9791 6.88207 -4.43073 0
M  V30 917 N 91.6422 0.330177 1.54103 0
M  V30 918 C 92.8882 -0.270806 2.00984 0
M  V30 919 C 93.2212 -1.51265 1.21789 0
M  V30 920 O 92.4962 -1.92142 0.301927 0
M  V30 921 C 92.7792 -0.598339 3.55094 0
M  V30 922 C 92.6322 0.654674 4.4501 0
M  V30 923 C 93.9512 -1.41334 4.16789 0
M  V30 924 H 91.0702 -0.0969531 0.730595 0
M  V30 925 H 93.7122 0.448066 1.84641 0
M  V30 926 H 91.8622 -1.21078 3.69151 0
M  V30 927 H 93.5342 1.29285 4.42813 0
M  V30 928 H 91.7772 1.28224 4.14416 0
M  V30 929 H 92.4482 0.380944 5.50684 0
M  V30 930 H 94.9242 -0.895597 4.06347 0
M  V30 931 H 93.8002 -1.61127 5.24718 0
M  V30 932 H 94.0612 -2.41146 3.70541 0
M  V30 933 N 93.1203 -1.57491 0.0584922 0
M  V30 934 C 94.5313 -1.80526 -0.476138 0
M  V30 935 C 94.8823 -0.971334 -1.70469 0
M  V30 936 O 94.0073 -0.190012 -2.15564 0
M  V30 937 C 94.6023 -3.27424 -0.870587 0
M  V30 938 C 93.1613 -3.51351 -1.35015 0
M  V30 939 C 92.3083 -2.75343 -0.32887 0
M  V30 940 H 95.2593 -1.56133 0.284312 0
M  V30 941 H 95.2803 -3.38745 -1.73299 0
M  V30 942 H 94.7923 -3.88093 0.0237627 0
M  V30 943 H 92.8933 -2.95971 -2.26345 0
M  V30 944 H 93.0063 -4.60059 -1.33726 0
M  V30 945 H 91.3703 -2.417 -0.803321 0
M  V30 946 H 92.1533 -3.38743 0.557521 0
M  V30 947 N 94.5984 0.214957 -1.56127 0
M  V30 948 C 95.5284 1.2695 -1.95974 0
M  V30 949 C 96.5094 1.48539 -0.828868 0
M  V30 950 O 97.6944 1.60611 -1.09168 0
M  V30 951 C 94.8244 2.61794 -2.28214 0
M  V30 952 C 93.7784 2.54851 -3.43853 0
M  V30 953 C 93.1044 3.93785 -3.61715 0
M  V30 954 C 94.4044 2.09065 -4.78632 0
M  V30 955 H 96.0984 0.93846 -2.84312 0
M  V30 956 H 93.6444 0.449996 -1.36788 0
M  V30 957 H 95.5974 3.35731 -2.54682 0
M  V30 958 H 94.3214 2.96599 -1.36736 0
M  V30 959 H 92.9804 1.8337 -3.17444 0
M  V30 960 H 92.6284 4.25908 -2.67602 0
M  V30 961 H 92.3284 3.90019 -4.39498 0
M  V30 962 H 93.8524 4.69374 -3.90539 0
M  V30 963 H 95.2664 2.7275 -5.04262 0
M  V30 964 H 93.6634 2.16346 -5.59745 0
M  V30 965 H 94.7334 1.04315 -4.73547 0
M  V30 966 N 96.0765 1.50051 0.48192 0
M  V30 967 C 97.0395 1.67584 1.5636 0
M  V30 968 C 98.0395 0.546894 1.51214 0
M  V30 969 O 99.2295 0.813725 1.54026 0
M  V30 970 C 96.3615 1.691 2.96003 0
M  V30 971 H 97.5545 2.64078 1.42136 0
M  V30 972 H 95.1075 1.39369 0.707533 0
M  V30 973 H 95.8425 0.742589 3.15684 0
M  V30 974 H 95.6275 2.51105 3.01146 0
M  V30 975 H 97.1175 1.84656 3.74556 0
M  V30 976 N 97.5546 -0.734337 1.39446 0
M  V30 977 C 98.4846 -1.86155 1.40955 0
M  V30 978 C 99.4656 -1.67898 0.272827 0
M  V30 979 O 100.651 -1.88207 0.478743 0
M  V30 980 C 97.7806 -3.23912 1.25294 0
M  V30 981 C 96.7346 -3.56808 2.36373 0
M  V30 982 C 96.0606 -4.93508 2.058 0
M  V30 983 C 97.3606 -3.59713 3.78687 0
M  V30 984 H 99.0546 -1.8515 2.35287 0
M  V30 985 H 96.6006 -0.889367 1.13253 0
M  V30 986 H 98.5536 -4.02443 1.2497 0
M  V30 987 H 97.2776 -3.25446 0.274308 0
M  V30 988 H 95.9366 -2.80606 2.35914 0
M  V30 989 H 95.5846 -4.91623 1.06374 0
M  V30 990 H 95.2846 -5.16486 2.80208 0
M  V30 991 H 96.8086 -5.74396 2.07128 0
M  V30 992 H 98.2226 -4.2832 3.81071 0
M  V30 993 H 96.6196 -3.94209 4.52459 0
M  V30 994 H 97.6896 -2.59504 4.09617 0
M  V30 995 N 99.0327 -1.24633 -0.964593 0
M  V30 996 C 100.449 -1.01239 -1.2338 0
M  V30 997 C 100.649 0.2769 -1.99588 0
M  V30 998 O 99.7047 0.992241 -2.32187 0
M  V30 999 C 101.018 -2.22937 -2.01791 0
M  V30 1000 C 102.566 -2.27594 -2.14872 0
M  V30 1001 C 103.041 -3.48921 -2.96678 0
M  V30 1002 N 104.532 -3.49257 -3.04259 0
M  V30 1003 C 105.267 -4.39795 -3.67924 0
M  V30 1004 N 104.763 -5.40591 -4.33281 0
M  V30 1005 N 106.556 -4.275 -3.64966 0
M  V30 1006 H 98.7067 -2.0748 -0.454502 0
M  V30 1007 H 100.97 -0.910647 -0.26349 0
M  V30 1008 H 100.676 -3.16587 -1.53184 0
M  V30 1009 H 100.55 -2.25306 -3.02518 0
M  V30 1010 H 102.937 -1.34473 -2.6268 0
M  V30 1011 H 103.018 -2.2925 -1.13482 0
M  V30 1012 H 102.662 -4.42359 -2.49562 0
M  V30 1013 H 102.592 -3.4451 -3.98272 0
M  V30 1014 H 105.083 -2.76337 -2.57771 0
M  V30 1015 H 105.396 -6.05904 -4.79687 0
M  V30 1016 H 103.741 -5.44475 -4.3194 0
M  V30 1017 H 106.932 -3.47987 -3.13086 0
M  V30 1018 H 107.105 -4.98258 -4.14298 0
M  V30 1019 N 100.511 1.16574 -1.06058 0
M  V30 1020 C 101.736 1.91493 -0.796562 0
M  V30 1021 C 102.161 1.76773 0.642868 0
M  V30 1022 O 101.519 1.09142 1.44768 0
M  V30 1023 C 101.567 3.40293 -1.19303 0
M  V30 1024 O 100.671 4.11074 -0.330394 0
M  V30 1025 H 100.012 0.596678 -0.291326 0
M  V30 1026 H 102.542 1.47708 -1.41575 0
M  V30 1027 H 102.552 3.91057 -1.16356 0
M  V30 1028 H 101.227 3.50326 -2.24153 0
M  V30 1029 H 99.8038 3.70513 -0.421225 0
M  V30 1030 N 101.989 0.842826 1.3317 0
M  V30 1031 C 102.921 0.236245 2.27979 0
M  V30 1032 C 103.934 -0.585282 1.51915 0
M  V30 1033 O 105.123 -0.411705 1.73687 0
M  V30 1034 C 102.223 -0.685717 3.3189 0
M  V30 1035 C 101.396 0.0973448 4.37292 0
M  V30 1036 C 100.455 -0.748565 5.20848 0
M  V30 1037 O 99.4809 -0.186339 5.68895 0
M  V30 1038 N 100.683 -2.06527 5.42519 0
M  V30 1039 H 103.448 1.05088 2.80672 0
M  V30 1040 H 101.009 0.701667 1.45905 0
M  V30 1041 H 103.001 -1.25669 3.84694 0
M  V30 1042 H 101.571 -1.40105 2.79445 0
M  V30 1043 H 100.791 0.849706 3.84933 0
M  V30 1044 H 102.079 0.635643 5.04814 0
M  V30 1045 H 101.477 -2.54554 5.05192 0
M  V30 1046 H 100.034 -2.58464 5.98364 0
M  V30 1047 N 103.467 -1.45747 0.599634 0
M  V30 1048 C 104.377 -2.34262 -0.125888 0
M  V30 1049 C 105.393 -1.50768 -0.868625 0
M  V30 1050 O 106.569 -1.83592 -0.828003 0
M  V30 1051 C 103.634 -3.28252 -1.11587 0
M  V30 1052 C 102.695 -4.27651 -0.375956 0
M  V30 1053 C 101.928 -5.1715 -1.31877 0
M  V30 1054 O 102.151 -5.09916 -2.55621 0
M  V30 1055 O 101.085 -5.96286 -0.820157 0
M  V30 1056 H 104.911 -2.97688 0.601315 0
M  V30 1057 H 102.496 -1.44999 0.359934 0
M  V30 1058 H 104.378 -3.86191 -1.68626 0
M  V30 1059 H 103.053 -2.67401 -1.82424 0
M  V30 1060 H 101.96 -3.7335 0.236698 0
M  V30 1061 H 103.293 -4.91334 0.29177 0
M  V30 1062 N 104.945 -0.338344 -1.53925 0
M  V30 1063 C 105.875 0.51328 -2.27789 0
M  V30 1064 C 106.856 1.107 -1.29149 0
M  V30 1065 O 108.041 1.12937 -1.57984 0
M  V30 1066 C 105.171 1.66697 -3.04679 0
M  V30 1067 C 104.125 1.20183 -4.1078 0
M  V30 1068 C 103.451 2.44363 -4.75595 0
M  V30 1069 C 104.751 0.30605 -5.21403 0
M  V30 1070 H 106.445 -0.102883 -2.99223 0
M  V30 1071 H 103.991 -0.0509219 -1.4391 0
M  V30 1072 H 105.944 2.26915 -3.55088 0
M  V30 1073 H 104.668 2.30995 -2.30887 0
M  V30 1074 H 103.327 0.622499 -3.61276 0
M  V30 1075 H 102.975 3.07057 -3.98403 0
M  V30 1076 H 102.675 2.13925 -5.47275 0
M  V30 1077 H 104.199 3.05317 -5.28786 0
M  V30 1078 H 105.613 0.814929 -5.67478 0
M  V30 1079 H 104.01 0.0937929 -6.00027 0
M  V30 1080 H 105.08 -0.65921 -4.80398 0
M  V30 1081 N 106.423 1.57458 -0.0668435 0
M  V30 1082 C 107.669 1.94401 0.598316 0
M  V30 1083 C 108.024 0.946335 1.67518 0
M  V30 1084 O 107.317 -0.0321442 1.91573 0
M  V30 1085 C 107.511 3.35784 1.22409 0
M  V30 1086 C 107.34 4.49212 0.209367 0
M  V30 1087 C 106.11 5.04887 -0.204218 0
M  V30 1088 C 108.308 5.11335 -0.551431 0
M  V30 1089 N 106.29 6.01854 -1.21016 0
M  V30 1090 C 107.661 6.03754 -1.41 0
M  V30 1091 C 109.716 4.94173 -0.608038 0
M  V30 1092 C 108.419 6.80854 -2.32013 0
M  V30 1093 C 110.445 5.71912 -1.50566 0
M  V30 1094 C 109.807 6.63976 -2.35191 0
M  V30 1095 H 105.906 0.758538 0.190114 0
M  V30 1096 H 108.49 1.94175 -0.142832 0
M  V30 1097 H 106.661 3.36757 1.93518 0
M  V30 1098 H 108.393 3.59976 1.84931 0
M  V30 1099 H 105.148 4.73266 0.177908 0
M  V30 1100 H 105.572 6.55035 -1.71049 0
M  V30 1101 H 110.214 4.22788 0.032022 0
M  V30 1102 H 107.932 7.5152 -2.97057 0
M  V30 1103 H 111.518 5.60656 -1.55423 0
M  V30 1104 H 110.398 7.2308 -3.03522 0
M  V30 1105 N 107.901 -0.206675 1.56239 0
M  V30 1106 C 109.131 -0.943975 1.83773 0
M  V30 1107 C 109.539 -1.77841 0.645703 0
M  V30 1108 O 108.882 -1.79403 -0.395008 0
M  V30 1109 C 108.944 -1.899 3.05251 0
M  V30 1110 C 108.608 -1.24764 4.39639 0
M  V30 1111 C 109.605 -0.630216 5.16066 0
M  V30 1112 C 107.29 -1.25496 4.8637 0
M  V30 1113 C 109.284 -0.0287946 6.37393 0
M  V30 1114 C 106.971 -0.649698 6.07637 0
M  V30 1115 C 107.969 -0.0376845 6.8299 0
M  V30 1116 O 107.657 0.55812 8.0196 0
M  V30 1117 H 107.389 -0.281508 0.614597 0
M  V30 1118 H 109.943 -0.222458 2.04192 0
M  V30 1119 H 108.173 -2.6599 2.80689 0
M  V30 1120 H 109.862 -2.5031 3.1953 0
M  V30 1121 H 110.628 -0.616785 4.81062 0
M  V30 1122 H 106.507 -1.72072 4.27683 0
M  V30 1123 H 110.051 0.449518 6.9615 0
M  V30 1124 H 105.948 -0.660592 6.42111 0
M  V30 1125 H 106.716 0.453891 8.17241 0
M  V30 1126 N 109.379 -1.50304 -0.473955 0
M  V30 1127 C 110.289 -1.7174 -1.5982 0
M  V30 1128 C 111.305 -0.600457 -1.63311 0
M  V30 1129 O 112.481 -0.878441 -1.81233 0
M  V30 1130 C 109.546 -1.80427 -2.96052 0
M  V30 1131 C 108.607 -3.04148 -3.02972 0
M  V30 1132 C 107.84 -3.12411 -4.32706 0
M  V30 1133 O 108.063 -2.27542 -5.23049 0
M  V30 1134 O 106.997 -4.05113 -4.45159 0
M  V30 1135 H 110.823 -2.67035 -1.44657 0
M  V30 1136 H 108.408 -1.34366 -0.653148 0
M  V30 1137 H 110.29 -1.88338 -3.7697 0
M  V30 1138 H 108.965 -0.883156 -3.11419 0
M  V30 1139 H 107.872 -3.0174 -2.21142 0
M  V30 1140 H 109.205 -3.95829 -2.92541 0
M  V30 1141 N 110.857 0.726932 -1.39834 0
M  V30 1142 C 111.787 1.85405 -1.41941 0
M  V30 1143 C 112.768 1.67751 -0.281728 0
M  V30 1144 O 113.953 1.8795 -0.488717 0
M  V30 1145 C 111.083 3.23243 -1.2701 0
M  V30 1146 C 110.037 3.55549 -2.38262 0
M  V30 1147 C 109.363 4.9241 -2.08415 0
M  V30 1148 C 110.663 3.577 -3.80589 0
M  V30 1149 H 112.357 1.83899 -2.36266 0
M  V30 1150 H 109.903 0.883349 -1.13723 0
M  V30 1151 H 111.856 4.01775 -1.27103 0
M  V30 1152 H 110.58 3.25296 -0.291564 0
M  V30 1153 H 109.239 2.79351 -2.37399 0
M  V30 1154 H 108.887 4.91052 -1.0898 0
M  V30 1155 H 108.587 5.14992 -2.82943 0
M  V30 1156 H 110.111 5.73289 -2.10171 0
M  V30 1157 H 111.525 4.26293 -3.83337 0
M  V30 1158 H 109.922 3.91804 -4.54543 0
M  V30 1159 H 110.992 2.57328 -4.10987 0
M  V30 1160 N 112.336 1.25143 0.95797 0
M  V30 1161 C 113.246 1.06968 2.08794 0
M  V30 1162 C 114.262 0.00773911 1.73998 0
M  V30 1163 O 115.438 0.207972 2.00323 0
M  V30 1164 C 112.503 0.68691 3.39827 0
M  V30 1165 C 111.564 1.82641 3.88511 0
M  V30 1166 C 110.797 1.46181 5.1329 0
M  V30 1167 O 111.02 0.355971 5.69288 0
M  V30 1168 O 109.954 2.29085 5.566 0
M  V30 1169 H 113.78 2.01723 2.27027 0
M  V30 1170 H 111.365 1.04051 1.07209 0
M  V30 1171 H 113.247 0.485417 4.18595 0
M  V30 1172 H 111.922 -0.231417 3.22872 0
M  V30 1173 H 110.829 2.08274 3.10762 0
M  V30 1174 H 112.162 2.72386 4.09959 0
M  V30 1175 N 113.814 -1.1601 1.06675 0
M  V30 1176 C 114.761 -2.20525 0.680967 0
M  V30 1177 C 115.731 -1.62904 -0.324283 0
M  V30 1178 O 116.916 -1.89615 -0.212294 0
M  V30 1179 C 114.056 -3.45013 0.0776551 0
M  V30 1180 C 113.169 -4.16863 1.13355 0
M  V30 1181 C 112.304 -5.2888 0.49597 0
M  V30 1182 C 111.343 -5.92537 1.53513 0
M  V30 1183 N 110.48 -6.96038 0.920631 0
M  V30 1184 H 115.32 -2.52876 1.57663 0
M  V30 1185 H 112.857 -1.24199 0.788223 0
M  V30 1186 H 114.815 -4.16193 -0.289704 0
M  V30 1187 H 113.445 -3.132 -0.781393 0
M  V30 1188 H 112.497 -3.44248 1.61857 0
M  V30 1189 H 113.809 -4.60294 1.92174 0
M  V30 1190 H 112.963 -6.06653 0.0758604 0
M  V30 1191 H 111.702 -4.86622 -0.324062 0
M  V30 1192 H 110.707 -5.13482 1.9651 0
M  V30 1193 H 111.932 -6.36873 2.35733 0
M  V30 1194 H 109.878 -6.55888 0.12138 0
M  V30 1195 H 109.795 -7.3786 1.64616 0
M  V30 1196 H 111.063 -7.77725 0.525795 0
M  V30 1197 N 115.292 -0.849877 -1.32721 0
M  V30 1198 C 116.202 -0.293791 -2.32753 0
M  V30 1199 C 117.218 0.585906 -1.63839 0
M  V30 1200 O 118.394 0.487413 -1.95413 0
M  V30 1201 C 115.459 0.512752 -3.42887 0
M  V30 1202 C 114.52 -0.39252 -4.27502 0
M  V30 1203 C 113.753 0.375625 -5.32377 0
M  V30 1204 O 113.976 1.60613 -5.4732 0
M  V30 1205 O 112.91 -0.256094 -6.01355 0
M  V30 1206 H 116.736 -1.12242 -2.82197 0
M  V30 1207 H 114.321 -0.612685 -1.36259 0
M  V30 1208 H 116.203 0.970704 -4.10067 0
M  V30 1209 H 114.878 1.31826 -2.95641 0
M  V30 1210 H 113.785 -0.898547 -3.63149 0
M  V30 1211 H 115.118 -1.16309 -4.7826 0
M  V30 1212 N 116.77 1.45427 -0.607355 0
M  V30 1213 C 117.998 2.06614 -0.108814 0
M  V30 1214 C 118.413 1.45204 1.2067 0
M  V30 1215 O 117.77 0.566132 1.73497 0
M  V30 1216 C 117.821 3.61481 0.0375347 0
M  V30 1217 O 117.542 4.20598 -1.22593 0
M  V30 1218 C 119.043 4.39652 0.567561 0
M  V30 1219 H 116.263 0.66747 -0.0687351 0
M  V30 1220 H 118.807 1.86675 -0.835022 0
M  V30 1221 H 116.962 3.80762 0.714068 0
M  V30 1222 H 117.376 5.1377 -1.05547 0
M  V30 1223 H 118.85 5.48518 0.61905 0
M  V30 1224 H 119.327 4.09417 1.58978 0
M  V30 1225 H 119.933 4.25234 -0.0749202 0
M  V30 1226 N 118.248 0.346503 1.53744 0
M  V30 1227 C 119.198 -0.524953 2.21874 0
M  V30 1228 C 120.182 -1.06376 1.20718 0
M  V30 1229 O 121.374 -0.996972 1.46251 0
M  V30 1230 C 118.503 -1.6739 2.99726 0
M  V30 1231 C 117.589 -1.14888 4.08242 0
M  V30 1232 N 117.98 -0.345329 5.0462 0
M  V30 1233 C 116.278 -1.4255 4.22606 0
M  V30 1234 C 116.979 -0.0600706 5.81669 0
M  V30 1235 N 115.955 -0.65252 5.39669 0
M  V30 1236 H 119.757 0.0960091 2.93743 0
M  V30 1237 H 117.271 0.15352 1.61673 0
M  V30 1238 H 119.268 -2.3102 3.47038 0
M  V30 1239 H 117.928 -2.29811 2.29384 0
M  V30 1240 H 118.939 0.0138439 5.17898 0
M  V30 1241 H 115.616 -2.05389 3.63486 0
M  V30 1242 H 117.006 0.588321 6.69319 0
M  V30 1243 N 119.726 -1.57421 0.075193 0
M  V30 1244 C 120.676 -2.09441 -0.901025 0
M  V30 1245 C 121.66 -1.00486 -1.25663 0
M  V30 1246 O 122.852 -1.2679 -1.23504 0
M  V30 1247 C 119.981 -2.66233 -2.16737 0
M  V30 1248 C 119.067 -3.82198 -1.83808 0
M  V30 1249 N 119.458 -4.91028 -1.21345 0
M  V30 1250 C 117.756 -3.91558 -2.13538 0
M  V30 1251 C 118.457 -5.71852 -1.06585 0
M  V30 1252 N 117.433 -5.20233 -1.57667 0
M  V30 1253 H 121.235 -2.90972 -0.413815 0
M  V30 1254 H 118.749 -1.6189 -0.128601 0
M  V30 1255 H 120.746 -3.01819 -2.87595 0
M  V30 1256 H 119.406 -1.8615 -2.66042 0
M  V30 1257 H 120.417 -5.10323 -0.88268 0
M  V30 1258 H 117.094 -3.22454 -2.65197 0
M  V30 1259 H 118.484 -6.69401 -0.578933 0
M  V30 1260 N 121.204 0.198386 -1.56346 0
M  V30 1261 C 122.151 1.24589 -1.94284 0
M  V30 1262 C 123.121 1.454 -0.802997 0
M  V30 1263 O 124.306 1.58588 -1.06087 0
M  V30 1264 C 121.446 2.58631 -2.28482 0
M  V30 1265 C 120.559 2.45426 -3.55514 0
M  V30 1266 C 119.694 3.7215 -3.79049 0
M  V30 1267 C 118.733 3.53763 -4.99518 0
M  V30 1268 N 117.87 4.72491 -5.19323 0
M  V30 1269 H 122.71 0.915356 -2.83593 0
M  V30 1270 H 120.247 0.440629 -1.40346 0
M  V30 1271 H 122.205 3.3672 -2.46324 0
M  V30 1272 H 120.835 2.89734 -1.42317 0
M  V30 1273 H 119.887 1.58652 -3.45737 0
M  V30 1274 H 121.199 2.27772 -4.43758 0
M  V30 1275 H 120.353 4.58679 -3.97113 0
M  V30 1276 H 119.092 3.92754 -2.89129 0
M  V30 1277 H 118.097 2.65619 -4.8138 0
M  V30 1278 H 119.322 3.34607 -5.90944 0
M  V30 1279 H 117.268 4.93365 -4.3235 0
M  V30 1280 H 117.185 4.5765 -6.01741 0
M  V30 1281 H 118.453 5.6038 -5.41843 0
M  V30 1282 N 122.682 1.50554 0.465978 0
M  V30 1283 C 123.931 1.61038 1.21448 0
M  V30 1284 C 124.244 0.31865 1.92987 0
M  V30 1285 O 125.45 0.302469 2.6981 0
M  V30 1286 C 123.906 2.84283 2.20706 0
M  V30 1287 C 123.514 4.20352 1.54946 0
M  V30 1288 C 125.258 3.04115 2.96166 0
M  V30 1289 C 123.165 5.34778 2.5252 0
M  V30 1290 H 122.095 0.599718 0.457005 0
M  V30 1291 H 124.746 1.7699 0.484424 0
M  V30 1292 H 123.128 2.61901 2.97025 0
M  V30 1293 H 124.302 4.53008 0.843811 0
M  V30 1294 H 122.617 4.06167 0.917475 0
M  V30 1295 H 125.214 3.86774 3.69202 0
M  V30 1296 H 125.557 2.16045 3.55852 0
M  V30 1297 H 126.09 3.26702 2.26959 0
M  V30 1298 H 122.829 6.25018 1.97566 0
M  V30 1299 H 122.349 5.06534 3.21222 0
M  V30 1300 H 124.028 5.65561 3.14245 0
M  V30 1301 N 124.16 -0.719506 1.40217 0
M  V30 1302 C 125.407 -1.47933 1.38283 0
M  V30 1303 C 125.735 -1.94493 -0.0161536 0
M  V30 1304 O 124.99 -1.68224 -0.999956 0
M  V30 1305 C 125.289 -2.72271 2.31524 0
M  V30 1306 C 124.955 -2.44496 3.78857 0
M  V30 1307 C 123.617 -2.36631 4.18998 0
M  V30 1308 C 125.969 -2.21104 4.71977 0
M  V30 1309 C 123.297 -2.03437 5.503 0
M  V30 1310 C 125.649 -1.89423 6.03574 0
M  V30 1311 C 124.313 -1.80038 6.42762 0
M  V30 1312 H 123.583 -0.541325 0.506012 0
M  V30 1313 H 126.23 -0.824502 1.72842 0
M  V30 1314 H 124.535 -3.42572 1.90137 0
M  V30 1315 H 126.232 -3.30348 2.27313 0
M  V30 1316 H 122.822 -2.51503 3.47051 0
M  V30 1317 H 127.006 -2.26139 4.41786 0
M  V30 1318 H 122.262 -1.94705 5.79569 0
M  V30 1319 H 126.436 -1.70336 6.75247 0
M  V30 1320 H 124.063 -1.54083 7.44421 0
M  V30 1321 N 125.638 -1.25649 -0.95132 0
M  V30 1322 C 126.866 -1.13343 -1.73092 0
M  V30 1323 C 127.281 0.312434 -1.86197 0
M  V30 1324 O 126.638 1.21465 -1.36207 0
M  V30 1325 C 126.689 -1.78602 -3.14299 0
M  V30 1326 O 126.41 -3.17537 -3.01831 0
M  V30 1327 C 127.911 -1.72119 -4.08522 0
M  V30 1328 H 125.131 -0.395181 -0.542285 0
M  V30 1329 H 127.675 -1.66076 -1.19328 0
M  V30 1330 H 125.83 -1.29832 -3.64996 0
M  V30 1331 H 126.244 -3.49676 -3.90931 0
M  V30 1332 H 127.718 -2.22435 -5.052 0
M  V30 1333 H 128.195 -0.685635 -4.33815 0
M  V30 1334 H 128.801 -2.20393 -3.63741 0
M  V30 1335 N 127.117 1.15442 -1.07289 0
M  V30 1336 C 128.064 2.20161 -0.692653 0
M  V30 1337 C 129.034 1.63073 0.31564 0
M  V30 1338 O 130.219 1.89725 0.202235 0
M  V30 1339 C 127.359 3.44967 -0.0959509 0
M  V30 1340 C 126.472 4.16256 -1.15564 0
M  V30 1341 C 125.607 5.28609 -0.524011 0
M  V30 1342 C 124.646 5.91715 -1.56653 0
M  V30 1343 N 123.783 6.9554 -0.957531 0
M  V30 1344 H 128.623 2.52037 -1.59002 0
M  V30 1345 H 126.16 1.2378 -0.794798 0
M  V30 1346 H 128.118 4.16341 0.267628 0
M  V30 1347 H 126.748 3.1361 0.764772 0
M  V30 1348 H 125.8 3.43385 -1.6368 0
M  V30 1349 H 127.112 4.59268 -1.94613 0
M  V30 1350 H 126.266 6.06604 -0.108032 0
M  V30 1351 H 125.005 4.86787 0.29825 0
M  V30 1352 H 124.01 5.12433 -1.9923 0
M  V30 1353 H 125.235 6.35614 -2.39107 0
M  V30 1354 H 123.181 6.55814 -0.156162 0
M  V30 1355 H 123.098 7.36977 -1.68526 0
M  V30 1356 H 124.366 7.77435 -0.567032 0
M  V30 1357 N 128.595 0.856903 1.32268 0
M  V30 1358 C 129.823 0.475439 2.01363 0
M  V30 1359 C 130.238 -0.928486 1.64392 0
M  V30 1360 O 129.595 -1.60624 0.866387 0
M  V30 1361 C 129.646 0.607545 3.56358 0
M  V30 1362 O 129.367 1.95617 3.92002 0
M  V30 1363 C 130.868 0.225382 4.42727 0
M  V30 1364 H 128.088 0.186636 0.644521 0
M  V30 1365 H 130.632 1.15446 1.68797 0
M  V30 1366 H 128.787 -0.0237719 3.87393 0
M  V30 1367 H 129.201 1.95455 4.86721 0
M  V30 1368 H 130.675 0.368813 5.50767 0
M  V30 1369 H 131.152 -0.834369 4.31202 0
M  V30 1370 H 131.758 0.831864 4.17085 0
M  V30 1371 N 130.073 -1.45103 0.615059 0
M  V30 1372 C 131.321 -2.01784 0.112955 0
M  V30 1373 C 131.642 -1.48504 -1.26378 0
M  V30 1374 O 130.912 -0.682245 -1.83636 0
M  V30 1375 H 129.492 -0.745993 0.0387668 0
M  V30 1376 H 132.154 -1.77808 0.798141 0
M  V30 1377 H 131.25 -3.12025 0.0684069 0
M  V30 1378 N 131.551 -0.354651 -1.53558 0
M  V30 1379 C 132.797 0.238797 -2.01389 0
M  V30 1380 C 133.13 1.49309 -1.2418 0
M  V30 1381 O 132.405 1.91638 -0.332457 0
M  V30 1382 C 132.688 0.541771 -3.56001 0
M  V30 1383 C 132.541 -0.725388 -4.43912 0
M  V30 1384 C 133.86 1.34685 -4.18984 0
M  V30 1385 H 130.979 0.0853177 -0.732045 0
M  V30 1386 H 133.621 -0.477384 -1.83905 0
M  V30 1387 H 131.771 1.15189 -3.71031 0
M  V30 1388 H 133.443 -1.36313 -4.407 0
M  V30 1389 H 131.686 -1.34801 -4.12324 0
M  V30 1390 H 132.357 -0.468505 -5.50008 0
M  V30 1391 H 134.833 0.830837 -4.07721 0
M  V30 1392 H 133.709 1.52759 -5.27215 0
M  V30 1393 H 133.97 2.35221 -3.74331 0
M  V30 1394 N 133.029 1.57378 -0.0835403 0
M  V30 1395 C 133.959 2.1641 0.87686 0
M  V30 1396 C 134.94 1.09429 1.30228 0
M  V30 1397 O 136.125 1.37516 1.37124 0
M  V30 1398 C 133.255 2.73517 2.14022 0
M  V30 1399 C 132.209 3.85769 1.85381 0
M  V30 1400 C 131.535 4.29529 3.18448 0
M  V30 1401 C 132.835 5.09486 1.14984 0
M  V30 1402 H 134.529 2.96914 0.385059 0
M  V30 1403 H 132.075 1.42823 0.18377 0
M  V30 1404 H 134.028 3.13463 2.81636 0
M  V30 1405 H 132.752 1.90252 2.65465 0
M  V30 1406 H 131.411 3.46345 1.20169 0
M  V30 1407 H 131.059 3.43169 3.67755 0
M  V30 1408 H 130.759 5.05204 3.00071 0
M  V30 1409 H 132.283 4.72099 3.8724 0
M  V30 1410 H 133.697 5.46674 1.72687 0
M  V30 1411 H 132.094 5.90515 1.06826 0
M  V30 1412 H 133.164 4.84724 0.130749 0
M  V30 1413 N 134.507 -0.190092 1.56449 0
M  V30 1414 C 135.753 -0.911052 1.81184 0
M  V30 1415 C 136.086 -1.82699 0.658396 0
M  V30 1416 O 135.361 -1.91491 -0.340775 0
M  V30 1417 C 135.644 -1.72297 3.16205 0
M  V30 1418 C 135.497 -0.831419 4.42049 0
M  V30 1419 C 136.816 -2.69454 3.47969 0
M  V30 1420 H 133.935 -0.32977 0.659106 0
M  V30 1421 H 136.577 -0.178169 1.89163 0
M  V30 1422 H 134.727 -2.34778 3.09534 0
M  V30 1423 H 136.399 -0.220929 4.60771 0
M  V30 1424 H 134.642 -0.138406 4.33579 0
M  V30 1425 H 135.313 -1.43461 5.33032 0
M  V30 1426 H 137.789 -2.17104 3.54972 0
M  V30 1427 H 136.665 -3.23342 4.43555 0
M  V30 1428 H 136.926 -3.48744 2.71717 0
M  V30 1429 N 135.985 -1.50799 -0.457987 0
M  V30 1430 C 137.232 -1.62442 -1.20908 0
M  V30 1431 C 137.56 -0.330865 -1.91665 0
M  V30 1432 O 136.815 0.68401 -1.83357 0
M  V30 1433 C 137.114 -2.76358 -2.2663 0
M  V30 1434 C 136.78 -4.16378 -1.73033 0
M  V30 1435 C 135.442 -4.54473 -1.58138 0
M  V30 1436 C 137.794 -5.03836 -1.33413 0
M  V30 1437 C 135.122 -5.77754 -1.02065 0
M  V30 1438 C 137.474 -6.27676 -0.78778 0
M  V30 1439 C 136.138 -6.64562 -0.625561 0
M  V30 1440 H 135.408 -0.594417 -0.442435 0
M  V30 1441 H 138.055 -1.84772 -0.503136 0
M  V30 1442 H 136.36 -2.48167 -3.03184 0
M  V30 1443 H 138.057 -2.82568 -2.84528 0
M  V30 1444 H 134.647 -3.86331 -1.85598 0
M  V30 1445 H 138.831 -4.75026 -1.4375 0
M  V30 1446 H 134.087 -6.04997 -0.882547 0
M  V30 1447 H 138.261 -6.94797 -0.472177 0
M  V30 1448 H 135.888 -7.59965 -0.188926 0
M  V30 1449 N 137.463 0.71206 -1.40597 0
M  V30 1450 C 138.711 1.46907 -1.38791 0
M  V30 1451 C 139.032 1.94998 0.00780391 0
M  V30 1452 O 138.302 1.70587 0.963174 0
M  V30 1453 H 136.882 0.545043 -0.51082 0
M  V30 1454 H 139.544 0.843882 -1.75683 0
M  V30 1455 H 138.64 2.34021 -2.06496 0
M  V30 1456 N 138.941 1.26152 0.944643 0
M  V30 1457 C 140.352 1.10454 1.50522 0
M  V30 1458 C 140.703 -0.31635 1.93633 0
M  V30 1459 O 139.828 -1.20746 1.79581 0
M  V30 1460 C 140.423 1.99891 2.73549 0
M  V30 1461 C 138.982 1.88348 3.25886 0
M  V30 1462 C 138.129 1.93447 1.9868 0
M  V30 1463 H 141.08 1.39292 0.760489 0
M  V30 1464 H 141.101 1.54477 3.47732 0
M  V30 1465 H 140.613 3.03297 2.42141 0
M  V30 1466 H 138.714 0.878636 3.62092 0
M  V30 1467 H 138.827 2.73696 3.93227 0
M  V30 1468 H 137.191 1.37456 2.14425 0
M  V30 1469 H 137.974 2.98476 1.69607 0
M  V30 1470 N 140.419 -1.14872 1.07899 0
M  V30 1471 C 141.366 -2.19791 0.704319 0
M  V30 1472 C 142.336 -1.63238 -0.306987 0
M  V30 1473 O 143.521 -1.8983 -0.192171 0
M  V30 1474 C 140.661 -3.44911 0.114244 0
M  V30 1475 C 139.774 -4.15637 1.1777 0
M  V30 1476 C 138.909 -5.28324 0.552037 0
M  V30 1477 C 137.948 -5.90875 1.59789 0
M  V30 1478 N 137.085 -6.95022 0.994404 0
M  V30 1479 H 141.925 -2.5119 1.60336 0
M  V30 1480 H 139.462 -1.23356 0.801352 0
M  V30 1481 H 141.42 -4.16477 -0.245544 0
M  V30 1482 H 140.05 -3.14011 -0.74813 0
M  V30 1483 H 139.102 -3.42512 1.65499 0
M  V30 1484 H 140.414 -4.5823 1.97046 0
M  V30 1485 H 139.568 -6.06538 0.1402 0
M  V30 1486 H 138.307 -4.86939 -0.272431 0
M  V30 1487 H 137.312 -5.11369 2.01945 0
M  V30 1488 H 138.537 -6.34337 2.42474 0
M  V30 1489 H 136.483 -6.55722 0.190939 0
M  V30 1490 H 136.4 -7.36073 1.72432 0
M  V30 1491 H 137.668 -7.77123 0.608253 0
M  V30 1492 N 141.898 -0.863906 -1.31812 0
M  V30 1493 C 143.146 -0.470904 -1.96537 0
M  V30 1494 C 143.467 0.978771 -1.68657 0
M  V30 1495 O 142.737 1.6853 -0.998717 0
M  V30 1496 H 141.317 -0.171148 -0.72713 0
M  V30 1497 H 143.979 -1.10236 -1.60729 0
M  V30 1498 H 143.075 -0.623616 -3.05806 0
M  V30 1499 N 143.376 1.44774 -0.622745 0
M  V30 1500 C 144.286 2.34433 0.0886031 0
M  V30 1501 C 145.302 1.52131 0.844529 0
M  V30 1502 O 146.478 1.84886 0.798691 0
M  V30 1503 C 143.543 3.29986 1.0635 0
M  V30 1504 C 142.604 4.28195 0.307873 0
M  V30 1505 C 141.837 5.19183 1.23633 0
M  V30 1506 O 142.06 5.13918 2.47476 0
M  V30 1507 O 140.994 5.97515 0.725189 0
M  V30 1508 H 144.82 2.96693 -0.648599 0
M  V30 1509 H 142.405 1.44408 -0.382957 0
M  V30 1510 H 144.287 3.88825 1.6246 0
M  V30 1511 H 142.962 2.70269 1.78146 0
M  V30 1512 H 141.869 3.72927 -0.296064 0
M  V30 1513 H 143.202 4.90808 -0.3699 0
M  V30 1514 N 144.854 0.36279 1.53368 0
M  V30 1515 C 146.079 -0.231226 2.06107 0
M  V30 1516 C 146.504 -1.419 1.23474 0
M  V30 1517 O 145.862 -1.79524 0.253128 0
M  V30 1518 C 145.91 -0.605523 3.5548 0
M  V30 1519 O 145.014 -1.70312 3.7559 0
M  V30 1520 H 144.355 -0.034327 0.663112 0
M  V30 1521 H 146.885 0.522584 1.97814 0
M  V30 1522 H 146.895 -0.877314 3.98456 0
M  V30 1523 H 145.57 0.263004 4.15068 0
M  V30 1524 H 144.147 -1.4271 3.44512 0
M  V30 1525 N 146.332 -1.57332 0.0918853 0
M  V30 1526 C 147.295 -2.12708 -0.85369 0
M  V30 1527 C 148.295 -1.05561 -1.213 0
M  V30 1528 O 149.485 -1.31461 -1.14296 0
M  V30 1529 C 146.617 -2.64503 -2.15061 0
M  V30 1530 H 147.81 -2.97573 -0.3729 0
M  V30 1531 H 145.363 -1.55509 -0.157072 0
M  V30 1532 H 146.098 -1.83149 -2.67632 0
M  V30 1533 H 145.883 -3.4284 -1.90272 0
M  V30 1534 H 147.373 -3.07351 -2.82711 0
M  V30 1535 N 147.81 0.181792 -1.56548 0
M  V30 1536 C 149.057 0.900097 -1.81396 0
M  V30 1537 C 149.385 1.82695 -0.667281 0
M  V30 1538 O 148.64 1.92614 0.346146 0
M  V30 1539 C 148.939 1.73728 -3.12335 0
M  V30 1540 C 148.605 0.960255 -4.40556 0
M  V30 1541 C 147.267 0.745766 -4.75386 0
M  V30 1542 C 149.619 0.414477 -5.19549 0
M  V30 1543 C 146.947 -0.0257694 -5.86694 0
M  V30 1544 C 149.299 -0.343916 -6.31664 0
M  V30 1545 C 147.963 -0.569301 -6.65068 0
M  V30 1546 H 147.233 0.329369 -0.663775 0
M  V30 1547 H 149.88 0.165647 -1.90782 0
M  V30 1548 H 148.185 2.54081 -2.98245 0
M  V30 1549 H 149.882 2.29591 -3.28769 0
M  V30 1550 H 146.472 1.13746 -4.13231 0
M  V30 1551 H 150.656 0.567554 -4.93044 0
M  V30 1552 H 145.912 -0.210233 -6.11038 0
M  V30 1553 H 150.086 -0.774133 -6.92084 0
M  V30 1554 H 147.713 -1.16903 -7.51158 0
M  V30 1555 N 149.288 1.51039 0.449983 0
M  V30 1556 C 150.534 1.63322 1.20223 0
M  V30 1557 C 150.867 0.34241 1.91158 0
M  V30 1558 O 150.142 -0.657344 1.83055 0
M  V30 1559 C 150.425 2.82801 2.22925 0
M  V30 1560 C 150.278 4.21823 1.56157 0
M  V30 1561 C 151.597 2.97807 3.24035 0
M  V30 1562 H 148.716 0.594407 0.435718 0
M  V30 1563 H 151.358 1.83489 0.493136 0
M  V30 1564 H 149.508 2.65738 2.834 0
M  V30 1565 H 151.18 4.50526 0.991162 0
M  V30 1566 H 149.423 4.25105 0.864172 0
M  V30 1567 H 150.094 5.01391 2.30891 0
M  V30 1568 H 152.57 3.13497 2.73603 0
M  V30 1569 H 151.446 3.82992 3.93202 0
M  V30 1570 H 151.707 2.09328 3.89402 0
M  V30 1571 N 150.766 -0.704594 1.40972 0
M  V30 1572 C 151.729 -1.80035 1.41845 0
M  V30 1573 C 152.729 -1.57774 0.310474 0
M  V30 1574 O 153.919 -1.64613 0.56992 0
M  V30 1575 C 151.051 -3.18284 1.22098 0
M  V30 1576 H 152.244 -1.80658 2.3938 0
M  V30 1577 H 149.797 -0.911329 1.26982 0
M  V30 1578 H 150.532 -3.23306 0.253672 0
M  V30 1579 H 150.317 -3.35843 2.02366 0
M  V30 1580 H 151.807 -3.98289 1.25522 0
M  V30 1581 N 152.244 -1.26651 -0.937939 0
M  V30 1582 C 153.154 -1.10276 -2.07066 0
M  V30 1583 C 154.17 -0.0354197 -1.73964 0
M  V30 1584 O 155.346 -0.239816 -1.99967 0
M  V30 1585 C 152.411 -0.740887 -3.38691 0
M  V30 1586 C 151.472 -1.88799 -3.85556 0
M  V30 1587 C 150.705 -1.54329 -5.10899 0
M  V30 1588 O 150.928 -0.446494 -5.6865 0
M  V30 1589 O 149.862 -2.37911 -5.52885 0
M  V30 1590 H 153.688 -2.05309 -2.23789 0
M  V30 1591 H 151.273 -1.05743 -1.0554 0
M  V30 1592 H 153.155 -0.55195 -4.1777 0
M  V30 1593 H 151.83 0.180022 -3.23199 0
M  V30 1594 H 150.737 -2.13191 -3.07409 0
M  V30 1595 H 152.07 -2.78874 -4.05574 0
M  V30 1596 N 153.722 1.14298 -1.08507 0
M  V30 1597 C 154.95 1.89219 -0.836876 0
M  V30 1598 C 155.365 1.78638 0.611054 0
M  V30 1599 O 154.722 1.14643 1.41998 0
M  V30 1600 C 154.773 3.39158 -1.25116 0
M  V30 1601 O 154.494 3.49449 -2.64229 0
M  V30 1602 C 155.995 4.31073 -1.03398 0
M  V30 1603 H 153.215 0.599328 -0.301739 0
M  V30 1604 H 155.759 1.44746 -1.44461 0
M  V30 1605 H 153.914 3.81251 -0.687514 0
M  V30 1606 H 154.328 4.42589 -2.81452 0
M  V30 1607 H 155.802 5.34646 -1.37323 0
M  V30 1608 H 156.279 4.3919 0.0289259 0
M  V30 1609 H 156.885 3.94738 -1.58311 0
M  V30 1610 N 155.201 0.870884 1.31352 0
M  V30 1611 C 156.134 0.271983 2.26573 0
M  V30 1612 C 157.112 -0.599385 1.51149 0
M  V30 1613 O 158.296 -0.552605 1.80218 0
M  V30 1614 C 155.423 -0.614801 3.33073 0
M  V30 1615 C 154.469 0.185342 4.26097 0
M  V30 1616 S 155.302 1.56444 5.12138 0
M  V30 1617 C 156.458 0.683807 6.22153 0
M  V30 1618 H 156.691 1.07916 2.77023 0
M  V30 1619 H 154.224 0.669459 1.39132 0
M  V30 1620 H 156.182 -1.12074 3.94905 0
M  V30 1621 H 154.843 -1.39593 2.81376 0
M  V30 1622 H 154.036 -0.490771 5.01605 0
M  V30 1623 H 153.638 0.623415 3.68768 0
M  V30 1624 H 155.93 -0.10521 6.77418 0
M  V30 1625 H 156.873 1.41004 6.93919 0
M  V30 1626 H 157.281 0.250952 5.63942 0
M  V30 1627 N 156.679 -1.44442 0.630414 0
M  V30 1628 C 157.589 -2.34476 -0.0761693 0
M  V30 1629 C 158.605 -1.52576 -0.836449 0
M  V30 1630 O 159.781 -1.85307 -0.788874 0
M  V30 1631 C 156.846 -3.30545 -1.04599 0
M  V30 1632 C 155.907 -4.28352 -0.28516 0
M  V30 1633 C 155.14 -5.19831 -1.20878 0
M  V30 1634 O 155.363 -5.15223 -2.44747 0
M  V30 1635 O 154.297 -5.97892 -0.693491 0
M  V30 1636 H 158.123 -2.96345 0.664324 0
M  V30 1637 H 155.708 -1.44203 0.39061 0
M  V30 1638 H 157.59 -3.89681 -1.60396 0
M  V30 1639 H 156.265 -2.7121 -1.76711 0
M  V30 1640 H 155.172 -3.72764 0.315837 0
M  V30 1641 H 156.505 -4.90605 0.395924 0
M  V30 1642 N 158.157 -0.370918 -1.53173 0
M  V30 1643 C 159.12 0.460778 -2.24521 0
M  V30 1644 C 160.12 1.00536 -1.25496 0
M  V30 1645 O 161.31 0.890266 -1.49733 0
M  V30 1646 C 158.442 1.64457 -2.98608 0
M  V30 1647 H 159.635 -0.163613 -2.99453 0
M  V30 1648 H 157.188 -0.122699 -1.55818 0
M  V30 1649 H 157.923 2.30691 -2.2793 0
M  V30 1650 H 157.708 1.26099 -3.7127 0
M  V30 1651 H 159.198 2.23384 -3.5283 0
M  V30 1652 N 159.635 1.57281 -0.100228 0
M  V30 1653 C 160.598 2.13158 0.842398 0
M  V30 1654 C 161.598 1.06202 1.20738 0
M  V30 1655 O 162.788 1.32066 1.13597 0
M  V30 1656 C 159.92 2.65639 2.13655 0
M  V30 1657 H 161.113 2.97766 0.357114 0
M  V30 1658 H 158.666 1.5559 0.148823 0
M  V30 1659 H 159.401 1.84566 2.66657 0
M  V30 1660 H 159.186 3.43844 1.88451 0
M  V30 1661 H 160.676 3.08846 2.81077 0
M  V30 1662 N 161.113 -0.173488 1.56642 0
M  V30 1663 C 162.06 -1.21482 1.96242 0
M  V30 1664 C 163.03 -1.44104 0.826027 0
M  V30 1665 O 164.215 -1.5688 1.08597 0
M  V30 1666 C 161.355 -2.54964 2.32567 0
M  V30 1667 C 160.468 -2.39739 3.59373 0
M  V30 1668 C 159.603 -3.66072 3.84921 0
M  V30 1669 C 158.642 -3.45771 5.05083 0
M  V30 1670 N 157.779 -4.64169 5.26775 0
M  V30 1671 H 162.619 -0.870123 2.85014 0
M  V30 1672 H 160.156 -0.418245 1.41029 0
M  V30 1673 H 162.114 -3.32758 2.5165 0
M  V30 1674 H 160.744 -2.87433 1.46908 0
M  V30 1675 H 159.796 -1.53131 3.48217 0
M  V30 1676 H 161.108 -2.20683 4.47326 0
M  V30 1677 H 160.262 -4.52303 4.0436 0
M  V30 1678 H 159.001 -3.88105 2.9534 0
M  V30 1679 H 158.006 -2.57927 4.85545 0
M  V30 1680 H 159.231 -3.25163 5.96193 0
M  V30 1681 H 157.177 -4.86425 4.40144 0
M  V30 1682 H 157.094 -4.48019 6.08946 0
M  V30 1683 H 158.362 -5.51689 5.5069 0
M  V30 1684 N 162.591 -1.51276 -0.441967 0
M  V30 1685 C 163.501 -1.75092 -1.56141 0
M  V30 1686 C 164.517 -0.634963 -1.62001 0
M  V30 1687 O 165.693 -0.916686 -1.79329 0
M  V30 1688 C 162.758 -1.86666 -2.92158 0
M  V30 1689 C 161.819 -3.10506 -2.96453 0
M  V30 1690 C 161.052 -3.21519 -4.25982 0
M  V30 1691 O 161.275 -2.38586 -5.18105 0
M  V30 1692 O 160.209 -4.14465 -4.36466 0
M  V30 1693 H 164.035 -2.70044 -1.38961 0
M  V30 1694 H 161.62 -1.35722 -0.624499 0
M  V30 1695 H 163.502 -1.96292 -3.72891 0
M  V30 1696 H 162.177 -0.949014 -3.09476 0
M  V30 1697 H 161.084 -3.06363 -2.14692 0
M  V30 1698 H 162.417 -4.01945 -2.84079 0
M  V30 1699 N 164.069 0.697108 -1.41344 0
M  V30 1700 C 165.019 1.80313 -1.39539 0
M  V30 1701 C 166.003 1.58618 -0.270001 0
M  V30 1702 O 167.195 1.69477 -0.510551 0
M  V30 1703 C 164.324 3.18606 -1.27848 0
M  V30 1704 C 163.41 3.46001 -2.45244 0
M  V30 1705 N 163.801 3.44103 -3.70711 0
M  V30 1706 C 162.099 3.76542 -2.39023 0
M  V30 1707 C 162.8 3.7036 -4.48563 0
M  V30 1708 N 161.776 3.90027 -3.78655 0
M  V30 1709 H 165.578 1.77207 -2.34468 0
M  V30 1710 H 163.092 0.897031 -1.35378 0
M  V30 1711 H 165.089 3.97833 -1.24637 0
M  V30 1712 H 163.749 3.22925 -0.339032 0
M  V30 1713 H 164.76 3.2452 -4.03618 0
M  V30 1714 H 161.437 3.88241 -1.53542 0
M  V30 1715 H 162.827 3.75042 -5.57488 0
M  V30 1716 N 165.547 1.27147 0.931209 0
M  V30 1717 C 166.772 1.16191 1.71797 0
M  V30 1718 C 167.197 -0.278004 1.86034 0
M  V30 1719 O 166.555 -1.20137 1.35782 0
M  V30 1720 C 166.603 1.84673 3.09723 0
M  V30 1721 O 165.707 1.14231 3.96264 0
M  V30 1722 H 165.048 0.404303 0.526721 0
M  V30 1723 H 167.578 1.68152 1.1656 0
M  V30 1724 H 167.588 1.91893 3.60057 0
M  V30 1725 H 166.263 2.89421 2.98677 0
M  V30 1726 H 164.84 1.15056 3.54706 0
M  V30 1727 N 167.025 -1.13721 1.09112 0
M  V30 1728 C 167.955 -2.21148 0.749385 0
M  V30 1729 C 168.936 -1.6792 -0.271475 0
M  V30 1730 O 170.121 -1.93693 -0.140251 0
M  V30 1731 C 167.251 -3.46905 0.165659 0
M  V30 1732 C 166.205 -4.13203 1.11567 0
M  V30 1733 C 165.531 -5.33248 0.393809 0
M  V30 1734 C 166.831 -4.60912 2.45678 0
M  V30 1735 H 168.525 -2.4999 1.64758 0
M  V30 1736 H 166.071 -1.20156 0.793626 0
M  V30 1737 H 168.024 -4.21313 -0.085466 0
M  V30 1738 H 166.748 -3.17449 -0.767714 0
M  V30 1739 H 165.407 -3.40758 1.35202 0
M  V30 1740 H 165.055 -5.00054 -0.543599 0
M  V30 1741 H 164.755 -5.78552 1.02721 0
M  V30 1742 H 166.279 -6.10413 0.150908 0
M  V30 1743 H 167.693 -5.26759 2.26269 0
M  V30 1744 H 166.09 -5.16944 3.04776 0
M  V30 1745 H 167.16 -3.75603 3.06677 0
M  V30 1746 N 168.503 -0.877838 -1.30888 0
M  V30 1747 C 169.731 -0.507414 -2.00581 0
M  V30 1748 C 170.146 0.902216 -1.65848 0
M  V30 1749 O 169.503 1.59225 -0.891831 0
M  V30 1750 C 169.554 -0.664162 -3.55347 0
M  V30 1751 O 169.275 -2.01829 -3.8884 0
M  V30 1752 C 170.776 -0.295787 -4.42312 0
M  V30 1753 H 167.996 -0.196866 -0.641471 0
M  V30 1754 H 170.54 -1.18117 -1.66939 0
M  V30 1755 H 168.695 -0.0378619 -3.87381 0
M  V30 1756 H 169.109 -2.03174 -4.8355 0
M  V30 1757 H 170.583 -0.456388 -5.5011 0
M  V30 1758 H 171.06 0.765663 -4.32475 0
M  V30 1759 H 171.666 -0.898113 -4.15709 0
M  V30 1760 N 169.982 1.44106 -0.638065 0
M  V30 1761 C 171.228 2.02277 -0.145546 0
M  V30 1762 C 171.561 1.50125 1.23191 0
M  V30 1763 O 170.836 0.688133 1.8192 0
M  V30 1764 C 171.119 3.59829 -0.139791 0
M  V30 1765 C 170.972 4.22247 -1.55008 0
M  V30 1766 C 172.291 4.36873 0.531966 0
M  V30 1767 H 169.41 0.734992 -0.0543632 0
M  V30 1768 H 172.052 1.71592 -0.815863 0
M  V30 1769 H 170.202 3.86102 0.431007 0
M  V30 1770 H 171.874 4.07057 -2.1703 0
M  V30 1771 H 170.117 3.79476 -2.10191 0
M  V30 1772 H 170.788 5.31284 -1.49804 0
M  V30 1773 H 173.264 4.16074 0.0464781 0
M  V30 1774 H 172.14 5.4657 0.505206 0
M  V30 1775 H 172.401 4.11995 1.60352 0
M  V30 1776 N 171.46 0.379036 1.52974 0
M  V30 1777 C 172.737 -0.263479 1.93817 0
M  V30 1778 C 173.117 -1.65244 1.31368 0
M  V30 1779 O 172.465 -2.23448 0.477856 0
M  V30 1780 C 172.675 -0.300166 3.47707 0
M  V30 1781 C 174.023 -0.534061 4.21228 0
M  V30 1782 O 175.047 -0.38081 3.54159 0
M  V30 1783 O 173.906 -0.833501 5.40106 0
M  V30 1784 H 171 -0.161149 0.811147 0
M  V30 1785 H 173.546 0.432798 1.64088 0
M  V30 1786 H 172.318 0.673138 3.85467 0
M  V30 1787 H 171.941 -1.04179 3.83709 0
M  V30 1788 N 172.938 -1.57226 0.108567 0
M  V30 1789 C 173.868 -2.17778 -0.84232 0
M  V30 1790 C 174.849 -1.11487 -1.2847 0
M  V30 1791 O 176.034 -1.39681 -1.34918 0
M  V30 1792 C 173.164 -2.76888 -2.09644 0
M  V30 1793 C 172.118 -3.88669 -1.79221 0
M  V30 1794 C 171.444 -4.34541 -3.11574 0
M  V30 1795 C 172.744 -5.11251 -1.06864 0
M  V30 1796 H 174.438 -2.97489 -0.337774 0
M  V30 1797 H 171.984 -1.43097 -0.161025 0
M  V30 1798 H 173.937 -3.17904 -2.76614 0
M  V30 1799 H 172.661 -1.94451 -2.62405 0
M  V30 1800 H 171.32 -3.48213 -1.14644 0
M  V30 1801 H 170.968 -3.48977 -3.62249 0
M  V30 1802 H 170.668 -5.09914 -2.91996 0
M  V30 1803 H 172.192 -4.782 -3.7968 0
M  V30 1804 H 173.606 -5.49352 -1.63968 0
M  V30 1805 H 172.003 -5.9214 -0.974178 0
M  V30 1806 H 173.073 -4.8487 -0.0536168 0
M  V30 1807 N 174.416 0.165178 -1.56732 0
M  V30 1808 C 175.346 1.20651 -1.99914 0
M  V30 1809 C 176.327 1.45827 -0.875705 0
M  V30 1810 O 177.512 1.57057 -1.14223 0
M  V30 1811 C 174.642 2.54401 -2.36427 0
M  V30 1812 C 173.596 2.43782 -3.51787 0
M  V30 1813 C 172.922 3.82078 -3.7406 0
M  V30 1814 C 174.222 1.93732 -4.85041 0
M  V30 1815 H 175.916 0.847534 -2.87154 0
M  V30 1816 H 173.462 0.40625 -1.38151 0
M  V30 1817 H 175.415 3.27458 -2.65234 0
M  V30 1818 H 174.139 2.92098 -1.46103 0
M  V30 1819 H 172.798 1.73178 -3.23117 0
M  V30 1820 H 172.446 4.17179 -2.81017 0
M  V30 1821 H 172.146 3.7584 -4.51684 0
M  V30 1822 H 173.67 4.56712 -4.05274 0
M  V30 1823 H 175.084 2.56569 -5.12684 0
M  V30 1824 H 173.481 1.98428 -5.66345 0
M  V30 1825 H 174.551 0.891962 -4.76626 0
M  V30 1826 N 175.894 1.51508 0.433938 0
M  V30 1827 C 176.804 1.75917 1.5521 0
M  V30 1828 C 177.82 0.643545 1.61662 0
M  V30 1829 O 178.996 0.926183 1.7884 0
M  V30 1830 C 176.061 1.88213 2.91164 0
M  V30 1831 C 175.122 3.12074 2.94802 0
M  V30 1832 C 174.355 3.23774 4.24271 0
M  V30 1833 O 174.578 2.4133 5.16833 0
M  V30 1834 O 173.512 4.16774 4.34262 0
M  V30 1835 H 177.338 2.70777 1.37527 0
M  V30 1836 H 174.923 1.36051 0.617293 0
M  V30 1837 H 176.805 1.98267 3.71845 0
M  V30 1838 H 175.48 0.965413 3.08968 0
M  V30 1839 H 174.387 3.07497 2.13065 0
M  V30 1840 H 175.72 4.03446 2.81943 0
M  V30 1841 N 177.372 -0.689602 1.41712 0
M  V30 1842 C 178.62 -1.4468 1.4111 0
M  V30 1843 C 178.941 -1.94986 0.0232196 0
M  V30 1844 O 178.211 -1.72097 -0.935913 0
M  V30 1845 H 176.791 -0.536847 0.519427 0
M  V30 1846 H 179.453 -0.815825 1.77004 0
M  V30 1847 H 178.549 -2.30706 2.10193 0
M  V30 1848 N 178.85 -1.27639 -0.924453 0
M  V30 1849 C 180.127 -1.04887 -1.651 0
M  V30 1850 C 180.507 0.415327 -2.06974 0
M  V30 1851 O 179.855 1.39923 -1.80648 0
M  V30 1852 C 180.065 -2.01348 -2.85061 0
M  V30 1853 C 181.413 -2.30899 -3.56329 0
M  V30 1854 O 182.437 -1.99348 -2.95193 0
M  V30 1855 O 181.296 -2.84699 -4.66485 0
M  V30 1856 H 178.39 -0.400083 -0.723784 0
M  V30 1857 H 180.936 -1.38916 -0.974703 0
M  V30 1858 H 179.708 -3.0008 -2.51133 0
M  V30 1859 H 179.331 -1.679 -3.6041 0
M  V30 1860 N 180.328 1.1314 -1.09713 0
M  V30 1861 C 181.238 2.22242 -0.751367 0
M  V30 1862 C 182.254 1.72224 0.247938 0
M  V30 1863 O 183.43 2.01205 0.0885463 0
M  V30 1864 C 180.495 3.46231 -0.180274 0
M  V30 1865 C 179.556 4.11125 -1.2359 0
M  V30 1866 C 178.789 5.29195 -0.691966 0
M  V30 1867 O 179.012 5.68342 0.48414 0
M  V30 1868 O 177.946 5.84214 -1.44838 0
M  V30 1869 H 181.772 2.54197 -1.66186 0
M  V30 1870 H 179.357 1.21331 -0.871735 0
M  V30 1871 H 181.239 4.21185 0.134739 0
M  V30 1872 H 179.914 3.1597 0.703185 0
M  V30 1873 H 178.821 3.37985 -1.60366 0
M  V30 1874 H 180.154 4.45524 -2.09211 0
M  V30 1875 N 181.806 0.884767 1.30421 0
M  V30 1876 C 183.055 0.499164 1.95426 0
M  V30 1877 C 183.368 -0.95645 1.70621 0
M  V30 1878 O 184.574 -1.44889 2.29607 0
M  V30 1879 C 183.03 0.84177 3.49917 0
M  V30 1880 C 182.638 2.31514 3.83543 0
M  V30 1881 C 184.382 0.525355 4.21237 0
M  V30 1882 C 182.289 2.59939 5.31212 0
M  V30 1883 H 181.219 0.182944 0.73147 0
M  V30 1884 H 183.87 1.07971 1.48373 0
M  V30 1885 H 182.252 0.190311 3.95542 0
M  V30 1886 H 183.426 3.0109 3.48829 0
M  V30 1887 H 181.741 2.59907 3.25326 0
M  V30 1888 H 184.338 0.714762 5.29901 0
M  V30 1889 H 184.681 -0.535222 4.12845 0
M  V30 1890 H 185.214 1.134 3.81294 0
M  V30 1891 H 181.953 3.64736 5.44654 0
M  V30 1892 H 181.473 1.94972 5.67227 0
M  V30 1893 H 183.152 2.45429 5.98643 0
M  V30 1894 N 183.284 -1.43765 0.645699 0
M  V30 1895 C 184.232 -2.32516 -0.0624849 0
M  V30 1896 C 185.226 -1.48183 -0.820855 0
M  V30 1897 O 186.432 -1.64439 -0.732106 0
M  V30 1898 H 182.807 -0.750989 -0.0389864 0
M  V30 1899 H 184.778 -2.89979 0.703892 0
M  V30 1900 C 183.527 -3.32389 -1.02044 0
M  V30 1901 H 182.85 -3.97301 -0.446312 0
M  V30 1902 H 184.29 -3.97138 -1.48517 0
M  V30 1903 C 182.749 -2.62416 -2.11281 0
M  V30 1904 O 183.279 -2.434 -3.19561 0
M  V30 1905 N 181.485 -2.21913 -1.87624 0
M  V30 1906 H 181.032 -2.37578 -0.995703 0
M  V30 1907 H 180.99 -1.75424 -2.6091 0
M  V30 1908 N 184.763 -0.387143 -1.52771 0
M  V30 1909 C 185.71 0.449048 -2.26389 0
M  V30 1910 C 186.68 1.05961 -1.27912 0
M  V30 1911 O 187.865 1.08804 -1.56737 0
M  V30 1912 C 185.005 1.57155 -3.0724 0
M  V30 1913 C 184.118 0.984066 -4.20643 0
M  V30 1914 C 183.253 2.07745 -4.88892 0
M  V30 1915 C 182.292 1.46574 -5.94292 0
M  V30 1916 N 181.429 2.49834 -6.56146 0
M  V30 1917 H 186.269 -0.185205 -2.97424 0
M  V30 1918 H 183.806 -0.103164 -1.46738 0
M  V30 1919 H 185.764 2.23309 -3.52405 0
M  V30 1920 H 184.394 2.17615 -2.38419 0
M  V30 1921 H 183.446 0.212193 -3.79808 0
M  V30 1922 H 184.758 0.497029 -4.96318 0
M  V30 1923 H 183.912 2.81673 -5.3735 0
M  V30 1924 H 182.651 2.59807 -4.12737 0
M  V30 1925 H 181.656 0.711696 -5.45174 0
M  V30 1926 H 182.881 0.953088 -6.72379 0
M  V30 1927 H 180.827 3.0107 -5.82832 0
M  V30 1928 H 180.744 2.05879 -7.27427 0
M  V30 1929 H 182.012 3.23399 -7.09249 0
M  V30 1930 N 186.241 1.57166 -0.116904 0
M  V30 1931 C 187.657 1.5779 0.239693 0
M  V30 1932 C 187.857 1.1295 1.66867 0
M  V30 1933 O 186.913 0.81592 2.38954 0
M  V30 1934 C 188.226 3.00699 0.00828202 0
M  V30 1935 C 189.774 3.12912 0.0743438 0
M  V30 1936 C 190.249 4.57817 -0.129348 0
M  V30 1937 N 191.74 4.63139 -0.075247 0
M  V30 1938 C 192.475 5.73023 -0.207788 0
M  V30 1939 N 191.971 6.91665 -0.396382 0
M  V30 1940 N 193.764 5.61906 -0.14751 0
M  V30 1941 H 185.915 1.84615 -1.05029 0
M  V30 1942 H 188.178 0.85311 -0.41341 0
M  V30 1943 H 187.884 3.37784 -0.979531 0
M  V30 1944 H 187.758 3.69848 0.741077 0
M  V30 1945 H 190.145 2.75686 1.05268 0
M  V30 1946 H 190.226 2.4631 -0.690297 0
M  V30 1947 H 189.87 4.95742 -1.10465 0
M  V30 1948 H 189.8 5.22507 0.655253 0
M  V30 1949 H 192.291 3.7784 0.0670898 0
M  V30 1950 H 192.604 7.71255 -0.488437 0
M  V30 1951 H 190.949 6.93654 -0.432329 0
M  V30 1952 H 194.14 4.681 -0.00115036 0
M  V30 1953 H 194.313 6.47501 -0.254247 0
M  V30 1954 N 187.719 -0.156864 1.56817 0
M  V30 1955 C 188.965 -0.867645 1.83966 0
M  V30 1956 C 189.32 -1.79233 0.699511 0
M  V30 1957 O 188.613 -1.89186 -0.303176 0
M  V30 1958 C 188.807 -1.68737 3.1506 0
M  V30 1959 C 188.636 -0.843548 4.41718 0
M  V30 1960 C 187.406 -0.512994 5.02689 0
M  V30 1961 C 189.604 -0.178416 5.1399 0
M  V30 1962 N 187.586 0.345456 6.12927 0
M  V30 1963 C 188.957 0.540586 6.17639 0
M  V30 1964 C 191.012 -0.0980696 4.97803 0
M  V30 1965 C 189.715 1.33233 7.06853 0
M  V30 1966 C 191.741 0.680387 5.87473 0
M  V30 1967 C 191.103 1.3877 6.90596 0
M  V30 1968 H 187.202 -0.295642 0.723961 0
M  V30 1969 H 189.786 -0.13365 1.94241 0
M  V30 1970 H 187.957 -2.39268 3.0595 0
M  V30 1971 H 189.689 -2.34056 3.30151 0
M  V30 1972 H 186.444 -0.846476 4.65974 0
M  V30 1973 H 186.868 0.765415 6.72659 0
M  V30 1974 H 191.51 -0.630562 4.18071 0
M  V30 1975 H 189.228 1.87612 7.8602 0
M  V30 1976 H 192.814 0.744415 5.77018 0
M  V30 1977 H 191.694 1.9804 7.58782 0
M  V30 1978 N 189.197 -1.51736 -0.425897 0
M  V30 1979 C 190.608 -1.5732 -1.00536 0
M  V30 1980 C 190.959 -0.403537 -1.92005 0
M  V30 1981 O 190.084 0.478256 -2.11049 0
M  V30 1982 C 190.679 -2.85119 -1.8301 0
M  V30 1983 C 189.238 -2.93236 -2.35987 0
M  V30 1984 C 188.385 -2.52098 -1.15508 0
M  V30 1985 H 191.336 -1.57348 -0.206739 0
M  V30 1986 H 191.357 -2.69526 -2.68581 0
M  V30 1987 H 190.869 -3.7023 -1.16411 0
M  V30 1988 H 188.97 -2.12581 -3.06007 0
M  V30 1989 H 189.083 -3.9713 -2.68001 0
M  V30 1990 H 187.447 -2.05558 -1.50393 0
M  V30 1991 H 188.23 -3.39565 -0.505014 0
M  V30 1992 N 190.675 0.682077 -1.42076 0
M  V30 1993 C 191.923 1.4393 -1.41876 0
M  V30 1994 C 192.244 1.94971 -0.0335599 0
M  V30 1995 O 191.514 1.72591 0.926773 0
M  V30 1996 H 190.094 0.534085 -0.522267 0
M  V30 1997 H 192.756 0.806427 -1.77434 0
M  V30 1998 H 191.852 2.29588 -2.11414 0
M  V30 1999 N 192.153 1.28127 0.917671 0
M  V30 2000 C 193.402 1.14432 1.66097 0
M  V30 2001 C 193.715 -0.307247 1.93172 0
M  V30 2002 O 194.921 -0.565259 2.65551 0
M  V30 2003 C 193.377 2.00015 2.99202 0
M  V30 2004 C 192.985 3.49889 2.79789 0
M  V30 2005 C 194.729 1.94996 3.77064 0
M  V30 2006 C 192.636 4.27636 4.08511 0
M  V30 2007 H 191.566 0.424662 0.62304 0
M  V30 2008 H 194.217 1.52628 1.01868 0
M  V30 2009 H 192.599 1.54672 3.64544 0
M  V30 2010 H 193.773 4.03162 2.23152 0
M  V30 2011 H 192.088 3.56392 2.15345 0
M  V30 2012 H 194.685 2.50354 4.72469 0
M  V30 2013 H 195.028 0.925819 4.05875 0
M  V30 2014 H 195.561 2.38287 3.18534 0
M  V30 2015 H 192.3 5.30615 3.84874 0
M  V30 2016 H 191.82 3.79137 4.64774 0
M  V30 2017 H 193.499 4.37346 4.76799 0
M  V30 2018 N 193.631 -1.12557 1.10312 0
M  V30 2019 C 194.859 -1.87864 0.866873 0
M  V30 2020 C 195.274 -1.79588 -0.582557 0
M  V30 2021 O 194.631 -1.16887 -1.40156 0
M  V30 2022 C 194.682 -3.37125 1.30496 0
M  V30 2023 O 194.403 -3.45201 2.69755 0
M  V30 2024 C 195.904 -4.29373 1.10243 0
M  V30 2025 H 193.124 -0.594452 0.311236 0
M  V30 2026 H 195.668 -1.42429 1.46745 0
M  V30 2027 H 193.823 -3.80109 0.748081 0
M  V30 2028 H 194.237 -4.38056 2.88457 0
M  V30 2029 H 195.711 -5.32394 1.45811 0
M  V30 2030 H 196.188 -4.39181 0.0409492 0
M  V30 2031 H 196.794 -3.92169 1.64571 0
M  V30 2032 N 195.109 -0.891671 -1.2995 0
M  V30 2033 C 196.355 -0.514261 -1.96171 0
M  V30 2034 C 196.688 0.935506 -1.70182 0
M  V30 2035 O 195.963 1.66204 -1.01028 0
M  V30 2036 C 196.246 -0.797719 -3.51153 0
M  V30 2037 C 196.099 -2.2986 -3.86632 0
M  V30 2038 C 197.418 -0.278749 -4.39216 0
M  V30 2039 H 194.537 -0.188314 -0.712535 0
M  V30 2040 H 197.179 -1.11689 -1.53706 0
M  V30 2041 H 195.329 -0.284826 -3.87455 0
M  V30 2042 H 197.001 -2.88042 -3.60319 0
M  V30 2043 H 195.244 -2.76257 -3.34462 0
M  V30 2044 H 195.915 -2.44753 -4.94773 0
M  V30 2045 H 198.391 -0.717825 -4.09862 0
M  V30 2046 H 197.267 -0.506353 -5.46559 0
M  V30 2047 H 197.528 0.820266 -4.34424 0
M  V30 2048 N 196.587 1.43421 -0.653314 0
M  V30 2049 C 197.998 1.85065 -0.246537 0
M  V30 2050 C 198.349 1.54688 1.2069 0
M  V30 2051 O 197.474 0.995896 1.92122 0
M  V30 2052 C 198.069 3.35922 -0.440666 0
M  V30 2053 C 196.628 3.76297 -0.0882064 0
M  V30 2054 C 195.775 2.67147 -0.743484 0
M  V30 2055 H 198.726 1.33572 -0.856979 0
M  V30 2056 H 198.747 3.79204 0.313798 0
M  V30 2057 H 198.259 3.58 -1.49858 0
M  V30 2058 H 196.36 3.5983 0.96711 0
M  V30 2059 H 196.473 4.76338 -0.513738 0
M  V30 2060 H 194.837 2.54086 -0.176712 0
M  V30 2061 H 195.62 2.92053 -1.80443 0
M  V30 2062 N 198.065 0.39524 1.52563 0
M  V30 2063 C 198.975 -0.444232 2.30356 0
M  V30 2064 C 199.991 -1.06615 1.37511 0
M  V30 2065 O 201.167 -1.07067 1.70583 0
M  V30 2066 C 198.232 -1.55315 3.09964 0
M  V30 2067 C 197.293 -0.955734 4.18526 0
M  V30 2068 C 196.526 -2.01181 4.9433 0
M  V30 2069 O 196.749 -3.22781 4.70285 0
M  V30 2070 O 195.683 -1.62579 5.79527 0
M  V30 2071 H 199.509 0.189667 3.03107 0
M  V30 2072 H 197.094 0.1588 1.48554 0
M  V30 2073 H 198.976 -2.19724 3.59582 0
M  V30 2074 H 197.651 -2.17191 2.4002 0
M  V30 2075 H 196.558 -0.274743 3.7309 0
M  V30 2076 H 197.891 -0.381109 4.90722 0
M  V30 2077 N 199.544 -1.57102 0.125237 0
M  V30 2078 C 200.492 -2.16905 -0.839927 0
M  V30 2079 C 201.486 -1.11998 -1.27094 0
M  V30 2080 O 202.692 -1.3029 -1.24195 0
M  V30 2081 H 199.067 -0.694252 -0.288995 0
M  V30 2082 H 201.038 -2.96774 -0.311115 0
M  V30 2083 C 199.787 -2.78795 -2.07771 0
M  V30 2084 H 199.11 -3.59221 -1.755 0
M  V30 2085 H 200.55 -3.2417 -2.73295 0
M  V30 2086 C 199.009 -1.76193 -2.87155 0
M  V30 2087 O 199.539 -1.21909 -3.82755 0
M  V30 2088 N 197.745 -1.45991 -2.51267 0
M  V30 2089 H 197.292 -1.90325 -1.73592 0
M  V30 2090 H 197.25 -0.775844 -3.04677 0
M  V30 2091 N 201.022 0.148545 -1.56898 0
M  V30 2092 C 202.252 0.875118 -1.8715 0
M  V30 2093 C 202.66 1.75322 -0.711262 0
M  V30 2094 O 202.003 1.80745 0.328151 0
M  V30 2095 C 202.065 1.7844 -3.12089 0
M  V30 2096 C 201.729 1.08361 -4.43967 0
M  V30 2097 C 202.726 0.438247 -5.1805 0
M  V30 2098 C 200.411 1.07358 -4.90693 0
M  V30 2099 C 202.405 -0.20779 -6.37061 0
M  V30 2100 C 200.092 0.42373 -6.09629 0
M  V30 2101 C 201.09 -0.215829 -6.82659 0
M  V30 2102 O 200.778 -0.855378 -7.99336 0
M  V30 2103 H 200.51 0.258504 -0.624621 0
M  V30 2104 H 203.064 0.14652 -2.04877 0
M  V30 2105 H 201.294 2.55389 -2.90367 0
M  V30 2106 H 202.983 2.38279 -3.286 0
M  V30 2107 H 203.749 0.437817 -4.8302 0
M  V30 2108 H 199.628 1.5608 -4.33774 0
M  V30 2109 H 203.172 -0.70758 -6.94002 0
M  V30 2110 H 199.069 0.421822 -6.4412 0
M  V30 2111 H 199.837 -0.756892 -8.14993 0
M  V30 2112 N 202.5 1.5196 0.417844 0
M  V30 2113 C 203.448 1.75278 1.52907 0
M  V30 2114 C 204.442 0.619611 1.57662 0
M  V30 2115 O 205.648 0.801457 1.61173 0
M  V30 2116 H 202.023 0.554141 0.508362 0
M  V30 2117 H 203.994 2.68389 1.30422 0
M  V30 2118 C 202.743 1.91262 2.90369 0
M  V30 2119 H 202.066 2.77872 2.8745 0
M  V30 2120 H 203.506 2.11581 3.67436 0
M  V30 2121 C 201.965 0.677431 3.30019 0
M  V30 2122 O 202.495 -0.158799 4.01386 0
M  V30 2123 N 200.701 0.515851 2.85985 0
M  V30 2124 H 200.248 1.19744 2.28077 0
M  V30 2125 H 200.206 -0.309315 3.12875 0
M  V30 2126 N 203.978 -0.674533 1.42435 0
M  V30 2127 C 204.941 -1.76986 1.45632 0
M  V30 2128 C 205.941 -1.5708 0.343871 0
M  V30 2129 O 207.131 -1.63367 0.604709 0
M  V30 2130 C 204.263 -3.15623 1.28822 0
M  V30 2131 H 205.456 -1.75539 2.43158 0
M  V30 2132 H 203.009 -0.884189 1.28887 0
M  V30 2133 H 203.744 -3.22696 0.322193 0
M  V30 2134 H 203.529 -3.31475 2.09444 0
M  V30 2135 H 205.019 -3.95537 1.33942 0
M  V30 2136 N 205.456 -1.28612 -0.910864 0
M  V30 2137 C 206.705 -1.15311 -1.65488 0
M  V30 2138 C 207.018 0.296999 -1.93332 0
M  V30 2139 O 208.224 0.551168 -2.65847 0
M  V30 2140 C 206.68 -2.01599 -2.98137 0
M  V30 2141 C 206.288 -3.51367 -2.7793 0
M  V30 2142 C 208.032 -1.96993 -3.76024 0
M  V30 2143 C 205.939 -4.29797 -4.06237 0
M  V30 2144 H 204.869 -0.42796 -0.620779 0
M  V30 2145 H 207.52 -1.53166 -1.01057 0
M  V30 2146 H 205.902 -1.56603 -3.63719 0
M  V30 2147 H 207.076 -4.0434 -2.21011 0
M  V30 2148 H 205.391 -3.57529 -2.13452 0
M  V30 2149 H 207.988 -2.52856 -4.71135 0
M  V30 2150 H 208.331 -0.94733 -4.05378 0
M  V30 2151 H 208.864 -2.39973 -3.17266 0
M  V30 2152 H 205.603 -5.32648 -3.82055 0
M  V30 2153 H 205.123 -3.81596 -4.62757 0
M  V30 2154 H 206.802 -4.39869 -4.74473 0
M  V30 2155 N 206.934 1.1197 -1.10907 0
M  V30 2156 C 208.181 1.83588 -0.854507 0
M  V30 2157 C 208.509 1.84357 0.6199 0
M  V30 2158 O 207.764 1.28809 1.47332 0
M  V30 2159 C 208.063 3.30749 -1.35425 0
M  V30 2160 C 207.729 3.50146 -2.84093 0
M  V30 2161 C 206.391 3.55148 -3.2469 0
M  V30 2162 C 208.743 3.56857 -3.79872 0
M  V30 2163 C 206.071 3.6441 -4.59806 0
M  V30 2164 C 208.423 3.6765 -5.14797 0
M  V30 2165 C 207.087 3.7091 -5.54961 0
M  V30 2166 H 206.357 0.671795 -0.312686 0
M  V30 2167 H 209.004 1.32091 -1.38652 0
M  V30 2168 H 207.309 3.84703 -0.742361 0
M  V30 2169 H 209.006 3.8464 -1.1337 0
M  V30 2170 H 205.596 3.46919 -2.51685 0
M  V30 2171 H 209.78 3.52258 -3.49611 0
M  V30 2172 H 205.036 3.65208 -4.9034 0
M  V30 2173 H 209.21 3.71786 -5.88853 0
M  V30 2174 H 206.837 3.7784 -6.59652 0
M  V30 2175 N 208.412 0.89855 1.29475 0
M  V30 2176 C 209.322 0.379974 2.31502 0
M  V30 2177 C 210.338 -0.524695 1.659 0
M  V30 2178 O 211.514 -0.414551 1.97087 0
M  V30 2179 C 208.579 -0.385138 3.44554 0
M  V30 2180 C 207.64 0.550914 4.2575 0
M  V30 2181 C 206.873 -0.177778 5.33404 0
M  V30 2182 O 207.096 -1.40189 5.52904 0
M  V30 2183 O 206.03 0.479106 5.9999 0
M  V30 2184 H 209.856 1.22639 2.77837 0
M  V30 2185 H 207.441 0.662834 1.33891 0
M  V30 2186 H 209.323 -0.817841 4.13388 0
M  V30 2187 H 207.998 -1.20763 3.0033 0
M  V30 2188 H 206.905 1.03271 3.59564 0
M  V30 2189 H 208.238 1.33979 4.73614 0
M  V30 2190 N 209.89 -1.43072 0.660911 0
M  V30 2191 C 211.301 -1.84932 0.256348 0
M  V30 2192 C 211.652 -1.55325 -1.19868 0
M  V30 2193 O 210.777 -1.00607 -1.91591 0
M  V30 2194 C 211.372 -3.35684 0.458475 0
M  V30 2195 C 209.931 -3.76245 0.108161 0
M  V30 2196 C 209.078 -2.66749 0.757641 0
M  V30 2197 H 212.029 -1.33116 0.864051 0
M  V30 2198 H 212.05 -3.79365 -0.293683 0
M  V30 2199 H 211.562 -3.572 1.51755 0
M  V30 2200 H 209.663 -3.60338 -0.948014 0
M  V30 2201 H 209.776 -4.76058 0.538992 0
M  V30 2202 H 208.14 -2.53989 0.190185 0
M  V30 2203 H 208.923 -2.91092 1.81989 0
M  V30 2204 N 211.368 -0.403325 -1.52352 0
M  V30 2205 C 212.316 0.439752 -2.28405 0
M  V30 2206 C 213.31 1.05089 -1.32863 0
M  V30 2207 O 214.516 0.989759 -1.50345 0
M  V30 2208 H 210.891 0.160587 -0.734653 0
M  V30 2209 H 212.862 -0.222983 -2.97566 0
M  V30 2210 C 211.611 1.54736 -3.11371 0
M  V30 2211 H 210.934 1.08643 -3.84755 0
M  V30 2212 H 212.374 2.1112 -3.67701 0
M  V30 2213 C 210.833 2.51141 -2.24566 0
M  V30 2214 O 211.363 3.54887 -1.88196 0
M  V30 2215 N 209.569 2.21213 -1.8845 0
M  V30 2216 H 209.116 1.36878 -2.18225 0
M  V30 2217 H 209.074 2.85963 -1.30662 0
M  V30 2218 N 212.846 1.57033 -0.133567 0
M  V30 2219 C 214.071 2.00475 0.531477 0
M  V30 2220 C 214.496 1.01291 1.58499 0
M  V30 2221 O 213.854 -0.0133279 1.81295 0
M  V30 2222 C 213.902 3.42729 1.12113 0
M  V30 2223 O 213.006 3.46498 2.23636 0
M  V30 2224 H 212.347 0.650876 0.131362 0
M  V30 2225 H 214.877 2.03344 -0.22634 0
M  V30 2226 H 214.887 3.81246 1.4531 0
M  V30 2227 H 213.562 4.14428 0.349557 0
M  V30 2228 H 212.139 3.19811 1.91769 0
M  V30 2229 N 214.325 -0.140222 1.56975 0
M  V30 2230 C 215.573 -0.850005 1.83356 0
M  V30 2231 C 215.894 -1.81399 0.71551 0
M  V30 2232 O 215.164 -1.94136 -0.262294 0
M  V30 2233 H 213.744 -0.316886 0.676456 0
M  V30 2234 H 216.406 -0.132608 1.94448 0
M  V30 2235 H 215.502 -1.40814 2.78528 0
M  V30 2236 N 215.803 -1.52179 -0.40978 0
M  V30 2237 C 217.049 -1.66453 -1.15851 0
M  V30 2238 C 217.382 -0.392972 -1.90182 0
M  V30 2239 O 216.657 0.608579 -1.84734 0
M  V30 2240 C 216.94 -2.88612 -2.15349 0
M  V30 2241 C 216.793 -4.25815 -1.44918 0
M  V30 2242 C 218.112 -3.06294 -3.16026 0
M  V30 2243 H 215.231 -0.60575 -0.419805 0
M  V30 2244 H 217.873 -1.84732 -0.444314 0
M  V30 2245 H 216.023 -2.73158 -2.76255 0
M  V30 2246 H 217.695 -4.52995 -0.871365 0
M  V30 2247 H 215.938 -4.27247 -0.751159 0
M  V30 2248 H 216.609 -5.07337 -2.17516 0
M  V30 2249 H 219.085 -3.20641 -2.65195 0
M  V30 2250 H 217.961 -3.93283 -3.8291 0
M  V30 2251 H 218.222 -2.19579 -3.83715 0
M  V30 2252 N 217.281 0.66697 -1.42791 0
M  V30 2253 C 218.211 1.79218 -1.49677 0
M  V30 2254 C 219.192 1.66405 -0.352623 0
M  V30 2255 O 220.377 1.85708 -0.567993 0
M  V30 2256 C 217.507 3.17565 -1.40605 0
M  V30 2257 C 216.461 3.45124 -2.53127 0
M  V30 2258 C 215.787 4.83127 -2.29112 0
M  V30 2259 C 217.087 3.41236 -3.95418 0
M  V30 2260 H 218.781 1.73713 -2.43853 0
M  V30 2261 H 216.327 0.83432 -1.17367 0
M  V30 2262 H 218.28 3.96022 -1.44029 0
M  V30 2263 H 217.004 3.23767 -0.429271 0
M  V30 2264 H 215.663 2.69031 -2.49034 0
M  V30 2265 H 215.311 4.85988 -1.29709 0
M  V30 2266 H 215.011 5.02528 -3.04531 0
M  V30 2267 H 216.535 5.63859 -2.34297 0
M  V30 2268 H 217.949 4.09651 -4.01073 0
M  V30 2269 H 216.346 3.72173 -4.70752 0
M  V30 2270 H 217.416 2.39665 -4.21532 0
M  V30 2271 N 218.759 1.29093 0.90403 0
M  V30 2272 C 220.006 1.16813 1.65411 0
M  V30 2273 C 220.334 -0.28128 1.92455 0
M  V30 2274 O 219.589 -1.22006 1.53013 0
M  V30 2275 C 219.888 1.92224 3.01305 0
M  V30 2276 C 219.554 3.41968 2.93885 0
M  V30 2277 C 218.216 3.82807 2.91569 0
M  V30 2278 C 220.568 4.37409 2.83413 0
M  V30 2279 C 217.896 5.1741 2.76594 0
M  V30 2280 C 220.248 5.72097 2.69977 0
M  V30 2281 C 218.912 6.12199 2.66024 0
M  V30 2282 H 218.182 0.42745 0.605283 0
M  V30 2283 H 220.829 1.59981 1.05254 0
M  V30 2284 H 219.134 1.41635 3.65304 0
M  V30 2285 H 220.831 1.80131 3.58265 0
M  V30 2286 H 217.421 3.09504 2.96488 0
M  V30 2287 H 221.605 4.06813 2.84283 0
M  V30 2288 H 216.861 5.47596 2.71935 0
M  V30 2289 H 221.035 6.45704 2.60844 0
M  V30 2290 H 218.662 7.16448 2.54178 0
M  V30 2291 N 220.237 -1.11381 1.11499 0
M  V30 2292 C 221.462 -1.87475 0.887019 0
M  V30 2293 C 221.887 -1.79639 -0.557796 0
M  V30 2294 O 221.245 -1.15924 -1.39396 0
M  V30 2295 C 221.293 -3.34213 1.35403 0
M  V30 2296 O 220.397 -4.0903 0.526146 0
M  V30 2297 H 219.738 -0.582099 0.319463 0
M  V30 2298 H 222.268 -1.40785 1.48461 0
M  V30 2299 H 222.278 -3.8506 1.34881 0
M  V30 2300 H 220.953 -3.39232 2.40612 0
M  V30 2301 H 219.53 -3.68082 0.597522 0
M  V30 2302 N 221.715 -0.905404 -1.28997 0
M  V30 2303 C 222.625 -0.392246 -2.31298 0
M  V30 2304 C 223.641 0.515889 -1.66176 0
M  V30 2305 O 224.817 0.404093 -1.97304 0
M  V30 2306 C 221.882 0.36686 -3.44754 0
M  V30 2307 C 220.943 -0.573485 -4.25452 0
M  V30 2308 C 220.176 0.149488 -5.33491 0
M  V30 2309 O 220.399 1.37255 -5.5364 0
M  V30 2310 O 219.333 -0.510919 -5.99728 0
M  V30 2311 H 223.159 -1.2411 -2.77183 0
M  V30 2312 H 220.744 -0.669926 -1.33538 0
M  V30 2313 H 222.626 0.795907 -4.13816 0
M  V30 2314 H 221.301 1.19169 -3.00966 0
M  V30 2315 H 220.208 -1.05176 -3.59011 0
M  V30 2316 H 221.541 -1.36489 -4.72897 0
M  V30 2317 N 223.193 1.4272 -0.668489 0
M  V30 2318 C 224.141 2.32586 0.0254857 0
M  V30 2319 C 225.135 1.49471 0.797176 0
M  V30 2320 O 226.341 1.65583 0.705853 0
M  V30 2321 H 222.716 0.751514 0.0270339 0
M  V30 2322 H 224.687 2.88823 -0.749936 0
M  V30 2323 C 223.436 3.3397 0.967427 0
M  V30 2324 H 222.759 3.97961 0.383048 0
M  V30 2325 H 224.199 3.9945 1.42181 0
M  V30 2326 C 222.658 2.65744 2.0708 0
M  V30 2327 O 223.188 2.48454 3.15648 0
M  V30 2328 N 221.394 2.2487 1.8407 0
M  V30 2329 H 220.941 2.39132 0.95778 0
M  V30 2330 H 220.899 1.79552 2.58086 0
M  V30 2331 N 224.671 0.411399 1.52136 0
M  V30 2332 C 225.911 -0.163143 2.03748 0
M  V30 2333 C 226.275 -1.42187 1.29022 0
M  V30 2334 O 227.476 -2.075 1.70872 0
M  V30 2335 C 225.747 -0.402651 3.55125 0
M  V30 2336 S 227.306 -0.944315 4.28519 0
M  V30 2337 H 224.124 -0.0439833 0.709638 0
M  V30 2338 H 226.726 0.56484 1.87163 0
M  V30 2339 H 225.43 0.520212 4.0709 0
M  V30 2340 H 224.961 -1.15844 3.75957 0
M  V30 2341 H 226.976 -2.22463 4.43536 0
M  V30 2342 N 226.149 -1.5696 0.141893 0
M  V30 2343 C 227.398 -1.95135 -0.510427 0
M  V30 2344 C 227.711 -1.02896 -1.66348 0
M  V30 2345 O 228.917 -1.30629 -2.38009 0
M  V30 2346 C 227.373 -3.46876 -0.959427 0
M  V30 2347 C 226.981 -4.47691 0.166419 0
M  V30 2348 C 228.725 -3.93927 -1.58183 0
M  V30 2349 C 226.632 -5.90636 -0.300565 0
M  V30 2350 H 225.562 -0.728494 -0.194454 0
M  V30 2351 H 228.213 -1.8211 0.22542 0
M  V30 2352 H 226.595 -3.55215 -1.75038 0
M  V30 2353 H 227.769 -4.51043 0.94325 0
M  V30 2354 H 226.084 -4.10527 0.696905 0
M  V30 2355 H 228.681 -4.98158 -1.94275 0
M  V30 2356 H 229.024 -3.3519 -2.46888 0
M  V30 2357 H 229.557 -3.88484 -0.855863 0
M  V30 2358 H 226.296 -6.5318 0.550989 0
M  V30 2359 H 225.816 -5.90655 -1.04338 0
M  V30 2360 H 227.495 -6.42588 -0.754265 0
M  V30 2361 N 227.627 0.131896 -1.57047 0
M  V30 2362 C 229.043 0.485031 -1.52051 0
M  V30 2363 C 229.243 1.82563 -0.85281 0
M  V30 2364 O 228.299 2.48817 -0.429694 0
M  V30 2365 C 229.612 0.481409 -2.96821 0
M  V30 2366 C 231.16 0.565868 -3.07842 0
M  V30 2367 C 231.635 0.592762 -4.54148 0
M  V30 2368 N 233.126 0.654564 -4.58552 0
M  V30 2369 C 233.861 0.696608 -5.69153 0
M  V30 2370 N 233.357 0.697078 -6.89284 0
M  V30 2371 N 235.15 0.738639 -5.57226 0
M  V30 2372 H 227.301 -0.746664 -1.98843 0
M  V30 2373 H 229.564 -0.273999 -0.90754 0
M  V30 2374 H 229.27 -0.435731 -3.4899 0
M  V30 2375 H 229.144 1.3139 -3.53577 0
M  V30 2376 H 231.531 1.47343 -2.55684 0
M  V30 2377 H 231.612 -0.29406 -2.54104 0
M  V30 2378 H 231.256 -0.310701 -5.06949 0
M  V30 2379 H 231.186 1.46939 -5.05684 0
M  V30 2380 H 233.677 0.660887 -3.72076 0
M  V30 2381 H 233.99 0.731426 -7.69331 0
M  V30 2382 H 232.335 0.66471 -6.91814 0
M  V30 2383 H 235.526 0.735545 -4.62285 0
M  V30 2384 H 235.699 0.767938 -6.43434 0
M  V30 2385 N 229.106 1.52395 0.401703 0
M  V30 2386 C 230.069 1.75636 1.47257 0
M  V30 2387 C 231.069 0.62628 1.48103 0
M  V30 2388 O 232.259 0.894227 1.49497 0
M  V30 2389 C 229.391 1.84553 2.86624 0
M  V30 2390 H 230.584 2.71241 1.27938 0
M  V30 2391 H 228.137 1.42923 0.632662 0
M  V30 2392 H 228.872 0.908882 3.11303 0
M  V30 2393 H 228.657 2.66715 2.87412 0
M  V30 2394 H 230.147 2.04251 3.64241 0
M  V30 2395 N 230.584 -0.659388 1.43143 0
M  V30 2396 C 231.814 -1.44513 1.47646 0
M  V30 2397 C 232.222 -1.88981 0.0910095 0
M  V30 2398 O 231.565 -1.59702 -0.907789 0
M  V30 2399 C 231.627 -2.71663 2.35456 0
M  V30 2400 C 231.291 -2.49175 3.83094 0
M  V30 2401 C 232.288 -2.1279 4.74359 0
M  V30 2402 C 229.973 -2.63691 4.27519 0
M  V30 2403 C 231.967 -1.9121 6.08044 0
M  V30 2404 C 229.654 -2.41726 5.61259 0
M  V30 2405 C 230.652 -2.0554 6.51339 0
M  V30 2406 O 230.34 -1.838 7.82606 0
M  V30 2407 H 230.072 -0.45064 0.503884 0
M  V30 2408 H 232.626 -0.816248 1.88485 0
M  V30 2409 H 230.856 -3.37089 1.89493 0
M  V30 2410 H 232.545 -3.33595 2.31235 0
M  V30 2411 H 233.311 -2.01157 4.41317 0
M  V30 2412 H 229.19 -2.90832 3.57684 0
M  V30 2413 H 232.734 -1.62889 6.78316 0
M  V30 2414 H 228.631 -2.52959 5.9387 0
M  V30 2415 H 229.399 -1.98275 7.94122 0
M  V30 2416 N 232.062 -1.29571 -0.897171 0
M  V30 2417 C 233.478 -1.07637 -1.17841 0
M  V30 2418 C 233.678 0.170713 -2.00776 0
M  V30 2419 O 232.734 0.867768 -2.3712 0
M  V30 2420 C 234.047 -2.3332 -1.8969 0
M  V30 2421 C 235.595 -2.38664 -2.02505 0
M  V30 2422 C 236.07 -3.64157 -2.77765 0
M  V30 2423 N 237.561 -3.64894 -2.85318 0
M  V30 2424 C 238.296 -4.58679 -3.44094 0
M  V30 2425 N 237.792 -5.62799 -4.04017 0
M  V30 2426 N 239.585 -4.46245 -3.41793 0
M  V30 2427 H 231.736 -2.09598 -0.343883 0
M  V30 2428 H 233.999 -0.923333 -0.214848 0
M  V30 2429 H 233.705 -3.24262 -1.36187 0
M  V30 2430 H 233.579 -2.41025 -2.9015 0
M  V30 2431 H 235.966 -1.48208 -2.55183 0
M  V30 2432 H 236.047 -2.34943 -1.01171 0
M  V30 2433 H 235.691 -4.54965 -2.25763 0
M  V30 2434 H 235.621 -3.65137 -3.7945 0
M  V30 2435 H 238.112 -2.89613 -2.42761 0
M  V30 2436 H 238.425 -6.3048 -4.46895 0
M  V30 2437 H 236.77 -5.66605 -4.02472 0
M  V30 2438 H 239.961 -3.64094 -2.94199 0
M  V30 2439 H 240.134 -5.19518 -3.87304 0
M  V30 2440 N 233.54 1.10788 -1.12088 0
M  V30 2441 C 234.45 2.20599 -0.798338 0
M  V30 2442 C 235.466 1.72712 0.21135 0
M  V30 2443 O 236.642 2.01348 0.0458477 0
M  V30 2444 C 233.707 3.45771 -0.253674 0
M  V30 2445 C 232.768 4.08411 -1.32283 0
M  V30 2446 C 232.001 5.27608 -0.80406 0
M  V30 2447 O 232.224 5.69241 0.363478 0
M  V30 2448 O 231.158 5.8101 -1.57198 0
M  V30 2449 H 234.984 2.50614 -1.7154 0
M  V30 2450 H 232.569 1.19454 -0.897275 0
M  V30 2451 H 234.451 4.21376 0.0453691 0
M  V30 2452 H 233.126 3.1739 0.636005 0
M  V30 2453 H 232.033 3.34507 -1.67499 0
M  V30 2454 H 233.366 4.40986 -2.18614 0
M  V30 2455 N 235.018 0.912232 1.28515 0
M  V30 2456 C 235.948 0.416403 2.29757 0
M  V30 2457 C 236.929 -0.515194 1.6211 0
M  V30 2458 O 238.114 -0.423253 1.89532 0
M  V30 2459 C 235.244 -0.34572 3.45575 0
M  V30 2460 C 234.198 0.496599 4.25109 0
M  V30 2461 C 233.524 -0.393771 5.33248 0
M  V30 2462 C 234.824 1.75307 4.92001 0
M  V30 2463 H 236.518 1.26249 2.7148 0
M  V30 2464 H 234.064 0.608515 1.30511 0
M  V30 2465 H 236.017 -0.703422 4.15488 0
M  V30 2466 H 234.741 -1.2257 3.02728 0
M  V30 2467 H 233.4 0.8368 3.56922 0
M  V30 2468 H 233.048 -1.27225 4.86644 0
M  V30 2469 H 232.748 0.166209 5.87365 0
M  V30 2470 H 234.272 -0.747389 6.06009 0
M  V30 2471 H 235.686 1.46437 5.54283 0
M  V30 2472 H 234.083 2.25534 5.56106 0
M  V30 2473 H 235.153 2.48176 4.16577 0
M  V30 2474 N 236.496 -1.42363 0.676048 0
M  V30 2475 C 237.459 -2.29199 0.00766941 0
M  V30 2476 C 238.459 -1.43389 -0.727745 0
M  V30 2477 O 239.649 -1.64764 -0.56556 0
M  V30 2478 C 236.781 -3.2591 -0.999785 0
M  V30 2479 H 237.974 -2.89794 0.771988 0
M  V30 2480 H 235.527 -1.50024 0.438468 0
M  V30 2481 H 236.262 -2.70256 -1.79255 0
M  V30 2482 H 236.047 -3.89202 -0.475829 0
M  V30 2483 H 237.537 -3.91028 -1.46583 0
M  V30 2484 N 237.974 -0.419461 -1.51915 0
M  V30 2485 C 238.884 0.407528 -2.31033 0
M  V30 2486 C 239.9 1.04413 -1.3919 0
M  V30 2487 O 241.076 1.0434 -1.72265 0
M  V30 2488 C 238.141 1.50365 -3.12396 0
M  V30 2489 C 237.202 0.889029 -4.19994 0
M  V30 2490 C 236.435 1.93291 -4.97468 0
M  V30 2491 O 236.658 3.15259 -4.75361 0
M  V30 2492 O 235.592 1.53339 -5.8204 0
M  V30 2493 H 239.418 -0.237865 -3.02767 0
M  V30 2494 H 237.003 -0.182413 -1.48282 0
M  V30 2495 H 238.885 2.13975 -3.63032 0
M  V30 2496 H 237.56 2.13345 -2.43445 0
M  V30 2497 H 236.467 0.215353 -3.7348 0
M  V30 2498 H 237.8 0.302991 -4.91267 0
M  V30 2499 N 239.452 1.56882 -0.150215 0
M  V30 2500 C 240.415 2.1573 0.774157 0
M  V30 2501 C 241.415 1.0999 1.17298 0
M  V30 2502 O 242.605 1.35613 1.09338 0
M  V30 2503 C 239.737 2.72302 2.05096 0
M  V30 2504 H 240.93 2.98752 0.262201 0
M  V30 2505 H 238.483 1.55985 0.099248 0
M  V30 2506 H 239.218 1.92956 2.6065 0
M  V30 2507 H 239.003 3.49665 1.77416 0
M  V30 2508 H 240.493 3.17632 2.71109 0
M  V30 2509 N 240.93 -0.123565 1.57115 0
M  V30 2510 C 242.346 -0.476961 1.52306 0
M  V30 2511 C 242.546 -1.82109 0.86248 0
M  V30 2512 O 241.602 -2.48586 0.442884 0
M  V30 2513 C 242.915 -0.465661 2.97073 0
M  V30 2514 C 244.463 -0.549534 3.08138 0
M  V30 2515 C 244.938 -0.568669 4.54456 0
M  V30 2516 N 246.429 -0.630237 4.58892 0
M  V30 2517 C 247.164 -0.666415 5.69514 0
M  V30 2518 N 246.66 -0.660514 6.89644 0
M  V30 2519 N 248.453 -0.709077 5.5761 0
M  V30 2520 H 240.604 0.757198 1.98445 0
M  V30 2521 H 242.867 0.278808 0.906074 0
M  V30 2522 H 242.573 0.454232 3.48754 0
M  V30 2523 H 242.447 -1.29513 3.54269 0
M  V30 2524 H 244.834 -1.45985 2.56461 0
M  V30 2525 H 244.915 0.307532 2.53945 0
M  V30 2526 H 244.559 0.337581 5.06777 0
M  V30 2527 H 244.489 -1.44256 5.06456 0
M  V30 2528 H 246.98 -0.641146 3.72421 0
M  V30 2529 H 247.293 -0.690616 7.69708 0
M  V30 2530 H 245.638 -0.628012 6.92157 0
M  V30 2531 H 248.829 -0.711019 4.62668 0
M  V30 2532 H 249.002 -0.733804 6.43832 0
M  V30 2533 N 242.408 -1.52605 -0.393616 0
M  V30 2534 C 243.656 -1.67093 -1.13685 0
M  V30 2535 C 243.977 -0.411011 -1.90619 0
M  V30 2536 O 243.247 0.574491 -1.87287 0
M  V30 2537 H 241.827 -0.615923 -0.422668 0
M  V30 2538 H 244.489 -1.89704 -0.447039 0
M  V30 2539 H 243.585 -2.51922 -1.84232 0
M  V30 2540 N 243.887 0.651787 -1.4349 0
M  V30 2541 C 244.85 1.74647 -1.48429 0
M  V30 2542 C 245.85 1.56513 -0.368817 0
M  V30 2543 O 247.04 1.62385 -0.630623 0
M  V30 2544 C 244.172 3.13533 -1.33827 0
M  V30 2545 H 245.365 1.71649 -2.4592 0
M  V30 2546 H 242.918 0.863573 -1.30277 0
M  V30 2547 H 243.653 3.22142 -0.37349 0
M  V30 2548 H 243.438 3.28101 -2.14691 0
M  V30 2549 H 244.928 3.93356 -1.40218 0
M  V30 2550 N 245.365 1.30045 0.890287 0
M  V30 2551 C 246.312 1.15976 1.99545 0
M  V30 2552 C 247.282 0.0506202 1.66023 0
M  V30 2553 O 248.467 0.219847 1.89529 0
M  V30 2554 C 245.607 0.852054 3.34416 0
M  V30 2555 C 244.72 2.04255 3.80662 0
M  V30 2556 C 243.855 1.6734 5.04154 0
M  V30 2557 C 242.894 2.82916 5.42794 0
M  V30 2558 N 242.031 2.46333 6.57468 0
M  V30 2559 H 246.871 2.10524 2.10911 0
M  V30 2560 H 244.408 1.04749 1.03276 0
M  V30 2561 H 246.366 0.654296 4.12037 0
M  V30 2562 H 244.996 -0.0565502 3.2275 0
M  V30 2563 H 244.048 2.35172 2.98995 0
M  V30 2564 H 245.36 2.90826 4.05242 0
M  V30 2565 H 244.514 1.43908 5.89386 0
M  V30 2566 H 243.253 0.779308 4.81433 0
M  V30 2567 H 242.258 3.0702 4.56091 0
M  V30 2568 H 243.483 3.73004 5.6749 0
M  V30 2569 H 241.429 1.59423 6.36334 0
M  V30 2570 H 241.346 3.26436 6.81891 0
M  V30 2571 H 242.614 2.26244 7.45945 0
M  V30 2572 N 246.843 -1.10192 1.12674 0
M  V30 2573 C 248.089 -1.82475 0.884915 0
M  V30 2574 C 248.422 -1.85093 -0.58773 0
M  V30 2575 O 247.697 -1.3134 -1.43457 0
M  V30 2576 C 247.98 -3.29018 1.46353 0
M  V30 2577 C 247.833 -3.34718 3.00473 0
M  V30 2578 C 249.152 -4.25473 1.12519 0
M  V30 2579 H 246.271 -0.662492 0.322915 0
M  V30 2580 H 248.913 -1.2913 1.39375 0
M  V30 2581 H 247.063 -3.74576 1.03077 0
M  V30 2582 H 248.735 -2.97622 3.52447 0
M  V30 2583 H 246.978 -2.74541 3.35872 0
M  V30 2584 H 247.649 -4.37918 3.36053 0
M  V30 2585 H 250.125 -3.88161 1.499 0
M  V30 2586 H 249.001 -5.26365 1.55663 0
M  V30 2587 H 249.262 -4.42084 0.0377407 0
M  V30 2588 N 248.321 -0.919034 -1.28029 0
M  V30 2589 C 249.251 -0.428581 -2.29533 0
M  V30 2590 C 250.232 0.50659 -1.62381 0
M  V30 2591 O 251.417 0.413195 -1.89753 0
M  V30 2592 C 248.547 0.327388 -3.45753 0
M  V30 2593 C 247.501 -0.519137 -4.2484 0
M  V30 2594 C 246.827 0.365486 -5.33449 0
M  V30 2595 C 248.127 -1.77914 -4.91064 0
M  V30 2596 H 249.821 -1.27687 -2.70807 0
M  V30 2597 H 247.367 -0.615428 -1.30186 0
M  V30 2598 H 249.32 0.681378 -4.15855 0
M  V30 2599 H 248.044 1.20963 -3.03374 0
M  V30 2600 H 246.703 -0.855717 -3.56473 0
M  V30 2601 H 246.351 1.24642 -4.87312 0
M  V30 2602 H 246.051 -0.197356 -5.87268 0
M  V30 2603 H 247.575 0.715241 -6.06396 0
M  V30 2604 H 248.989 -1.49374 -5.53498 0
M  V30 2605 H 247.386 -2.2848 -5.54903 0
M  V30 2606 H 248.456 -2.50382 -4.15255 0
M  V30 2607 N 249.799 1.42003 -0.683588 0
M  V30 2608 C 251.027 2.05746 -0.218182 0
M  V30 2609 C 251.442 1.51396 1.12804 0
M  V30 2610 O 250.799 0.657303 1.70252 0
M  V30 2611 C 250.85 3.61171 -0.154131 0
M  V30 2612 O 250.571 4.13508 -1.44716 0
M  V30 2613 C 252.072 4.42042 0.333713 0
M  V30 2614 H 249.292 0.662888 -0.10402 0
M  V30 2615 H 251.836 1.81987 -0.9328 0
M  V30 2616 H 249.991 3.84012 0.511231 0
M  V30 2617 H 250.405 5.07453 -1.32632 0
M  V30 2618 H 251.879 5.51028 0.327423 0
M  V30 2619 H 252.356 4.17269 1.37053 0
M  V30 2620 H 252.962 4.24239 -0.300222 0
M  V30 2621 N 251.277 0.427512 1.51691 0
M  V30 2622 C 252.227 -0.406604 2.24345 0
M  V30 2623 C 253.211 -0.998276 1.26187 0
M  V30 2624 O 254.403 -0.918045 1.51331 0
M  V30 2625 C 251.532 -1.51266 3.08177 0
M  V30 2626 C 250.618 -0.930868 4.13758 0
M  V30 2627 N 251.009 -0.0773552 5.05741 0
M  V30 2628 C 249.307 -1.19948 4.29568 0
M  V30 2629 C 250.008 0.248344 5.8117 0
M  V30 2630 N 248.984 -0.365535 5.4237 0
M  V30 2631 H 252.786 0.251581 2.92821 0
M  V30 2632 H 250.3 0.239003 1.60632 0
M  V30 2633 H 252.297 -2.123 3.58796 0
M  V30 2634 H 250.957 -2.17328 2.41244 0
M  V30 2635 H 251.968 0.288351 5.17097 0
M  V30 2636 H 248.645 -1.85832 3.73862 0
M  V30 2637 H 250.035 0.942286 6.6526 0
M  V30 2638 N 252.755 -1.56801 0.158532 0
M  V30 2639 C 253.983 -2.00859 -0.496303 0
M  V30 2640 C 254.398 -1.03871 -1.57659 0
M  V30 2641 O 253.755 -0.0375165 -1.82461 0
M  V30 2642 C 253.806 -3.4479 -1.08638 0
M  V30 2643 O 253.527 -4.38072 -0.0492322 0
M  V30 2644 C 255.028 -4.04185 -1.8207 0
M  V30 2645 H 252.248 -0.65864 -0.128199 0
M  V30 2646 H 254.792 -2.02885 0.256506 0
M  V30 2647 H 252.947 -3.43579 -1.78975 0
M  V30 2648 H 253.361 -5.2227 -0.483102 0
M  V30 2649 H 254.835 -5.06857 -2.18633 0
M  V30 2650 H 255.312 -3.45549 -2.71095 0
M  V30 2651 H 255.918 -4.0906 -1.16405 0
M  V30 2652 N 254.233 0.115231 -1.57178 0
M  V30 2653 C 255.649 0.468877 -1.52557 0
M  V30 2654 C 255.849 1.81649 -0.872125 0
M  V30 2655 O 254.905 2.48347 -0.45606 0
M  V30 2656 C 256.218 0.4499 -2.97315 0
M  V30 2657 C 257.766 0.533185 -3.08425 0
M  V30 2658 C 258.241 0.54456 -4.54751 0
M  V30 2659 N 259.732 0.605892 -4.5922 0
M  V30 2660 C 260.467 0.636203 -5.6986 0
M  V30 2661 N 259.963 0.623931 -6.89985 0
M  V30 2662 N 261.756 0.679496 -5.57978 0
M  V30 2663 H 253.907 -0.767712 -1.9804 0
M  V30 2664 H 256.17 -0.283609 -0.904583 0
M  V30 2665 H 255.876 -0.472721 -3.48509 0
M  V30 2666 H 255.75 1.27632 -3.5495 0
M  V30 2667 H 258.137 1.44623 -2.57232 0
M  V30 2668 H 258.218 -0.320995 -2.53778 0
M  V30 2669 H 257.862 -0.364452 -5.06591 0
M  V30 2670 H 257.792 1.41568 -5.07214 0
M  V30 2671 H 260.283 0.621386 -3.72756 0
M  V30 2672 H 260.596 0.649787 -7.70063 0
M  V30 2673 H 258.941 0.591296 -6.9248 0
M  V30 2674 H 262.132 0.686472 -4.63039 0
M  V30 2675 H 262.305 0.69965 -6.44212 0
M  V30 2676 N 255.711 1.52812 0.385517 0
M  V30 2677 C 256.957 1.68275 1.13188 0
M  V30 2678 C 257.29 0.423179 1.89533 0
M  V30 2679 O 256.565 -0.579113 1.85679 0
M  V30 2680 C 256.848 2.92001 2.1073 0
M  V30 2681 C 256.701 4.28067 1.38125 0
M  V30 2682 C 258.02 3.11283 3.11113 0
M  V30 2683 H 255.139 0.612352 0.410115 0
M  V30 2684 H 257.781 1.85415 0.414869 0
M  V30 2685 H 255.931 2.77519 2.71874 0
M  V30 2686 H 257.603 4.54324 0.799187 0
M  V30 2687 H 255.846 4.28388 0.683092 0
M  V30 2688 H 256.517 5.10733 2.09417 0
M  V30 2689 H 258.993 3.2482 2.6006 0
M  V30 2690 H 257.869 3.99325 3.76605 0
M  V30 2691 H 258.13 2.25656 3.80173 0
M  V30 2692 N 257.189 -0.644168 1.43834 0
M  V30 2693 C 258.099 -1.78563 1.52159 0
M  V30 2694 C 259.115 -1.69147 0.408069 0
M  V30 2695 O 260.291 -1.90156 0.663524 0
M  V30 2696 C 257.356 -3.14888 1.45073 0
M  V30 2697 C 256.417 -3.36034 2.6717 0
M  V30 2698 C 255.65 -4.65855 2.60413 0
M  V30 2699 O 255.873 -5.45805 1.65689 0
M  V30 2700 O 254.807 -4.88918 3.5106 0
M  V30 2701 H 258.633 -1.74494 2.48567 0
M  V30 2702 H 256.218 -0.80378 1.25935 0
M  V30 2703 H 258.1 -3.96179 1.43597 0
M  V30 2704 H 256.775 -3.19528 0.518037 0
M  V30 2705 H 255.682 -2.54472 2.74217 0
M  V30 2706 H 257.015 -3.36247 3.59442 0
M  V30 2707 N 258.668 -1.30515 -0.883378 0
M  V30 2708 C 259.945 -1.10086 -1.6168 0
M  V30 2709 C 260.325 0.349269 -2.08191 0
M  V30 2710 O 259.673 1.34105 -1.85008 0
M  V30 2711 C 259.883 -2.10315 -2.78511 0
M  V30 2712 C 261.231 -2.42119 -3.48803 0
M  V30 2713 O 262.255 -2.08638 -2.88702 0
M  V30 2714 O 261.114 -2.99396 -4.57192 0
M  V30 2715 H 258.208 -0.422907 -0.710689 0
M  V30 2716 H 260.754 -1.41947 -0.930015 0
M  V30 2717 H 259.526 -3.07917 -2.41459 0
M  V30 2718 H 259.149 -1.79282 -3.54886 0
M  V30 2719 N 260.146 1.09593 -1.13257 0
M  V30 2720 C 261.393 1.81734 -0.893257 0
M  V30 2721 C 261.721 1.8563 0.580656 0
M  V30 2722 O 260.976 1.31906 1.44566 0
M  V30 2723 C 261.275 3.27802 -1.42411 0
M  V30 2724 C 260.941 3.44041 -2.91456 0
M  V30 2725 C 259.603 3.48181 -3.3215 0
M  V30 2726 C 261.955 3.48719 -3.87356 0
M  V30 2727 C 259.283 3.54575 -4.67433 0
M  V30 2728 C 261.635 3.56648 -5.2248 0
M  V30 2729 C 260.299 3.59055 -5.62704 0
M  V30 2730 H 259.569 0.665011 -0.326866 0
M  V30 2731 H 262.216 1.2912 -1.41422 0
M  V30 2732 H 260.521 3.83042 -0.823795 0
M  V30 2733 H 262.218 3.82149 -1.21503 0
M  V30 2734 H 258.808 3.41502 -2.58987 0
M  V30 2735 H 262.992 3.44763 -3.57004 0
M  V30 2736 H 258.248 3.54725 -4.97976 0
M  V30 2737 H 262.422 3.59212 -5.96607 0
M  V30 2738 H 260.049 3.63763 -6.67518 0
M  V30 2739 N 261.624 0.925811 1.2754 0
M  V30 2740 C 262.901 0.483726 1.89524 0
M  V30 2741 C 263.281 -1.03809 1.83812 0
M  V30 2742 O 262.629 -1.89143 1.28207 0
M  V30 2743 C 262.839 1.02769 3.33526 0
M  V30 2744 C 264.187 1.08703 4.10449 0
M  V30 2745 O 265.211 0.977175 3.42534 0
M  V30 2746 O 264.07 1.25599 5.31871 0
M  V30 2747 H 261.164 0.15529 0.812289 0
M  V30 2748 H 263.71 1.01738 1.35822 0
M  V30 2749 H 262.482 2.07155 3.31967 0
M  V30 2750 H 262.105 0.475567 3.94746 0
M  V30 2751 N 263.102 -1.41638 0.69111 0
M  V30 2752 C 264.351 -2.00526 0.217318 0
M  V30 2753 C 264.664 -1.55353 -1.18848 0
M  V30 2754 O 265.87 -2.06769 -1.75951 0
M  V30 2755 C 264.326 -3.58313 0.337639 0
M  V30 2756 C 263.934 -4.12469 1.74852 0
M  V30 2757 C 265.678 -4.24431 -0.0766066 0
M  V30 2758 C 263.585 -5.62675 1.82074 0
M  V30 2759 H 262.515 -0.750008 0.0774893 0
M  V30 2760 H 265.166 -1.6217 0.858661 0
M  V30 2761 H 263.548 -3.9425 -0.371879 0
M  V30 2762 H 264.722 -3.8796 2.48644 0
M  V30 2763 H 263.037 -3.58861 2.11205 0
M  V30 2764 H 265.634 -5.34683 -0.0430284 0
M  V30 2765 H 265.977 -4.01101 -1.1146 0
M  V30 2766 H 266.51 -3.93512 0.582476 0
M  V30 2767 H 263.249 -5.90826 2.83911 0
M  V30 2768 H 262.769 -5.89124 1.12661 0
M  V30 2769 H 264.448 -6.27371 1.58159 0
M  V30 2770 N 264.58 -0.43555 -1.51462 0
M  V30 2771 C 265.805 0.132627 -2.06976 0
M  V30 2772 C 266.23 1.35848 -1.30104 0
M  V30 2773 O 265.588 1.78112 -0.338493 0
M  V30 2774 C 265.636 0.43523 -3.57964 0
M  V30 2775 O 264.74 1.52198 -3.83288 0
M  V30 2776 H 264.081 0.00265 -0.663995 0
M  V30 2777 H 266.611 -0.616369 -1.95095 0
M  V30 2778 H 266.621 0.686206 -4.02188 0
M  V30 2779 H 265.296 -0.460739 -4.1334 0
M  V30 2780 H 263.873 1.2611 -3.50928 0
M  V30 2781 N 266.058 1.56714 -0.166846 0
M  V30 2782 C 267.469 1.83378 0.350646 0
M  V30 2783 C 267.82 1.08646 1.63372 0
M  V30 2784 O 266.945 0.338058 2.13743 0
M  V30 2785 C 267.54 3.32643 0.642963 0
M  V30 2786 C 266.099 3.59818 1.10491 0
M  V30 2787 C 265.246 2.76954 0.138411 0
M  V30 2788 H 268.197 1.53803 -0.391193 0
M  V30 2789 H 268.218 3.49878 1.49551 0
M  V30 2790 H 267.73 3.87007 -0.291055 0
M  V30 2791 H 265.831 3.1086 2.05418 0
M  V30 2792 H 265.944 4.68178 1.01716 0
M  V30 2793 H 264.308 2.4666 0.634911 0
M  V30 2794 H 265.091 3.34097 -0.789549 0
M  V30 2795 N 267.536 -0.106894 1.57237 0
M  V30 2796 C 268.813 -0.843526 1.76477 0
M  V30 2797 C 269.193 -1.97499 0.745464 0
M  V30 2798 O 268.541 -2.27357 -0.228306 0
M  V30 2799 C 268.751 -1.34903 3.21873 0
M  V30 2800 C 270.099 -1.79654 3.8472 0
M  V30 2801 O 271.123 -1.44554 3.2555 0
M  V30 2802 O 269.982 -2.44515 4.88748 0
M  V30 2803 H 267.076 -0.401468 0.723016 0
M  V30 2804 H 269.622 -0.0896927 1.69463 0
M  V30 2805 H 268.394 -0.53781 3.87586 0
M  V30 2806 H 268.017 -2.16522 3.33473 0
M  V30 2807 N 269.014 -1.53014 -0.377408 0
M  V30 2808 C 270.239 -1.72818 -1.14668 0
M  V30 2809 C 270.664 -0.450725 -1.8262 0
M  V30 2810 O 270.022 0.59439 -1.7128 0
M  V30 2811 C 270.07 -2.88627 -2.16164 0
M  V30 2812 O 269.174 -2.56409 -3.22998 0
M  V30 2813 H 268.515 -0.574301 -0.333278 0
M  V30 2814 H 271.045 -1.99853 -0.438152 0
M  V30 2815 H 271.055 -3.14455 -2.59966 0
M  V30 2816 H 269.73 -3.81294 -1.66095 0
M  V30 2817 H 268.307 -2.4136 -2.84253 0
M  V30 2818 N 270.492 0.636531 -1.44174 0
M  V30 2819 C 271.738 1.39826 -1.4689 0
M  V30 2820 C 272.071 1.93947 -0.0990585 0
M  V30 2821 O 271.346 1.73325 0.882544 0
M  V30 2822 C 271.629 2.56751 -2.5249 0
M  V30 2823 C 271.482 2.08014 -3.98811 0
M  V30 2824 C 272.801 3.58946 -2.54649 0
M  V30 2825 H 269.92 0.507075 -0.53483 0
M  V30 2826 H 272.562 0.720188 -1.75822 0
M  V30 2827 H 270.712 3.14597 -2.2795 0
M  V30 2828 H 272.384 1.5504 -4.34466 0
M  V30 2829 H 270.627 1.39242 -4.10846 0
M  V30 2830 H 271.298 2.92169 -4.68339 0
M  V30 2831 H 273.774 3.1089 -2.76563 0
M  V30 2832 H 272.65 4.38286 -3.3045 0
M  V30 2833 H 272.911 4.12655 -1.58646 0
M  V30 2834 N 271.97 1.30982 0.876444 0
M  V30 2835 C 272.917 1.18085 1.98304 0
M  V30 2836 C 273.887 0.0682263 1.6596 0
M  V30 2837 O 275.072 0.239937 1.89285 0
M  V30 2838 C 272.212 0.887475 3.33493 0
M  V30 2839 C 271.325 2.08281 3.78475 0
M  V30 2840 C 270.46 1.72678 5.0235 0
M  V30 2841 C 269.499 2.88657 5.39762 0
M  V30 2842 N 268.636 2.53292 6.54819 0
M  V30 2843 H 273.476 2.1275 2.08666 0
M  V30 2844 H 271.013 1.05839 1.02159 0
M  V30 2845 H 272.971 0.697961 4.1132 0
M  V30 2846 H 271.601 -0.022315 3.22792 0
M  V30 2847 H 270.653 2.3833 2.96484 0
M  V30 2848 H 271.965 2.95108 4.02135 0
M  V30 2849 H 271.119 1.50151 5.87826 0
M  V30 2850 H 269.858 0.830327 4.8058 0
M  V30 2851 H 268.863 3.1184 4.52809 0
M  V30 2852 H 270.088 3.79002 5.63502 0
M  V30 2853 H 268.034 1.66163 6.34607 0
M  V30 2854 H 267.951 3.3365 6.7839 0
M  V30 2855 H 269.219 2.34143 7.43503 0
M  V30 2856 N 273.449 -1.08991 1.13837 0
M  V30 2857 C 274.698 -1.80631 0.897509 0
M  V30 2858 C 275.011 -1.86872 -0.57777 0
M  V30 2859 O 276.217 -2.54866 -0.935701 0
M  V30 2860 C 274.673 -3.24517 1.55618 0
M  V30 2861 C 274.281 -3.26529 3.0673 0
M  V30 2862 C 276.025 -4.00882 1.3962 0
M  V30 2863 C 273.932 -4.64965 3.65461 0
M  V30 2864 H 272.862 -0.67691 0.332129 0
M  V30 2865 H 275.513 -1.2246 1.3666 0
M  V30 2866 H 273.895 -3.82778 1.01476 0
M  V30 2867 H 275.069 -2.78008 3.67489 0
M  V30 2868 H 273.384 -2.63656 3.22296 0
M  V30 2869 H 275.981 -5.03167 1.80906 0
M  V30 2870 H 276.324 -4.14896 0.341578 0
M  V30 2871 H 276.857 -3.49075 1.90766 0
M  V30 2872 H 273.596 -4.56153 4.70749 0
M  V30 2873 H 273.116 -5.13792 3.09481 0
M  V30 2874 H 274.795 -5.3394 3.654 0
M  V30 2875 N 274.927 -0.932562 -1.27047 0
M  V30 2876 C 275.837 -0.441219 -2.30414 0
M  V30 2877 C 276.853 0.480525 -1.67233 0
M  V30 2878 O 278.029 0.362151 -1.98117 0
M  V30 2879 C 275.094 0.293651 -3.45454 0
M  V30 2880 C 274.155 -0.663601 -4.2414 0
M  V30 2881 C 273.388 0.0362932 -5.33688 0
M  V30 2882 O 273.611 1.2548 -5.56427 0
M  V30 2883 O 272.545 -0.638015 -5.98509 0
M  V30 2884 H 276.371 -1.29962 -2.74488 0
M  V30 2885 H 273.956 -0.6981 -1.32087 0
M  V30 2886 H 275.838 0.707951 -4.15411 0
M  V30 2887 H 274.513 1.12758 -3.03426 0
M  V30 2888 H 273.42 -1.12768 -3.56699 0
M  V30 2889 H 274.753 -1.46489 -4.69896 0
M  V30 2890 N 276.405 1.4127 -0.698611 0
M  V30 2891 C 277.633 2.05503 -0.239992 0
M  V30 2892 C 278.048 1.52584 1.11191 0
M  V30 2893 O 277.405 0.675323 1.69545 0
M  V30 2894 C 277.456 3.60987 -0.192429 0
M  V30 2895 O 277.177 4.1195 -1.49094 0
M  V30 2896 C 278.678 4.42371 0.28681 0
M  V30 2897 H 275.898 0.661748 -0.111045 0
M  V30 2898 H 278.442 1.80987 -0.95205 0
M  V30 2899 H 276.597 3.84533 0.470472 0
M  V30 2900 H 277.011 5.06018 -1.38007 0
M  V30 2901 H 278.485 5.51344 0.26896 0
M  V30 2902 H 278.962 4.18699 1.32619 0
M  V30 2903 H 279.568 4.23897 -0.345201 0
M  V30 2904 N 277.883 0.443576 1.51229 0
M  V30 2905 C 278.846 -0.353132 2.26463 0
M  V30 2906 C 279.846 -0.944338 1.3015 0
M  V30 2907 O 281.036 -0.817813 1.5381 0
M  V30 2908 C 278.168 -1.50023 3.06114 0
M  V30 2909 H 279.361 0.3063 2.98332 0
M  V30 2910 H 276.914 0.196902 1.55055 0
M  V30 2911 H 277.649 -2.19553 2.38677 0
M  V30 2912 H 277.434 -1.08241 3.76864 0
M  V30 2913 H 278.924 -2.06296 3.63087 0
M  V30 2914 N 279.361 -1.56624 0.175154 0
M  V30 2915 C 280.309 -2.19468 -0.770495 0
M  V30 2916 C 281.303 -1.15985 -1.23466 0
M  V30 2917 O 282.509 -1.34176 -1.19987 0
M  V30 2918 H 278.884 -0.703095 -0.266761 0
M  V30 2919 H 280.855 -2.97613 -0.216542 0
M  V30 2920 C 279.604 -2.85264 -1.98796 0
M  V30 2921 H 278.927 -3.64623 -1.63983 0
M  V30 2922 H 280.367 -3.327 -2.62843 0
M  V30 2923 C 278.826 -1.85239 -2.81404 0
M  V30 2924 O 279.356 -1.34024 -3.78682 0
M  V30 2925 N 277.562 -1.53911 -2.46495 0
M  V30 2926 H 277.109 -1.95751 -1.67449 0
M  V30 2927 H 277.067 -0.872382 -3.02054 0
M  V30 2928 N 280.839 0.0985539 -1.57292 0
M  V30 2929 C 282.087 0.801092 -1.85545 0
M  V30 2930 C 282.408 1.79438 -0.763353 0
M  V30 2931 O 281.678 1.94763 0.21073 0
M  V30 2932 H 280.258 0.29884 -0.684619 0
M  V30 2933 H 282.92 0.0810064 -1.94732 0
M  V30 2934 H 282.016 1.3338 -2.82163 0
M  V30 2935 N 282.317 1.53212 0.369288 0
M  V30 2936 C 283.542 1.73423 1.1375 0
M  V30 2937 C 283.967 0.460404 1.82378 0
M  V30 2938 O 283.325 -0.585298 1.71592 0
M  V30 2939 C 283.373 2.89769 2.1463 0
M  V30 2940 O 282.477 2.58119 3.21634 0
M  V30 2941 H 281.818 0.576061 0.330227 0
M  V30 2942 H 284.348 2.00083 0.427547 0
M  V30 2943 H 284.358 3.15829 2.58294 0
M  V30 2944 H 283.033 3.8217 1.64071 0
M  V30 2945 H 281.61 2.42864 2.82969 0
M  V30 2946 N 283.795 -0.628877 1.44509 0
M  V30 2947 C 285.025 -1.41349 1.50678 0
M  V30 2948 C 285.433 -1.88745 0.131075 0
M  V30 2949 O 284.776 -1.61592 -0.87371 0
M  V30 2950 C 284.838 -2.66608 2.41165 0
M  V30 2951 C 284.502 -2.40993 3.88293 0
M  V30 2952 C 285.499 -2.0268 4.78766 0
M  V30 2953 C 283.184 -2.54563 4.33016 0
M  V30 2954 C 285.178 -1.78269 6.11963 0
M  V30 2955 C 282.865 -2.29766 5.6626 0
M  V30 2956 C 283.863 -1.91678 6.55552 0
M  V30 2957 O 283.551 -1.67158 7.86329 0
M  V30 2958 H 283.283 -0.439851 0.51333 0
M  V30 2959 H 285.837 -0.776084 1.90174 0
M  V30 2960 H 284.067 -3.32994 1.96601 0
M  V30 2961 H 285.756 -3.28615 2.38259 0
M  V30 2962 H 286.522 -1.91751 4.45485 0
M  V30 2963 H 282.401 -2.83179 3.63773 0
M  V30 2964 H 285.945 -1.48465 6.81619 0
M  V30 2965 H 281.842 -2.40306 5.99102 0
M  V30 2966 H 282.61 -1.81386 7.98149 0
M  V30 2967 N 285.273 -1.31445 -0.869486 0
M  V30 2968 C 286.501 -1.24122 -1.65534 0
M  V30 2969 C 286.916 0.193387 -1.87807 0
M  V30 2970 O 286.273 1.12557 -1.43656 0
M  V30 2971 C 286.324 -1.98229 -3.02304 0
M  V30 2972 O 286.045 -3.3609 -2.81026 0
M  V30 2973 C 287.546 -1.97751 -3.96749 0
M  V30 2974 H 284.766 -0.428868 -0.516055 0
M  V30 2975 H 287.31 -1.73328 -1.08525 0
M  V30 2976 H 285.465 -1.52782 -3.56001 0
M  V30 2977 H 285.879 -3.7383 -3.67902 0
M  V30 2978 H 287.353 -2.54114 -4.90031 0
M  V30 2979 H 287.83 -0.960137 -4.28577 0
M  V30 2980 H 288.436 -2.43079 -3.48988 0
M  V30 2981 N 286.751 1.08385 -1.14413 0
M  V30 2982 C 287.714 2.13486 -0.834048 0
M  V30 2983 C 288.714 1.59988 0.161418 0
M  V30 2984 O 289.904 1.74071 -0.0669575 0
M  V30 2985 C 287.036 3.4003 -0.243354 0
M  V30 2986 H 288.229 2.42425 -1.7655 0
M  V30 2987 H 285.782 1.24101 -0.950189 0
M  V30 2988 H 286.517 3.16726 0.696807 0
M  V30 2989 H 286.302 3.80157 -0.960367 0
M  V30 2990 H 287.792 4.17577 -0.0436242 0
M  V30 2991 N 288.23 0.939286 1.26551 0
M  V30 2992 C 289.507 0.5038 1.89001 0
M  V30 2993 C 289.887 -1.01854 1.84903 0
M  V30 2994 O 289.235 -1.87773 1.30206 0
M  V30 2995 C 289.445 1.063 3.32417 0
M  V30 2996 C 290.793 1.13051 4.09273 0
M  V30 2997 O 291.817 1.01345 3.41479 0
M  V30 2998 O 290.676 1.31233 5.30509 0
M  V30 2999 H 287.77 0.163897 0.810597 0
M  V30 3000 H 290.316 1.03173 1.34735 0
M  V30 3001 H 289.088 2.10665 3.29752 0
M  V30 3002 H 288.711 0.517408 3.94219 0
M  V30 3003 N 289.708 -1.40897 0.706093 0
M  V30 3004 C 290.655 -2.30751 0.0474474 0
M  V30 3005 C 291.625 -1.47678 -0.76029 0
M  V30 3006 O 292.81 -1.76441 -0.726177 0
M  V30 3007 C 289.95 -3.33815 -0.875309 0
M  V30 3008 C 289.063 -4.31961 -0.0580623 0
M  V30 3009 C 288.198 -5.22093 -0.979425 0
M  V30 3010 C 287.237 -6.11902 -0.155706 0
M  V30 3011 N 286.374 -6.94482 -1.03144 0
M  V30 3012 H 291.214 -2.86513 0.819413 0
M  V30 3013 H 288.751 -1.41102 0.415783 0
M  V30 3014 H 290.709 -3.92129 -1.42446 0
M  V30 3015 H 289.339 -2.79579 -1.61356 0
M  V30 3016 H 288.391 -3.75507 0.608147 0
M  V30 3017 H 289.703 -4.95415 0.580082 0
M  V30 3018 H 288.857 -5.85292 -1.59744 0
M  V30 3019 H 287.596 -4.5889 -1.65141 0
M  V30 3020 H 286.601 -5.47742 0.475309 0
M  V30 3021 H 287.826 -6.77162 0.512635 0
M  V30 3022 H 285.772 -6.33877 -1.68924 0
M  V30 3023 H 285.689 -7.54665 -0.449108 0
M  V30 3024 H 286.957 -7.6214 -1.63593 0
M  V30 3025 N 291.186 -0.45159 -1.50991 0
M  V30 3026 C 292.116 0.342898 -2.30969 0
M  V30 3027 C 293.097 1.00815 -1.37005 0
M  V30 3028 O 294.282 1.00907 -1.65926 0
M  V30 3029 C 291.412 1.43637 -3.16205 0
M  V30 3030 C 290.366 0.893818 -4.18563 0
M  V30 3031 C 289.692 2.08411 -4.92411 0
M  V30 3032 C 290.992 -0.0815568 -5.22236 0
M  V30 3033 H 292.686 -0.324556 -2.97636 0
M  V30 3034 H 290.232 -0.157531 -1.43136 0
M  V30 3035 H 292.185 1.9995 -3.70942 0
M  V30 3036 H 290.909 2.13232 -2.47386 0
M  V30 3037 H 289.568 0.352798 -3.64898 0
M  V30 3038 H 289.216 2.76658 -4.20082 0
M  V30 3039 H 288.916 1.72741 -5.61636 0
M  V30 3040 H 290.44 2.65251 -5.49976 0
M  V30 3041 H 291.854 0.391742 -5.7196 0
M  V30 3042 H 290.251 -0.351551 -5.99069 0
M  V30 3043 H 291.321 -1.01374 -4.74185 0
M  V30 3044 N 292.664 1.56529 -0.183458 0
M  V30 3045 C 293.913 1.96419 0.458511 0
M  V30 3046 C 294.226 1.0727 1.63562 0
M  V30 3047 O 295.432 1.36893 2.34462 0
M  V30 3048 C 293.888 3.49298 0.867122 0
M  V30 3049 C 293.496 4.47092 -0.285057 0
M  V30 3050 C 295.24 3.97983 1.47683 0
M  V30 3051 C 293.147 5.91225 0.143862 0
M  V30 3052 H 292.077 0.733394 0.175071 0
M  V30 3053 H 294.728 1.81448 -0.273624 0
M  V30 3054 H 293.11 3.59731 1.65559 0
M  V30 3055 H 294.284 4.48383 -1.0625 0
M  V30 3056 H 292.599 4.08535 -0.805503 0
M  V30 3057 H 295.196 5.03134 1.80999 0
M  V30 3058 H 295.539 3.41618 2.37914 0
M  V30 3059 H 296.072 3.90617 0.752562 0
M  V30 3060 H 292.811 6.5149 -0.723974 0
M  V30 3061 H 292.331 5.93214 0.886413 0
M  V30 3062 H 294.01 6.44362 0.583628 0
M  V30 3063 N 294.142 -0.090211 1.57342 0
M  V30 3064 C 295.388 -0.793982 1.86611 0
M  V30 3065 C 295.721 -1.78142 0.773252 0
M  V30 3066 O 294.996 -1.93271 -0.218304 0
M  V30 3067 C 295.279 -1.51839 3.26523 0
M  V30 3068 C 295.132 -0.548609 4.46442 0
M  V30 3069 C 296.451 -2.46779 3.64401 0
M  V30 3070 H 293.57 -0.287186 0.678744 0
M  V30 3071 H 296.212 -0.0575076 1.89913 0
M  V30 3072 H 294.362 -2.14617 3.23839 0
M  V30 3073 H 296.034 0.0725513 4.61243 0
M  V30 3074 H 294.277 0.137614 4.33582 0
M  V30 3075 H 294.948 -1.09271 5.41076 0
M  V30 3076 H 297.424 -1.94089 3.68061 0
M  V30 3077 H 296.3 -2.94479 4.63221 0
M  V30 3078 H 296.561 -3.30758 2.93346 0
M  V30 3079 N 295.62 -1.53406 -0.361157 0
M  V30 3080 C 296.845 -1.74024 -1.12829 0
M  V30 3081 C 297.27 -0.470069 -1.82132 0
M  V30 3082 O 296.628 0.57619 -1.719 0
M  V30 3083 C 296.676 -2.90903 -2.13091 0
M  V30 3084 O 295.78 -2.59821 -3.20261 0
M  V30 3085 H 295.121 -0.577804 -0.327168 0
M  V30 3086 H 297.651 -2.00307 -0.41693 0
M  V30 3087 H 297.661 -3.17194 -2.56616 0
M  V30 3088 H 296.336 -3.83034 -1.62042 0
M  V30 3089 H 294.913 -2.44362 -2.81677 0
M  V30 3090 N 297.098 0.621204 -1.44841 0
M  V30 3091 C 298.031 1.7459 -1.46947 0
M  V30 3092 C 299.009 1.59273 -0.327238 0
M  V30 3093 O 300.193 1.81021 -0.525706 0
M  V30 3094 C 297.32 3.12274 -1.31159 0
M  V30 3095 C 296.366 3.46216 -2.49072 0
M  V30 3096 S 297.199 3.4258 -4.11581 0
M  V30 3097 C 298.355 4.82867 -3.98233 0
M  V30 3098 H 298.588 1.72538 -2.42111 0
M  V30 3099 H 296.121 0.796683 -1.32259 0
M  V30 3100 H 298.079 3.91722 -1.22737 0
M  V30 3101 H 296.74 3.11855 -0.374885 0
M  V30 3102 H 295.933 4.4643 -2.33915 0
M  V30 3103 H 295.535 2.74253 -2.54286 0
M  V30 3104 H 297.827 5.7234 -3.62537 0
M  V30 3105 H 298.77 5.0308 -4.98313 0
M  V30 3106 H 299.178 4.57908 -3.30121 0
M  V30 3107 N 298.576 1.31904 0.862503 0
M  V30 3108 C 299.824 1.21776 1.61292 0
M  V30 3109 C 300.145 -0.222413 1.93727 0
M  V30 3110 O 299.415 -1.1451 1.58947 0
M  V30 3111 H 297.995 0.447717 0.597962 0
M  V30 3112 H 300.657 1.65326 1.03215 0
M  V30 3113 H 299.753 1.7948 2.5533 0
M  V30 3114 N 300.054 -1.07777 1.14986 0
M  V30 3115 C 301.017 -2.13041 0.845358 0
M  V30 3116 C 302.017 -1.60071 -0.152931 0
M  V30 3117 O 303.207 -1.74033 0.0761879 0
M  V30 3118 C 300.339 -3.39896 0.261383 0
M  V30 3119 H 301.532 -2.41485 1.77834 0
M  V30 3120 H 299.085 -1.23595 0.956757 0
M  V30 3121 H 299.82 -3.17091 -0.68 0
M  V30 3122 H 299.605 -3.79642 0.980514 0
M  V30 3123 H 301.095 -4.17548 0.0657687 0
M  V30 3124 N 301.532 -0.945985 -1.26051 0
M  V30 3125 C 302.778 -0.606539 -1.94146 0
M  V30 3126 C 303.133 0.84586 -1.72809 0
M  V30 3127 O 302.426 1.59781 -1.05738 0
M  V30 3128 C 302.62 -0.890475 -3.46129 0
M  V30 3129 C 302.449 -2.36892 -3.82246 0
M  V30 3130 C 301.219 -3.02494 -4.04753 0
M  V30 3131 C 303.417 -3.34772 -3.90425 0
M  V30 3132 N 301.399 -4.40302 -4.27794 0
M  V30 3133 C 302.77 -4.57855 -4.18054 0
M  V30 3134 C 304.825 -3.2973 -3.73072 0
M  V30 3135 C 303.528 -5.76522 -4.30134 0
M  V30 3136 C 305.554 -4.47727 -3.86386 0
M  V30 3137 C 304.916 -5.69593 -4.14419 0
M  V30 3138 H 301.015 -0.272407 -0.73302 0
M  V30 3139 H 303.599 -1.21638 -1.52027 0
M  V30 3140 H 301.77 -0.309638 -3.87164 0
M  V30 3141 H 303.502 -0.51181 -4.01451 0
M  V30 3142 H 300.257 -2.53095 -4.003 0
M  V30 3143 H 300.681 -5.11646 -4.43337 0
M  V30 3144 H 305.323 -2.36565 -3.50424 0
M  V30 3145 H 303.041 -6.70136 -4.51601 0
M  V30 3146 H 306.627 -4.45363 -3.74356 0
M  V30 3147 H 305.507 -6.59375 -4.24493 0
M  V30 3148 N 303.011 1.40521 -0.713556 0
M  V30 3149 C 303.959 2.32549 -0.0485227 0
M  V30 3150 C 304.953 1.51931 0.74922 0
M  V30 3151 O 306.159 1.67745 0.652816 0
M  V30 3152 H 302.534 0.751994 0.00311138 0
M  V30 3153 H 304.505 2.86291 -0.841443 0
M  V30 3154 C 303.254 3.36879 0.860687 0
M  V30 3155 H 302.577 3.98978 0.256246 0
M  V30 3156 H 304.017 4.03772 1.294 0
M  V30 3157 C 302.476 2.72197 1.9852 0
M  V30 3158 O 303.006 2.5837 3.07584 0
M  V30 3159 N 301.212 2.30612 1.76823 0
M  V30 3160 H 300.759 2.42059 0.881217 0
M  V30 3161 H 300.717 1.87672 2.52243 0
M  V30 3162 N 304.489 0.459591 1.5075 0
M  V30 3163 C 305.714 -0.0996819 2.0716 0
M  V30 3164 C 306.139 -1.33761 1.32249 0
M  V30 3165 O 305.497 -1.77551 0.366786 0
M  V30 3166 C 305.545 -0.378226 3.58611 0
M  V30 3167 O 304.649 -1.46081 3.85661 0
M  V30 3168 H 303.99 0.00791392 0.663953 0
M  V30 3169 H 306.52 0.647329 1.9409 0
M  V30 3170 H 306.53 -0.622135 4.03229 0
M  V30 3171 H 305.205 0.526439 4.12555 0
M  V30 3172 H 303.782 -1.20511 3.5289 0
M  V30 3173 N 305.967 -1.56429 0.191757 0
M  V30 3174 C 306.914 -2.18936 -0.730454 0
M  V30 3175 C 307.884 -1.13557 -1.21219 0
M  V30 3176 O 309.069 -1.41794 -1.27668 0
M  V30 3177 C 306.209 -2.85013 -1.9458 0
M  V30 3178 C 305.322 -4.04909 -1.50574 0
M  V30 3179 C 304.457 -4.58853 -2.67634 0
M  V30 3180 C 303.496 -5.71114 -2.20217 0
M  V30 3181 N 302.633 -6.19478 -3.30442 0
M  V30 3182 H 307.473 -2.97389 -0.190664 0
M  V30 3183 H 305.01 -1.46869 -0.0823694 0
M  V30 3184 H 306.968 -3.21492 -2.65893 0
M  V30 3185 H 305.598 -2.09129 -2.45896 0
M  V30 3186 H 304.65 -3.74115 -0.688605 0
M  V30 3187 H 305.962 -4.86113 -1.11784 0
M  V30 3188 H 305.116 -4.97619 -3.47074 0
M  V30 3189 H 303.855 -3.76749 -3.09696 0
M  V30 3190 H 302.86 -5.31879 -1.3923 0
M  V30 3191 H 304.085 -6.55033 -1.79189 0
M  V30 3192 H 302.031 -5.40297 -3.72041 0
M  V30 3193 H 301.948 -6.95725 -2.9581 0
M  V30 3194 H 303.216 -6.62898 -4.10106 0
M  V30 3195 N 307.445 0.0818655 -1.57387 0
M  V30 3196 C 308.375 1.09885 -2.06028 0
M  V30 3197 C 309.356 1.4098 -0.951774 0
M  V30 3198 O 310.541 1.50781 -1.22387 0
M  V30 3199 C 307.671 2.4151 -2.4958 0
M  V30 3200 C 306.625 2.24792 -3.64215 0
M  V30 3201 C 305.951 3.61712 -3.93787 0
M  V30 3202 C 307.251 1.67749 -4.94629 0
M  V30 3203 H 308.945 0.694128 -2.91243 0
M  V30 3204 H 306.491 0.332448 -1.4011 0
M  V30 3205 H 308.444 3.12939 -2.82219 0
M  V30 3206 H 307.168 2.83943 -1.61381 0
M  V30 3207 H 305.827 1.55807 -3.31843 0
M  V30 3208 H 305.475 4.01697 -3.02735 0
M  V30 3209 H 305.175 3.51368 -4.70971 0
M  V30 3210 H 306.699 4.34587 -4.28913 0
M  V30 3211 H 308.113 2.29032 -5.25564 0
M  V30 3212 H 306.51 1.68128 -5.76067 0
M  V30 3213 H 307.58 0.638059 -4.80684 0
M  V30 3214 N 308.923 1.53595 0.353017 0
M  V30 3215 C 309.853 1.83902 1.43883 0
M  V30 3216 C 310.834 0.693421 1.55324 0
M  V30 3217 O 312.019 0.944452 1.69687 0
M  V30 3218 C 309.149 2.04016 2.8106 0
M  V30 3219 C 308.103 3.19814 2.84434 0
M  V30 3220 C 307.429 3.25244 4.24406 0
M  V30 3221 C 308.729 4.58133 2.50822 0
M  V30 3222 H 310.423 2.74835 1.1877 0
M  V30 3223 H 307.969 1.32242 0.569917 0
M  V30 3224 H 309.922 2.238 3.57059 0
M  V30 3225 H 308.646 1.09804 3.07588 0
M  V30 3226 H 307.305 2.9987 2.10887 0
M  V30 3227 H 306.953 2.28646 4.48029 0
M  V30 3228 H 306.653 4.03054 4.27576 0
M  V30 3229 H 308.177 3.47228 5.0226 0
M  V30 3230 H 309.591 4.77995 3.16534 0
M  V30 3231 H 307.988 5.38276 2.6529 0
M  V30 3232 H 309.058 4.62387 1.46034 0
M  V30 3233 N 310.401 -0.613514 1.45168 0
M  V30 3234 C 311.626 -1.40437 1.52618 0
M  V30 3235 C 312.051 -1.87438 0.157707 0
M  V30 3236 O 311.409 -1.59791 -0.856537 0
M  V30 3237 C 311.457 -2.58894 2.51011 0
M  V30 3238 O 310.561 -3.59326 2.02382 0
M  V30 3239 H 309.902 -0.419506 0.514695 0
M  V30 3240 H 312.432 -0.747215 1.90467 0
M  V30 3241 H 312.442 -3.06214 2.69624 0
M  V30 3242 H 311.117 -2.24032 3.50403 0
M  V30 3243 H 309.694 -3.18695 1.93618 0
M  V30 3244 N 311.879 -1.3236 -0.855495 0
M  V30 3245 C 312.826 -1.21225 -1.964 0
M  V30 3246 C 313.796 -0.0946204 -1.6583 0
M  V30 3247 O 314.981 -0.27002 -1.8888 0
M  V30 3248 C 312.121 -0.940419 -3.32039 0
M  V30 3249 C 311.234 -2.14276 -3.75113 0
M  V30 3250 C 310.369 -1.80648 -4.9954 0
M  V30 3251 C 309.408 -2.97208 -5.35102 0
M  V30 3252 N 308.545 -2.63678 -6.50706 0
M  V30 3253 H 313.385 -2.16042 -2.05255 0
M  V30 3254 H 310.922 -1.07451 -1.00463 0
M  V30 3255 H 312.88 -0.763311 -4.10158 0
M  V30 3256 H 311.51 -0.0290413 -3.22787 0
M  V30 3257 H 310.562 -2.43017 -2.92655 0
M  V30 3258 H 311.874 -3.01468 -3.97389 0
M  V30 3259 H 311.028 -1.59484 -5.85363 0
M  V30 3260 H 309.767 -0.906678 -4.79198 0
M  V30 3261 H 308.772 -3.19004 -4.47791 0
M  V30 3262 H 309.997 -3.87918 -5.57401 0
M  V30 3263 H 307.943 -1.76238 -6.31883 0
M  V30 3264 H 307.86 -3.444 -6.72997 0
M  V30 3265 H 309.128 -2.45942 -7.39684 0
M  V30 3266 N 313.357 1.07166 -1.15556 0
M  V30 3267 C 314.287 2.16403 -0.877046 0
M  V30 3268 C 315.268 1.69217 0.173111 0
M  V30 3269 O 316.453 1.94181 0.027084 0
M  V30 3270 C 313.583 3.45349 -0.367632 0
M  V30 3271 C 312.537 4.05995 -1.35468 0
M  V30 3272 C 311.863 5.30045 -0.704038 0
M  V30 3273 C 313.163 4.45804 -2.72132 0
M  V30 3274 H 314.857 2.39959 -1.79053 0
M  V30 3275 H 312.403 1.15325 -0.862331 0
M  V30 3276 H 314.356 4.21095 -0.160317 0
M  V30 3277 H 313.08 3.21385 0.581326 0
M  V30 3278 H 311.739 3.32296 -1.54839 0
M  V30 3279 H 311.387 5.02373 0.251128 0
M  V30 3280 H 311.087 5.71579 -1.36277 0
M  V30 3281 H 312.611 6.08495 -0.50654 0
M  V30 3282 H 314.025 5.12671 -2.56595 0
M  V30 3283 H 312.422 4.98296 -3.34397 0
M  V30 3284 H 313.492 3.57083 -3.28054 0
M  V30 3285 N 314.835 0.952656 1.25548 0
M  V30 3286 C 315.783 0.462354 2.27958 0
M  V30 3287 C 316.777 -0.46634 1.62855 0
M  V30 3288 O 317.983 -0.343287 1.76696 0
M  V30 3289 H 314.358 0.13101 0.7405 0
M  V30 3290 H 316.329 1.33839 2.66702 0
M  V30 3291 C 315.078 -0.24628 3.46827 0
M  V30 3292 H 314.401 0.459192 3.97154 0
M  V30 3293 H 315.841 -0.553393 4.20373 0
M  V30 3294 C 314.3 -1.4681 3.0323 0
M  V30 3295 O 314.83 -2.56591 3.09069 0
M  V30 3296 N 313.036 -1.32874 2.58443 0
M  V30 3297 H 312.583 -0.435536 2.53891 0
M  V30 3298 H 312.541 -2.14742 2.29637 0
M  V30 3299 N 316.313 -1.40141 0.720998 0
M  V30 3300 C 317.243 -2.33339 0.0867621 0
M  V30 3301 C 318.224 -1.53178 -0.739622 0
M  V30 3302 O 319.409 -1.81625 -0.687449 0
M  V30 3303 C 316.539 -3.37194 -0.831728 0
M  V30 3304 C 315.493 -4.27857 -0.110558 0
M  V30 3305 C 314.819 -5.22294 -1.14513 0
M  V30 3306 C 316.119 -5.11872 1.0385 0
M  V30 3307 H 317.813 -2.86626 0.865219 0
M  V30 3308 H 315.359 -1.37814 0.417516 0
M  V30 3309 H 317.312 -4.01335 -1.28485 0
M  V30 3310 H 316.036 -2.82314 -1.64214 0
M  V30 3311 H 314.695 -3.65176 0.322797 0
M  V30 3312 H 314.343 -4.63717 -1.94874 0
M  V30 3313 H 314.043 -5.83797 -0.667446 0
M  V30 3314 H 315.567 -5.89312 -1.59824 0
M  V30 3315 H 316.981 -5.69436 0.664482 0
M  V30 3316 H 315.378 -5.82445 1.4449 0
M  V30 3317 H 316.448 -4.4753 1.86668 0
M  V30 3318 N 317.792 -0.46758 -1.50504 0
M  V30 3319 C 319.069 0.15003 -1.95024 0
M  V30 3320 C 319.449 1.57304 -1.40779 0
M  V30 3321 O 318.797 2.20281 -0.607319 0
M  V30 3322 C 319.007 0.0969324 -3.48865 0
M  V30 3323 C 320.355 0.287565 -4.23625 0
M  V30 3324 O 321.379 0.173678 -3.55776 0
M  V30 3325 O 320.238 0.517186 -5.44047 0
M  V30 3326 H 317.332 0.113582 -0.819163 0
M  V30 3327 H 319.878 -0.52773 -1.61286 0
M  V30 3328 H 318.65 -0.896732 -3.80886 0
M  V30 3329 H 318.273 0.816303 -3.8913 0
M  V30 3330 N 319.27 1.56325 -0.20005 0
M  V30 3331 C 320.519 1.96895 0.437652 0
M  V30 3332 C 320.832 1.08999 1.62415 0
M  V30 3333 O 322.038 1.39372 2.32997 0
M  V30 3334 C 320.494 3.50198 0.830025 0
M  V30 3335 C 320.102 4.46765 -0.332461 0
M  V30 3336 C 321.846 3.99526 1.43453 0
M  V30 3337 C 319.753 5.91344 0.0811468 0
M  V30 3338 H 318.683 0.735209 0.167282 0
M  V30 3339 H 321.334 1.81148 -0.292853 0
M  V30 3340 H 319.716 3.61467 1.61734 0
M  V30 3341 H 320.89 4.47231 -1.11 0
M  V30 3342 H 319.205 4.07657 -0.848789 0
M  V30 3343 H 321.802 5.05025 1.75652 0
M  V30 3344 H 322.145 3.44122 2.34277 0
M  V30 3345 H 322.678 3.91393 0.71109 0
M  V30 3346 H 319.417 6.50685 -0.793033 0
M  V30 3347 H 318.937 5.94121 0.823445 0
M  V30 3348 H 320.616 6.44945 0.515252 0
M  V30 3349 N 320.748 -0.0735177 1.57428 0
M  V30 3350 C 322.159 -0.625551 1.75908 0
M  V30 3351 C 322.51 -1.78 0.825261 0
M  V30 3352 O 321.635 -2.16398 0.00893964 0
M  V30 3353 C 322.23 -1.14155 3.18989 0
M  V30 3354 C 320.789 -1.63946 3.38819 0
M  V30 3355 C 319.936 -0.558151 2.71625 0
M  V30 3356 H 322.887 0.152647 1.57964 0
M  V30 3357 H 322.908 -2.0104 3.23053 0
M  V30 3358 H 322.42 -0.301116 3.8693 0
M  V30 3359 H 320.521 -2.50321 2.7599 0
M  V30 3360 H 320.634 -1.71759 4.47253 0
M  V30 3361 H 318.998 -1.00278 2.34129 0
M  V30 3362 H 319.781 0.272071 3.4222 0
M  V30 3363 N 322.226 -1.5378 -0.344866 0
M  V30 3364 C 323.156 -1.84662 -1.42906 0
M  V30 3365 C 324.137 -0.701648 -1.54955 0
M  V30 3366 O 325.322 -0.953438 -1.69184 0
M  V30 3367 C 322.452 -2.05503 -2.79974 0
M  V30 3368 C 321.406 -3.21318 -2.82734 0
M  V30 3369 C 320.732 -3.2749 -4.22675 0
M  V30 3370 C 322.032 -4.59456 -2.48389 0
M  V30 3371 H 323.726 -2.75461 -1.17311 0
M  V30 3372 H 321.272 -1.32542 -0.562896 0
M  V30 3373 H 323.225 -2.25691 -3.55867 0
M  V30 3374 H 321.949 -1.11434 -3.07002 0
M  V30 3375 H 320.608 -3.00984 -2.09294 0
M  V30 3376 H 320.256 -2.31019 -4.4681 0
M  V30 3377 H 319.956 -4.05316 -4.25433 0
M  V30 3378 H 321.48 -3.49887 -5.00412 0
M  V30 3379 H 322.894 -4.79667 -3.13995 0
M  V30 3380 H 321.291 -5.39675 -2.62432 0
M  V30 3381 H 322.361 -4.63155 -1.4358 0
M  V30 3382 N 323.704 0.605807 -1.45491 0
M  V30 3383 C 324.636 1.73031 -1.5031 0
M  V30 3384 C 325.649 1.57968 -0.393687 0
M  V30 3385 O 326.838 1.65817 -0.660839 0
M  V30 3386 C 323.938 3.11049 -1.34543 0
M  V30 3387 C 323.111 3.52334 -2.59189 0
M  V30 3388 C 322.17 4.69323 -2.37954 0
M  V30 3389 O 321.196 4.7635 -3.11575 0
M  V30 3390 N 322.398 5.62705 -1.4263 0
M  V30 3391 H 325.163 1.6936 -2.4726 0
M  V30 3392 H 322.724 0.79114 -1.41254 0
M  V30 3393 H 324.716 3.87071 -1.18144 0
M  V30 3394 H 323.286 3.09217 -0.458623 0
M  V30 3395 H 322.506 2.66256 -2.90691 0
M  V30 3396 H 323.794 3.76677 -3.42041 0
M  V30 3397 H 323.192 5.59744 -0.818758 0
M  V30 3398 H 321.749 6.38252 -1.32202 0
M  V30 3399 N 325.182 1.32811 0.848464 0
M  V30 3400 C 326.593 1.21315 1.41914 0
M  V30 3401 C 326.944 -0.171847 1.95446 0
M  V30 3402 O 326.069 -1.07093 1.88043 0
M  V30 3403 C 326.664 2.19631 2.57968 0
M  V30 3404 C 325.223 2.12003 3.11017 0
M  V30 3405 C 324.37 2.07651 1.83783 0
M  V30 3406 H 327.321 1.44549 0.655071 0
M  V30 3407 H 327.342 1.79845 3.35315 0
M  V30 3408 H 326.854 3.20423 2.18976 0
M  V30 3409 H 324.955 1.14481 3.54577 0
M  V30 3410 H 325.068 3.02111 3.71841 0
M  V30 3411 H 323.432 1.52983 2.03638 0
M  V30 3412 H 324.215 3.10235 1.47 0
M  V30 3413 N 326.66 -1.06551 1.16123 0
M  V30 3414 C 327.89 -1.8274 0.963838 0
M  V30 3415 C 328.298 -1.82712 -0.491228 0
M  V30 3416 O 327.641 -1.24294 -1.35265 0
M  V30 3417 C 327.703 -3.3065 1.41106 0
M  V30 3418 C 327.367 -3.54384 2.88549 0
M  V30 3419 C 328.364 -3.4765 3.86569 0
M  V30 3420 C 326.049 -3.81789 3.26408 0
M  V30 3421 C 328.043 -3.67982 5.2045 0
M  V30 3422 C 325.73 -4.01772 4.60459 0
M  V30 3423 C 326.728 -3.94866 5.57288 0
M  V30 3424 O 326.416 -4.14306 6.88916 0
M  V30 3425 H 326.148 -0.583136 0.341948 0
M  V30 3426 H 328.702 -1.35351 1.54497 0
M  V30 3427 H 326.932 -3.78887 0.773394 0
M  V30 3428 H 328.621 -3.88324 1.1815 0
M  V30 3429 H 329.387 -3.2647 3.58667 0
M  V30 3430 H 325.266 -3.86276 2.51619 0
M  V30 3431 H 328.81 -3.62507 5.96015 0
M  V30 3432 H 324.707 -4.2244 4.88072 0
M  V30 3433 H 325.475 -4.31609 6.95454 0
M  V30 3434 N 328.138 -0.959301 -1.25041 0
M  V30 3435 C 329.554 -0.664474 -1.4511 0
M  V30 3436 C 329.754 0.776481 -1.85938 0
M  V30 3437 O 328.81 1.55128 -1.99227 0
M  V30 3438 C 330.123 -1.64139 -2.5195 0
M  V30 3439 C 331.671 -1.65309 -2.65786 0
M  V30 3440 C 332.146 -2.61777 -3.75815 0
M  V30 3441 N 333.637 -2.60169 -3.83231 0
M  V30 3442 C 334.372 -3.31489 -4.6787 0
M  V30 3443 N 333.868 -4.12298 -5.56761 0
M  V30 3444 N 335.661 -3.20354 -4.61876 0
M  V30 3445 H 327.812 -1.89043 -0.968332 0
M  V30 3446 H 330.075 -0.813408 -0.4869 0
M  V30 3447 H 329.781 -2.67086 -2.28819 0
M  V30 3448 H 329.655 -1.40756 -3.49954 0
M  V30 3449 H 332.042 -0.630778 -2.8828 0
M  V30 3450 H 332.123 -1.92753 -1.68167 0
M  V30 3451 H 331.767 -3.64137 -3.54071 0
M  V30 3452 H 331.697 -2.31616 -4.72929 0
M  V30 3453 H 334.188 -2.01507 -3.19692 0
M  V30 3454 H 334.501 -4.63625 -6.18281 0
M  V30 3455 H 332.846 -4.16395 -5.56454 0
M  V30 3456 H 336.037 -2.56692 -3.91442 0
M  V30 3457 H 336.21 -3.76201 -5.27614 0
M  V30 3458 N 329.616 1.39756 -0.72842 0
M  V30 3459 C 330.548 2.29157 -0.0446202 0
M  V30 3460 C 331.561 1.46484 0.710367 0
M  V30 3461 O 332.75 1.69632 0.55562 0
M  V30 3462 C 329.85 3.24987 0.961071 0
M  V30 3463 C 329.023 4.36572 0.268967 0
M  V30 3464 C 328.082 5.12756 1.18184 0
M  V30 3465 O 327.108 5.6534 0.661794 0
M  V30 3466 N 328.31 5.23331 2.51206 0
M  V30 3467 H 331.075 2.88482 -0.812295 0
M  V30 3468 H 328.636 1.51265 -0.577098 0
M  V30 3469 H 330.628 3.72827 1.57423 0
M  V30 3470 H 329.198 2.66739 1.63 0
M  V30 3471 H 328.418 3.90694 -0.524574 0
M  V30 3472 H 329.706 5.08363 -0.210934 0
M  V30 3473 H 329.104 4.82116 2.9594 0
M  V30 3474 H 327.661 5.74634 3.07634 0
M  V30 3475 N 331.094 0.475555 1.50254 0
M  V30 3476 C 332.34 -0.0780073 2.0265 0
M  V30 3477 C 332.673 -1.38968 1.35652 0
M  V30 3478 O 331.948 -1.8839 0.483691 0
M  V30 3479 C 332.231 -0.257161 3.59181 0
M  V30 3480 C 332.084 1.07585 4.36744 0
M  V30 3481 C 333.403 -1.00965 4.28362 0
M  V30 3482 H 330.522 -0.0268758 0.73651 0
M  V30 3483 H 333.164 0.622015 1.7953 0
M  V30 3484 H 331.314 -0.853412 3.79011 0
M  V30 3485 H 332.986 1.70902 4.28474 0
M  V30 3486 H 331.229 1.6714 4.00308 0
M  V30 3487 H 331.9 0.904088 5.44546 0
M  V30 3488 H 334.376 -0.504214 4.13034 0
M  V30 3489 H 333.252 -1.10381 5.37687 0
M  V30 3490 H 333.513 -2.04731 3.91839 0
M  V30 3491 N 332.573 -1.56217 0.208337 0
M  V30 3492 C 333.819 -1.98242 -0.427552 0
M  V30 3493 C 334.152 -1.09554 -1.60348 0
M  V30 3494 O 333.427 -0.15035 -1.93918 0
M  V30 3495 C 333.71 -3.4931 -0.874907 0
M  V30 3496 C 333.563 -4.48773 0.303751 0
M  V30 3497 C 334.882 -4.04424 -1.73577 0
M  V30 3498 H 332.001 -0.720744 -0.153936 0
M  V30 3499 H 334.643 -1.87586 0.30192 0
M  V30 3500 H 332.793 -3.58522 -1.49648 0
M  V30 3501 H 334.465 -4.51586 0.941682 0
M  V30 3502 H 332.708 -4.23194 0.953375 0
M  V30 3503 H 333.379 -5.51976 -0.0519883 0
M  V30 3504 H 335.855 -3.98075 -1.21143 0
M  V30 3505 H 334.731 -5.1047 -2.01771 0
M  V30 3506 H 334.992 -3.50494 -2.69456 0
M  V30 3507 N 334.051 0.0651679 -1.57465 0
M  V30 3508 C 335.299 0.761555 -1.87202 0
M  V30 3509 C 335.62 1.77778 -0.801243 0
M  V30 3510 O 334.89 1.95166 0.16937 0
M  V30 3511 H 333.47 0.284251 -0.690804 0
M  V30 3512 H 336.132 0.0396827 -1.9486 0
M  V30 3513 H 335.228 1.27365 -2.84929 0
M  V30 3514 N 335.529 1.53961 0.336706 0
M  V30 3515 C 336.776 1.71536 1.07618 0
M  V30 3516 C 337.104 0.482125 1.8843 0
M  V30 3517 O 336.359 -0.536142 1.88213 0
M  V30 3518 C 336.658 2.93493 2.03953 0
M  V30 3519 C 336.324 4.28811 1.39399 0
M  V30 3520 C 334.986 4.65602 1.21523 0
M  V30 3521 C 337.338 5.12844 0.929541 0
M  V30 3522 C 334.666 5.84037 0.558312 0
M  V30 3523 C 337.018 6.31951 0.286505 0
M  V30 3524 C 335.682 6.67432 0.0954869 0
M  V30 3525 H 334.952 0.627696 0.393801 0
M  V30 3526 H 337.599 1.88186 0.354715 0
M  V30 3527 H 335.904 2.71475 2.82504 0
M  V30 3528 H 337.601 3.04285 2.61174 0
M  V30 3529 H 334.191 3.99858 1.54311 0
M  V30 3530 H 338.375 4.84947 1.05548 0
M  V30 3531 H 333.631 6.10097 0.398995 0
M  V30 3532 H 337.805 6.96352 -0.0814376 0
M  V30 3533 H 335.432 7.59063 -0.415579 0
M  V30 3534 N 337.007 -0.598083 1.45811 0
M  V30 3535 C 338.254 -1.35681 1.50323 0
M  V30 3536 C 338.582 -1.9393 0.148739 0
M  V30 3537 O 337.837 -1.76094 -0.853787 0
M  V30 3538 C 338.136 -2.51669 2.53766 0
M  V30 3539 C 337.802 -2.11508 3.98215 0
M  V30 3540 C 336.464 -2.0027 4.37545 0
M  V30 3541 C 338.816 -1.80308 4.89018 0
M  V30 3542 C 336.144 -1.56067 5.65562 0
M  V30 3543 C 338.496 -1.37589 6.17456 0
M  V30 3544 C 337.16 -1.24916 6.55708 0
M  V30 3545 H 336.43 -0.496492 0.550069 0
M  V30 3546 H 339.077 -0.675052 1.79207 0
M  V30 3547 H 337.382 -3.25225 2.18486 0
M  V30 3548 H 339.079 -3.09895 2.54492 0
M  V30 3549 H 335.669 -2.21185 3.67117 0
M  V30 3550 H 339.853 -1.87884 4.59362 0
M  V30 3551 H 335.109 -1.44886 5.93985 0
M  V30 3552 H 339.283 -1.12495 6.87254 0
M  V30 3553 H 336.91 -0.904386 7.54801 0
M  V30 3554 N 338.485 -1.33259 -0.841409 0
M  V30 3555 C 339.395 -1.25332 -1.98316 0
M  V30 3556 C 340.411 -0.164364 -1.73222 0
M  V30 3557 O 341.587 -0.387486 -1.97637 0
M  V30 3558 C 338.652 -0.990078 -3.32262 0
M  V30 3559 C 337.713 -2.16879 -3.70489 0
M  V30 3560 C 336.946 -1.91801 -4.98044 0
M  V30 3561 O 337.169 -0.867075 -5.63771 0
M  V30 3562 O 336.103 -2.78267 -5.33714 0
M  V30 3563 H 339.929 -2.21344 -2.07944 0
M  V30 3564 H 337.514 -1.1328 -0.974058 0
M  V30 3565 H 339.396 -0.860321 -4.12524 0
M  V30 3566 H 338.071 -0.0602155 -3.23644 0
M  V30 3567 H 336.978 -2.35407 -2.90748 0
M  V30 3568 H 338.311 -3.0819 -3.8377 0
M  V30 3569 N 339.963 1.05934 -1.16686 0
M  V30 3570 C 341.188 1.83029 -0.975455 0
M  V30 3571 C 341.613 1.82096 0.471452 0
M  V30 3572 O 340.971 1.22443 1.33706 0
M  V30 3573 C 341.019 3.27372 -1.51195 0
M  V30 3574 O 340.123 4.06054 -0.720701 0
M  V30 3575 H 339.464 0.566194 -0.346872 0
M  V30 3576 H 341.994 1.33541 -1.55009 0
M  V30 3577 H 342.004 3.78186 -1.53099 0
M  V30 3578 H 340.679 3.27366 -2.56523 0
M  V30 3579 H 339.256 3.64812 -0.772458 0
M  V30 3580 N 341.441 0.965919 1.2453 0
M  V30 3581 C 342.718 0.543777 1.87889 0
M  V30 3582 C 343.098 -0.97909 1.87021 0
M  V30 3583 O 342.446 -1.84969 1.3416 0
M  V30 3584 C 342.656 1.13327 3.30088 0
M  V30 3585 C 344.004 1.21707 4.06783 0
M  V30 3586 O 345.028 1.08566 3.39252 0
M  V30 3587 O 343.887 1.42456 5.27606 0
M  V30 3588 H 340.981 0.181054 0.806938 0
M  V30 3589 H 343.527 1.06007 1.32516 0
M  V30 3590 H 342.299 2.17612 3.25209 0
M  V30 3591 H 341.922 0.600911 3.93033 0
M  V30 3592 N 342.919 -1.39368 0.735821 0
M  V30 3593 C 343.829 -2.34395 0.0979693 0
M  V30 3594 C 344.845 -1.58361 -0.720968 0
M  V30 3595 O 346.021 -1.90648 -0.649245 0
M  V30 3596 C 343.086 -3.37393 -0.797916 0
M  V30 3597 C 342.147 -4.29287 0.0333662 0
M  V30 3598 C 341.38 -5.27365 -0.819854 0
M  V30 3599 O 341.603 -5.31959 -2.05855 0
M  V30 3600 O 340.537 -6.01389 -0.248079 0
M  V30 3601 H 344.363 -2.90601 0.882315 0
M  V30 3602 H 341.948 -1.40909 0.4965 0
M  V30 3603 H 343.83 -4.00505 -1.31048 0
M  V30 3604 H 342.505 -2.83571 -1.56106 0
M  V30 3605 H 341.412 -3.69395 0.591475 0
M  V30 3606 H 342.745 -4.86317 0.758752 0
M  V30 3607 N 344.397 -0.483516 -1.5 0
M  V30 3608 C 345.622 0.0667119 -2.07293 0
M  V30 3609 C 346.047 1.3164 -1.3436 0
M  V30 3610 O 345.405 1.76945 -0.394987 0
M  V30 3611 C 345.453 0.321126 -3.59167 0
M  V30 3612 O 344.557 1.39927 -3.87936 0
M  V30 3613 H 343.898 -0.0184758 -0.663743 0
M  V30 3614 H 346.428 -0.678125 -1.93035 0
M  V30 3615 H 346.438 0.557906 -4.04168 0
M  V30 3616 H 345.113 -0.592007 -4.11665 0
M  V30 3617 H 343.69 1.14882 -3.54763 0
M  V30 3618 N 345.875 1.56104 -0.216619 0
M  V30 3619 C 346.822 2.2007 0.695531 0
M  V30 3620 C 347.792 1.15471 1.19397 0
M  V30 3621 O 348.977 1.43807 1.25396 0
M  V30 3622 C 346.117 2.88073 1.90021 0
M  V30 3623 C 345.23 4.07253 1.44113 0
M  V30 3624 C 344.365 4.63052 2.603 0
M  V30 3625 C 343.404 5.74545 2.11103 0
M  V30 3626 N 342.541 6.24656 3.20545 0
M  V30 3627 H 347.381 2.97655 0.143327 0
M  V30 3628 H 344.918 1.46982 0.0589934 0
M  V30 3629 H 346.876 3.25681 2.60745 0
M  V30 3630 H 345.506 2.13015 2.42538 0
M  V30 3631 H 344.558 3.75164 0.628999 0
M  V30 3632 H 345.87 4.8783 1.04036 0
M  V30 3633 H 345.024 5.03078 3.39113 0
M  V30 3634 H 343.763 3.81628 3.03663 0
M  V30 3635 H 342.768 5.34027 1.3075 0
M  V30 3636 H 343.993 6.57801 1.68746 0
M  V30 3637 H 341.939 5.46148 3.63399 0
M  V30 3638 H 341.856 7.00343 2.84704 0
M  V30 3639 H 343.124 6.69338 3.99508 0
M  V30 3640 N 347.353 -0.0568162 1.57498 0
M  V30 3641 C 348.583 -0.764515 1.91934 0
M  V30 3642 C 348.991 -1.70877 0.81227 0
M  V30 3643 O 348.334 -1.82351 -0.222213 0
M  V30 3644 C 348.396 -1.5994 3.21962 0
M  V30 3645 C 348.06 -0.822925 4.4953 0
M  V30 3646 C 349.057 -0.135464 5.19723 0
M  V30 3647 C 346.742 -0.785666 4.96117 0
M  V30 3648 C 348.736 0.578861 6.34766 0
M  V30 3649 C 346.423 -0.0675784 6.11063 0
M  V30 3650 C 347.421 0.613471 6.80239 0
M  V30 3651 O 347.109 1.31996 7.92989 0
M  V30 3652 H 346.841 -0.221647 0.63863 0
M  V30 3653 H 349.395 -0.0268218 2.05382 0
M  V30 3654 H 347.625 -2.38026 3.04763 0
M  V30 3655 H 349.314 -2.18715 3.41934 0
M  V30 3656 H 350.08 -0.155458 4.84751 0
M  V30 3657 H 345.959 -1.30524 4.42136 0
M  V30 3658 H 349.503 1.111 6.88696 0
M  V30 3659 H 345.4 -0.0455636 6.45484 0
M  V30 3660 H 346.168 1.23077 8.09194 0
M  V30 3661 N 348.832 -1.54138 -0.328536 0
M  V30 3662 C 350.057 -1.76378 -1.09112 0
M  V30 3663 C 350.482 -0.508596 -1.81094 0
M  V30 3664 O 349.84 0.539598 -1.73084 0
M  V30 3665 C 349.888 -2.95358 -2.06872 0
M  V30 3666 O 348.992 -2.66556 -3.14677 0
M  V30 3667 H 348.333 -0.584614 -0.314838 0
M  V30 3668 H 350.863 -2.01146 -0.374348 0
M  V30 3669 H 350.873 -3.22566 -2.4983 0
M  V30 3670 H 349.548 -3.86385 -1.5388 0
M  V30 3671 H 348.125 -2.50282 -2.7643 0
M  V30 3672 N 350.31 0.590341 -1.46126 0
M  V30 3673 C 351.258 1.72105 -1.5647 0
M  V30 3674 C 352.252 1.63756 -0.433612 0
M  V30 3675 O 353.458 1.69342 -0.610194 0
M  V30 3676 H 349.833 0.568889 -0.491802 0
M  V30 3677 H 351.804 1.6051 -2.51553 0
M  V30 3678 C 350.553 3.10493 -1.56491 0
M  V30 3679 H 349.876 3.17583 -2.4286 0
M  V30 3680 H 351.316 3.8939 -1.67785 0
M  V30 3681 C 349.775 3.3563 -0.292231 0
M  V30 3682 O 350.305 3.96875 0.620739 0
M  V30 3683 N 348.511 2.90026 -0.182523 0
M  V30 3684 H 348.058 2.40367 -0.926356 0
M  V30 3685 H 348.016 3.07218 0.668152 0
M  V30 3686 N 351.788 1.33704 0.83433 0
M  V30 3687 C 353.065 1.16011 1.57483 0
M  V30 3688 C 353.445 -0.27176 2.09343 0
M  V30 3689 O 352.793 -1.27146 1.89858 0
M  V30 3690 C 353.003 2.20507 2.70514 0
M  V30 3691 C 354.351 2.54898 3.39577 0
M  V30 3692 O 355.375 2.19209 2.80759 0
M  V30 3693 O 354.234 3.16158 4.45765 0
M  V30 3694 H 351.328 0.448992 0.694503 0
M  V30 3695 H 353.874 1.453 0.876691 0
M  V30 3696 H 352.646 3.16667 2.29865 0
M  V30 3697 H 352.269 1.92329 3.47987 0
M  V30 3698 N 353.266 -1.05314 1.17247 0
M  V30 3699 C 354.515 -1.77685 0.954521 0
M  V30 3700 C 354.828 -1.88616 -0.518025 0
M  V30 3701 O 356.034 -2.57714 -0.854144 0
M  V30 3702 C 354.49 -3.19402 1.65863 0
M  V30 3703 C 354.098 -3.16605 3.16963 0
M  V30 3704 C 355.842 -3.96237 1.52303 0
M  V30 3705 C 353.749 -4.53103 3.80068 0
M  V30 3706 H 352.679 -0.666 0.353496 0
M  V30 3707 H 355.33 -1.1805 1.40486 0
M  V30 3708 H 353.712 -3.79355 1.13602 0
M  V30 3709 H 354.886 -2.66176 3.76148 0
M  V30 3710 H 353.201 -2.53268 3.30521 0
M  V30 3711 H 355.798 -4.97157 1.96822 0
M  V30 3712 H 356.141 -4.136 0.473401 0
M  V30 3713 H 356.674 -3.42829 2.01775 0
M  V30 3714 H 353.413 -4.40946 4.85023 0
M  V30 3715 H 352.933 -5.03686 3.2567 0
M  V30 3716 H 354.612 -5.22045 3.82202 0
M  V30 3717 N 354.744 -0.972509 -1.24016 0
M  V30 3718 C 356.021 -0.553733 -1.87598 0
M  V30 3719 C 356.401 0.969158 -1.87538 0
M  V30 3720 O 355.749 1.84255 -1.35139 0
M  V30 3721 C 355.959 -1.15076 -3.29482 0
M  V30 3722 C 357.307 -1.23862 -4.06132 0
M  V30 3723 O 358.331 -1.10363 -3.38672 0
M  V30 3724 O 357.19 -1.45252 -5.26844 0
M  V30 3725 H 354.284 -0.185331 -0.805966 0
M  V30 3726 H 356.83 -1.06709 -1.31952 0
M  V30 3727 H 355.602 -2.19333 -3.2405 0
M  V30 3728 H 355.225 -0.621746 -3.92709 0
M  V30 3729 N 356.222 1.38976 -0.743202 0
M  V30 3730 C 357.469 2.00343 -0.294752 0
M  V30 3731 C 357.797 1.58983 1.12047 0
M  V30 3732 O 357.052 0.813809 1.77977 0
M  V30 3733 C 357.351 3.55647 -0.353517 0
M  V30 3734 C 357.017 4.16685 -1.72292 0
M  V30 3735 C 355.679 4.3307 -2.09771 0
M  V30 3736 C 358.031 4.50464 -2.62168 0
M  V30 3737 C 355.359 4.80526 -3.36618 0
M  V30 3738 C 357.711 4.99332 -3.88395 0
M  V30 3739 C 356.375 5.13924 -4.25956 0
M  V30 3740 H 355.645 0.733108 -0.107857 0
M  V30 3741 H 358.292 1.6618 -0.951651 0
M  V30 3742 H 356.597 3.89884 0.386954 0
M  V30 3743 H 358.294 4.00998 0.0117269 0
M  V30 3744 H 354.884 4.04339 -1.42155 0
M  V30 3745 H 359.068 4.37416 -2.3448 0
M  V30 3746 H 354.324 4.90008 -3.65653 0
M  V30 3747 H 358.498 5.2444 -4.58187 0
M  V30 3748 H 356.125 5.50457 -5.2431 0
M  V30 3749 N 357.7 0.491464 1.49741 0
M  V30 3750 C 359.111 0.0413169 1.86654 0
M  V30 3751 C 359.462 -1.36985 1.40462 0
M  V30 3752 O 358.587 -2.01917 0.778354 0
M  V30 3753 C 359.182 0.0682023 3.38731 0
M  V30 3754 C 357.741 -0.32656 3.74981 0
M  V30 3755 C 356.888 0.444888 2.73708 0
M  V30 3756 H 359.839 0.704733 1.42194 0
M  V30 3757 H 359.86 -0.729322 3.73445 0
M  V30 3758 H 359.372 1.09539 3.72321 0
M  V30 3759 H 357.473 -1.35734 3.46997 0
M  V30 3760 H 357.586 -0.013741 4.79098 0
M  V30 3761 H 355.95 -0.104062 2.54487 0
M  V30 3762 H 356.733 1.47197 3.10142 0
M  V30 3763 N 359.178 -1.55987 0.224894 0
M  V30 3764 C 360.426 -1.97998 -0.405099 0
M  V30 3765 C 360.747 -1.11387 -1.60056 0
M  V30 3766 O 360.017 -0.191645 -1.9496 0
M  V30 3767 H 358.597 -0.731235 -0.152658 0
M  V30 3768 H 361.259 -1.92279 0.318567 0
M  V30 3769 H 360.355 -3.03463 -0.729167 0
M  V30 3770 N 360.656 0.0484629 -1.57525 0
M  V30 3771 C 361.903 0.743125 -1.88372 0
M  V30 3772 C 362.231 1.76383 -0.819715 0
M  V30 3773 O 361.486 1.94855 0.181659 0
M  V30 3774 C 361.785 1.46632 -3.25935 0
M  V30 3775 C 361.451 0.583427 -4.4711 0
M  V30 3776 C 360.113 0.340191 -4.79996 0
M  V30 3777 C 362.465 -0.0273345 -5.21193 0
M  V30 3778 C 359.793 -0.522903 -5.84365 0
M  V30 3779 C 362.145 -0.878017 -6.26477 0
M  V30 3780 C 360.809 -1.1309 -6.5785 0
M  V30 3781 H 360.079 0.271929 -0.689301 0
M  V30 3782 H 362.726 0.00336166 -1.915 0
M  V30 3783 H 361.031 2.2789 -3.18706 0
M  V30 3784 H 362.728 2.00902 -3.47044 0
M  V30 3785 H 359.318 0.783151 -4.21384 0
M  V30 3786 H 363.502 0.147654 -4.9608 0
M  V30 3787 H 358.758 -0.727335 -6.07058 0
M  V30 3788 H 362.932 -1.35789 -6.83033 0
M  V30 3789 H 360.559 -1.80144 -7.38547 0
M  V30 3790 N 362.134 1.5431 0.320358 0
M  V30 3791 C 363.067 1.78769 1.41834 0
M  V30 3792 C 364.045 0.63783 1.49568 0
M  V30 3793 O 365.229 0.875628 1.66928 0
M  V30 3794 C 362.356 1.90712 2.79905 0
M  V30 3795 C 361.402 3.13023 2.89687 0
M  V30 3796 S 362.235 4.71554 2.53766 0
M  V30 3797 C 363.391 4.86408 3.93902 0
M  V30 3798 H 363.624 2.71619 1.20874 0
M  V30 3799 H 361.157 1.45474 0.517377 0
M  V30 3800 H 363.115 1.98279 3.59438 0
M  V30 3801 H 361.776 0.988343 2.98145 0
M  V30 3802 H 360.969 3.18124 3.90913 0
M  V30 3803 H 360.571 3.03803 2.18128 0
M  V30 3804 H 362.863 4.69241 4.88691 0
M  V30 3805 H 363.806 5.88508 3.93782 0
M  V30 3806 H 364.214 4.14689 3.83005 0
M  V30 3807 N 363.613 -0.582584 1.46437 0
M  V30 3808 C 364.859 -1.34278 1.51978 0
M  V30 3809 C 365.192 -1.93446 0.170973 0
M  V30 3810 O 364.467 -1.76481 -0.817608 0
M  V30 3811 C 364.75 -2.47203 2.61845 0
M  V30 3812 C 364.603 -1.93069 4.06257 0
M  V30 3813 C 365.922 -3.49247 2.67795 0
M  V30 3814 H 363.041 -0.486876 0.553282 0
M  V30 3815 H 365.683 -0.654437 1.78374 0
M  V30 3816 H 363.833 -3.0592 2.39469 0
M  V30 3817 H 365.505 -1.38808 4.3992 0
M  V30 3818 H 363.748 -1.23898 4.1573 0
M  V30 3819 H 364.419 -2.74586 4.7886 0
M  V30 3820 H 366.895 -3.00411 2.8791 0
M  V30 3821 H 365.771 -4.25719 3.46489 0
M  V30 3822 H 366.032 -4.06482 1.73852 0
M  V30 3823 N 365.091 -1.34144 -0.827227 0
M  V30 3824 C 366.001 -1.27428 -1.96975 0
M  V30 3825 C 367.017 -0.182728 -1.73038 0
M  V30 3826 O 368.193 -0.408426 -1.97215 0
M  V30 3827 C 365.258 -1.02526 -3.31194 0
M  V30 3828 C 364.319 -2.20796 -3.68168 0
M  V30 3829 C 363.552 -1.97073 -4.95982 0
M  V30 3830 O 363.775 -0.926822 -5.6282 0
M  V30 3831 O 362.709 -2.83912 -5.30733 0
M  V30 3832 H 366.535 -2.23537 -2.05584 0
M  V30 3833 H 364.12 -1.14307 -0.961989 0
M  V30 3834 H 366.002 -0.904026 -4.11589 0
M  V30 3835 H 364.677 -0.0945389 -3.23562 0
M  V30 3836 H 363.584 -2.38477 -2.88235 0
M  V30 3837 H 364.917 -3.12243 -3.8048 0
M  V30 3838 N 366.569 1.04691 -1.17803 0
M  V30 3839 C 367.815 1.78045 -0.970969 0
M  V30 3840 C 368.148 1.87686 0.498751 0
M  V30 3841 O 367.423 1.38035 1.37027 0
M  V30 3842 C 367.706 3.2166 -1.61884 0
M  V30 3843 C 367.559 3.20001 -3.161 0
M  V30 3844 C 368.878 4.1962 -1.3269 0
M  V30 3845 H 365.997 0.64633 -0.354155 0
M  V30 3846 H 368.639 1.22333 -1.45378 0
M  V30 3847 H 366.789 3.69232 -1.20831 0
M  V30 3848 H 368.461 2.80467 -3.66246 0
M  V30 3849 H 366.704 2.58203 -3.48588 0
M  V30 3850 H 367.375 4.21386 -3.56564 0
M  V30 3851 H 369.851 3.80567 -1.68249 0
M  V30 3852 H 368.727 5.18339 -1.80599 0
M  V30 3853 H 368.988 4.414 -0.248622 0
M  V30 3854 N 368.047 0.979072 1.23499 0
M  V30 3855 C 369.458 0.684391 1.73704 0
M  V30 3856 C 369.809 -0.799448 1.79174 0
M  V30 3857 O 368.934 -1.62531 1.42873 0
M  V30 3858 C 369.529 1.23564 3.15464 0
M  V30 3859 C 368.088 0.99063 3.6313 0
M  V30 3860 C 367.235 1.36416 2.41425 0
M  V30 3861 H 370.186 1.15307 1.09041 0
M  V30 3862 H 370.207 0.607417 3.7562 0
M  V30 3863 H 369.719 2.31561 3.1145 0
M  V30 3864 H 367.82 -0.0733136 3.72528 0
M  V30 3865 H 367.933 1.64427 4.5 0
M  V30 3866 H 366.297 0.782616 2.42378 0
M  V30 3867 H 367.08 2.45387 2.40083 0
M  V30 3868 N 369.525 -1.3858 0.750561 0
M  V30 3869 C 370.473 -2.32339 0.110162 0
M  V30 3870 C 371.467 -1.53864 -0.708674 0
M  V30 3871 O 372.673 -1.69417 -0.608112 0
M  V30 3872 H 369.048 -0.751812 0.0168275 0
M  V30 3873 H 371.019 -2.83959 0.917053 0
M  V30 3874 C 369.768 -3.39043 -0.771067 0
M  V30 3875 H 369.091 -3.99517 -0.150374 0
M  V30 3876 H 370.531 -4.07061 -1.1865 0
M  V30 3877 C 368.99 -2.77365 -1.91234 0
M  V30 3878 O 369.52 -2.66434 -3.00626 0
M  V30 3879 N 367.726 -2.35219 -1.70646 0
M  V30 3880 H 367.273 -2.4431 -0.81673 0
M  V30 3881 H 367.231 -1.94294 -2.47178 0
M  V30 3882 N 371.003 -0.499398 -1.49478 0
M  V30 3883 C 372.251 0.0455996 -2.02049 0
M  V30 3884 C 372.572 1.37633 -1.38138 0
M  V30 3885 O 371.842 1.8842 -0.536166 0
M  V30 3886 H 370.422 0.0198416 -0.746736 0
M  V30 3887 H 373.084 -0.656274 -1.83519 0
M  V30 3888 H 372.18 0.176445 -3.11601 0
M  V30 3889 N 372.481 1.55866 -0.233164 0
M  V30 3890 C 373.73 1.97779 0.39579 0
M  V30 3891 C 374.043 1.12419 1.60066 0
M  V30 3892 O 375.249 1.44283 2.29988 0
M  V30 3893 C 373.705 3.5188 0.755556 0
M  V30 3894 C 373.313 4.45959 -0.427152 0
M  V30 3895 C 375.057 4.02479 1.34946 0
M  V30 3896 C 372.964 5.91383 -0.0443043 0
M  V30 3897 H 371.894 0.738592 0.15165 0
M  V30 3898 H 374.545 1.80486 -0.331212 0
M  V30 3899 H 372.927 3.64816 1.5403 0
M  V30 3900 H 374.101 4.44776 -1.20462 0
M  V30 3901 H 372.416 4.05765 -0.935068 0
M  V30 3902 H 375.013 5.08637 1.649 0
M  V30 3903 H 375.356 3.49014 2.26925 0
M  V30 3904 H 375.889 3.92813 0.62791 0
M  V30 3905 H 372.628 6.48857 -0.930874 0
M  V30 3906 H 372.148 5.95734 0.697238 0
M  V30 3907 H 373.827 6.45893 0.378334 0
M  V30 3908 N 373.959 -0.0401083 1.57549 0
M  V30 3909 C 375.189 -0.744115 1.92734 0
M  V30 3910 C 375.597 -1.70005 0.830348 0
M  V30 3911 O 374.94 -1.82576 -0.20286 0
M  V30 3912 C 375.002 -1.56516 3.2364 0
M  V30 3913 C 374.666 -0.7752 4.50377 0
M  V30 3914 C 375.663 -0.0803326 5.19838 0
M  V30 3915 C 373.348 -0.733002 4.96923 0
M  V30 3916 C 375.342 0.646154 6.34116 0
M  V30 3917 C 373.029 -0.00276321 6.111 0
M  V30 3918 C 374.027 0.685585 6.7955 0
M  V30 3919 O 373.715 1.40399 7.91545 0
M  V30 3920 H 373.447 -0.214861 0.640945 0
M  V30 3921 H 376.001 -0.00503675 2.05399 0
M  V30 3922 H 374.231 -2.3478 3.07271 0
M  V30 3923 H 375.92 -2.15076 3.44234 0
M  V30 3924 H 376.686 -0.104035 4.84888 0
M  V30 3925 H 372.565 -1.25827 4.43496 0
M  V30 3926 H 376.109 1.18398 6.87479 0
M  V30 3927 H 372.006 0.0229012 6.45496 0
M  V30 3928 H 372.774 1.31653 8.07843 0
M  V30 3929 N 375.437 -1.54477 -0.31217 0
M  V30 3930 C 376.667 -1.76948 -1.06645 0
M  V30 3931 C 377.075 -0.523593 -1.81811 0
M  V30 3932 O 376.418 0.51578 -1.76311 0
M  V30 3933 C 376.48 -2.91668 -2.10166 0
M  V30 3934 C 376.144 -4.30165 -1.54296 0
M  V30 3935 C 377.141 -5.10603 -0.978793 0
M  V30 3936 C 374.826 -4.76738 -1.58196 0
M  V30 3937 C 376.82 -6.3573 -0.461048 0
M  V30 3938 C 374.507 -6.01831 -1.06034 0
M  V30 3939 C 375.505 -6.81161 -0.500844 0
M  V30 3940 O 375.193 -8.03899 0.0128958 0
M  V30 3941 H 374.925 -0.594088 -0.322546 0
M  V30 3942 H 377.479 -2.02213 -0.360441 0
M  V30 3943 H 375.709 -2.62001 -2.84416 0
M  V30 3944 H 377.398 -3.01817 -2.71406 0
M  V30 3945 H 378.164 -4.75771 -0.941651 0
M  V30 3946 H 374.043 -4.15027 -2.00683 0
M  V30 3947 H 377.587 -6.97596 -0.0236894 0
M  V30 3948 H 373.484 -6.36152 -1.09459 0
M  V30 3949 H 374.252 -8.18437 -0.101457 0
M  V30 3950 N 376.915 0.57481 -1.46744 0
M  V30 3951 C 378.163 1.33009 -1.52161 0
M  V30 3952 C 378.484 1.94185 -0.178092 0
M  V30 3953 O 377.754 1.7899 0.796196 0
M  V30 3954 H 376.334 0.493873 -0.560445 0
M  V30 3955 H 378.996 0.672589 -1.82927 0
M  V30 3956 H 378.092 2.13273 -2.27862 0
M  V30 3957 N 378.394 1.34581 0.820102 0
M  V30 3958 C 379.641 1.27096 1.57648 0
M  V30 3959 C 379.969 -0.158317 1.93855 0
M  V30 3960 O 379.224 -1.12028 1.60463 0
M  V30 3961 C 379.523 2.10997 2.8847 0
M  V30 3962 C 379.189 3.59966 2.71543 0
M  V30 3963 C 377.851 4.00575 2.66634 0
M  V30 3964 C 380.203 4.54548 2.55021 0
M  V30 3965 C 377.531 5.33953 2.43128 0
M  V30 3966 C 379.883 5.88109 2.33047 0
M  V30 3967 C 378.547 6.27878 2.26552 0
M  V30 3968 H 377.817 0.465078 0.576874 0
M  V30 3969 H 380.464 1.6635 0.948671 0
M  V30 3970 H 378.769 1.6458 3.55557 0
M  V30 3971 H 380.466 2.0255 3.46084 0
M  V30 3972 H 377.056 3.27733 2.76205 0
M  V30 3973 H 381.24 4.24069 2.57835 0
M  V30 3974 H 376.496 5.63781 2.3656 0
M  V30 3975 H 380.67 6.60985 2.19251 0
M  V30 3976 H 378.297 7.31162 2.081 0
M  V30 3977 N 379.872 -1.04064 1.18357 0
M  V30 3978 C 381.283 -1.58719 0.98312 0
M  V30 3979 C 381.634 -1.90556 -0.467193 0
M  V30 3980 O 380.759 -1.69561 -1.34454 0
M  V30 3981 C 381.354 -2.88379 1.77828 0
M  V30 3982 C 379.913 -3.3965 1.62218 0
M  V30 3983 C 379.06 -2.13235 1.77274 0
M  V30 3984 H 382.011 -0.867359 1.32901 0
M  V30 3985 H 382.032 -3.58773 1.26737 0
M  V30 3986 H 381.544 -2.65176 2.83379 0
M  V30 3987 H 379.645 -3.67866 0.592036 0
M  V30 3988 H 379.758 -4.13475 2.42023 0
M  V30 3989 H 378.122 -2.24542 1.20221 0
M  V30 3990 H 378.905 -1.92487 2.8426 0
M  V30 3991 N 381.35 -0.985608 -1.22978 0
M  V30 3992 C 382.575 -0.675254 -1.961 0
M  V30 3993 C 383 0.752154 -1.72407 0
M  V30 3994 O 382.358 1.5131 -0.998751 0
M  V30 3995 C 382.406 -0.977899 -3.47087 0
M  V30 3996 O 381.51 -0.072685 -4.12336 0
M  V30 3997 H 380.851 -0.253443 -0.613728 0
M  V30 3998 H 383.381 -1.32061 -1.56272 0
M  V30 3999 H 383.391 -0.916739 -3.97567 0
M  V30 4000 H 382.066 -2.01807 -3.63657 0
M  V30 4001 H 380.643 -0.188703 -3.72422 0
M  V30 4002 N 382.828 1.3818 -0.7579 0
M  V30 4003 C 384.075 2.00019 -0.315985 0
M  V30 4004 C 384.403 1.60163 1.10355 0
M  V30 4005 O 383.658 0.83264 1.77103 0
M  V30 4006 C 383.957 3.55252 -0.391218 0
M  V30 4007 C 383.623 4.14834 -1.76702 0
M  V30 4008 C 382.285 4.30821 -2.14353 0
M  V30 4009 C 384.637 4.47658 -2.66931 0
M  V30 4010 C 381.965 4.76928 -3.41696 0
M  V30 4011 C 384.317 4.95184 -3.93669 0
M  V30 4012 C 382.981 5.09377 -4.31383 0
M  V30 4013 H 382.251 0.731923 -0.115627 0
M  V30 4014 H 384.898 1.65161 -0.969223 0
M  V30 4015 H 383.203 3.90273 0.34558 0
M  V30 4016 H 384.9 4.00988 -0.030805 0
M  V30 4017 H 381.49 4.02808 -1.46435 0
M  V30 4018 H 385.674 4.34904 -2.39106 0
M  V30 4019 H 380.93 4.86103 -3.70829 0
M  V30 4020 H 385.104 5.19551 -4.63724 0
M  V30 4021 H 382.731 5.44865 -5.30119 0
M  V30 4022 N 384.306 0.507319 1.49211 0
M  V30 4023 C 385.554 -0.0348839 2.0207 0
M  V30 4024 C 385.875 -1.36898 1.38866 0
M  V30 4025 O 385.145 -1.88133 0.546151 0
M  V30 4026 H 383.725 -0.0158812 0.746831 0
M  V30 4027 H 386.387 0.665998 1.83168 0
M  V30 4028 H 385.483 -0.159917 3.1169 0
M  V30 4029 N 385.784 -1.5574 0.241426 0
M  V30 4030 C 387.032 -1.98417 -0.384075 0
M  V30 4031 C 387.353 -1.13078 -1.58866 0
M  V30 4032 O 386.623 -0.212312 -1.94746 0
M  V30 4033 H 385.203 -0.732813 -0.144894 0
M  V30 4034 H 387.865 -1.9193 0.338943 0
M  V30 4035 H 386.961 -3.04219 -0.696939 0
M  V30 4036 N 387.262 0.0317525 -1.57568 0
M  V30 4037 C 388.502 0.727979 -1.90997 0
M  V30 4038 C 388.866 1.72664 -0.839708 0
M  V30 4039 O 390.067 2.47092 -1.05825 0
M  V30 4040 C 388.338 1.38239 -3.29583 0
M  V30 4041 S 389.897 2.10814 -3.84841 0
M  V30 4042 H 386.715 0.241226 -0.668828 0
M  V30 4043 H 389.317 -0.0173037 -1.95492 0
M  V30 4044 H 388.021 0.642288 -4.05343 0
M  V30 4045 H 387.552 2.16628 -3.28384 0
M  V30 4046 H 389.567 3.3792 -3.63352 0
M  V30 4047 N 388.74 1.54641 0.303973 0
M  V30 4048 C 389.988 1.73437 1.0375 0
M  V30 4049 C 390.309 0.521449 1.87899 0
M  V30 4050 O 389.579 -0.46432 1.90318 0
M  V30 4051 H 388.159 0.639518 0.386039 0
M  V30 4052 H 390.821 1.91988 0.335675 0
M  V30 4053 H 389.917 2.62235 1.69231 0
M  V30 4054 N 390.218 -0.567019 1.47046 0
M  V30 4055 C 391.148 -1.68482 1.61667 0
M  V30 4056 C 392.129 -1.6358 0.466418 0
M  V30 4057 O 393.314 -1.81354 0.694574 0
M  V30 4058 C 390.444 -3.07124 1.62148 0
M  V30 4059 C 389.398 -3.26867 2.76301 0
M  V30 4060 C 388.724 -4.66196 2.61849 0
M  V30 4061 C 390.024 -3.13186 4.17986 0
M  V30 4062 H 391.718 -1.56502 2.5524 0
M  V30 4063 H 389.264 -0.751486 1.22836 0
M  V30 4064 H 391.217 -3.8516 1.70968 0
M  V30 4065 H 389.941 -3.2004 0.651287 0
M  V30 4066 H 388.6 -2.51237 2.66975 0
M  V30 4067 H 388.248 -4.75898 1.62879 0
M  V30 4068 H 387.948 -4.80356 3.38425 0
M  V30 4069 H 389.472 -5.46379 2.72584 0
M  V30 4070 H 390.886 -3.81049 4.2834 0
M  V30 4071 H 389.283 -3.3886 4.95272 0
M  V30 4072 H 390.353 -2.10057 4.3704 0
M  V30 4073 N 391.696 -1.35014 -0.812953 0
M  V30 4074 C 392.643 -1.27412 -1.92444 0
M  V30 4075 C 393.613 -0.14733 -1.65445 0
M  V30 4076 O 394.798 -0.329974 -1.87925 0
M  V30 4077 C 391.938 -1.04558 -3.28879 0
M  V30 4078 C 391.051 -2.26101 -3.68106 0
M  V30 4079 C 390.186 -1.96449 -4.9354 0
M  V30 4080 C 389.225 -3.14081 -5.25376 0
M  V30 4081 N 388.362 -2.84246 -6.41988 0
M  V30 4082 H 393.202 -2.22463 -1.98278 0
M  V30 4083 H 390.739 -1.10593 -0.969933 0
M  V30 4084 H 392.697 -0.893413 -4.07522 0
M  V30 4085 H 391.327 -0.131719 -3.22531 0
M  V30 4086 H 390.379 -2.52204 -2.84775 0
M  V30 4087 H 391.691 -3.13959 -3.87597 0
M  V30 4088 H 390.845 -1.78026 -5.79993 0
M  V30 4089 H 389.584 -1.05867 -4.76071 0
M  V30 4090 H 388.589 -3.33089 -4.37415 0
M  V30 4091 H 389.814 -4.05455 -5.44778 0
M  V30 4092 H 387.76 -1.96252 -6.25956 0
M  V30 4093 H 387.677 -3.65637 -6.61699 0
M  V30 4094 H 388.945 -2.6935 -7.31485 0
M  V30 4095 N 393.175 1.03435 -1.18907 0
M  V30 4096 C 394.105 2.13503 -0.945448 0
M  V30 4097 C 395.086 1.69682 0.119189 0
M  V30 4098 O 396.271 1.94169 -0.034707 0
M  V30 4099 C 393.401 3.44004 -0.477316 0
M  V30 4100 C 392.355 4.0148 -1.48316 0
M  V30 4101 C 391.681 5.27537 -0.872311 0
M  V30 4102 C 392.981 4.36921 -2.86177 0
M  V30 4103 H 394.675 2.34141 -1.86597 0
M  V30 4104 H 392.221 1.12523 -0.898584 0
M  V30 4105 H 394.174 4.20372 -0.294204 0
M  V30 4106 H 392.898 3.23072 0.478786 0
M  V30 4107 H 391.557 3.27201 -1.65332 0
M  V30 4108 H 391.205 5.02917 0.0911752 0
M  V30 4109 H 390.905 5.66954 -1.54393 0
M  V30 4110 H 392.429 6.06576 -0.699871 0
M  V30 4111 H 393.843 5.04248 -2.72776 0
M  V30 4112 H 392.24 4.87405 -3.50081 0
M  V30 4113 H 393.31 3.46466 -3.39248 0
M  V30 4114 N 394.653 0.992116 1.22453 0
M  V30 4115 C 395.901 0.666215 1.90804 0
M  V30 4116 C 396.222 -0.804152 1.77647 0
M  V30 4117 O 395.492 -1.57629 1.16318 0
M  V30 4118 H 394.072 0.243423 0.706225 0
M  V30 4119 H 396.734 1.25845 1.48825 0
M  V30 4120 H 395.83 0.928069 2.97982 0
M  V30 4121 N 396.131 -1.37776 0.765217 0
M  V30 4122 C 397.361 -2.03828 0.337277 0
M  V30 4123 C 397.769 -1.57841 -1.04321 0
M  V30 4124 O 397.112 -0.752043 -1.67601 0
M  V30 4125 C 397.174 -3.58292 0.294407 0
M  V30 4126 C 396.838 -4.27384 1.61838 0
M  V30 4127 C 397.835 -4.51956 2.56967 0
M  V30 4128 C 395.52 -4.65345 1.89102 0
M  V30 4129 C 397.514 -5.13536 3.77571 0
M  V30 4130 C 395.201 -5.26647 3.09978 0
M  V30 4131 C 396.199 -5.50679 4.04032 0
M  V30 4132 O 395.887 -6.10702 5.2278 0
M  V30 4133 H 395.619 -0.661292 0.140248 0
M  V30 4134 H 398.173 -1.77222 1.03834 0
M  V30 4135 H 396.403 -3.83918 -0.462983 0
M  V30 4136 H 398.092 -4.05763 -0.105581 0
M  V30 4137 H 398.858 -4.23048 2.37183 0
M  V30 4138 H 394.737 -4.45978 1.16725 0
M  V30 4139 H 398.281 -5.3221 4.50997 0
M  V30 4140 H 394.178 -5.54979 3.29649 0
M  V30 4141 H 394.946 -6.29183 5.23517 0
M  V30 4142 N 397.609 -0.515225 -1.4894 0
M  V30 4143 C 398.559 0.275113 -2.26334 0
M  V30 4144 C 399.543 0.923007 -1.31793 0
M  V30 4145 O 400.735 0.828254 -1.56426 0
M  V30 4146 C 397.864 1.33041 -3.16473 0
M  V30 4147 C 396.95 0.688051 -4.18481 0
M  V30 4148 N 397.341 -0.217638 -5.05332 0
M  V30 4149 C 395.639 0.94699 -4.3583 0
M  V30 4150 C 396.34 -0.58676 -5.78733 0
M  V30 4151 N 395.316 0.0486966 -5.43578 0
M  V30 4152 H 399.118 -0.421876 -2.90856 0
M  V30 4153 H 396.632 -0.332249 -1.58965 0
M  V30 4154 H 398.629 1.9102 -3.70563 0
M  V30 4155 H 397.289 2.02894 -2.53504 0
M  V30 4156 H 398.3 -0.589343 -5.14536 0
M  V30 4157 H 394.977 1.63719 -3.8406 0
M  V30 4158 H 396.367 -1.32855 -6.58634 0
M  V30 4159 N 399.087 1.5561 -0.249682 0
M  V30 4160 C 400.315 2.03411 0.378352 0
M  V30 4161 C 400.73 1.12886 1.51335 0
M  V30 4162 O 400.087 0.143833 1.81932 0
M  V30 4163 C 400.138 3.50537 0.88351 0
M  V30 4164 O 399.859 4.37614 -0.20626 0
M  V30 4165 C 401.36 4.14113 1.58195 0
M  V30 4166 H 398.58 0.664994 0.08958 0
M  V30 4167 H 401.124 2.01044 -0.374357 0
M  V30 4168 H 399.279 3.5343 1.58639 0
M  V30 4169 H 399.693 5.24199 0.177782 0
M  V30 4170 H 401.167 5.18741 1.8871 0
M  V30 4171 H 401.644 3.60767 2.50487 0
M  V30 4172 H 402.25 4.15151 0.923573 0
M  V30 4173 N 400.565 -0.0233959 1.57583 0
M  V30 4174 C 401.812 -0.713063 1.8953 0
M  V30 4175 C 402.14 -1.75056 0.847673 0
M  V30 4176 O 401.395 -1.95119 -0.150636 0
M  V30 4177 C 401.694 -1.41428 3.28227 0
M  V30 4178 C 401.36 -0.512222 4.47981 0
M  V30 4179 C 400.022 -0.263785 4.80476 0
M  V30 4180 C 402.374 0.110248 5.21083 0
M  V30 4181 C 399.702 0.615804 5.83459 0
M  V30 4182 C 402.054 0.977573 6.25001 0
M  V30 4183 C 400.718 1.23542 6.55968 0
M  V30 4184 H 399.988 -0.260928 0.69354 0
M  V30 4185 H 402.635 0.0271047 1.91481 0
M  V30 4186 H 400.94 -2.22791 3.22291 0
M  V30 4187 H 402.637 -1.95355 3.50196 0
M  V30 4188 H 399.227 -0.716013 4.22577 0
M  V30 4189 H 403.411 -0.0687137 4.96252 0
M  V30 4190 H 398.667 0.82382 6.05824 0
M  V30 4191 H 402.841 1.46638 6.80786 0
M  V30 4192 H 400.468 1.91871 7.35588 0
M  V30 4193 N 402.043 -1.548 -0.295768 0
M  V30 4194 C 403.291 -1.73985 -1.02828 0
M  V30 4195 C 403.612 -0.531406 -1.87619 0
M  V30 4196 O 402.882 0.454221 -1.90561 0
M  V30 4197 H 401.462 -0.641556 -0.382642 0
M  V30 4198 H 404.124 -1.92163 -0.325489 0
M  V30 4199 H 403.22 -2.63129 -1.67838 0
M  V30 4200 N 403.521 0.559213 -1.47345 0
M  V30 4201 C 404.453 1.68161 -1.55738 0
M  V30 4202 C 405.466 1.56636 -0.443744 0
M  V30 4203 O 406.655 1.6363 -0.713258 0
M  V30 4204 C 403.755 3.06611 -1.4437 0
M  V30 4205 C 402.928 3.4391 -2.70268 0
M  V30 4206 C 401.987 4.61515 -2.52765 0
M  V30 4207 O 401.013 4.66197 -3.26572 0
M  V30 4208 N 402.215 5.57883 -1.6046 0
M  V30 4209 H 404.98 1.61408 -2.52522 0
M  V30 4210 H 402.541 0.7458 -1.43699 0
M  V30 4211 H 404.533 3.83117 -1.30398 0
M  V30 4212 H 403.103 3.07602 -0.556766 0
M  V30 4213 H 402.323 2.56873 -2.99015 0
M  V30 4214 H 403.611 3.65605 -3.53851 0
M  V30 4215 H 403.009 5.56855 -0.996422 0
M  V30 4216 H 401.566 6.33723 -1.52441 0
M  V30 4217 N 404.999 1.35443 0.805782 0
M  V30 4218 C 405.946 1.28431 1.91766 0
M  V30 4219 C 406.916 0.156102 1.65365 0
M  V30 4220 O 408.101 0.339936 1.87747 0
M  V30 4221 C 405.241 1.06301 3.2832 0
M  V30 4222 C 404.354 2.2805 3.66902 0
M  V30 4223 C 403.489 1.99064 4.92491 0
M  V30 4224 C 402.528 3.16863 5.23703 0
M  V30 4225 N 401.665 2.87647 6.40471 0
M  V30 4226 H 406.505 2.23511 1.97096 0
M  V30 4227 H 404.042 1.11105 0.964054 0
M  V30 4228 H 406 0.915012 4.07042 0
M  V30 4229 H 404.63 0.148822 3.22457 0
M  V30 4230 H 403.682 2.53711 2.83434 0
M  V30 4231 H 404.994 3.1601 3.85927 0
M  V30 4232 H 404.148 1.81099 5.7904 0
M  V30 4233 H 402.887 1.0839 4.75503 0
M  V30 4234 H 401.892 3.35404 4.35642 0
M  V30 4235 H 403.117 4.08339 5.4262 0
M  V30 4236 H 401.063 1.99568 6.24907 0
M  V30 4237 H 400.98 3.69141 6.59751 0
M  V30 4238 H 402.248 2.73226 7.30047 0
M  V30 4239 N 406.477 -1.02803 1.19454 0
M  V30 4240 C 407.726 -1.7562 0.991996 0
M  V30 4241 C 408.039 -1.89672 -0.477901 0
M  V30 4242 O 409.245 -2.59468 -0.799287 0
M  V30 4243 C 407.701 -3.15812 1.72601 0
M  V30 4244 C 407.309 -3.0981 3.23607 0
M  V30 4245 C 409.053 -3.92918 1.60674 0
M  V30 4246 C 406.96 -4.44939 3.89594 0
M  V30 4247 H 405.89 -0.658352 0.367543 0
M  V30 4248 H 408.541 -1.15044 1.42959 0
M  V30 4249 H 406.923 -3.7686 1.21624 0
M  V30 4250 H 408.097 -2.58138 3.81709 0
M  V30 4251 H 406.412 -2.46201 3.35819 0
M  V30 4252 H 409.009 -4.9287 2.07323 0
M  V30 4253 H 409.352 -4.12502 0.561025 0
M  V30 4254 H 409.885 -3.38472 2.09001 0
M  V30 4255 H 406.624 -4.30559 4.94267 0
M  V30 4256 H 406.144 -4.96664 3.36281 0
M  V30 4257 H 407.823 -5.1382 3.93189 0
M  V30 4258 N 407.956 -0.998596 -1.21925 0
M  V30 4259 C 409.233 -0.593401 -1.86382 0
M  V30 4260 C 409.613 0.92916 -1.89552 0
M  V30 4261 O 408.961 1.81347 -1.39017 0
M  V30 4262 C 409.171 -1.22039 -3.26967 0
M  V30 4263 C 410.519 -1.32449 -4.03413 0
M  V30 4264 O 411.543 -1.17522 -3.36254 0
M  V30 4265 O 410.402 -1.56395 -5.23644 0
M  V30 4266 H 407.496 -0.202385 -0.801854 0
M  V30 4267 H 410.042 -1.09484 -1.29659 0
M  V30 4268 H 408.814 -2.26158 -3.19325 0
M  V30 4269 H 408.437 -0.704906 -3.91301 0
M  V30 4270 N 409.434 1.37368 -0.772513 0
M  V30 4271 C 410.845 1.8231 -0.402493 0
M  V30 4272 C 411.196 1.6436 1.07146 0
M  V30 4273 O 410.321 1.15514 1.82991 0
M  V30 4274 C 410.916 3.30979 -0.723776 0
M  V30 4275 C 409.475 3.74195 -0.406802 0
M  V30 4276 C 408.622 2.59885 -0.967218 0
M  V30 4277 H 411.573 1.25829 -0.967099 0
M  V30 4278 H 411.594 3.80499 -0.00870832 0
M  V30 4279 H 411.106 3.44011 -1.7966 0
M  V30 4280 H 409.207 3.66732 0.658673 0
M  V30 4281 H 409.32 4.7027 -0.915588 0
M  V30 4282 H 407.684 2.51674 -0.391416 0
M  V30 4283 H 408.467 2.7571 -2.04546 0
M  V30 4284 N 410.912 0.523116 1.48665 0
M  V30 4285 C 412.189 -0.0775449 1.95446 0
M  V30 4286 C 412.569 -1.5197 1.4652 0
M  V30 4287 O 411.917 -2.17876 0.688657 0
M  V30 4288 C 412.127 0.0326135 3.48985 0
M  V30 4289 C 413.475 -0.130141 4.24401 0
M  V30 4290 O 414.499 -0.0415142 3.56176 0
M  V30 4291 O 413.358 -0.31491 5.45592 0
M  V30 4292 H 410.452 -0.0831012 0.822814 0
M  V30 4293 H 412.998 0.587227 1.59216 0
M  V30 4294 H 411.77 1.03748 3.77296 0
M  V30 4295 H 411.393 -0.671317 3.91892 0
M  V30 4296 N 412.39 -1.55475 0.257931 0
M  V30 4297 C 413.618 -2.03609 -0.367559 0
M  V30 4298 C 414.033 -1.13687 -1.50734 0
M  V30 4299 O 413.39 -0.153479 -1.81853 0
M  V30 4300 C 413.441 -3.51001 -0.864908 0
M  V30 4301 O 413.162 -4.37499 0.229465 0
M  V30 4302 C 414.663 -4.14946 -1.55997 0
M  V30 4303 H 411.883 -0.665459 -0.0860521 0
M  V30 4304 H 414.427 -2.00843 0.385014 0
M  V30 4305 H 412.582 -3.54266 -1.56762 0
M  V30 4306 H 412.996 -5.24286 -0.14998 0
M  V30 4307 H 414.47 -5.19735 -1.85956 0
M  V30 4308 H 414.947 -3.6209 -2.4857 0
M  V30 4309 H 415.553 -4.15635 -0.901543 0
M  V30 4310 N 413.868 0.0150385 -1.57593 0
M  V30 4311 C 415.117 0.702115 -1.89085 0
M  V30 4312 C 415.43 1.75764 -0.858277 0
M  V30 4313 O 416.636 2.49829 -1.0629 0
M  V30 4314 C 415.092 1.29992 -3.35604 0
M  V30 4315 C 414.7 0.280007 -4.47124 0
M  V30 4316 C 416.444 1.96606 -3.76227 0
M  V30 4317 C 414.351 0.886949 -5.84711 0
M  V30 4318 H 413.281 0.265997 -0.705522 0
M  V30 4319 H 415.932 -0.0430408 -1.8345 0
M  V30 4320 H 414.314 2.09525 -3.36029 0
M  V30 4321 H 415.488 -0.489631 -4.58191 0
M  V30 4322 H 413.803 -0.284835 -4.15425 0
M  V30 4323 H 416.4 2.42893 -4.76347 0
M  V30 4324 H 416.743 2.79024 -3.08952 0
M  V30 4325 H 417.276 1.23828 -3.78036 0
M  V30 4326 H 414.015 0.101876 -6.55421 0
M  V30 4327 H 413.535 1.6261 -5.77337 0
M  V30 4328 H 415.214 1.39011 -6.3189 0
M  V30 4329 N 415.346 1.54954 0.287554 0
M  V30 4330 C 416.294 1.87606 1.37502 0
M  V30 4331 C 417.288 0.751001 1.51843 0
M  V30 4332 O 418.494 0.935169 1.53801 0
M  V30 4333 H 414.869 0.595231 0.459569 0
M  V30 4334 H 416.84 2.78477 1.07206 0
M  V30 4335 C 415.589 2.15183 2.73115 0
M  V30 4336 H 414.912 3.01234 2.62866 0
M  V30 4337 H 416.352 2.4196 3.48183 0
M  V30 4338 C 414.811 0.954686 3.2309 0
M  V30 4339 O 415.341 0.181949 4.01288 0
M  V30 4340 N 413.547 0.756368 2.80584 0
M  V30 4341 H 413.094 1.38643 2.17108 0
M  V30 4342 H 413.052 -0.0430391 3.14371 0
M  V30 4343 N 416.824 -0.551391 1.4764 0
M  V30 4344 C 418.24 -0.877887 1.33287 0
M  V30 4345 C 418.44 -1.98817 0.327721 0
M  V30 4346 O 417.496 -2.51171 -0.258695 0
M  V30 4347 C 418.809 -1.26563 2.72768 0
M  V30 4348 C 420.357 -1.37673 2.81097 0
M  V30 4349 C 420.832 -1.79799 4.21232 0
M  V30 4350 N 422.323 -1.8694 4.23802 0
M  V30 4351 C 423.058 -2.20876 5.29151 0
M  V30 4352 N 422.554 -2.53386 6.448 0
M  V30 4353 N 424.347 -2.217 5.16532 0
M  V30 4354 H 416.498 0.18153 2.11623 0
M  V30 4355 H 418.761 0.0185514 0.947818 0
M  V30 4356 H 418.467 -0.523591 3.47781 0
M  V30 4357 H 418.341 -2.22052 3.04915 0
M  V30 4358 H 420.728 -2.10956 2.06353 0
M  V30 4359 H 420.809 -0.40357 2.52596 0
M  V30 4360 H 420.453 -1.07083 4.96483 0
M  V30 4361 H 420.383 -2.78128 4.4716 0
M  V30 4362 H 422.874 -1.64179 3.40373 0
M  V30 4363 H 423.187 -2.78325 7.20941 0
M  V30 4364 H 421.532 -2.50953 6.48111 0
M  V30 4365 H 424.723 -1.95745 4.25207 0
M  V30 4366 H 424.896 -2.47818 5.98741 0
M  V30 4367 N 418.302 -1.35869 -0.798587 0
M  V30 4368 C 419.212 -1.31578 -1.94228 0
M  V30 4369 C 420.228 -0.21939 -1.72611 0
M  V30 4370 O 421.404 -0.450167 -1.96305 0
M  V30 4371 C 418.469 -1.09528 -3.28944 0
M  V30 4372 C 417.53 -2.28556 -3.63402 0
M  V30 4373 C 416.763 -2.07549 -4.9169 0
M  V30 4374 O 416.986 -1.046 -5.60727 0
M  V30 4375 O 415.92 -2.95106 -5.24591 0
M  V30 4376 H 419.746 -2.27847 -2.00796 0
M  V30 4377 H 417.331 -1.16322 -0.937526 0
M  V30 4378 H 419.213 -0.991127 -4.09579 0
M  V30 4379 H 417.888 -0.16315 -3.23289 0
M  V30 4380 H 416.795 -2.44538 -2.83112 0
M  V30 4381 H 418.128 -3.20244 -3.73771 0
M  V30 4382 N 419.78 1.02168 -1.19998 0
M  V30 4383 C 421.027 1.75685 -1.00702 0
M  V30 4384 C 421.355 1.88947 0.461426 0
M  V30 4385 O 420.61 1.40832 1.35885 0
M  V30 4386 C 420.909 3.18081 -1.62969 0
M  V30 4387 C 420.575 3.24809 -3.12746 0
M  V30 4388 C 419.237 3.26352 -3.53621 0
M  V30 4389 C 421.589 3.23379 -4.08749 0
M  V30 4390 C 418.917 3.2413 -4.89036 0
M  V30 4391 C 421.269 3.22698 -5.44104 0
M  V30 4392 C 419.933 3.22542 -5.84399 0
M  V30 4393 H 419.203 0.642877 -0.368496 0
M  V30 4394 H 421.85 1.19865 -1.49348 0
M  V30 4395 H 420.155 3.77027 -1.06573 0
M  V30 4396 H 421.852 3.73648 -1.45561 0
M  V30 4397 H 418.442 3.2434 -2.80181 0
M  V30 4398 H 422.626 3.21361 -3.78207 0
M  V30 4399 H 417.882 3.22338 -5.19527 0
M  V30 4400 H 422.056 3.20543 -6.18244 0
M  V30 4401 H 419.683 3.20575 -6.89301 0
M  V30 4402 N 421.258 1.00505 1.21394 0
M  V30 4403 C 422.506 0.686415 1.90086 0
M  V30 4404 C 422.827 -0.785264 1.7849 0
M  V30 4405 O 422.097 -1.56387 1.17983 0
M  V30 4406 H 420.677 0.2509 0.703604 0
M  V30 4407 H 423.339 1.27417 1.47482 0
M  V30 4408 H 422.435 0.959621 2.96981 0
M  V30 4409 N 422.737 -1.36956 0.779787 0
M  V30 4410 C 423.983 -1.99787 0.348281 0
M  V30 4411 C 424.316 -1.61756 -1.07465 0
M  V30 4412 O 423.591 -0.867639 -1.74075 0
M  V30 4413 C 423.874 -3.56597 0.50104 0
M  V30 4414 C 423.727 -4.04513 1.96697 0
M  V30 4415 C 425.046 -4.40008 -0.0898097 0
M  V30 4416 H 422.165 -0.725796 0.128022 0
M  V30 4417 H 424.807 -1.62514 0.984331 0
M  V30 4418 H 422.957 -3.88479 -0.0404347 0
M  V30 4419 H 424.629 -3.83161 2.56876 0
M  V30 4420 H 422.872 -3.56408 2.47297 0
M  V30 4421 H 423.543 -5.1352 2.02486 0
M  V30 4422 H 426.019 -4.14431 0.372293 0
M  V30 4423 H 424.895 -5.4888 0.0471605 0
M  V30 4424 H 425.156 -4.26035 -1.18096 0
M  V30 4425 N 424.215 -0.530993 -1.48385 0
M  V30 4426 C 425.445 -0.00133928 -2.066 0
M  V30 4427 C 425.853 1.28599 -1.38777 0
M  V30 4428 O 425.196 1.77599 -0.469495 0
M  V30 4429 C 425.258 0.292137 -3.58311 0
M  V30 4430 C 424.922 -0.901864 -4.48013 0
M  V30 4431 C 425.919 -1.80053 -4.87726 0
M  V30 4432 C 423.604 -1.10915 -4.89901 0
M  V30 4433 C 425.598 -2.89038 -5.68098 0
M  V30 4434 C 423.285 -2.20213 -5.70043 0
M  V30 4435 C 424.283 -3.09107 -6.0905 0
M  V30 4436 O 423.971 -4.16514 -6.87583 0
M  V30 4437 H 423.703 -0.0308475 -0.675296 0
M  V30 4438 H 426.257 -0.736335 -1.91748 0
M  V30 4439 H 424.487 1.08112 -3.7128 0
M  V30 4440 H 426.176 0.763994 -3.98645 0
M  V30 4441 H 426.942 -1.65234 -4.55986 0
M  V30 4442 H 422.821 -0.426498 -4.59023 0
M  V30 4443 H 426.365 -3.58451 -5.98464 0
M  V30 4444 H 422.262 -2.35016 -6.01197 0
M  V30 4445 H 423.03 -4.14237 -7.05939 0
M  V30 4446 N 425.693 1.55336 -0.266172 0
M  V30 4447 C 427.104 1.85236 0.233315 0
M  V30 4448 C 427.455 1.18816 1.56132 0
M  V30 4449 O 426.58 0.473307 2.11161 0
M  V30 4450 C 427.175 3.36059 0.430113 0
M  V30 4451 C 425.734 3.66116 0.873842 0
M  V30 4452 C 424.881 2.77274 -0.0380016 0
M  V30 4453 H 427.832 1.51004 -0.488214 0
M  V30 4454 H 427.853 3.58681 1.26998 0
M  V30 4455 H 427.365 3.84373 -0.536588 0
M  V30 4456 H 425.466 3.23295 1.85233 0
M  V30 4457 H 425.579 4.73699 0.717358 0
M  V30 4458 H 423.943 2.50198 0.476759 0
M  V30 4459 H 424.726 3.284 -1.00042 0
M  V30 4460 N 427.171 -0.0066808 1.57599 0
M  V30 4461 C 428.081 -1.01671 2.11424 0
M  V30 4462 C 429.097 -1.38143 1.05795 0
M  V30 4463 O 430.273 -1.47011 1.37658 0
M  V30 4464 C 427.338 -2.29192 2.60139 0
M  V30 4465 C 426.399 -1.99094 3.80342 0
M  V30 4466 C 425.632 -3.20535 4.26724 0
M  V30 4467 O 425.855 -4.3199 3.72479 0
M  V30 4468 O 424.789 -3.04924 5.18946 0
M  V30 4469 H 428.615 -0.589181 2.9793 0
M  V30 4470 H 426.2 -0.225091 1.47695 0
M  V30 4471 H 428.082 -3.0412 2.917 0
M  V30 4472 H 426.757 -2.71195 1.76733 0
M  V30 4473 H 425.664 -1.21663 3.53764 0
M  V30 4474 H 426.997 -1.61931 4.648 0
M  V30 4475 N 428.649 -1.55105 -0.279332 0
M  V30 4476 C 429.926 -1.66119 -1.03267 0
M  V30 4477 C 430.306 -0.523525 -2.04505 0
M  V30 4478 O 429.654 0.477194 -2.23462 0
M  V30 4479 C 429.864 -3.05067 -1.69515 0
M  V30 4480 C 431.212 -3.62606 -2.20912 0
M  V30 4481 O 432.236 -3.07659 -1.79512 0
M  V30 4482 O 431.095 -4.58861 -2.96831 0
M  V30 4483 H 428.189 -0.674429 -0.478618 0
M  V30 4484 H 430.735 -1.67446 -0.275694 0
M  V30 4485 H 429.507 -3.79311 -0.9612 0
M  V30 4486 H 429.13 -3.07611 -2.51915 0
M  V30 4487 N 430.127 0.543554 -1.4793 0
M  V30 4488 C 431.037 1.67657 -1.64098 0
M  V30 4489 C 432.053 1.65934 -0.523622 0
M  V30 4490 O 433.229 1.85133 -0.792943 0
M  V30 4491 C 430.294 3.04146 -1.66421 0
M  V30 4492 C 429.355 3.16831 -2.89684 0
M  V30 4493 C 428.588 4.46809 -2.91886 0
M  V30 4494 O 428.811 5.33095 -2.02895 0
M  V30 4495 O 427.745 4.63573 -3.83906 0
M  V30 4496 H 431.571 1.56957 -2.59997 0
M  V30 4497 H 429.156 0.715116 -1.31173 0
M  V30 4498 H 431.038 3.85346 -1.70548 0
M  V30 4499 H 429.713 3.152 -0.736923 0
M  V30 4500 H 428.62 2.34977 -2.91095 0
M  V30 4501 H 429.953 3.10687 -3.81752 0
M  V30 4502 N 431.605 1.3629 0.791371 0
M  V30 4503 C 432.83 1.33726 1.58531 0
M  V30 4504 C 433.255 -0.0794933 1.87932 0
M  V30 4505 O 432.613 -1.05087 1.47738 0
M  V30 4506 C 432.661 2.16425 2.88431 0
M  V30 4507 O 431.765 1.5554 3.81944 0
M  V30 4508 H 431.106 0.457793 0.480959 0
M  V30 4509 H 433.636 1.79547 0.981031 0
M  V30 4510 H 433.646 2.28933 3.37718 0
M  V30 4511 H 432.321 3.19415 2.66359 0
M  V30 4512 H 430.898 1.51961 3.40532 0
M  V30 4513 N 433.083 -1.0153 1.20538 0
M  V30 4514 C 434.031 -2.12215 0.952235 0
M  V30 4515 C 435.025 -1.69123 -0.0968735 0
M  V30 4516 O 436.231 -1.7992 0.0536006 0
M  V30 4517 H 432.606 -0.693576 0.290613 0
M  V30 4518 H 434.577 -2.3075 1.89201 0
M  V30 4519 C 433.326 -3.43755 0.522287 0
M  V30 4520 H 432.649 -3.7734 1.32115 0
M  V30 4521 H 434.089 -4.22254 0.384389 0
M  V30 4522 C 432.548 -3.28088 -0.765489 0
M  V30 4523 O 433.078 -3.57921 -1.8236 0
M  V30 4524 N 431.284 -2.81333 -0.728011 0
M  V30 4525 H 430.831 -2.57255 0.133332 0
M  V30 4526 H 430.789 -2.71232 -1.58999 0
M  V30 4527 N 434.561 -1.01147 -1.20859 0
M  V30 4528 C 435.491 -0.597663 -2.25722 0
M  V30 4529 C 436.472 0.384744 -1.65692 0
M  V30 4530 O 437.657 0.271303 -1.92296 0
M  V30 4531 C 434.787 0.0700149 -3.47229 0
M  V30 4532 C 433.741 -0.832843 -4.19819 0
M  V30 4533 C 433.067 -0.0312202 -5.34691 0
M  V30 4534 C 434.367 -2.1385 -4.76514 0
M  V30 4535 H 436.061 -1.47423 -2.60589 0
M  V30 4536 H 433.607 -0.710301 -1.25263 0
M  V30 4537 H 435.56 0.37103 -4.19763 0
M  V30 4538 H 434.284 0.981259 -3.11511 0
M  V30 4539 H 432.943 -1.11778 -3.49144 0
M  V30 4540 H 432.591 0.881515 -4.95215 0
M  V30 4541 H 432.291 -0.632434 -5.84187 0
M  V30 4542 H 433.815 0.26346 -6.10031 0
M  V30 4543 H 435.229 -1.9002 -5.40893 0
M  V30 4544 H 433.626 -2.69012 -5.36426 0
M  V30 4545 H 434.696 -2.80495 -3.95538 0
M  V30 4546 N 436.039 1.36541 -0.78704 0
M  V30 4547 C 437.455 1.52571 -0.46844 0
M  V30 4548 C 437.655 1.7415 1.01361 0
M  V30 4549 O 436.711 1.77163 1.79915 0
M  V30 4550 C 438.024 2.71299 -1.29682 0
M  V30 4551 C 439.572 2.85169 -1.29027 0
M  V30 4552 C 440.047 4.06898 -2.10233 0
M  V30 4553 N 441.538 4.1404 -2.07666 0
M  V30 4554 C 442.273 5.07301 -2.67271 0
M  V30 4555 N 441.769 6.06021 -3.35724 0
M  V30 4556 N 443.562 4.99898 -2.57018 0
M  V30 4557 H 435.713 1.20788 -1.74711 0
M  V30 4558 H 437.976 0.589364 -0.742532 0
M  V30 4559 H 437.682 2.61868 -2.34773 0
M  V30 4560 H 437.556 3.6539 -0.936479 0
M  V30 4561 H 439.943 2.94062 -0.247284 0
M  V30 4562 H 440.024 1.91992 -1.69035 0
M  V30 4563 H 439.668 3.98766 -3.1456 0
M  V30 4564 H 439.598 4.99218 -1.67597 0
M  V30 4565 H 442.089 3.43357 -1.57843 0
M  V30 4566 H 442.402 6.73741 -3.78541 0
M  V30 4567 H 440.747 6.06253 -3.39826 0
M  V30 4568 H 443.938 4.21724 -2.03142 0
M  V30 4569 H 444.111 5.72392 -3.03761 0
M  V30 4570 N 437.518 0.538854 1.48102 0
M  V30 4571 C 438.481 -0.208395 2.28251 0
M  V30 4572 C 439.481 -0.859656 1.35892 0
M  V30 4573 O 440.671 -0.71834 1.58699 0
M  V30 4574 C 437.803 -1.30252 3.15035 0
M  V30 4575 H 438.996 0.495407 2.9578 0
M  V30 4576 H 436.549 0.295112 1.53489 0
M  V30 4577 H 437.284 -2.0393 2.52157 0
M  V30 4578 H 437.069 -0.840551 3.82985 0
M  V30 4579 H 438.559 -1.82787 3.75471 0
M  V30 4580 N 438.996 -1.55193 0.274407 0
M  V30 4581 C 440.243 -1.99581 -0.342579 0
M  V30 4582 C 440.571 -1.1628 -1.55914 0
M  V30 4583 O 439.826 -0.22029 -1.94456 0
M  V30 4584 C 440.125 -3.49019 -0.769458 0
M  V30 4585 C 439.791 -4.49598 0.342389 0
M  V30 4586 C 438.453 -4.76821 0.647686 0
M  V30 4587 C 440.805 -5.0964 1.09163 0
M  V30 4588 C 438.133 -5.61354 1.70581 0
M  V30 4589 C 440.485 -5.95323 2.13948 0
M  V30 4590 C 439.149 -6.20867 2.45113 0
M  V30 4591 H 438.419 -0.730319 -0.125358 0
M  V30 4592 H 441.066 -1.87529 0.387971 0
M  V30 4593 H 439.371 -3.58544 -1.57967 0
M  V30 4594 H 441.068 -3.8077 -1.25757 0
M  V30 4595 H 437.658 -4.28496 0.094318 0
M  V30 4596 H 441.842 -4.88632 0.869024 0
M  V30 4597 H 437.098 -5.79392 1.9523 0
M  V30 4598 H 441.272 -6.40881 2.72478 0
M  V30 4599 H 438.899 -6.86162 3.27239 0
M  V30 4600 N 440.474 -0.00167713 -1.576 0
M  V30 4601 C 441.404 0.988091 -2.11563 0
M  V30 4602 C 442.385 1.35736 -1.02517 0
M  V30 4603 O 443.57 1.44082 -1.30208 0
M  V30 4604 C 440.7 2.27941 -2.62031 0
M  V30 4605 C 439.654 2.0517 -3.75619 0
M  V30 4606 C 438.98 3.4033 -4.12407 0
M  V30 4607 C 440.28 1.41294 -5.02825 0
M  V30 4608 H 441.974 0.538771 -2.94513 0
M  V30 4609 H 439.52 0.257712 -1.41675 0
M  V30 4610 H 441.473 2.97539 -2.9841 0
M  V30 4611 H 440.197 2.74989 -1.76205 0
M  V30 4612 H 438.856 1.37998 -3.39635 0
M  V30 4613 H 438.504 3.85085 -3.23603 0
M  V30 4614 H 438.204 3.25909 -4.88935 0
M  V30 4615 H 439.728 4.1124 -4.51347 0
M  V30 4616 H 441.142 2.00851 -5.36965 0
M  V30 4617 H 439.539 1.37356 -5.84169 0
M  V30 4618 H 440.609 0.382362 -4.8339 0
M  V30 4619 N 441.952 1.55251 0.271103 0
M  V30 4620 C 442.862 1.9136 1.35714 0
M  V30 4621 C 443.878 0.811075 1.5394 0
M  V30 4622 O 445.054 1.11031 1.6803 0
M  V30 4623 C 442.119 2.1798 2.69603 0
M  V30 4624 C 441.18 3.4153 2.60107 0
M  V30 4625 C 440.413 3.66871 3.8761 0
M  V30 4626 O 440.636 2.94689 4.8838 0
M  V30 4627 O 439.57 4.60405 3.87699 0
M  V30 4628 H 443.396 2.83815 1.08088 0
M  V30 4629 H 440.981 1.41821 0.469792 0
M  V30 4630 H 442.863 2.36518 3.48765 0
M  V30 4631 H 441.538 1.28708 2.97012 0
M  V30 4632 H 440.445 3.28325 1.79314 0
M  V30 4633 H 441.778 4.31027 2.37647 0
M  V30 4634 N 443.43 -0.535701 1.48216 0
M  V30 4635 C 444.34 -1.66785 1.64985 0
M  V30 4636 C 445.356 -1.65654 0.532414 0
M  V30 4637 O 446.532 -1.8471 0.80275 0
M  V30 4638 C 443.597 -3.0326 1.68031 0
M  V30 4639 C 442.658 -3.1529 2.9136 0
M  V30 4640 C 441.891 -4.45255 2.94252 0
M  V30 4641 O 442.114 -5.32011 2.05719 0
M  V30 4642 O 441.048 -4.6153 3.86359 0
M  V30 4643 H 444.874 -1.55576 2.60825 0
M  V30 4644 H 442.459 -0.70815 1.31551 0
M  V30 4645 H 444.341 -3.84436 1.72589 0
M  V30 4646 H 443.016 -3.14805 0.753628 0
M  V30 4647 H 441.923 -2.3343 2.92337 0
M  V30 4648 H 443.256 -3.08658 3.83394 0
M  V30 4649 N 444.908 -1.36708 -0.784132 0
M  V30 4650 C 446.138 -1.34203 -1.57077 0
M  V30 4651 C 446.546 0.0774945 -1.89041 0
M  V30 4652 O 445.889 1.04628 -1.50992 0
M  V30 4653 C 445.951 -2.10351 -2.91535 0
M  V30 4654 C 445.615 -3.59405 -2.82272 0
M  V30 4655 C 446.612 -4.53545 -2.54151 0
M  V30 4656 C 444.297 -4.02362 -3.00683 0
M  V30 4657 C 446.291 -5.8862 -2.44551 0
M  V30 4658 C 443.978 -5.37526 -2.90704 0
M  V30 4659 C 444.976 -6.30468 -2.62677 0
M  V30 4660 O 444.664 -7.63149 -2.52702 0
M  V30 4661 H 444.396 -0.461791 -0.493685 0
M  V30 4662 H 446.95 -1.80475 -0.980712 0
M  V30 4663 H 445.18 -1.5875 -3.52612 0
M  V30 4664 H 446.869 -2.00636 -3.52845 0
M  V30 4665 H 447.635 -4.21669 -2.39625 0
M  V30 4666 H 443.514 -3.30389 -3.21503 0
M  V30 4667 H 447.058 -6.61133 -2.22596 0
M  V30 4668 H 442.955 -5.69008 -3.04795 0
M  V30 4669 H 443.723 -7.73331 -2.68144 0
M  V30 4670 N 446.386 1.0089 -1.21074 0
M  V30 4671 C 447.319 2.09279 -0.909806 0
M  V30 4672 C 448.297 1.61986 0.141145 0
M  V30 4673 O 449.481 1.88495 0.0130332 0
M  V30 4674 C 446.608 3.36723 -0.365374 0
M  V30 4675 C 445.654 4.02919 -1.39852 0
M  V30 4676 S 446.487 4.45835 -2.96633 0
M  V30 4677 C 447.643 5.76471 -2.43786 0
M  V30 4678 H 447.876 2.34484 -1.82769 0
M  V30 4679 H 445.409 1.14115 -1.04006 0
M  V30 4680 H 447.367 4.10459 -0.0578203 0
M  V30 4681 H 446.028 3.09577 0.531136 0
M  V30 4682 H 445.221 4.94634 -0.967117 0
M  V30 4683 H 444.823 3.35441 -1.65395 0
M  V30 4684 H 447.115 6.52027 -1.84029 0
M  V30 4685 H 448.058 6.24418 -3.33928 0
M  V30 4686 H 448.466 5.33104 -1.85636 0
M  V30 4687 N 447.864 1.01787 1.20321 0
M  V30 4688 C 449.275 0.739307 1.71438 0
M  V30 4689 C 449.626 -0.742041 1.81627 0
M  V30 4690 O 448.751 -1.57903 1.47971 0
M  V30 4691 C 449.346 1.33538 3.11373 0
M  V30 4692 C 447.905 1.10566 3.59795 0
M  V30 4693 C 447.052 1.44028 2.36962 0
M  V30 4694 H 450.003 1.18718 1.05317 0
M  V30 4695 H 450.024 0.726611 3.73498 0
M  V30 4696 H 449.536 2.41352 3.03926 0
M  V30 4697 H 447.637 0.0452405 3.72573 0
M  V30 4698 H 447.75 1.78661 4.44542 0
M  V30 4699 H 446.114 0.85933 2.39766 0
M  V30 4700 H 446.897 2.52901 2.32155 0
M  V30 4701 N 449.342 -1.36122 0.79427 0
M  V30 4702 C 450.59 -1.98718 0.368177 0
M  V30 4703 C 450.911 -1.63345 -1.06506 0
M  V30 4704 O 450.181 -0.909825 -1.73491 0
M  V30 4705 H 448.761 -0.735038 0.133146 0
M  V30 4706 H 451.423 -1.66239 1.01739 0
M  V30 4707 H 450.519 -3.08633 0.463923 0
M  V30 4708 N 450.82 -0.546701 -1.47814 0
M  V30 4709 C 451.783 0.196287 -2.28358 0
M  V30 4710 C 452.783 0.852437 -1.36346 0
M  V30 4711 O 453.973 0.709913 -1.59078 0
M  V30 4712 C 451.105 1.28579 -3.15722 0
M  V30 4713 H 452.298 -0.511086 -2.95513 0
M  V30 4714 H 449.851 -0.303248 -1.5333 0
M  V30 4715 H 450.586 2.0259 -2.53235 0
M  V30 4716 H 450.371 0.820229 -3.83425 0
M  V30 4717 H 451.861 1.80793 -3.76435 0
M  V30 4718 N 452.299 1.55045 -0.282633 0
M  V30 4719 C 453.247 2.24254 0.617478 0
M  V30 4720 C 454.241 1.24215 1.15183 0
M  V30 4721 O 455.447 1.42123 1.10459 0
M  V30 4722 H 451.822 0.719801 0.217693 0
M  V30 4723 H 453.793 2.98398 0.0110076 0
M  V30 4724 C 452.542 2.98281 1.78672 0
M  V30 4725 H 451.865 3.75053 1.38475 0
M  V30 4726 H 453.305 3.50017 2.393 0
M  V30 4727 C 451.764 2.04184 2.67975 0
M  V30 4728 O 452.294 1.59792 3.6855 0
M  V30 4729 N 450.5 1.70526 2.35307 0
M  V30 4730 H 450.047 2.06821 1.53567 0
M  V30 4731 H 450.005 1.07839 2.95327 0
M  V30 4732 N 453.777 0.010035 1.57597 0
M  V30 4733 C 455.025 -0.671371 1.90623 0
M  V30 4734 C 455.346 -1.73753 0.885151 0
M  V30 4735 O 454.616 -1.95752 -0.0760611 0
M  V30 4736 H 453.196 -0.250968 0.703579 0
M  V30 4737 H 455.858 0.0533325 1.94827 0
M  V30 4738 H 454.954 -1.13626 2.90681 0
M  V30 4739 N 455.255 -1.55392 -0.262866 0
M  V30 4740 C 456.165 -1.92077 -1.34698 0
M  V30 4741 C 457.181 -0.819227 -1.53508 0
M  V30 4742 O 458.357 -1.11921 -1.67439 0
M  V30 4743 C 455.422 -2.19407 -2.68443 0
M  V30 4744 C 454.483 -3.42905 -2.58292 0
M  V30 4745 C 453.716 -3.68921 -3.85659 0
M  V30 4746 O 453.939 -2.97275 -4.8681 0
M  V30 4747 O 452.873 -4.62455 -3.85252 0
M  V30 4748 H 456.699 -2.84384 -1.06581 0
M  V30 4749 H 454.284 -1.42069 -0.462264 0
M  V30 4750 H 456.166 -2.38365 -3.47506 0
M  V30 4751 H 454.841 -1.30282 -2.96325 0
M  V30 4752 H 453.748 -3.29272 -1.7757 0
M  V30 4753 H 455.081 -4.32282 -2.35358 0
M  V30 4754 N 456.733 0.527833 -1.48498 0
M  V30 4755 C 457.663 1.64136 -1.66077 0
M  V30 4756 C 458.644 1.62286 -0.509625 0
M  V30 4757 O 459.829 1.79449 -0.742413 0
M  V30 4758 C 456.959 3.02717 -1.70234 0
M  V30 4759 C 455.913 3.19426 -2.8487 0
M  V30 4760 C 455.239 4.5909 -2.74118 0
M  V30 4761 C 456.539 3.01993 -4.26142 0
M  V30 4762 H 458.233 1.4968 -2.593 0
M  V30 4763 H 455.779 0.718654 -1.24785 0
M  V30 4764 H 457.732 3.80491 -1.8112 0
M  V30 4765 H 456.456 3.18201 -0.735911 0
M  V30 4766 H 455.115 2.4407 -2.73542 0
M  V30 4767 H 454.763 4.71413 -1.7544 0
M  V30 4768 H 454.463 4.71214 -3.51042 0
M  V30 4769 H 455.987 5.3896 -2.86974 0
M  V30 4770 H 457.401 3.69558 -4.38292 0
M  V30 4771 H 455.798 3.2561 -5.04082 0
M  V30 4772 H 456.868 1.98396 -4.42456 0
M  V30 4773 N 458.211 1.37122 0.776871 0
M  V30 4774 C 459.158 1.3247 1.88998 0
M  V30 4775 C 460.128 0.191143 1.64997 0
M  V30 4776 O 461.313 0.379683 1.86984 0
M  V30 4777 C 458.453 1.13241 3.25992 0
M  V30 4778 C 457.566 2.35782 3.61982 0
M  V30 4779 C 456.701 2.09465 4.88158 0
M  V30 4780 C 455.74 3.279 5.16864 0
M  V30 4781 N 454.877 3.01167 6.34226 0
M  V30 4782 H 459.717 2.27642 1.9231 0
M  V30 4783 H 457.254 1.13125 0.94027 0
M  V30 4784 H 459.212 1.00115 4.0501 0
M  V30 4785 H 457.842 0.217186 3.22069 0
M  V30 4786 H 456.894 2.59666 2.77989 0
M  V30 4787 H 458.206 3.24125 3.79137 0
M  V30 4788 H 457.36 1.93341 5.75069 0
M  V30 4789 H 456.099 1.18452 4.73097 0
M  V30 4790 H 455.104 3.44569 4.2843 0
M  V30 4791 H 456.329 4.19757 5.33836 0
M  V30 4792 H 454.275 2.12779 6.20533 0
M  V30 4793 H 454.192 3.83052 6.51772 0
M  V30 4794 H 455.46 2.88649 7.24087 0
M  V30 4795 N 459.689 -1.00246 1.21608 0
M  V30 4796 C 461.105 -1.26435 0.973975 0
M  V30 4797 C 461.305 -1.98642 -0.338143 0
M  V30 4798 O 460.361 -2.29026 -1.06317 0
M  V30 4799 C 461.674 -2.08551 2.16626 0
M  V30 4800 C 463.222 -2.21769 2.20879 0
M  V30 4801 C 463.697 -3.07267 3.39633 0
M  V30 4802 N 465.188 -3.14855 3.39736 0
M  V30 4803 C 465.923 -3.81274 4.28273 0
M  V30 4804 N 465.419 -4.497 5.27012 0
M  V30 4805 N 467.212 -3.7794 4.16074 0
M  V30 4806 H 459.363 -0.518089 2.05984 0
M  V30 4807 H 461.626 -0.291368 0.902113 0
M  V30 4808 H 461.332 -1.62847 3.11727 0
M  V30 4809 H 461.206 -3.09303 2.15897 0
M  V30 4810 H 463.593 -2.66691 1.26332 0
M  V30 4811 H 463.674 -1.20478 2.25652 0
M  V30 4812 H 463.318 -2.63047 4.34475 0
M  V30 4813 H 463.248 -4.08678 3.321 0
M  V30 4814 H 465.739 -2.66147 2.6828 0
M  V30 4815 H 466.052 -4.98092 5.90867 0
M  V30 4816 H 464.397 -4.48479 5.30935 0
M  V30 4817 H 467.588 -3.23638 3.38195 0
M  V30 4818 H 467.761 -4.29424 4.85282 0
M  V30 4819 N 461.167 -1.02423 -1.1978 0
M  V30 4820 C 462.415 -0.716569 -1.8897 0
M  V30 4821 C 462.736 0.756769 -1.79716 0
M  V30 4822 O 462.006 1.5449 -1.20456 0
M  V30 4823 H 460.586 -0.262062 -0.699523 0
M  V30 4824 H 463.248 -1.29747 -1.45436 0
M  V30 4825 H 462.344 -1.00675 -2.95417 0
M  V30 4826 N 462.645 1.35699 -0.801477 0
M  V30 4827 C 463.608 2.28199 -0.213994 0
M  V30 4828 C 464.608 1.49359 0.595691 0
M  V30 4829 O 465.798 1.69186 0.414921 0
M  V30 4830 C 462.93 3.33587 0.702297 0
M  V30 4831 H 464.123 2.81666 -1.02976 0
M  V30 4832 H 461.676 1.45467 -0.571759 0
M  V30 4833 H 462.411 2.85297 1.54195 0
M  V30 4834 H 462.196 3.91906 0.123484 0
M  V30 4835 H 463.686 4.02638 1.10783 0
M  V30 4836 N 464.123 0.554532 1.47522 0
M  V30 4837 C 465.369 0.0295227 2.02779 0
M  V30 4838 C 465.702 -1.31582 1.42828 0
M  V30 4839 O 464.977 -1.85561 0.582872 0
M  V30 4840 C 465.26 -0.0664057 3.60039 0
M  V30 4841 C 465.113 1.30585 4.30427 0
M  V30 4842 C 466.432 -0.781162 4.33112 0
M  V30 4843 H 463.551 0.0122027 0.736899 0
M  V30 4844 H 466.193 0.716305 1.7598 0
M  V30 4845 H 464.343 -0.651307 3.83002 0
M  V30 4846 H 466.015 1.93374 4.18813 0
M  V30 4847 H 464.258 1.88125 3.90886 0
M  V30 4848 H 464.929 1.19147 5.38988 0
M  V30 4849 H 467.405 -0.284565 4.15126 0
M  V30 4850 H 466.281 -0.817237 5.42782 0
M  V30 4851 H 466.542 -1.83672 4.0214 0
M  V30 4852 N 465.601 -1.54893 0.290851 0
M  V30 4853 C 466.841 -2.01842 -0.322388 0
M  V30 4854 C 467.205 -1.17477 -1.51865 0
M  V30 4855 O 468.406 -1.54077 -2.20258 0
M  V30 4856 C 466.677 -3.50874 -0.679844 0
M  V30 4857 S 468.236 -4.19796 -1.27739 0
M  V30 4858 H 465.054 -0.704005 -0.0994866 0
M  V30 4859 H 467.656 -1.91015 0.416358 0
M  V30 4860 H 466.36 -4.09915 0.199435 0
M  V30 4861 H 465.891 -3.65717 -1.44964 0
M  V30 4862 H 467.906 -4.24729 -2.56554 0
M  V30 4863 N 467.08 -0.0183926 -1.57589 0
M  V30 4864 C 468.013 1.00148 -2.0505 0
M  V30 4865 C 468.991 1.32387 -0.944058 0
M  V30 4866 O 470.175 1.44237 -1.21358 0
M  V30 4867 C 467.302 2.32435 -2.46357 0
M  V30 4868 C 466.348 2.15731 -3.67916 0
M  V30 4869 S 467.181 1.46613 -5.15039 0
M  V30 4870 C 468.337 2.80293 -5.59631 0
M  V30 4871 H 468.57 0.597429 -2.91235 0
M  V30 4872 H 466.103 0.193002 -1.53189 0
M  V30 4873 H 468.061 3.0849 -2.70822 0
M  V30 4874 H 466.722 2.69975 -1.60537 0
M  V30 4875 H 465.915 3.13502 -3.9463 0
M  V30 4876 H 465.517 1.4782 -3.43548 0
M  V30 4877 H 467.809 3.76557 -5.63215 0
M  V30 4878 H 468.752 2.58256 -6.59325 0
M  V30 4879 H 469.16 2.85047 -4.87246 0
M  V30 4880 N 468.558 1.5553 0.254621 0
M  V30 4881 C 469.788 1.80784 1.00004 0
M  V30 4882 C 470.196 0.59071 1.79742 0
M  V30 4883 O 469.539 -0.449988 1.78103 0
M  V30 4884 C 469.601 2.99268 1.99196 0
M  V30 4885 C 469.265 4.35595 1.38224 0
M  V30 4886 C 470.262 5.13884 0.788611 0
M  V30 4887 C 467.947 4.82281 1.40393 0
M  V30 4888 C 469.941 6.37004 0.224783 0
M  V30 4889 C 467.628 6.05351 0.836243 0
M  V30 4890 C 468.626 6.82551 0.24769 0
M  V30 4891 O 468.314 8.03297 -0.311249 0
M  V30 4892 H 468.046 0.60565 0.300274 0
M  V30 4893 H 470.6 2.03411 0.285143 0
M  V30 4894 H 468.83 2.72377 2.74496 0
M  V30 4895 H 470.519 3.11682 2.60018 0
M  V30 4896 H 471.285 4.78938 0.764423 0
M  V30 4897 H 467.164 4.22189 1.85142 0
M  V30 4898 H 470.708 6.97203 -0.235235 0
M  V30 4899 H 466.605 6.39776 0.857733 0
M  V30 4900 H 467.373 8.1825 -0.20237 0
M  V30 4901 N 470.036 -0.519951 1.48776 0
M  V30 4902 C 471.264 -1.29971 1.60982 0
M  V30 4903 C 471.679 -1.86803 0.273885 0
M  V30 4904 O 471.036 -1.66904 -0.738193 0
M  V30 4905 C 471.087 -2.44346 2.66415 0
M  V30 4906 O 470.808 -1.89855 3.94825 0
M  V30 4907 C 472.309 -3.36014 2.89153 0
M  V30 4908 H 469.529 -0.394891 0.542496 0
M  V30 4909 H 472.073 -0.626214 1.94676 0
M  V30 4910 H 470.228 -3.07562 2.35552 0
M  V30 4911 H 470.642 -2.64798 4.5275 0
M  V30 4912 H 472.116 -4.12593 3.66703 0
M  V30 4913 H 472.593 -3.91859 1.98351 0
M  V30 4914 H 473.199 -2.78582 3.21359 0
M  V30 4915 N 471.514 -1.37532 -0.769588 0
M  V30 4916 C 472.461 -1.3347 -1.88293 0
M  V30 4917 C 473.431 -0.199891 -1.64893 0
M  V30 4918 O 474.616 -0.389594 -1.8678 0
M  V30 4919 C 471.756 -1.14968 -3.25387 0
M  V30 4920 C 470.869 -2.37698 -3.60727 0
M  V30 4921 C 470.004 -2.12051 -4.8704 0
M  V30 4922 C 469.043 -3.30636 -5.15117 0
M  V30 4923 N 468.18 -3.04527 -6.3262 0
M  V30 4924 H 473.02 -2.28658 -1.911 0
M  V30 4925 H 470.557 -1.13622 -0.934257 0
M  V30 4926 H 472.515 -1.02261 -4.04473 0
M  V30 4927 H 471.145 -0.234263 -3.21949 0
M  V30 4928 H 470.197 -2.61137 -2.76608 0
M  V30 4929 H 471.509 -3.26131 -3.77413 0
M  V30 4930 H 470.663 -1.96388 -5.74035 0
M  V30 4931 H 469.402 -1.20959 -4.72462 0
M  V30 4932 H 468.407 -3.46836 -4.26597 0
M  V30 4933 H 469.632 -4.22582 -5.31603 0
M  V30 4934 H 467.578 -2.16067 -6.19396 0
M  V30 4935 H 467.495 -3.86503 -6.49732 0
M  V30 4936 H 468.763 -2.92485 -7.22546 0
M  V30 4937 N 472.992 0.995999 -1.22138 0
M  V30 4938 C 474.22 1.77066 -1.07029 0
M  V30 4939 C 474.635 1.8495 0.379357 0
M  V30 4940 O 473.992 1.3174 1.26297 0
M  V30 4941 C 474.043 3.20533 -1.67155 0
M  V30 4942 O 473.764 3.13082 -3.06449 0
M  V30 4943 C 475.265 4.14461 -1.5728 0
M  V30 4944 H 472.485 0.556179 -0.375374 0
M  V30 4945 H 475.029 1.25238 -1.61666 0
M  V30 4946 H 473.184 3.6944 -1.16589 0
M  V30 4947 H 473.598 4.03283 -3.35355 0
M  V30 4948 H 475.072 5.1289 -2.04078 0
M  V30 4949 H 475.549 4.36005 -0.528795 0
M  V30 4950 H 476.155 3.71449 -2.07136 0
M  V30 4951 N 474.47 1.03057 1.19235 0
M  V30 4952 C 475.4 0.633497 2.24742 0
M  V30 4953 C 476.381 -0.358335 1.66283 0
M  V30 4954 O 477.566 -0.240676 1.92703 0
M  V30 4955 C 474.696 -0.0147648 3.47297 0
M  V30 4956 C 473.65 0.899527 4.18441 0
M  V30 4957 C 472.976 0.116281 5.34574 0
M  V30 4958 C 474.276 2.21404 4.73051 0
M  V30 4959 H 475.97 1.5155 2.58211 0
M  V30 4960 H 473.516 0.73014 1.24117 0
M  V30 4961 H 475.469 -0.304202 4.20301 0
M  V30 4962 H 474.193 -0.931577 3.13032 0
M  V30 4963 H 472.852 1.17319 3.47321 0
M  V30 4964 H 472.5 -0.802619 4.96555 0
M  V30 4965 H 472.2 0.725293 5.83107 0
M  V30 4966 H 473.724 -0.166376 6.10373 0
M  V30 4967 H 475.138 1.98601 5.37802 0
M  V30 4968 H 473.535 2.77512 5.32078 0
M  V30 4969 H 474.605 2.86752 3.91026 0
M  V30 4970 N 475.948 -1.35272 0.808662 0
M  V30 4971 C 477.225 -1.93077 0.313181 0
M  V30 4972 C 477.605 -1.73847 -1.19752 0
M  V30 4973 O 476.953 -1.1087 -1.998 0
M  V30 4974 C 477.163 -3.41347 0.726859 0
M  V30 4975 C 478.511 -4.18493 0.717532 0
M  V30 4976 O 479.535 -3.4987 0.668535 0
M  V30 4977 O 478.394 -5.40937 0.777779 0
M  V30 4978 H 475.488 -0.822885 0.0824018 0
M  V30 4979 H 478.034 -1.44335 0.892499 0
M  V30 4980 H 476.806 -3.49082 1.76797 0
M  V30 4981 H 476.429 -3.97411 0.122461 0
M  V30 4982 N 477.426 -0.562348 -1.47226 0
M  V30 4983 C 478.336 0.185466 -2.33866 0
M  V30 4984 C 479.352 0.906713 -1.48508 0
M  V30 4985 O 480.528 0.874458 -1.81425 0
M  V30 4986 C 477.593 1.19904 -3.25306 0
M  V30 4987 C 476.654 0.484669 -4.26555 0
M  V30 4988 C 475.887 1.44996 -5.13626 0
M  V30 4989 O 476.11 2.68515 -5.03245 0
M  V30 4990 O 475.044 0.971642 -5.94006 0
M  V30 4991 H 478.87 -0.525361 -2.99121 0
M  V30 4992 H 476.455 -0.322916 -1.45868 0
M  V30 4993 H 478.337 1.78399 -3.81774 0
M  V30 4994 H 477.012 1.8917 -2.62672 0
M  V30 4995 H 475.919 -0.141605 -3.73832 0
M  V30 4996 H 477.252 -0.166634 -4.91918 0
M  V30 4997 N 478.904 1.54736 -0.299062 0
M  V30 4998 C 479.854 2.20155 0.592932 0
M  V30 4999 C 480.838 1.1739 1.10038 0
M  V30 5000 O 482.03 1.43116 1.04147 0
M  V30 5001 C 479.159 2.94437 1.76527 0
M  V30 5002 C 478.245 4.04516 1.27388 0
M  V30 5003 N 478.636 5.03319 0.500339 0
M  V30 5004 C 476.934 4.18022 1.55478 0
M  V30 5005 C 477.635 5.81209 0.238909 0
M  V30 5006 N 476.611 5.37408 0.818163 0
M  V30 5007 H 480.413 2.93899 -0.00563596 0
M  V30 5008 H 477.927 1.62068 -0.103732 0
M  V30 5009 H 479.924 3.3977 2.41582 0
M  V30 5010 H 478.584 2.22209 2.36756 0
M  V30 5011 H 479.595 5.17696 0.145419 0
M  V30 5012 H 476.272 3.56998 2.16469 0
M  V30 5013 H 477.662 6.70812 -0.382223 0
M  V30 5014 N 480.382 0.0267497 1.57577 0
M  V30 5015 C 481.629 -0.652404 1.91703 0
M  V30 5016 C 481.957 -1.72271 0.902936 0
M  V30 5017 O 481.212 -1.955 -0.0884843 0
M  V30 5018 C 481.511 -1.30914 3.3256 0
M  V30 5019 C 481.177 -0.369441 4.49384 0
M  V30 5020 C 479.839 -0.110791 4.81072 0
M  V30 5021 C 482.191 0.275971 5.20469 0
M  V30 5022 C 479.519 0.801116 5.81205 0
M  V30 5023 C 481.871 1.17592 6.21575 0
M  V30 5024 C 480.535 1.44348 6.51705 0
M  V30 5025 H 479.805 -0.238732 0.70149 0
M  V30 5026 H 482.452 0.0880091 1.91298 0
M  V30 5027 H 480.757 -2.12425 3.29216 0
M  V30 5028 H 482.454 -1.84115 3.56234 0
M  V30 5029 H 479.044 -0.581211 4.24641 0
M  V30 5030 H 483.228 0.0892 4.9622 0
M  V30 5031 H 478.484 1.01614 6.02897 0
M  V30 5032 H 482.658 1.68223 6.75777 0
M  V30 5033 H 480.285 2.15176 7.29111 0
M  V30 5034 N 481.861 -1.55662 -0.24637 0
M  V30 5035 C 483.11 -1.7672 -0.972254 0
M  V30 5036 C 483.423 -0.59078 -1.86465 0
M  V30 5037 O 484.629 -0.684391 -2.62732 0
M  V30 5038 C 483.085 -3.12869 -1.7788 0
M  V30 5039 C 482.693 -4.38161 -0.933768 0
M  V30 5040 C 484.437 -3.43265 -2.49738 0
M  V30 5041 C 482.344 -5.6534 -1.73623 0
M  V30 5042 H 481.274 -0.658795 -0.366749 0
M  V30 5043 H 483.925 -1.82092 -0.226902 0
M  V30 5044 H 482.307 -3.01606 -2.56612 0
M  V30 5045 H 483.481 -4.60413 -0.188736 0
M  V30 5046 H 481.796 -4.15102 -0.328488 0
M  V30 5047 H 484.393 -4.35501 -3.10231 0
M  V30 5048 H 484.736 -2.64614 -3.2138 0
M  V30 5049 H 485.269 -3.55746 -1.78016 0
M  V30 5050 H 482.008 -6.46814 -1.06354 0
M  V30 5051 H 481.528 -5.47188 -2.45653 0
M  V30 5052 H 483.207 -6.04616 -2.30323 0
M  V30 5053 N 483.339 0.512053 -1.4905 0
M  V30 5054 C 484.588 1.26343 -1.57227 0
M  V30 5055 C 484.901 1.93876 -0.259155 0
M  V30 5056 O 486.107 2.70612 -0.219358 0
M  V30 5057 C 484.563 2.29343 -2.77362 0
M  V30 5058 C 484.171 1.67799 -4.15388 0
M  V30 5059 C 485.915 3.05378 -2.94864 0
M  V30 5060 C 483.822 2.68845 -5.2676 0
M  V30 5061 H 482.752 0.475231 -0.585382 0
M  V30 5062 H 485.403 0.53862 -1.75417 0
M  V30 5063 H 483.785 3.04938 -2.52643 0
M  V30 5064 H 484.959 0.982715 -4.50199 0
M  V30 5065 H 483.274 1.04194 -4.03153 0
M  V30 5066 H 485.871 3.80921 -3.75238 0
M  V30 5067 H 486.214 3.62327 -2.05 0
M  V30 5068 H 486.747 2.36898 -3.19569 0
M  V30 5069 H 483.486 2.16692 -6.18647 0
M  V30 5070 H 483.006 3.36647 -4.96416 0
M  V30 5071 H 484.685 3.31487 -5.5563 0
M  V30 5072 N 484.817 1.37938 0.762283 0
M  V30 5073 C 486.094 1.24196 1.51112 0
M  V30 5074 C 486.474 -0.160409 2.1049 0
M  V30 5075 O 485.822 -1.16904 1.96331 0
M  V30 5076 C 486.032 2.34537 2.58445 0
M  V30 5077 C 487.38 2.7254 3.25588 0
M  V30 5078 O 488.404 2.33783 2.68745 0
M  V30 5079 O 487.263 3.39343 4.28379 0
M  V30 5080 H 484.357 0.485175 0.669727 0
M  V30 5081 H 486.903 1.49743 0.798438 0
M  V30 5082 H 485.675 3.28406 2.12756 0
M  V30 5083 H 485.298 2.10505 3.37303 0
M  V30 5084 N 486.295 -0.989507 1.22664 0
M  V30 5085 C 487.225 -2.09847 1.02404 0
M  V30 5086 C 488.206 -1.70007 -0.0561303 0
M  V30 5087 O 489.391 -1.93906 0.106748 0
M  V30 5088 C 486.521 -3.41996 0.604663 0
M  V30 5089 C 485.475 -3.95699 1.63115 0
M  V30 5090 C 484.801 -5.23936 1.0675 0
M  V30 5091 C 486.101 -4.25999 3.02196 0
M  V30 5092 H 487.795 -2.27054 1.95158 0
M  V30 5093 H 485.341 -1.09111 0.939727 0
M  V30 5094 H 487.294 -4.1899 0.45002 0
M  V30 5095 H 486.018 -3.24626 -0.35855 0
M  V30 5096 H 484.677 -3.2084 1.77362 0
M  V30 5097 H 484.325 -5.02909 0.0955422 0
M  V30 5098 H 484.025 -5.60833 1.75328 0
M  V30 5099 H 485.549 -6.0356 0.924516 0
M  V30 5100 H 486.963 -4.93777 2.91303 0
M  V30 5101 H 485.36 -4.74076 3.67929 0
M  V30 5102 H 486.43 -3.33636 3.51873 0
M  V30 5103 N 487.773 -1.03688 -1.18687 0
M  V30 5104 C 488.723 -0.595067 -2.20098 0
M  V30 5105 C 489.707 0.360465 -1.5681 0
M  V30 5106 O 490.899 0.180136 -1.76081 0
M  V30 5107 C 488.028 0.0444495 -3.43271 0
M  V30 5108 C 487.114 -0.934002 -4.13687 0
M  V30 5109 N 487.505 -2.09957 -4.60165 0
M  V30 5110 C 485.803 -0.759177 -4.39491 0
M  V30 5111 C 486.504 -2.71735 -5.1433 0
M  V30 5112 N 485.48 -1.99638 -5.05614 0
M  V30 5113 H 489.282 -1.48336 -2.5372 0
M  V30 5114 H 486.796 -0.904949 -1.3485 0
M  V30 5115 H 488.793 0.37864 -4.15177 0
M  V30 5116 H 487.453 0.928325 -3.11147 0
M  V30 5117 H 488.464 -2.47863 -4.54735 0
M  V30 5118 H 485.141 0.0749292 -4.17433 0
M  V30 5119 H 486.531 -3.70492 -5.60523 0
M  V30 5120 N 489.251 1.34841 -0.815825 0
M  V30 5121 C 490.662 1.80937 -0.46029 0
M  V30 5122 C 491.013 1.67685 1.01863 0
M  V30 5123 O 490.138 1.21277 1.79223 0
M  V30 5124 C 490.733 3.28509 -0.828708 0
M  V30 5125 C 489.292 3.72712 -0.525644 0
M  V30 5126 C 488.439 2.56676 -1.04941 0
M  V30 5127 H 491.39 1.22688 -1.00664 0
M  V30 5128 H 491.411 3.80279 -0.129757 0
M  V30 5129 H 490.923 3.38122 -1.90513 0
M  V30 5130 H 489.024 3.68642 0.541666 0
M  V30 5131 H 489.137 4.67119 -1.06474 0
M  V30 5132 H 487.501 2.50302 -0.471286 0
M  V30 5133 H 488.284 2.69063 -2.13214 0
M  V30 5134 N 490.729 0.570148 1.46925 0
M  V30 5135 C 491.639 -0.173061 2.33961 0
M  V30 5136 C 492.655 -0.898825 1.48987 0
M  V30 5137 O 493.831 -0.864825 1.81887 0
M  V30 5138 C 490.896 -1.18177 3.25937 0
M  V30 5139 C 489.957 -0.462041 4.26806 0
M  V30 5140 C 489.19 -1.4227 5.14388 0
M  V30 5141 O 489.413 -2.65842 5.04662 0
M  V30 5142 O 488.347 -0.940127 5.94513 0
M  V30 5143 H 492.173 0.541216 2.98839 0
M  V30 5144 H 489.758 0.330647 1.45695 0
M  V30 5145 H 491.64 -1.76372 3.82715 0
M  V30 5146 H 490.315 -1.87774 2.63671 0
M  V30 5147 H 489.222 0.161429 3.73752 0
M  V30 5148 H 490.555 0.192719 4.91823 0
M  V30 5149 N 492.207 -1.54576 0.307264 0
M  V30 5150 C 493.157 -2.20467 -0.581249 0
M  V30 5151 C 494.141 -1.17972 -1.09414 0
M  V30 5152 O 495.333 -1.43667 -1.03387 0
M  V30 5153 C 492.462 -2.95369 -1.74963 0
M  V30 5154 C 491.548 -4.05186 -1.25241 0
M  V30 5155 N 491.939 -5.03577 -0.47364 0
M  V30 5156 C 490.237 -4.18841 -1.53259 0
M  V30 5157 C 490.938 -5.81328 -0.208083 0
M  V30 5158 N 489.914 -5.37834 -0.789651 0
M  V30 5159 H 493.716 -2.93892 0.0212221 0
M  V30 5160 H 491.23 -1.62011 0.112325 0
M  V30 5161 H 493.227 -3.41046 -2.39777 0
M  V30 5162 H 491.887 -2.23461 -2.35574 0
M  V30 5163 H 492.898 -5.17766 -0.117963 0
M  V30 5164 H 489.575 -3.58141 -2.14573 0
M  V30 5165 H 490.965 -6.706 0.417793 0
M  V30 5166 N 493.685 -0.035106 -1.57561 0
M  V30 5167 C 494.91 0.655802 -1.96759 0
M  V30 5168 C 495.335 1.64523 -0.911809 0
M  V30 5169 O 494.693 1.80857 0.126673 0
M  V30 5170 C 494.741 1.33326 -3.35047 0
M  V30 5171 O 493.845 2.44866 -3.31835 0
M  V30 5172 H 493.186 0.171807 -0.641388 0
M  V30 5173 H 495.716 -0.0987369 -2.04362 0
M  V30 5174 H 495.726 1.68867 -3.71413 0
M  V30 5175 H 494.401 0.608033 -4.11431 0
M  V30 5176 H 492.978 2.11392 -3.07193 0
M  V30 5177 N 495.163 1.55791 0.238111 0
M  V30 5178 C 496.111 1.91885 1.31464 0
M  V30 5179 C 497.105 0.798929 1.49377 0
M  V30 5180 O 498.311 0.983626 1.50747 0
M  V30 5181 H 494.686 0.609551 0.440399 0
M  V30 5182 H 496.657 2.81747 0.982925 0
M  V30 5183 C 495.406 2.23763 2.6613 0
M  V30 5184 H 494.729 3.09444 2.53149 0
M  V30 5185 H 496.169 2.52915 3.40309 0
M  V30 5186 C 494.628 1.05699 3.1989 0
M  V30 5187 O 495.158 0.309524 4.00506 0
M  V30 5188 N 493.364 0.845251 2.78036 0
M  V30 5189 H 492.911 1.4548 2.12588 0
M  V30 5190 H 492.869 0.0569973 3.14348 0
M  V30 5191 N 496.642 -0.504142 1.49319 0
M  V30 5192 C 497.888 -1.26033 1.58882 0
M  V30 5193 C 498.221 -1.92268 0.273274 0
M  V30 5194 O 497.496 -1.80567 -0.72291 0
M  V30 5195 C 497.779 -2.32976 2.7458 0
M  V30 5196 C 497.632 -1.71263 4.1592 0
M  V30 5197 C 498.951 -3.34561 2.85932 0
M  V30 5198 H 496.07 -0.456863 0.578312 0
M  V30 5199 H 498.712 -0.558965 1.81592 0
M  V30 5200 H 496.862 -2.92796 2.55348 0
M  V30 5201 H 498.534 -1.15294 4.4666 0
M  V30 5202 H 496.777 -1.01686 4.21714 0
M  V30 5203 H 497.448 -2.48816 4.92742 0
M  V30 5204 H 499.924 -2.84727 3.0343 0
M  V30 5205 H 498.8 -4.06754 3.68568 0
M  V30 5206 H 499.061 -3.96695 1.95154 0
M  V30 5207 N 498.12 -1.38341 -0.754957 0
M  V30 5208 C 499.366 -1.34672 -1.51628 0
M  V30 5209 C 499.699 0.0636036 -1.94096 0
M  V30 5210 O 498.974 1.0245 -1.6533 0
M  V30 5211 C 499.257 -2.30116 -2.76981 0
M  V30 5212 C 499.11 -3.80003 -2.4066 0
M  V30 5213 C 500.429 -2.23715 -3.78998 0
M  V30 5214 H 497.548 -0.490517 -0.550056 0
M  V30 5215 H 500.19 -1.69178 -0.864807 0
M  V30 5216 H 498.34 -2.00821 -3.3257 0
M  V30 5217 H 500.012 -4.19966 -1.90856 0
M  V30 5218 H 498.255 -3.97751 -1.73137 0
M  V30 5219 H 498.926 -4.42244 -3.30339 0
M  V30 5220 H 501.402 -2.49574 -3.32945 0
M  V30 5221 H 500.278 -2.9261 -4.64403 0
M  V30 5222 H 500.539 -1.23554 -4.24484 0
M  V30 5223 N 499.598 0.982988 -1.23187 0
M  V30 5224 C 500.847 1.71817 -1.05649 0
M  V30 5225 C 501.16 1.91315 0.407176 0
M  V30 5226 O 502.366 2.62256 0.702436 0
M  V30 5227 C 500.822 3.09188 -1.84203 0
M  V30 5228 C 500.43 2.97586 -3.34882 0
M  V30 5229 C 502.174 3.86684 -1.75146 0
M  V30 5230 C 500.081 4.30173 -4.05839 0
M  V30 5231 H 499.011 0.644258 -0.391724 0
M  V30 5232 H 501.662 1.09659 -1.4713 0
M  V30 5233 H 500.044 3.72087 -1.35527 0
M  V30 5234 H 501.218 2.43793 -3.91026 0
M  V30 5235 H 499.533 2.33567 -3.44725 0
M  V30 5236 H 502.13 4.84836 -2.25473 0
M  V30 5237 H 502.473 4.10136 -0.713737 0
M  V30 5238 H 503.006 3.30482 -2.21419 0
M  V30 5239 H 499.745 4.11918 -5.09906 0
M  V30 5240 H 499.265 4.83841 -3.54482 0
M  V30 5241 H 500.944 4.98873 -4.11989 0
M  V30 5242 N 501.076 1.04316 1.18135 0
M  V30 5243 C 502.039 0.640794 2.2006 0
M  V30 5244 C 503.039 -0.303124 1.57917 0
M  V30 5245 O 504.229 -0.0881855 1.73977 0
M  V30 5246 C 501.361 -0.060148 3.40847 0
M  V30 5247 H 502.554 1.54281 2.57172 0
M  V30 5248 H 500.107 0.836004 1.32063 0
M  V30 5249 H 500.842 -0.975845 3.0927 0
M  V30 5250 H 500.627 0.618319 3.87194 0
M  V30 5251 H 502.117 -0.328082 4.16309 0
M  V30 5252 N 502.554 -1.34406 0.822964 0
M  V30 5253 C 503.517 -2.2783 0.250271 0
M  V30 5254 C 504.517 -1.50288 -0.571854 0
M  V30 5255 O 505.707 -1.69825 -0.387952 0
M  V30 5256 C 502.839 -3.34663 -0.649137 0
M  V30 5257 H 504.032 -2.79992 1.07444 0
M  V30 5258 H 501.585 -1.44539 0.594829 0
M  V30 5259 H 502.32 -2.87714 -1.49637 0
M  V30 5260 H 502.105 -3.92052 -0.0611199 0
M  V30 5261 H 503.595 -4.04349 -1.04363 0
M  V30 5262 N 504.032 -0.577932 -1.46621 0
M  V30 5263 C 505.28 -0.061566 -2.02006 0
M  V30 5264 C 505.601 1.30117 -1.4524 0
M  V30 5265 O 504.871 1.85313 -0.63529 0
M  V30 5266 H 503.451 -0.0197692 -0.746738 0
M  V30 5267 H 506.113 -0.752631 -1.79782 0
M  V30 5268 H 505.209 0.0110238 -3.12098 0
M  V30 5269 N 505.51 1.54411 -0.315457 0
M  V30 5270 C 506.757 2.00419 0.289543 0
M  V30 5271 C 507.085 1.20373 1.52776 0
M  V30 5272 O 506.34 0.271769 1.93804 0
M  V30 5273 C 506.639 3.50936 0.676652 0
M  V30 5274 C 506.305 4.48532 -0.461472 0
M  V30 5275 C 504.967 4.74936 -0.773879 0
M  V30 5276 C 507.319 5.06567 -1.22637 0
M  V30 5277 C 504.647 5.56634 -1.85405 0
M  V30 5278 C 506.999 5.89441 -2.29657 0
M  V30 5279 C 505.663 6.1415 -2.61488 0
M  V30 5280 H 504.933 0.733386 0.105951 0
M  V30 5281 H 507.58 1.86434 -0.437554 0
M  V30 5282 H 505.885 3.62606 1.48405 0
M  V30 5283 H 507.582 3.83971 1.15618 0
M  V30 5284 H 504.172 4.28096 -0.207893 0
M  V30 5285 H 508.356 4.86157 -0.998271 0
M  V30 5286 H 503.612 5.74012 -2.10523 0
M  V30 5287 H 507.786 6.33432 -2.89374 0
M  V30 5288 H 505.413 6.77245 -3.45317 0
M  V30 5289 N 506.988 0.0434614 1.5754 0
M  V30 5290 C 508.213 -0.645358 1.97104 0
M  V30 5291 C 508.638 -1.64037 0.920521 0
M  V30 5292 O 507.996 -1.80922 -0.11708 0
M  V30 5293 C 508.044 -1.31547 3.35749 0
M  V30 5294 O 507.148 -2.43103 3.33129 0
M  V30 5295 H 506.489 -0.168403 0.64229 0
M  V30 5296 H 509.019 0.109573 2.04306 0
M  V30 5297 H 509.029 -1.66895 3.72304 0
M  V30 5298 H 507.704 -0.586205 4.11748 0
M  V30 5299 H 506.281 -2.0976 3.0831 0
M  V30 5300 N 508.466 -1.55915 -0.229846 0
M  V30 5301 C 509.714 -1.7819 -0.953565 0
M  V30 5302 C 510.035 -0.610504 -1.85197 0
M  V30 5303 O 509.305 0.372988 -1.92316 0
M  V30 5304 H 507.885 -0.657208 -0.355087 0
M  V30 5305 H 510.547 -1.9337 -0.243693 0
M  V30 5306 H 509.643 -2.70011 -1.56527 0
M  V30 5307 N 509.944 0.496216 -1.49584 0
M  V30 5308 C 510.894 1.59422 -1.62999 0
M  V30 5309 C 511.878 1.53402 -0.485457 0
M  V30 5310 O 513.07 1.60851 -0.738649 0
M  V30 5311 C 510.199 2.98009 -1.70427 0
M  V30 5312 C 509.285 3.09008 -2.90473 0
M  V30 5313 N 509.676 2.89884 -4.14489 0
M  V30 5314 C 507.974 3.40115 -2.8851 0
M  V30 5315 C 508.675 3.0519 -4.95211 0
M  V30 5316 N 507.651 3.3428 -4.2867 0
M  V30 5317 H 511.453 1.43297 -2.56599 0
M  V30 5318 H 508.967 0.702443 -1.46422 0
M  V30 5319 H 510.964 3.76926 -1.78136 0
M  V30 5320 H 509.624 3.152 -0.77967 0
M  V30 5321 H 510.635 2.65963 -4.44392 0
M  V30 5322 H 507.312 3.63452 -2.05448 0
M  V30 5323 H 508.702 2.94856 -6.03746 0
M  V30 5324 N 511.423 1.38739 0.74761 0
M  V30 5325 C 512.671 1.35007 1.50391 0
M  V30 5326 C 512.992 -0.0574274 1.94915 0
M  V30 5327 O 512.262 -1.00628 1.6808 0
M  V30 5328 H 510.842 0.496784 0.557866 0
M  V30 5329 H 513.504 1.73479 0.888319 0
M  V30 5330 H 512.6 2.00474 2.392 0
M  V30 5331 N 512.901 -0.976442 1.23707 0
M  V30 5332 C 514.148 -1.71827 1.07153 0
M  V30 5333 C 514.476 -1.9053 -0.390982 0
M  V30 5334 O 513.731 -1.45779 -1.30564 0
M  V30 5335 C 514.03 -3.11814 1.74662 0
M  V30 5336 C 513.696 -3.12978 3.24585 0
M  V30 5337 C 512.358 -3.13003 3.6549 0
M  V30 5338 C 514.71 -3.07986 4.20469 0
M  V30 5339 C 512.038 -3.05757 5.00729 0
M  V30 5340 C 514.39 -3.02282 5.55705 0
M  V30 5341 C 513.054 -3.00631 5.95968 0
M  V30 5342 H 512.324 -0.628758 0.392102 0
M  V30 5343 H 514.971 -1.14239 1.53693 0
M  V30 5344 H 513.276 -3.72812 1.20492 0
M  V30 5345 H 514.973 -3.67989 1.59328 0
M  V30 5346 H 511.563 -3.13718 2.92026 0
M  V30 5347 H 515.747 -3.07103 3.89874 0
M  V30 5348 H 511.003 -3.02834 5.31132 0
M  V30 5349 H 515.177 -2.97376 6.29714 0
M  V30 5350 H 512.804 -2.94771 7.00724 0
M  V30 5351 N 514.379 -1.04941 -1.1758 0
M  V30 5352 C 515.326 -0.648155 -2.21512 0
M  V30 5353 C 516.296 0.348431 -1.62404 0
M  V30 5354 O 517.481 0.240419 -1.89279 0
M  V30 5355 C 514.621 -0.0264291 -3.4509 0
M  V30 5356 C 513.734 -1.07154 -4.185 0
M  V30 5357 C 512.869 -0.417403 -5.29558 0
M  V30 5358 C 511.908 -1.447 -5.94751 0
M  V30 5359 N 511.045 -0.817203 -6.97328 0
M  V30 5360 H 515.885 -1.53891 -2.55189 0
M  V30 5361 H 513.422 -0.769699 -1.25356 0
M  V30 5362 H 515.38 0.351456 -4.15717 0
M  V30 5363 H 514.01 0.827802 -3.12005 0
M  V30 5364 H 513.062 -1.56728 -3.46613 0
M  V30 5365 H 514.374 -1.8532 -4.63096 0
M  V30 5366 H 513.528 0.0142061 -6.06698 0
M  V30 5367 H 512.267 0.396265 -4.86087 0
M  V30 5368 H 511.272 -1.88865 -5.16343 0
M  V30 5369 H 512.497 -2.26252 -6.40302 0
M  V30 5370 H 510.443 -0.0239995 -6.55996 0
M  V30 5371 H 510.36 -1.53644 -7.40223 0
M  V30 5372 H 511.628 -0.410283 -7.7842 0
M  V30 5373 N 515.857 1.33968 -0.830081 0
M  V30 5374 C 517.104 1.98063 -0.421566 0
M  V30 5375 C 517.432 1.65787 1.0171 0
M  V30 5376 O 516.687 0.925348 1.72441 0
M  V30 5377 C 516.986 3.52679 -0.57898 0
M  V30 5378 C 516.652 4.04884 -1.98443 0
M  V30 5379 C 515.314 4.18852 -2.36888 0
M  V30 5380 C 517.666 4.32879 -2.90285 0
M  V30 5381 C 514.994 4.58145 -3.66497 0
M  V30 5382 C 517.346 4.7362 -4.19364 0
M  V30 5383 C 516.01 4.85794 -4.57778 0
M  V30 5384 H 515.28 0.724765 -0.154262 0
M  V30 5385 H 517.927 1.59792 -1.05541 0
M  V30 5386 H 516.232 3.91556 0.138219 0
M  V30 5387 H 517.929 4.00261 -0.243317 0
M  V30 5388 H 514.519 3.9448 -1.67581 0
M  V30 5389 H 518.703 4.21619 -2.61823 0
M  V30 5390 H 513.959 4.65762 -3.96075 0
M  V30 5391 H 518.133 4.9424 -4.90612 0
M  V30 5392 H 515.76 5.15998 -5.58256 0
M  V30 5393 N 517.335 0.585699 1.46312 0
M  V30 5394 C 518.56 0.0762461 2.0726 0
M  V30 5395 C 518.985 -1.22071 1.43109 0
M  V30 5396 O 518.343 -1.73804 0.515942 0
M  V30 5397 C 518.391 -0.0729404 3.60526 0
M  V30 5398 O 517.495 -1.1287 3.96654 0
M  V30 5399 H 516.836 0.0641558 0.660893 0
M  V30 5400 H 519.366 0.809492 1.87905 0
M  V30 5401 H 519.376 -0.278158 4.07051 0
M  V30 5402 H 518.051 0.874188 4.06609 0
M  V30 5403 H 516.628 -0.901703 3.61834 0
M  V30 5404 N 518.813 -1.54241 0.323641 0
M  V30 5405 C 520.038 -2.05452 -0.283605 0
M  V30 5406 C 520.463 -1.19823 -1.44997 0
M  V30 5407 O 519.821 -0.207358 -1.8011 0
M  V30 5408 C 519.869 -3.53823 -0.695795 0
M  V30 5409 O 518.973 -3.71134 -1.79815 0
M  V30 5410 H 518.314 -0.662024 -0.0511917 0
M  V30 5411 H 520.844 -1.99079 0.472073 0
M  V30 5412 H 520.854 -3.96094 -0.978434 0
M  V30 5413 H 519.529 -4.15602 0.157287 0
M  V30 5414 H 518.106 -3.40768 -1.51431 0
M  V30 5415 N 520.291 -0.0518155 -1.57515 0
M  V30 5416 C 521.539 0.620595 -1.92336 0
M  V30 5417 C 521.86 1.71345 -0.930907 0
M  V30 5418 O 521.13 1.95885 0.0241341 0
M  V30 5419 H 519.71 0.232226 -0.709986 0
M  V30 5420 H 522.372 -0.104969 -1.94617 0
M  V30 5421 H 521.468 1.05879 -2.93592 0
M  V30 5422 N 521.769 1.56035 0.221574 0
M  V30 5423 C 523.015 1.79312 0.947372 0
M  V30 5424 C 523.348 0.621453 1.83988 0
M  V30 5425 O 522.623 -0.379287 1.90766 0
M  V30 5426 C 522.906 3.1267 1.78633 0
M  V30 5427 C 522.759 4.40284 0.920312 0
M  V30 5428 C 524.078 3.4247 2.7641 0
M  V30 5429 H 521.197 0.652328 0.342982 0
M  V30 5430 H 523.839 1.88765 0.216244 0
M  V30 5431 H 521.989 3.04741 2.40967 0
M  V30 5432 H 523.661 4.60232 0.313718 0
M  V30 5433 H 521.904 4.33212 0.225734 0
M  V30 5434 H 522.575 5.30033 1.54171 0
M  V30 5435 H 525.051 3.50526 2.24211 0
M  V30 5436 H 523.927 4.3695 3.32213 0
M  V30 5437 H 524.188 2.64635 3.54148 0
M  V30 5438 N 523.247 -0.488276 1.49845 0
M  V30 5439 C 524.495 -1.23911 1.59657 0
M  V30 5440 C 524.816 -1.92816 0.291005 0
M  V30 5441 O 524.086 -1.83328 -0.690485 0
M  V30 5442 H 522.666 -0.460357 0.588286 0
M  V30 5443 H 525.328 -0.564794 1.86537 0
M  V30 5444 H 524.424 -1.99625 2.39909 0
M  V30 5445 N 524.725 -1.39134 -0.740242 0
M  V30 5446 C 525.635 -1.39697 -1.88473 0
M  V30 5447 C 526.651 -0.292403 -1.71526 0
M  V30 5448 O 527.827 -0.533021 -1.94219 0
M  V30 5449 C 524.892 -1.23382 -3.24003 0
M  V30 5450 C 523.953 -2.43763 -3.53381 0
M  V30 5451 C 523.186 -2.28216 -4.82445 0
M  V30 5452 O 523.409 -1.28288 -5.55786 0
M  V30 5453 O 522.343 -3.1709 -5.11603 0
M  V30 5454 H 526.169 -2.36159 -1.90952 0
M  V30 5455 H 523.754 -1.20194 -0.887346 0
M  V30 5456 H 525.636 -1.16395 -4.05006 0
M  V30 5457 H 524.311 -0.300121 -3.22306 0
M  V30 5458 H 523.218 -2.56325 -2.72485 0
M  V30 5459 H 524.551 -3.35808 -3.59852 0
M  V30 5460 N 526.204 0.969867 -1.24223 0
M  V30 5461 C 527.45 1.7151 -1.08223 0
M  V30 5462 C 527.783 1.90478 0.37838 0
M  V30 5463 O 527.058 1.4647 1.27971 0
M  V30 5464 C 527.341 3.10714 -1.82013 0
M  V30 5465 C 527.194 2.9925 -3.35811 0
M  V30 5466 C 528.513 4.10332 -1.59108 0
M  V30 5467 H 525.632 0.622499 -0.394543 0
M  V30 5468 H 528.274 1.1284 -1.52863 0
M  V30 5469 H 526.424 3.608 -1.44068 0
M  V30 5470 H 528.096 2.56608 -3.83341 0
M  V30 5471 H 526.339 2.35512 -3.64303 0
M  V30 5472 H 527.01 3.97857 -3.82641 0
M  V30 5473 H 529.486 3.69097 -1.92111 0
M  V30 5474 H 528.362 5.05804 -2.13198 0
M  V30 5475 H 528.623 4.38926 -0.528832 0
M  V30 5476 N 527.682 1.05563 1.17022 0
M  V30 5477 C 528.612 0.681026 2.23348 0
M  V30 5478 C 529.593 -0.322983 1.67005 0
M  V30 5479 O 530.778 -0.199746 1.9317 0
M  V30 5480 C 527.908 0.0589053 3.4725 0
M  V30 5481 C 526.862 0.988082 4.16438 0
M  V30 5482 C 526.188 0.229646 5.34207 0
M  V30 5483 C 527.488 2.31388 4.68249 0
M  V30 5484 H 529.182 1.56993 2.54938 0
M  V30 5485 H 526.728 0.756302 1.2254 0
M  V30 5486 H 528.681 -0.214982 4.20851 0
M  V30 5487 H 527.405 -0.864968 3.14938 0
M  V30 5488 H 526.064 1.24659 3.44754 0
M  V30 5489 H 525.712 -0.697111 4.98146 0
M  V30 5490 H 525.412 0.848815 5.81437 0
M  V30 5491 H 526.936 -0.0368694 6.10589 0
M  V30 5492 H 528.35 2.09964 5.33468 0
M  V30 5493 H 526.747 2.88736 5.26072 0
M  V30 5494 H 527.817 2.94982 3.84855 0
M  V30 5495 N 529.16 -1.33526 0.837174 0
M  V30 5496 C 530.385 -2.0258 0.444545 0
M  V30 5497 C 530.81 -1.6258 -0.946006 0
M  V30 5498 O 530.168 -0.817548 -1.6182 0
M  V30 5499 C 530.216 -3.5605 0.571006 0
M  V30 5500 O 529.32 -4.10422 -0.403431 0
M  V30 5501 H 528.661 -0.638866 0.180958 0
M  V30 5502 H 531.191 -1.70462 1.13154 0
M  V30 5503 H 531.201 -4.05488 0.452024 0
M  V30 5504 H 529.876 -3.84509 1.58512 0
M  V30 5505 H 528.453 -3.72113 -0.242147 0
M  V30 5506 N 530.638 -0.59345 -1.46 0
M  V30 5507 C 531.57 0.171569 -2.28557 0
M  V30 5508 C 532.583 0.845273 -1.39137 0
M  V30 5509 O 533.772 0.713033 -1.6364 0
M  V30 5510 C 530.872 1.26311 -3.14482 0
M  V30 5511 C 530.045 0.679258 -4.32094 0
M  V30 5512 C 529.104 1.65987 -4.99334 0
M  V30 5513 O 528.13 1.19171 -5.56585 0
M  V30 5514 N 529.332 2.99414 -4.97324 0
M  V30 5515 H 532.097 -0.536771 -2.94854 0
M  V30 5516 H 529.658 -0.431954 -1.56031 0
M  V30 5517 H 531.65 1.91863 -3.5633 0
M  V30 5518 H 530.22 1.87416 -2.50188 0
M  V30 5519 H 529.44 -0.153992 -3.93899 0
M  V30 5520 H 530.728 0.26916 -5.08088 0
M  V30 5521 H 530.126 3.40064 -4.52076 0
M  V30 5522 H 528.683 3.60426 -5.4308 0
M  V30 5523 N 532.116 1.54067 -0.331816 0
M  V30 5524 C 533.046 2.27569 0.522932 0
M  V30 5525 C 534.027 1.28679 1.11247 0
M  V30 5526 O 535.212 1.57504 1.13605 0
M  V30 5527 C 532.342 3.0397 1.67987 0
M  V30 5528 C 531.296 4.10267 1.21924 0
M  V30 5529 C 530.622 4.74555 2.46377 0
M  V30 5530 C 531.922 5.21268 0.32815 0
M  V30 5531 H 533.616 2.99264 -0.0901977 0
M  V30 5532 H 531.162 1.4393 -0.044821 0
M  V30 5533 H 533.115 3.54123 2.28418 0
M  V30 5534 H 531.839 2.29906 2.31971 0
M  V30 5535 H 530.498 3.61009 0.637809 0
M  V30 5536 H 530.146 3.97098 3.08743 0
M  V30 5537 H 529.846 5.46363 2.16243 0
M  V30 5538 H 531.37 5.27487 3.07555 0
M  V30 5539 H 532.784 5.67128 0.838978 0
M  V30 5540 H 531.181 5.99982 0.119228 0
M  V30 5541 H 532.251 4.80673 -0.638839 0
M  V30 5542 N 533.594 0.0601682 1.57485 0
M  V30 5543 C 534.557 -0.896373 2.10945 0
M  V30 5544 C 535.557 -1.23402 1.03095 0
M  V30 5545 O 536.747 -1.16921 1.29132 0
M  V30 5546 C 533.879 -2.20346 2.60116 0
M  V30 5547 H 535.072 -0.432778 2.96761 0
M  V30 5548 H 532.625 -0.188372 1.55161 0
M  V30 5549 H 533.36 -2.71268 1.7772 0
M  V30 5550 H 533.145 -1.9714 3.38937 0
M  V30 5551 H 534.635 -2.88846 3.01592 0
M  V30 5552 N 535.072 -1.5615 -0.213296 0
M  V30 5553 C 536.002 -1.96109 -1.26742 0
M  V30 5554 C 536.983 -0.830448 -1.48451 0
M  V30 5555 O 538.168 -1.09339 -1.60495 0
M  V30 5556 C 535.298 -2.28492 -2.61551 0
M  V30 5557 C 534.252 -3.44124 -2.54485 0
M  V30 5558 C 533.578 -3.62134 -3.93399 0
M  V30 5559 C 534.878 -4.78855 -2.08556 0
M  V30 5560 H 536.572 -2.84412 -0.935434 0
M  V30 5561 H 534.118 -1.36836 -0.44854 0
M  V30 5562 H 536.071 -2.55039 -3.3546 0
M  V30 5563 H 534.795 -1.37052 -2.96453 0
M  V30 5564 H 533.454 -3.17639 -1.83033 0
M  V30 5565 H 533.102 -2.68055 -4.25623 0
M  V30 5566 H 532.802 -4.39913 -3.89551 0
M  V30 5567 H 534.326 -3.91038 -4.68958 0
M  V30 5568 H 535.74 -5.04552 -2.72213 0
M  V30 5569 H 534.137 -5.59975 -2.1575 0
M  V30 5570 H 535.207 -4.73657 -1.03811 0
M  V30 5571 N 536.55 0.480323 -1.50102 0
M  V30 5572 C 537.778 1.25657 -1.64371 0
M  V30 5573 C 538.193 1.86011 -0.323316 0
M  V30 5574 O 537.55 1.68803 0.693682 0
M  V30 5575 C 537.601 2.37197 -2.728 0
M  V30 5576 O 537.322 1.7932 -3.9972 0
M  V30 5577 C 538.823 3.2823 -2.9796 0
M  V30 5578 H 536.043 0.380369 -0.552775 0
M  V30 5579 H 538.587 0.574379 -1.96268 0
M  V30 5580 H 536.742 3.01208 -2.43623 0
M  V30 5581 H 537.156 2.52701 -4.59611 0
M  V30 5582 H 538.63 4.02725 -3.77513 0
M  V30 5583 H 539.107 3.86462 -2.08671 0
M  V30 5584 H 539.713 2.69964 -3.28633 0
M  V30 5585 N 538.028 1.39524 0.732853 0
M  V30 5586 C 539.276 1.36594 1.48951 0
M  V30 5587 C 539.597 -0.0367507 1.94965 0
M  V30 5588 O 538.867 -0.988391 1.69138 0
M  V30 5589 H 537.447 0.502673 0.552566 0
M  V30 5590 H 540.109 1.74411 0.869869 0
M  V30 5591 H 539.205 2.03 2.3706 0
M  V30 5592 N 539.506 -0.963266 1.24736 0
M  V30 5593 C 540.453 -2.05857 1.04363 0
M  V30 5594 C 541.423 -1.6604 -0.0444951 0
M  V30 5595 O 542.608 -1.90477 0.110999 0
M  V30 5596 C 539.748 -3.38745 0.659235 0
M  V30 5597 C 538.861 -3.9173 1.82131 0
M  V30 5598 C 537.996 -5.12906 1.38208 0
M  V30 5599 C 537.035 -5.58098 2.51382 0
M  V30 5600 N 536.172 -6.7049 2.08295 0
M  V30 5601 H 541.012 -2.22616 1.98107 0
M  V30 5602 H 538.549 -1.09103 0.986661 0
M  V30 5603 H 540.507 -4.15107 0.417371 0
M  V30 5604 H 539.137 -3.21898 -0.241201 0
M  V30 5605 H 538.189 -3.11966 2.17672 0
M  V30 5606 H 539.501 -4.21225 2.67153 0
M  V30 5607 H 538.655 -5.96657 1.09935 0
M  V30 5608 H 537.394 -4.85105 0.502456 0
M  V30 5609 H 536.399 -4.72917 2.80409 0
M  V30 5610 H 537.624 -5.87911 3.39909 0
M  V30 5611 H 535.57 -6.44416 1.22737 0
M  V30 5612 H 535.487 -6.99458 2.86869 0
M  V30 5613 H 536.755 -7.57672 1.83175 0
M  V30 5614 N 540.985 -1.06182 -1.16461 0
M  V30 5615 C 542.213 -0.798583 -1.90867 0
M  V30 5616 C 542.628 0.646921 -1.77371 0
M  V30 5617 O 541.985 1.44279 -1.11758 0
M  V30 5618 C 542.036 -1.18258 -3.4161 0
M  V30 5619 O 541.757 -2.57135 -3.54701 0
M  V30 5620 C 543.258 -0.946917 -4.33069 0
M  V30 5621 H 540.478 -0.289603 -0.605286 0
M  V30 5622 H 543.022 -1.41515 -1.47627 0
M  V30 5623 H 541.177 -0.610562 -3.82558 0
M  V30 5624 H 541.591 -2.72477 -4.4817 0
M  V30 5625 H 543.065 -1.26523 -5.37304 0
M  V30 5626 H 543.542 0.117406 -4.39043 0
M  V30 5627 H 544.148 -1.50326 -3.97847 0
M  V30 5628 N 542.463 1.3308 -0.844243 0
M  V30 5629 C 543.373 2.32876 -0.283922 0
M  V30 5630 C 544.389 1.63589 0.592846 0
M  V30 5631 O 545.565 1.95205 0.495693 0
M  V30 5632 C 542.63 3.42667 0.527283 0
M  V30 5633 C 541.691 4.27664 -0.374394 0
M  V30 5634 C 540.924 5.32212 0.39819 0
M  V30 5635 O 541.147 5.46635 1.62932 0
M  V30 5636 O 540.081 6.01458 -0.2306 0
M  V30 5637 H 543.907 2.82671 -1.11045 0
M  V30 5638 H 541.492 1.36518 -0.606903 0
M  V30 5639 H 543.374 4.09652 0.988078 0
M  V30 5640 H 542.049 2.95079 1.33078 0
M  V30 5641 H 540.956 3.63526 -0.883144 0
M  V30 5642 H 542.289 4.78749 -1.1428 0
M  V30 5643 N 543.941 0.601185 1.45683 0
M  V30 5644 C 544.891 -0.142686 2.27553 0
M  V30 5645 C 545.875 -0.844598 1.3695 0
M  V30 5646 O 547.067 -0.735644 1.60988 0
M  V30 5647 C 544.196 -1.14364 3.23691 0
M  V30 5648 C 543.282 -0.442894 4.21781 0
M  V30 5649 N 543.673 0.51189 5.03203 0
M  V30 5650 C 541.971 -0.691277 4.4061 0
M  V30 5651 C 542.672 0.92318 5.74328 0
M  V30 5652 N 541.648 0.268308 5.42937 0
M  V30 5653 H 545.45 0.590736 2.87902 0
M  V30 5654 H 542.964 0.424365 1.56757 0
M  V30 5655 H 544.961 -1.6909 3.8107 0
M  V30 5656 H 543.621 -1.87768 2.64902 0
M  V30 5657 H 544.632 0.888329 5.10225 0
M  V30 5658 H 541.309 -1.41049 3.92952 0
M  V30 5659 H 542.699 1.71029 6.49768 0
M  V30 5660 N 545.419 -1.53889 0.339982 0
M  V30 5661 C 546.696 -1.93084 -0.312719 0
M  V30 5662 C 547.076 -1.2712 -1.68534 0
M  V30 5663 O 546.424 -0.420835 -2.24591 0
M  V30 5664 C 546.634 -3.4683 -0.388558 0
M  V30 5665 C 547.982 -4.19732 -0.641088 0
M  V30 5666 O 549.006 -3.53075 -0.470818 0
M  V30 5667 O 547.865 -5.3781 -0.970685 0
M  V30 5668 H 544.959 -0.806784 -0.18174 0
M  V30 5669 H 547.505 -1.65137 0.390898 0
M  V30 5670 H 546.277 -3.87055 0.574821 0
M  V30 5671 H 545.9 -3.80933 -1.1391 0
M  V30 5672 N 546.897 -0.0685191 -1.57451 0
M  V30 5673 C 548.146 0.600898 -1.92541 0
M  V30 5674 C 548.459 1.70967 -0.950239 0
M  V30 5675 O 549.665 2.43844 -1.19384 0
M  V30 5676 C 548.121 1.12019 -3.42023 0
M  V30 5677 C 547.729 0.0426028 -4.4798 0
M  V30 5678 C 549.473 1.76386 -3.86119 0
M  V30 5679 C 547.38 0.575759 -5.88591 0
M  V30 5680 H 546.31 0.228225 -0.71863 0
M  V30 5681 H 548.961 -0.140223 -1.82963 0
M  V30 5682 H 547.343 1.91418 -3.46663 0
M  V30 5683 H 548.517 -0.73182 -4.54952 0
M  V30 5684 H 546.832 -0.504642 -4.13331 0
M  V30 5685 H 549.429 2.17302 -4.88553 0
M  V30 5686 H 549.772 2.62255 -3.23308 0
M  V30 5687 H 550.305 1.03615 -3.84069 0
M  V30 5688 H 547.044 -0.245691 -6.55039 0
M  V30 5689 H 546.564 1.31778 -5.85145 0
M  V30 5690 H 548.243 1.0532 -6.3837 0
M  V30 5691 N 548.375 1.56261 0.205012 0
M  V30 5692 C 549.6 1.84491 0.947512 0
M  V30 5693 C 550.025 0.650894 1.76479 0
M  V30 5694 O 549.383 -0.40035 1.76824 0
M  V30 5695 C 549.431 3.10863 1.82747 0
M  V30 5696 O 548.535 2.90719 2.925 0
M  V30 5697 H 547.876 0.607783 0.267386 0
M  V30 5698 H 550.406 2.03485 0.213323 0
M  V30 5699 H 550.416 3.41399 2.23407 0
M  V30 5700 H 549.091 3.97392 1.2269 0
M  V30 5701 H 547.668 2.71457 2.55667 0
M  V30 5702 N 549.853 -0.472356 1.50355 0
M  V30 5703 C 551.102 -1.2213 1.60522 0
M  V30 5704 C 551.415 -1.9312 0.310466 0
M  V30 5705 O 552.621 -2.69936 0.291029 0
M  V30 5706 C 551.077 -2.21909 2.83345 0
M  V30 5707 C 550.685 -1.56727 4.19691 0
M  V30 5708 C 552.429 -2.97453 3.02856 0
M  V30 5709 C 550.336 -2.54785 5.33703 0
M  V30 5710 H 549.266 -0.459543 0.597776 0
M  V30 5711 H 551.917 -0.491922 1.76783 0
M  V30 5712 H 550.299 -2.98133 2.60639 0
M  V30 5713 H 551.473 -0.863007 4.52646 0
M  V30 5714 H 549.788 -0.934685 4.05774 0
M  V30 5715 H 552.385 -3.70838 3.85205 0
M  V30 5716 H 552.728 -3.56764 2.14534 0
M  V30 5717 H 553.261 -2.28342 3.25737 0
M  V30 5718 H 550 -2.00214 6.24175 0
M  V30 5719 H 549.52 -3.23367 5.05167 0
M  V30 5720 H 551.199 -3.16639 5.64224 0
M  V30 5721 N 551.331 -1.39911 -0.725443 0
M  V30 5722 C 552.578 -1.37654 -1.48518 0
M  V30 5723 C 552.906 0.0243982 -1.94485 0
M  V30 5724 O 552.161 1.00708 -1.67799 0
M  V30 5725 C 552.46 -2.30368 -2.7325 0
M  V30 5726 C 552.126 -3.77817 -2.461 0
M  V30 5727 C 550.788 -4.17991 -2.38405 0
M  V30 5728 C 553.14 -4.71036 -2.23103 0
M  V30 5729 C 550.468 -5.49433 -2.05768 0
M  V30 5730 C 552.82 -6.02766 -1.9198 0
M  V30 5731 C 551.484 -6.41993 -1.82761 0
M  V30 5732 H 550.754 -0.503713 -0.543465 0
M  V30 5733 H 553.401 -1.7249 -0.831822 0
M  V30 5734 H 551.706 -1.88683 -3.43375 0
M  V30 5735 H 553.403 -2.2591 -3.31309 0
M  V30 5736 H 549.993 -3.45982 -2.52972 0
M  V30 5737 H 554.177 -4.40823 -2.2801 0
M  V30 5738 H 549.433 -5.78738 -1.9716 0
M  V30 5739 H 553.607 -6.74519 -1.73197 0
M  V30 5740 H 551.234 -7.43761 -1.57237 0
M  V30 5741 N 552.809 0.956637 -1.25245 0
M  V30 5742 C 554.034 1.74104 -1.12706 0
M  V30 5743 C 554.459 1.85436 0.315429 0
M  V30 5744 O 553.817 1.33334 1.22848 0
M  V30 5745 C 553.865 3.1338 -1.78396 0
M  V30 5746 O 552.969 3.98485 -1.06224 0
M  V30 5747 H 552.31 0.53476 -0.393609 0
M  V30 5748 H 554.84 1.19924 -1.65769 0
M  V30 5749 H 554.85 3.6385 -1.846 0
M  V30 5750 H 553.525 3.04448 -2.83345 0
M  V30 5751 H 552.102 3.56952 -1.07886 0
M  V30 5752 N 554.287 1.06798 1.15896 0
M  V30 5753 C 555.536 0.782796 1.8589 0
M  V30 5754 C 555.849 -0.693498 1.82893 0
M  V30 5755 O 557.055 -1.09325 2.48516 0
M  V30 5756 C 555.511 1.3502 3.33613 0
M  V30 5757 C 555.119 2.8571 3.45071 0
M  V30 5758 C 556.863 1.14278 4.08829 0
M  V30 5759 C 554.77 3.35669 4.86909 0
M  V30 5760 H 553.7 0.289149 0.696354 0
M  V30 5761 H 556.351 1.28734 1.30766 0
M  V30 5762 H 554.733 0.773407 3.88374 0
M  V30 5763 H 555.907 3.49385 3.00445 0
M  V30 5764 H 554.222 3.05178 2.83294 0
M  V30 5765 H 556.819 1.49087 5.13495 0
M  V30 5766 H 557.162 0.0814575 4.1622 0
M  V30 5767 H 557.695 1.68563 3.60321 0
M  V30 5768 H 554.434 4.41302 4.84698 0
M  V30 5769 H 553.954 2.76745 5.32139 0
M  V30 5770 H 555.633 3.31296 5.55745 0
M  V30 5771 N 555.766 -1.3263 0.851289 0
M  V30 5772 C 556.714 -2.30882 0.282202 0
M  V30 5773 C 557.708 -1.58697 -0.592589 0
M  V30 5774 O 558.914 -1.73461 -0.480768 0
M  V30 5775 H 555.289 -0.748492 0.0725487 0
M  V30 5776 H 557.26 -2.76374 1.12516 0
M  V30 5777 C 556.009 -3.43828 -0.517449 0
M  V30 5778 H 555.332 -3.99532 0.146392 0
M  V30 5779 H 556.772 -4.1474 -0.88128 0
M  V30 5780 C 555.231 -2.90786 -1.70133 0
M  V30 5781 O 555.761 -2.88 -2.80034 0
M  V30 5782 N 553.967 -2.4723 -1.52728 0
M  V30 5783 H 553.514 -2.49695 -0.633257 0
M  V30 5784 H 553.472 -2.12094 -2.32085 0
M  V30 5785 N 557.244 -0.608902 -1.45362 0
M  V30 5786 C 558.66 -0.272659 -1.57254 0
M  V30 5787 C 558.86 1.22477 -1.60005 0
M  V30 5788 O 557.916 2.00785 -1.53106 0
M  V30 5789 C 559.229 -0.944991 -2.85465 0
M  V30 5790 C 560.777 -0.921033 -2.99142 0
M  V30 5791 C 561.252 -1.5734 -4.30126 0
M  V30 5792 N 562.743 -1.53895 -4.36887 0
M  V30 5793 C 563.478 -2.01286 -5.36909 0
M  V30 5794 N 562.974 -2.56768 -6.43461 0
M  V30 5795 N 564.767 -1.92046 -5.28275 0
M  V30 5796 H 556.918 -1.58117 -1.4182 0
M  V30 5797 H 559.181 -0.662437 -0.678146 0
M  V30 5798 H 558.887 -1.99941 -2.89338 0
M  V30 5799 H 558.761 -0.469079 -3.74272 0
M  V30 5800 H 561.148 0.124846 -2.94836 0
M  V30 5801 H 561.229 -1.43522 -2.11743 0
M  V30 5802 H 560.873 -2.61862 -4.35191 0
M  V30 5803 H 560.803 -1.03422 -5.16344 0
M  V30 5804 H 563.294 -1.13366 -3.60495 0
M  V30 5805 H 563.607 -2.9072 -7.16032 0
M  V30 5806 H 561.952 -2.60808 -6.44208 0
M  V30 5807 H 565.143 -1.48439 -4.43941 0
M  V30 5808 H 565.316 -2.29293 -6.06077 0
M  V30 5809 N 558.722 1.53707 -0.348139 0
M  V30 5810 C 560.133 1.86213 0.134797 0
M  V30 5811 C 560.484 1.26925 1.49614 0
M  V30 5812 O 559.609 0.584573 2.08355 0
M  V30 5813 C 560.204 3.37866 0.251371 0
M  V30 5814 C 558.763 3.70233 0.678543 0
M  V30 5815 C 557.91 2.76683 -0.184925 0
M  V30 5816 H 560.861 1.48204 -0.567571 0
M  V30 5817 H 560.882 3.64908 1.07806 0
M  V30 5818 H 560.394 3.80988 -0.739581 0
M  V30 5819 H 558.495 3.32659 1.67835 0
M  V30 5820 H 558.608 4.76836 0.465251 0
M  V30 5821 H 556.972 2.52374 0.343465 0
M  V30 5822 H 557.755 3.22635 -1.1731 0
M  V30 5823 N 560.2 0.0768682 1.57412 0
M  V30 5824 C 561.163 -0.873949 2.11884 0
M  V30 5825 C 562.163 -1.22301 1.04398 0
M  V30 5826 O 563.353 -1.15545 1.30365 0
M  V30 5827 C 560.485 -2.17575 2.62438 0
M  V30 5828 H 561.678 -0.401278 2.97203 0
M  V30 5829 H 559.231 -0.171904 1.55352 0
M  V30 5830 H 559.966 -2.69368 1.80587 0
M  V30 5831 H 559.751 -1.93534 3.41009 0
M  V30 5832 H 561.241 -2.85631 3.04639 0
M  V30 5833 N 561.678 -1.56367 -0.196722 0
M  V30 5834 C 562.608 -1.97442 -1.24655 0
M  V30 5835 C 563.589 -0.846147 -1.47561 0
M  V30 5836 O 564.774 -1.11035 -1.59326 0
M  V30 5837 C 561.904 -2.31253 -2.59112 0
M  V30 5838 C 560.858 -3.46804 -2.50821 0
M  V30 5839 C 560.184 -3.66286 -3.89536 0
M  V30 5840 C 561.484 -4.8104 -2.03465 0
M  V30 5841 H 563.178 -2.85388 -0.905216 0
M  V30 5842 H 560.724 -1.37304 -0.434002 0
M  V30 5843 H 562.677 -2.58583 -3.32736 0
M  V30 5844 H 561.401 -1.40188 -2.94983 0
M  V30 5845 H 560.06 -3.19563 -1.79653 0
M  V30 5846 H 559.708 -2.72555 -4.22756 0
M  V30 5847 H 559.408 -4.4402 -3.84864 0
M  V30 5848 H 560.932 -3.9599 -4.64784 0
M  V30 5849 H 562.346 -5.07411 -2.66846 0
M  V30 5850 H 560.743 -5.62232 -2.09798 0
M  V30 5851 H 561.813 -4.74732 -0.98781 0
M  V30 5852 N 563.156 0.464375 -1.50603 0
M  V30 5853 C 564.103 1.56152 -1.69956 0
M  V30 5854 C 565.073 1.57046 -0.54091 0
M  V30 5855 O 566.258 1.74473 -0.772258 0
M  V30 5856 C 563.398 2.94079 -1.80586 0
M  V30 5857 C 562.511 3.02923 -3.07996 0
M  V30 5858 C 561.646 4.31806 -3.09382 0
M  V30 5859 C 560.685 4.34417 -4.31218 0
M  V30 5860 N 559.822 5.54782 -4.30304 0
M  V30 5861 H 564.662 1.38955 -2.6362 0
M  V30 5862 H 562.199 0.675482 -1.30674 0
M  V30 5863 H 564.157 3.74073 -1.8473 0
M  V30 5864 H 562.787 3.09896 -0.903556 0
M  V30 5865 H 561.839 2.1576 -3.13292 0
M  V30 5866 H 563.151 3.00712 -3.97962 0
M  V30 5867 H 562.305 5.20153 -3.12292 0
M  V30 5868 H 561.044 4.36636 -2.17257 0
M  V30 5869 H 560.049 3.44467 -4.28512 0
M  V30 5870 H 561.274 4.31273 -5.24576 0
M  V30 5871 H 559.22 5.60384 -3.41037 0
M  V30 5872 H 559.137 5.54339 -5.14047 0
M  V30 5873 H 560.405 6.45235 -4.3737 0
M  V30 5874 N 564.634 1.40294 0.718013 0
M  V30 5875 C 565.544 1.42678 1.86226 0
M  V30 5876 C 566.56 0.319655 1.71039 0
M  V30 5877 O 567.736 0.563852 1.93346 0
M  V30 5878 C 564.801 1.2852 3.21999 0
M  V30 5879 C 563.862 2.49354 3.49458 0
M  V30 5880 C 563.095 2.35863 4.78753 0
M  V30 5881 O 563.318 1.37114 5.53675 0
M  V30 5882 O 562.252 3.25189 5.06494 0
M  V30 5883 H 566.078 2.39167 1.87171 0
M  V30 5884 H 563.663 1.2159 0.868112 0
M  V30 5885 H 565.545 1.22824 4.03103 0
M  V30 5886 H 564.22 0.351359 3.21787 0
M  V30 5887 H 563.127 2.60628 2.68373 0
M  V30 5888 H 564.46 3.41491 3.54464 0
M  V30 5889 N 566.112 -0.949982 1.2575 0
M  V30 5890 C 567.337 -1.73503 1.13628 0
M  V30 5891 C 567.762 -1.85601 -0.30559 0
M  V30 5892 O 567.12 -1.33984 -1.22139 0
M  V30 5893 C 567.168 -3.1243 1.80055 0
M  V30 5894 O 566.272 -3.97916 1.08336 0
M  V30 5895 H 565.613 -0.532665 0.396439 0
M  V30 5896 H 568.143 -1.19043 1.66403 0
M  V30 5897 H 568.153 -3.62866 1.86527 0
M  V30 5898 H 566.828 -3.02941 2.84956 0
M  V30 5899 H 565.405 -3.56375 1.09777 0
M  V30 5900 N 567.59 -1.07411 -1.15328 0
M  V30 5901 C 568.52 -0.716472 -2.22236 0
M  V30 5902 C 569.501 0.296373 -1.67498 0
M  V30 5903 O 570.686 0.168989 -1.93463 0
M  V30 5904 C 567.816 -0.114142 -3.47112 0
M  V30 5905 C 566.77 -1.05421 -4.14814 0
M  V30 5906 C 566.096 -0.314604 -5.33774 0
M  V30 5907 C 567.396 -2.38808 -4.64508 0
M  V30 5908 H 569.09 -1.61029 -2.52408 0
M  V30 5909 H 566.636 -0.775702 -1.21321 0
M  V30 5910 H 568.589 0.148001 -4.2114 0
M  V30 5911 H 567.313 0.814755 -3.16274 0
M  V30 5912 H 565.972 -1.30128 -3.42728 0
M  V30 5913 H 565.62 0.617772 -4.99192 0
M  V30 5914 H 565.32 -0.941209 -5.80013 0
M  V30 5915 H 566.844 -0.0602747 -6.1057 0
M  V30 5916 H 568.258 -2.18424 -5.3006 0
M  V30 5917 H 566.655 -2.97069 -5.21412 0
M  V30 5918 H 567.725 -3.01067 -3.80114 0
M  V30 5919 N 569.068 1.32177 -0.85831 0
M  V30 5920 C 570 2.27688 -0.262835 0
M  V30 5921 C 571.013 1.52588 0.567513 0
M  V30 5922 O 572.202 1.74156 0.391407 0
M  V30 5923 C 569.302 3.32668 0.646937 0
M  V30 5924 C 568.475 4.37148 -0.148372 0
M  V30 5925 C 567.534 5.21686 0.687728 0
M  V30 5926 O 566.56 5.69074 0.119934 0
M  V30 5927 N 567.762 5.44892 2.00182 0
M  V30 5928 H 570.527 2.79426 -1.08356 0
M  V30 5929 H 568.088 1.45076 -0.718647 0
M  V30 5930 H 570.08 3.86134 1.2117 0
M  V30 5931 H 568.65 2.81061 1.36834 0
M  V30 5932 H 567.87 3.83915 -0.894572 0
M  V30 5933 H 569.158 5.04038 -0.694514 0
M  V30 5934 H 568.556 5.08128 2.4864 0
M  V30 5935 H 567.113 6.0134 2.51463 0
M  V30 5936 N 570.547 0.616602 1.45037 0
M  V30 5937 C 571.494 -0.0969439 2.30596 0
M  V30 5938 C 572.464 -0.851151 1.42635 0
M  V30 5939 O 573.649 -0.835092 1.71554 0
M  V30 5940 C 570.789 -1.08234 3.27688 0
M  V30 5941 C 569.902 -0.328072 4.30752 0
M  V30 5942 C 569.037 -1.30399 5.14946 0
M  V30 5943 C 568.076 -0.538049 6.09731 0
M  V30 5944 N 567.213 -1.46371 6.86673 0
M  V30 5945 H 572.053 0.63864 2.91076 0
M  V30 5946 H 569.59 0.326733 1.43425 0
M  V30 5947 H 571.548 -1.66688 3.82454 0
M  V30 5948 H 570.178 -1.78523 2.68941 0
M  V30 5949 H 569.23 0.372136 3.78575 0
M  V30 5950 H 570.542 0.269142 4.98073 0
M  V30 5951 H 569.696 -1.96032 5.74157 0
M  V30 5952 H 568.435 -1.93514 4.47665 0
M  V30 5953 H 567.44 0.131852 5.49642 0
M  V30 5954 H 568.665 0.0881732 6.79043 0
M  V30 5955 H 566.611 -2.08233 6.22073 0
M  V30 5956 H 566.528 -0.920152 7.50379 0
M  V30 5957 H 567.796 -2.10932 7.50418 0
M  V30 5958 N 572.025 -1.5352 0.356285 0
M  V30 5959 C 573.253 -2.05534 -0.237328 0
M  V30 5960 C 573.668 -1.23043 -1.43199 0
M  V30 5961 O 573.025 -0.268821 -1.80509 0
M  V30 5962 C 573.076 -3.55791 -0.639933 0
M  V30 5963 O 572.797 -4.35154 0.507233 0
M  V30 5964 C 574.298 -4.24027 -1.29292 0
M  V30 5965 H 571.518 -0.669585 -0.0435572 0
M  V30 5966 H 574.062 -1.97988 0.511963 0
M  V30 5967 H 572.217 -3.63518 -1.33915 0
M  V30 5968 H 572.631 -5.24178 0.18375 0
M  V30 5969 H 574.105 -5.30509 -1.52527 0
M  V30 5970 H 574.582 -3.77166 -2.25039 0
M  V30 5971 H 575.188 -4.20527 -0.63539 0
M  V30 5972 N 573.503 -0.0852151 -1.57369 0
M  V30 5973 C 574.731 0.58946 -1.98325 0
M  V30 5974 C 575.146 1.62333 -0.96403 0
M  V30 5975 O 574.503 1.82438 0.0476395 0
M  V30 5976 C 574.554 1.24604 -3.39347 0
M  V30 5977 O 574.275 0.253532 -4.37366 0
M  V30 5978 C 575.776 2.00726 -3.95252 0
M  V30 5979 H 572.996 0.158783 -0.651942 0
M  V30 5980 H 575.54 -0.161584 -2.03861 0
M  V30 5981 H 573.695 1.94808 -3.34856 0
M  V30 5982 H 574.109 0.726207 -5.19448 0
M  V30 5983 H 575.583 2.42039 -4.96106 0
M  V30 5984 H 576.06 2.86919 -3.32527 0
M  V30 5985 H 576.666 1.3536 -4.03185 0
M  V30 5986 N 574.981 1.5647 0.188427 0
M  V30 5987 C 576.23 1.80207 0.905995 0
M  V30 5988 C 576.543 0.659579 1.84144 0
M  V30 5989 O 577.749 0.781431 2.60011 0
M  V30 5990 C 576.205 3.19255 1.66145 0
M  V30 5991 C 575.813 4.41324 0.770504 0
M  V30 5992 C 577.557 3.52298 2.36826 0
M  V30 5993 C 575.464 5.71394 1.52521 0
M  V30 5994 H 574.394 0.671953 0.342045 0
M  V30 5995 H 577.045 1.82808 0.159164 0
M  V30 5996 H 575.427 3.10922 2.45242 0
M  V30 5997 H 576.601 4.60797 0.0177261 0
M  V30 5998 H 574.916 4.16035 0.174199 0
M  V30 5999 H 577.513 4.46715 2.93854 0
M  V30 6000 H 577.856 2.76359 3.11338 0
M  V30 6001 H 578.389 3.62108 1.6469 0
M  V30 6002 H 575.128 6.50316 0.82275 0
M  V30 6003 H 574.648 5.55928 2.25175 0
M  V30 6004 H 576.327 6.12747 2.07725 0
M  V30 6005 O 576.498 -0.333583 1.58017 0
M  V30 6006 H 577.189 -0.982643 1.66925 0
M  V30 END ATOM
M  V30 BEGIN BOND
M  V30 END BOND
M  V30 END CTAB
M  END
$$$$
