drugbank_target|Q9Y257 Potassium channel subfamily K member 6 (DB00308; DB00908)
 OpenBabel12092119373D

  0  0  0     0  0            999 V3000
M  V30 BEGIN CTAB
M  V30 COUNTS 4801 4864 0 0 0
M  V30 BEGIN ATOM
M  V30 1 H -0.908 1.98254 -0.117106 0
M  V30 2 N 0 1.576 0 0
M  V30 3 C 0.933 2.03868 1.02534 0
M  V30 4 C 1.911 0.928543 1.3348 0
M  V30 5 O 3.095 1.19667 1.45644 0
M  V30 6 C 0.222 2.43627 2.35294 0
M  V30 7 C -0.732 3.65373 2.2001 0
M  V30 8 S 0.101 5.13292 1.52614 0
M  V30 9 C 1.257 5.56322 2.86805 0
M  V30 10 H 1.49 2.90518 0.631377 0
M  V30 11 H -0.977 1.52953 0.210867 0
M  V30 12 H 0.981 2.67203 3.11629 0
M  V30 13 H -0.358 1.57376 2.7183 0
M  V30 14 H -1.165 3.90944 3.18086 0
M  V30 15 H -1.563 3.418 1.51819 0
M  V30 16 H 0.729 5.58782 3.83104 0
M  V30 17 H 1.672 6.56266 2.65933 0
M  V30 18 H 2.08 4.83886 2.90714 0
M  V30 19 N 1.4781 -0.272755 1.55222 0
M  V30 20 C 2.8941 -0.619959 1.47067 0
M  V30 21 C 3.0941 -1.895 0.684978 0
M  V30 22 O 2.1501 -2.51675 0.203931 0
M  V30 23 C 3.4631 -0.746693 2.91282 0
M  V30 24 C 5.0111 -0.840731 3.01497 0
M  V30 25 C 5.4861 -0.99924 4.46967 0
M  V30 26 N 6.9771 -1.06476 4.50796 0
M  V30 27 C 7.7121 -1.20621 5.6057 0
M  V30 28 N 7.2081 -1.31483 6.80209 0
M  V30 29 N 9.0011 -1.23733 5.48312 0
M  V30 30 H 1.1521 0.564606 2.04758 0
M  V30 31 H 3.4151 0.191177 0.928523 0
M  V30 32 H 3.1211 0.119753 3.51496 0
M  V30 33 H 2.9951 -1.6269 3.40311 0
M  V30 34 H 5.3821 -1.69764 2.41379 0
M  V30 35 H 5.4631 0.0640874 2.5572 0
M  V30 36 H 5.1071 -0.146984 5.07687 0
M  V30 37 H 5.0371 -1.91871 4.90401 0
M  V30 38 H 7.5281 -0.993196 3.64615 0
M  V30 39 H 7.8411 -1.42111 7.59621 0
M  V30 40 H 6.1861 -1.28487 6.8302 0
M  V30 41 H 9.3771 -1.14877 4.53785 0
M  V30 42 H 9.5501 -1.34412 6.33906 0
M  V30 43 N 2.9562 -1.48159 -0.537278 0
M  V30 44 C 4.3722 -1.34118 -0.865129 0
M  V30 45 C 4.5722 -0.346678 -1.98495 0
M  V30 46 O 3.6282 0.234715 -2.51407 0
M  V30 47 C 4.9412 -2.73963 -1.23954 0
M  V30 48 C 6.4892 -2.82397 -1.34984 0
M  V30 49 C 6.9642 -4.22928 -1.75772 0
M  V30 50 N 8.4552 -4.25566 -1.82887 0
M  V30 51 C 9.1902 -5.31235 -2.15817 0
M  V30 52 N 8.6862 -6.47189 -2.47222 0
M  V30 53 N 10.4792 -5.18624 -2.16761 0
M  V30 54 H 2.6302 -2.1144 0.201715 0
M  V30 55 H 4.8932 -0.947598 0.0275949 0
M  V30 56 H 4.5992 -3.48264 -0.490381 0
M  V30 57 H 4.4732 -3.0702 -2.19132 0
M  V30 58 H 6.8602 -2.08356 -2.08978 0
M  V30 59 H 6.9412 -2.5297 -0.379448 0
M  V30 60 H 6.5852 -4.97482 -1.02341 0
M  V30 61 H 6.5152 -4.49794 -2.73848 0
M  V30 62 H 9.0062 -3.41924 -1.60924 0
M  V30 63 H 9.3192 -7.23564 -2.71433 0
M  V30 64 H 7.6642 -6.50476 -2.44757 0
M  V30 65 H 10.8552 -4.27056 -1.91679 0
M  V30 66 H 11.0282 -6.01078 -2.42093 0
M  V30 67 N 4.4343 0.785586 -1.36625 0
M  V30 68 C 5.6823 1.54057 -1.30808 0
M  V30 69 C 6.0033 1.94683 0.111157 0
M  V30 70 O 5.2733 1.65241 1.05224 0
M  V30 71 H 3.8533 0.571354 -0.481211 0
M  V30 72 H 6.5153 0.935821 -1.70963 0
M  V30 73 H 5.6113 2.44637 -1.93801 0
M  V30 74 N 5.9124 1.20967 1.01018 0
M  V30 75 C 6.8754 0.965918 2.07853 0
M  V30 76 C 7.8754 -0.0610545 1.60684 0
M  V30 77 O 9.0654 0.175681 1.73312 0
M  V30 78 C 6.1974 0.455513 3.37843 0
M  V30 79 H 7.3904 1.91365 2.3091 0
M  V30 80 H 4.9434 1.02594 1.17916 0
M  V30 81 H 5.6784 -0.497381 3.20463 0
M  V30 82 H 5.4634 1.19622 3.73407 0
M  V30 83 H 6.9534 0.304667 4.16487 0
M  V30 84 N 7.3905 -1.2043 1.01659 0
M  V30 85 C 8.3205 -2.25466 0.607226 0
M  V30 86 C 9.3015 -1.65853 -0.377716 0
M  V30 87 O 10.4865 -1.92409 -0.263149 0
M  V30 88 C 7.6165 -3.47256 -0.0552949 0
M  V30 89 C 6.5705 -4.19462 0.850632 0
M  V30 90 C 5.8965 -5.34673 0.0538859 0
M  V30 91 C 7.1965 -4.75603 2.15868 0
M  V30 92 H 8.8905 -2.59962 1.48526 0
M  V30 93 H 6.4365 -1.2496 0.715605 0
M  V30 94 H 8.3895 -4.19917 -0.353233 0
M  V30 95 H 7.1135 -3.11924 -0.968045 0
M  V30 96 H 5.7725 -3.48667 1.13257 0
M  V30 97 H 5.4205 -4.95585 -0.860514 0
M  V30 98 H 5.1205 -5.83913 0.657192 0
M  V30 99 H 6.6445 -6.10138 -0.237598 0
M  V30 100 H 8.0585 -5.40083 1.92311 0
M  V30 101 H 6.4555 -5.3528 2.71284 0
M  V30 102 H 7.5255 -3.94346 2.82169 0
M  V30 103 N 8.8686 -0.792821 -1.36206 0
M  V30 104 C 9.7986 -0.207853 -2.32573 0
M  V30 105 C 10.7796 0.659055 -1.56813 0
M  V30 106 O 11.9646 0.592176 -1.84951 0
M  V30 107 C 9.0946 0.655449 -3.41059 0
M  V30 108 C 8.0486 -0.111842 -4.27854 0
M  V30 109 C 7.3746 0.872274 -5.27537 0
M  V30 110 C 8.6746 -1.30299 -5.05786 0
M  V30 111 H 10.3686 -1.01294 -2.81744 0
M  V30 112 H 7.9146 -0.48854 -1.3546 0
M  V30 113 H 9.8676 1.07464 -4.07467 0
M  V30 114 H 8.5916 1.49328 -2.90463 0
M  V30 115 H 7.2506 -0.512053 -3.63006 0
M  V30 116 H 6.8986 1.70523 -4.73214 0
M  V30 117 H 6.5986 0.363291 -5.86476 0
M  V30 118 H 8.1226 1.28996 -5.96818 0
M  V30 119 H 9.5366 -0.959379 -5.65216 0
M  V30 120 H 7.9336 -1.7455 -5.74154 0
M  V30 121 H 9.0036 -2.09663 -4.37229 0
M  V30 122 N 10.3467 1.47872 -0.545128 0
M  V30 123 C 11.3097 2.28337 0.198717 0
M  V30 124 C 12.3097 1.36255 0.853888 0
M  V30 125 O 13.4997 1.59003 0.711606 0
M  V30 126 C 10.6317 3.15585 1.28915 0
M  V30 127 H 11.8247 2.95567 -0.507941 0
M  V30 128 H 9.3777 1.53362 -0.301616 0
M  V30 129 H 10.1127 2.53019 2.02859 0
M  V30 130 H 9.8977 3.83337 0.824309 0
M  V30 131 H 11.3877 3.76243 1.81194 0
M  V30 132 N 11.8248 0.280983 1.55075 0
M  V30 133 C 13.0728 -0.333455 1.9933 0
M  V30 134 C 13.3938 -1.55937 1.17085 0
M  V30 135 O 12.6638 -1.94143 0.261805 0
M  V30 136 H 11.2438 -0.126197 0.736263 0
M  V30 137 H 13.9058 0.387678 1.91005 0
M  V30 138 H 13.0018 -0.619292 3.05894 0
M  V30 139 N 13.3029 -1.57598 0.00835791 0
M  V30 140 C 14.2659 -2.07884 -0.965242 0
M  V30 141 C 15.2659 -0.989825 -1.26725 0
M  V30 142 O 16.4559 -1.25218 -1.21104 0
M  V30 143 C 13.5879 -2.52731 -2.28779 0
M  V30 144 H 14.7809 -2.95178 -0.530112 0
M  V30 145 H 12.3339 -1.54458 -0.239283 0
M  V30 146 H 13.0689 -1.68705 -2.76964 0
M  V30 147 H 12.8539 -3.32272 -2.08177 0
M  V30 148 H 14.3439 -2.91933 -2.98605 0
M  V30 149 N 14.781 0.264519 -1.55364 0
M  V30 150 C 15.711 1.33121 -1.91836 0
M  V30 151 C 16.692 1.51101 -0.781192 0
M  V30 152 O 17.877 1.64003 -1.04003 0
M  V30 153 C 15.007 2.68921 -2.19769 0
M  V30 154 C 13.961 2.65661 -3.35571 0
M  V30 155 C 13.287 4.05093 -3.49004 0
M  V30 156 C 14.587 2.24187 -4.71739 0
M  V30 157 H 16.281 1.02844 -2.81182 0
M  V30 158 H 13.827 0.493286 -1.35287 0
M  V30 159 H 15.78 3.43663 -2.43872 0
M  V30 160 H 14.504 3.00799 -1.27231 0
M  V30 161 H 13.163 1.93377 -3.1145 0
M  V30 162 H 12.811 4.34206 -2.53917 0
M  V30 163 H 12.511 4.03804 -4.26868 0
M  V30 164 H 14.035 4.81561 -3.75408 0
M  V30 165 H 15.449 2.88654 -4.9533 0
M  V30 166 H 13.846 2.34044 -5.52579 0
M  V30 167 H 14.916 1.19327 -4.69988 0
M  V30 168 N 16.2591 1.48442 0.529413 0
M  V30 169 C 17.2221 1.62524 1.61612 0
M  V30 170 C 18.2221 0.498509 1.52877 0
M  V30 171 O 19.4121 0.76431 1.56537 0
M  V30 172 C 16.5441 1.59597 3.01233 0
M  V30 173 H 17.7371 2.59423 1.50465 0
M  V30 174 H 15.2901 1.37047 0.751514 0
M  V30 175 H 16.0251 0.641781 3.17886 0
M  V30 176 H 15.8101 2.41397 3.08982 0
M  V30 177 H 17.3001 1.72646 3.80241 0
M  V30 178 N 17.7372 -0.778329 1.37039 0
M  V30 179 C 18.7002 -1.87301 1.32102 0
M  V30 180 C 19.7002 -1.59198 0.226405 0
M  V30 181 O 20.8902 -1.67403 0.481861 0
M  V30 182 C 18.0222 -3.24309 1.05055 0
M  V30 183 H 19.2152 -1.93093 2.29467 0
M  V30 184 H 16.7682 -0.977358 1.21973 0
M  V30 185 H 17.5032 -3.24196 0.0819373 0
M  V30 186 H 17.2882 -3.46098 1.84279 0
M  V30 187 H 18.7782 -4.04382 1.04234 0
M  V30 188 N 19.2153 -1.21501 -1.00376 0
M  V30 189 C 20.4453 -1.05746 -1.77486 0
M  V30 190 C 20.8533 0.395655 -1.85017 0
M  V30 191 O 20.1963 1.28626 -1.31152 0
M  V30 192 C 20.2583 -1.58092 -3.22873 0
M  V30 193 C 19.9223 -3.06568 -3.38917 0
M  V30 194 C 20.9193 -4.04106 -3.271 0
M  V30 195 C 18.6043 -3.45799 -3.64319 0
M  V30 196 C 20.5983 -5.38862 -3.40451 0
M  V30 197 C 18.2853 -4.80707 -3.77311 0
M  V30 198 C 19.2833 -5.77047 -3.65384 0
M  V30 199 O 18.9713 -7.09507 -3.77961 0
M  V30 200 H 18.7033 -0.371778 -0.564586 0
M  V30 201 H 21.2573 -1.61319 -1.27143 0
M  V30 202 H 19.4873 -0.969163 -3.74358 0
M  V30 203 H 21.1763 -1.38162 -3.81662 0
M  V30 204 H 21.9423 -3.75141 -3.07399 0
M  V30 205 H 17.8213 -2.71344 -3.72684 0
M  V30 206 H 21.3653 -6.14041 -3.31058 0
M  V30 207 H 17.2623 -5.09357 -3.96517 0
M  V30 208 H 18.0303 -7.16935 -3.94901 0
M  V30 209 N 20.6934 1.19889 -1.02296 0
M  V30 210 C 21.6564 2.21116 -0.603351 0
M  V30 211 C 22.6564 1.5738 0.329884 0
M  V30 212 O 23.8464 1.73802 0.117702 0
M  V30 213 C 20.9784 3.40696 0.117992 0
M  V30 214 H 22.1714 2.59754 -1.49893 0
M  V30 215 H 19.7244 1.33463 -0.813468 0
M  V30 216 H 20.4594 3.07569 1.0282 0
M  V30 217 H 20.2444 3.88188 -0.552511 0
M  V30 218 H 21.7344 4.15692 0.398696 0
M  V30 219 N 22.1715 0.800033 1.35784 0
M  V30 220 C 23.1345 0.211565 2.28221 0
M  V30 221 C 24.1345 -0.59728 1.49296 0
M  V30 222 O 25.3245 -0.416721 1.69142 0
M  V30 223 C 22.4565 -0.705846 3.33513 0
M  V30 224 H 23.6495 1.02677 2.81776 0
M  V30 225 H 21.2025 0.570211 1.45528 0
M  V30 226 H 21.9375 -1.54498 2.85133 0
M  V30 227 H 21.7225 -0.127655 3.91892 0
M  V30 228 H 23.2125 -1.11211 4.02519 0
M  V30 229 N 23.6496 -1.47581 0.552962 0
M  V30 230 C 24.8796 -2.06575 0.0320091 0
M  V30 231 C 25.2876 -1.4067 -1.26525 0
M  V30 232 O 24.6306 -0.495808 -1.76883 0
M  V30 233 C 24.6926 -3.58705 -0.238913 0
M  V30 234 C 24.3566 -4.46625 0.968272 0
M  V30 235 C 25.3536 -4.85 1.87274 0
M  V30 236 C 23.0386 -4.88201 1.18175 0
M  V30 237 C 25.0326 -5.63745 2.9744 0
M  V30 238 C 22.7196 -5.66712 2.28651 0
M  V30 239 C 23.7176 -6.04394 3.18114 0
M  V30 240 O 23.4056 -6.81324 4.26676 0
M  V30 241 H 23.1376 -0.674763 0.0408689 0
M  V30 242 H 25.6916 -1.90634 0.764719 0
M  V30 243 H 23.9216 -3.72844 -1.02588 0
M  V30 244 H 25.6106 -3.99735 -0.704731 0
M  V30 245 H 26.3766 -4.53482 1.71984 0
M  V30 246 H 22.2556 -4.58339 0.494593 0
M  V30 247 H 25.7996 -5.93077 3.67296 0
M  V30 248 H 21.6966 -5.97642 2.43915 0
M  V30 249 H 22.4646 -6.99712 4.24671 0
M  V30 250 N 25.1277 -0.289203 -1.54924 0
M  V30 251 C 26.0577 0.58549 -2.2604 0
M  V30 252 C 27.0387 1.14753 -1.25562 0
M  V30 253 O 28.2237 1.17906 -1.54311 0
M  V30 254 C 25.3537 1.76305 -2.99222 0
M  V30 255 C 24.3077 1.33191 -4.06748 0
M  V30 256 C 23.6337 2.5937 -4.6758 0
M  V30 257 C 24.9337 0.471775 -5.20165 0
M  V30 258 H 26.6277 -0.00763532 -2.99399 0
M  V30 259 H 24.1737 -0.00511229 -1.43999 0
M  V30 260 H 26.1267 2.38097 -3.47689 0
M  V30 261 H 24.8507 2.38223 -2.23422 0
M  V30 262 H 23.5097 0.737121 -3.59113 0
M  V30 263 H 23.1577 3.19576 -3.88433 0
M  V30 264 H 22.8577 2.31228 -5.40192 0
M  V30 265 H 24.3817 3.21985 -5.18804 0
M  V30 266 H 25.7957 0.995056 -5.64599 0
M  V30 267 H 24.1927 0.284639 -5.99425 0
M  V30 268 H 25.2627 -0.506041 -4.82252 0
M  V30 269 N 26.6058 1.57591 -0.0167156 0
M  V30 270 C 27.8518 1.91567 0.665582 0
M  V30 271 C 28.1848 0.892298 1.72487 0
M  V30 272 O 27.4598 -0.0867127 1.94307 0
M  V30 273 C 27.7428 3.36069 1.29342 0
M  V30 274 C 27.5958 4.49135 0.244541 0
M  V30 275 C 28.9148 3.803 2.21495 0
M  V30 276 H 26.0338 0.69666 0.240488 0
M  V30 277 H 28.6758 1.89866 -0.0714356 0
M  V30 278 H 26.8258 3.3765 1.92158 0
M  V30 279 H 28.4978 4.59689 -0.385228 0
M  V30 280 H 26.7408 4.3165 -0.431379 0
M  V30 281 H 27.4118 5.47242 0.723207 0
M  V30 282 H 29.8878 3.80377 1.68678 0
M  V30 283 H 28.7638 4.82127 2.62382 0
M  V30 284 H 29.0248 3.15104 3.101 0
M  V30 285 N 28.0839 -0.256276 1.55502 0
M  V30 286 C 29.0139 -1.32102 1.92539 0
M  V30 287 C 29.9949 -1.50684 0.789194 0
M  V30 288 O 31.1799 -1.63449 1.04872 0
M  V30 289 C 28.3099 -2.67752 2.21192 0
M  V30 290 C 27.2639 -2.63878 3.36975 0
M  V30 291 C 26.5899 -4.03236 3.51147 0
M  V30 292 C 27.8899 -2.21682 4.72921 0
M  V30 293 H 29.5839 -1.01351 2.81724 0
M  V30 294 H 27.1299 -0.486105 1.35547 0
M  V30 295 H 29.0829 -3.42365 2.45691 0
M  V30 296 H 27.8069 -3.0012 1.28824 0
M  V30 297 H 26.4659 -1.91722 3.12471 0
M  V30 298 H 26.1139 -4.32854 2.56216 0
M  V30 299 H 25.8139 -4.01535 4.29003 0
M  V30 300 H 27.3379 -4.79563 3.77957 0
M  V30 301 H 28.7519 -2.86023 4.96854 0
M  V30 302 H 27.1489 -2.3111 5.53812 0
M  V30 303 H 28.2189 -1.16833 4.70615 0
M  V30 304 N 29.562 -1.4872 -0.521534 0
M  V30 305 C 30.81 -1.56857 -1.27437 0
M  V30 306 C 31.131 -0.247982 -1.93417 0
M  V30 307 O 30.401 0.731151 -1.81744 0
M  V30 308 H 28.981 -0.577885 -0.473347 0
M  V30 309 H 31.643 -1.85233 -0.606205 0
M  V30 310 H 30.739 -2.35402 -2.0492 0
M  V30 311 N 31.0401 0.771051 -1.3745 0
M  V30 312 C 32.0031 1.86598 -1.33093 0
M  V30 313 C 33.0031 1.59076 -0.234845 0
M  V30 314 O 34.1931 1.67145 -0.490732 0
M  V30 315 C 31.3251 3.23747 -1.06773 0
M  V30 316 H 32.5181 1.91873 -2.30488 0
M  V30 317 H 30.0711 0.970876 -1.2249 0
M  V30 318 H 30.8061 3.24148 -0.099129 0
M  V30 319 H 30.5911 3.45115 -1.86112 0
M  V30 320 H 32.0811 4.03824 -1.06377 0
M  V30 321 N 32.5182 1.22032 0.997298 0
M  V30 322 C 33.4482 1.01065 2.10495 0
M  V30 323 C 34.4292 -0.0669542 1.69968 0
M  V30 324 O 35.6142 0.0943987 1.9397 0
M  V30 325 C 32.7442 0.582874 3.42374 0
M  V30 326 C 31.6982 1.60592 3.96729 0
M  V30 327 C 31.0242 1.03412 5.24605 0
M  V30 328 C 32.3242 2.99478 4.27914 0
M  V30 329 H 34.0182 1.93708 2.28292 0
M  V30 330 H 31.5642 0.932761 1.09707 0
M  V30 331 H 33.5172 0.423332 4.19268 0
M  V30 332 H 32.2412 -0.379213 3.24391 0
M  V30 333 H 30.9002 1.75316 3.21963 0
M  V30 334 H 30.5482 0.063518 5.0296 0
M  V30 335 H 30.2482 1.71754 5.61938 0
M  V30 336 H 31.7722 0.886066 6.04137 0
M  V30 337 H 33.1862 2.88153 4.95622 0
M  V30 338 H 31.5832 3.64903 4.76409 0
M  V30 339 H 32.6532 3.49742 3.3587 0
M  V30 340 N 33.9963 -1.19345 1.0293 0
M  V30 341 C 34.9263 -2.2481 0.631105 0
M  V30 342 C 35.9073 -1.66245 -0.360104 0
M  V30 343 O 37.0923 -1.92677 -0.242726 0
M  V30 344 C 34.2223 -3.47295 -0.0184607 0
M  V30 345 C 33.1763 -4.18536 0.895073 0
M  V30 346 C 32.5023 -5.34586 0.110592 0
M  V30 347 C 33.8023 -4.73287 2.209 0
M  V30 348 H 35.4963 -2.58372 1.51275 0
M  V30 349 H 33.0423 -1.24194 0.728818 0
M  V30 350 H 34.9953 -4.20268 -0.308675 0
M  V30 351 H 33.7193 -3.12933 -0.934907 0
M  V30 352 H 32.3783 -3.47446 1.16949 0
M  V30 353 H 32.0263 -4.96469 -0.807902 0
M  V30 354 H 31.7263 -5.83183 0.719087 0
M  V30 355 H 33.2503 -6.10355 -0.172871 0
M  V30 356 H 34.6643 -5.38013 1.98028 0
M  V30 357 H 33.0613 -5.32373 2.76946 0
M  V30 358 H 34.1313 -3.91331 2.86336 0
M  V30 359 N 35.4744 -0.807222 -1.35358 0
M  V30 360 C 36.7204 -0.388463 -1.99045 0
M  V30 361 C 37.0534 1.04184 -1.63888 0
M  V30 362 O 36.3284 1.72292 -0.902535 0
M  V30 363 C 36.6114 -0.572783 -3.55515 0
M  V30 364 C 36.4644 -2.04807 -4.00468 0
M  V30 365 C 37.7834 0.00114064 -4.401 0
M  V30 366 H 34.9024 -0.142619 -0.723069 0
M  V30 367 H 37.5444 -1.01687 -1.60498 0
M  V30 368 H 35.6944 -0.0378425 -3.88482 0
M  V30 369 H 37.3664 -2.64544 -3.77908 0
M  V30 370 H 35.6094 -2.54427 -3.51353 0
M  V30 371 H 36.2804 -2.12792 -5.09337 0
M  V30 372 H 38.7564 -0.455716 -4.13597 0
M  V30 373 H 37.6324 -0.157737 -5.48673 0
M  V30 374 H 37.8934 1.09488 -4.28328 0
M  V30 375 N 36.9525 1.47285 -0.560781 0
M  V30 376 C 37.9155 2.28535 0.174488 0
M  V30 377 C 38.9155 1.37153 0.839388 0
M  V30 378 O 40.1055 1.59748 0.694702 0
M  V30 379 C 37.2375 3.16934 1.25561 0
M  V30 380 H 38.4305 2.95012 -0.539262 0
M  V30 381 H 35.9835 1.53034 -0.317865 0
M  V30 382 H 36.7185 2.55157 2.00164 0
M  V30 383 H 36.5035 3.8419 0.783604 0
M  V30 384 H 37.9935 3.78143 1.77193 0
M  V30 385 N 38.4306 0.297415 1.54768 0
M  V30 386 C 39.8466 -0.0560823 1.59501 0
M  V30 387 C 40.0466 -1.52725 1.31444 0
M  V30 388 O 39.1026 -2.27947 1.08611 0
M  V30 389 C 40.4156 0.338631 2.98787 0
M  V30 390 C 41.9636 0.287097 3.11681 0
M  V30 391 C 42.4386 0.656579 4.53269 0
M  V30 392 N 43.9296 0.608977 4.59179 0
M  V30 393 C 44.6646 0.867385 5.66802 0
M  V30 394 N 44.1606 1.19157 6.82476 0
M  V30 395 N 45.9536 0.794687 5.56454 0
M  V30 396 H 38.1046 1.25624 1.71267 0
M  V30 397 H 40.3676 0.509057 0.799728 0
M  V30 398 H 40.0736 1.36263 3.2423 0
M  V30 399 H 39.9476 -0.309508 3.75928 0
M  V30 400 H 42.3346 -0.727649 2.85988 0
M  V30 401 H 42.4156 0.969809 2.36703 0
M  V30 402 H 42.0596 1.66912 4.7969 0
M  V30 403 H 41.9896 -0.0481649 5.26578 0
M  V30 404 H 44.4806 0.369198 3.76092 0
M  V30 405 H 44.7936 1.37482 7.60473 0
M  V30 406 H 43.1386 1.22958 6.84037 0
M  V30 407 H 46.3296 0.541098 4.64962 0
M  V30 408 H 46.5026 0.999445 6.40246 0
M  V30 409 N 39.9087 -1.5758 0.0250728 0
M  V30 410 C 40.8387 -2.13007 -0.956575 0
M  V30 411 C 41.8197 -1.0452 -1.342 0
M  V30 412 O 43.0047 -1.32332 -1.42133 0
M  V30 413 C 40.1347 -2.65386 -2.24026 0
M  V30 414 C 39.0887 -3.78623 -1.99571 0
M  V30 415 C 38.4147 -4.17414 -3.3417 0
M  V30 416 C 39.7147 -5.04867 -1.33814 0
M  V30 417 H 41.4087 -2.9528 -0.494991 0
M  V30 418 H 38.9547 -1.42042 -0.236651 0
M  V30 419 H 40.9077 -3.02794 -2.93076 0
M  V30 420 H 39.6317 -1.80268 -2.72343 0
M  V30 421 H 38.2907 -3.41646 -1.32941 0
M  V30 422 H 37.9387 -3.29284 -3.80238 0
M  V30 423 H 37.6387 -4.93719 -3.18615 0
M  V30 424 H 39.1627 -4.57402 -4.04495 0
M  V30 425 H 40.5767 -5.39888 -1.92857 0
M  V30 426 H 38.9737 -5.86144 -1.28669 0
M  V30 427 H 40.0437 -4.83904 -0.310561 0
M  V30 428 N 41.3868 0.248026 -1.55636 0
M  V30 429 C 42.2968 1.32859 -1.93354 0
M  V30 430 C 43.3128 1.52719 -0.833838 0
M  V30 431 O 44.4888 1.66363 -1.13513 0
M  V30 432 C 41.5538 2.66337 -2.21958 0
M  V30 433 C 40.6148 2.55008 -3.45354 0
M  V30 434 C 39.8478 3.82121 -3.72584 0
M  V30 435 O 40.0708 4.83951 -3.01907 0
M  V30 436 O 39.0048 3.80822 -4.6611 0
M  V30 437 H 42.8308 1.03862 -2.85388 0
M  V30 438 H 40.4158 0.448686 -1.42503 0
M  V30 439 H 42.2978 3.45216 -2.4167 0
M  V30 440 H 40.9728 2.95068 -1.33103 0
M  V30 441 H 39.8798 1.7442 -3.30951 0
M  V30 442 H 41.2128 2.31222 -4.34508 0
M  V30 443 N 42.8649 1.48995 0.513639 0
M  V30 444 C 44.1129 1.57531 1.26604 0
M  V30 445 C 44.4339 0.258236 1.93283 0
M  V30 446 O 43.7039 -0.721502 1.8213 0
M  V30 447 H 42.2839 0.580387 0.470276 0
M  V30 448 H 44.9459 1.85552 0.596373 0
M  V30 449 H 44.0419 2.36486 2.03669 0
M  V30 450 N 44.343 -0.763751 1.37857 0
M  V30 451 C 45.754 -1.3405 1.29952 0
M  V30 452 C 46.105 -1.96138 -0.0492898 0
M  V30 453 O 45.23 -1.94372 -0.951239 0
M  V30 454 C 45.825 -2.43729 2.35333 0
M  V30 455 C 44.384 -2.97151 2.31037 0
M  V30 456 C 43.531 -1.70438 2.18738 0
M  V30 457 H 46.482 -0.563396 1.48363 0
M  V30 458 H 46.503 -3.23412 2.00462 0
M  V30 459 H 46.015 -1.9851 3.33489 0
M  V30 460 H 44.116 -3.46724 1.3643 0
M  V30 461 H 44.229 -3.52221 3.24772 0
M  V30 462 H 42.593 -1.93673 1.65418 0
M  V30 463 H 43.376 -1.27312 3.18821 0
M  V30 464 N 45.8211 -1.22559 -0.990812 0
M  V30 465 C 46.7711 -0.964807 -2.0658 0
M  V30 466 C 47.7551 0.0853472 -1.60673 0
M  V30 467 O 48.9471 -0.125443 -1.76555 0
M  V30 468 C 46.0761 -0.546707 -3.38919 0
M  V30 469 C 45.1621 -1.6317 -3.91454 0
M  V30 470 N 45.5531 -2.85985 -4.17189 0
M  V30 471 C 43.8511 -1.50387 -4.19881 0
M  V30 472 C 44.5521 -3.56159 -4.59919 0
M  V30 473 N 43.5281 -2.83637 -4.63736 0
M  V30 474 H 47.3301 -1.89769 -2.24421 0
M  V30 475 H 44.8441 -1.12343 -1.17273 0
M  V30 476 H 46.8411 -0.34119 -4.15502 0
M  V30 477 H 45.5011 0.379254 -3.22478 0
M  V30 478 H 46.5121 -3.22392 -4.05319 0
M  V30 479 H 43.1891 -0.644254 -4.12499 0
M  V30 480 H 44.5791 -4.6139 -4.88435 0
M  V30 481 N 47.2992 1.18797 -1.03562 0
M  V30 482 C 48.2092 2.25913 -0.632505 0
M  V30 483 C 49.2252 1.70668 0.338882 0
M  V30 484 O 50.4012 2.00453 0.195076 0
M  V30 485 C 47.4662 3.467 0.00350942 0
M  V30 486 C 46.5272 4.17098 -1.01624 0
M  V30 487 C 45.7602 5.32119 -0.410478 0
M  V30 488 O 45.9832 5.64976 0.784725 0
M  V30 489 O 44.9172 5.9107 -1.13667 0
M  V30 490 H 48.7432 2.62648 -1.52478 0
M  V30 491 H 46.3282 1.25781 -0.806195 0
M  V30 492 H 48.2102 4.19878 0.35781 0
M  V30 493 H 46.8852 3.11798 0.869686 0
M  V30 494 H 45.7922 3.4601 -1.42224 0
M  V30 495 H 47.1252 4.55987 -1.85301 0
M  V30 496 N 48.7773 0.814389 1.34928 0
M  V30 497 C 49.7403 0.235759 2.27984 0
M  V30 498 C 50.7403 -0.581412 1.49921 0
M  V30 499 O 51.9303 -0.398758 1.69575 0
M  V30 500 C 49.0623 -0.670433 3.34242 0
M  V30 501 H 50.2553 1.05659 2.80671 0
M  V30 502 H 47.8083 0.585614 1.44915 0
M  V30 503 H 48.5433 -1.51466 2.86755 0
M  V30 504 H 48.3283 -0.0860822 3.92005 0
M  V30 505 H 49.8183 -1.06935 4.03676 0
M  V30 506 N 50.2554 -1.46986 0.568584 0
M  V30 507 C 51.6714 -1.57946 0.229189 0
M  V30 508 C 51.8714 -1.56567 -1.26843 0
M  V30 509 O 50.9274 -1.47511 -2.04931 0
M  V30 510 C 52.2404 -2.87963 0.865909 0
M  V30 511 C 53.7884 -3.01568 0.838188 0
M  V30 512 C 54.2634 -4.34301 1.45419 0
M  V30 513 N 55.7544 -4.40965 1.41788 0
M  V30 514 C 56.4894 -5.42256 1.86403 0
M  V30 515 N 55.9854 -6.50297 2.38926 0
M  V30 516 N 57.7784 -5.3337 1.77405 0
M  V30 517 H 49.9294 -1.46126 1.54146 0
M  V30 518 H 52.1924 -0.696156 0.643484 0
M  V30 519 H 51.8984 -2.94742 1.91886 0
M  V30 520 H 51.7724 -3.75423 0.365687 0
M  V30 521 H 54.1594 -2.94379 -0.206106 0
M  V30 522 H 54.2404 -2.1562 1.37629 0
M  V30 523 H 53.8844 -4.42247 2.49761 0
M  V30 524 H 53.8144 -5.19 0.891435 0
M  V30 525 H 56.3054 -3.63484 1.03381 0
M  V30 526 H 56.6184 -7.23777 2.70863 0
M  V30 527 H 54.9634 -6.51155 2.42944 0
M  V30 528 H 58.1544 -4.47865 1.3614 0
M  V30 529 H 58.3274 -6.12169 2.12492 0
M  V30 530 N 51.7335 -0.305618 -1.54608 0
M  V30 531 C 52.6635 0.561482 -2.26649 0
M  V30 532 C 53.6445 1.13415 -1.26772 0
M  V30 533 O 54.8295 1.16262 -1.55553 0
M  V30 534 C 51.9595 1.73122 -3.01075 0
M  V30 535 C 50.9135 1.2887 -4.08138 0
M  V30 536 C 50.2395 2.54396 -4.70305 0
M  V30 537 C 51.5395 0.416578 -5.20636 0
M  V30 538 H 53.2335 -0.0393902 -2.99374 0
M  V30 539 H 50.7795 -0.020385 -1.43986 0
M  V30 540 H 52.7325 2.34396 -3.50195 0
M  V30 541 H 51.4565 2.3584 -2.25936 0
M  V30 542 H 50.1155 0.698991 -3.59875 0
M  V30 543 H 49.7635 3.15439 -3.918 0
M  V30 544 H 49.4635 2.25486 -5.42614 0
M  V30 545 H 50.9875 3.16464 -5.2219 0
M  V30 546 H 52.4015 0.935116 -5.65622 0
M  V30 547 H 50.7985 0.221046 -5.99693 0
M  V30 548 H 51.8685 -0.557162 -4.81688 0
M  V30 549 N 53.2116 1.57565 -0.0334293 0
M  V30 550 C 54.6276 1.56297 0.322997 0
M  V30 551 C 54.8276 1.03945 1.7262 0
M  V30 552 O 53.8836 0.688109 2.42943 0
M  V30 553 C 55.1966 3.00232 0.167664 0
M  V30 554 C 56.7446 3.12078 0.240107 0
M  V30 555 C 57.2196 4.57859 0.113513 0
M  V30 556 N 58.7106 4.62887 0.170359 0
M  V30 557 C 59.4456 5.73319 0.0962517 0
M  V30 558 N 58.9416 6.92794 -0.0291881 0
M  V30 559 N 60.7346 5.61898 0.150551 0
M  V30 560 H 52.8856 1.89923 -0.950956 0
M  V30 561 H 55.1486 0.873824 -0.367608 0
M  V30 562 H 54.8546 3.42501 -0.799102 0
M  V30 563 H 54.7286 3.654 0.936083 0
M  V30 564 H 57.1156 2.69718 1.19733 0
M  V30 565 H 57.1966 2.49623 -0.558763 0
M  V30 566 H 56.8406 5.009 -0.840314 0
M  V30 567 H 56.7706 5.18299 0.931302 0
M  V30 568 H 59.2616 3.76954 0.26728 0
M  V30 569 H 59.5746 7.7276 -0.0789252 0
M  V30 570 H 57.9196 6.94971 -0.0640299 0
M  V30 571 H 61.1106 4.67448 0.246981 0
M  V30 572 H 61.2836 6.47938 0.0893365 0
M  V30 573 N 54.6897 -0.239769 1.55765 0
M  V30 574 C 55.6527 -1.28038 1.90103 0
M  V30 575 C 56.6527 -1.40723 0.778055 0
M  V30 576 O 57.8427 -1.39301 1.04599 0
M  V30 577 C 54.9747 -2.65702 2.13577 0
M  V30 578 H 56.1677 -0.988048 2.83157 0
M  V30 579 H 53.7207 -0.479382 1.48767 0
M  V30 580 H 54.4557 -3.00063 1.23015 0
M  V30 581 H 54.2407 -2.57875 2.95369 0
M  V30 582 H 55.7307 -3.40828 2.41301 0
M  V30 583 N 56.1678 -1.49265 -0.50573 0
M  V30 584 C 57.0778 -1.68312 -1.63427 0
M  V30 585 C 58.0938 -0.565682 -1.64548 0
M  V30 586 O 59.2698 -0.839801 -1.83055 0
M  V30 587 C 56.3348 -1.74107 -2.99813 0
M  V30 588 C 55.3958 -2.97653 -3.09356 0
M  V30 589 C 54.6288 -3.03163 -4.39236 0
M  V30 590 O 54.8518 -2.16396 -5.27758 0
M  V30 591 O 53.7858 -3.9558 -4.53652 0
M  V30 592 H 57.6118 -2.63907 -1.50289 0
M  V30 593 H 55.1968 -1.32951 -0.681502 0
M  V30 594 H 57.0788 -1.803 -3.80881 0
M  V30 595 H 55.7538 -0.816901 -3.13223 0
M  V30 596 H 54.6608 -2.96981 -2.27493 0
M  V30 597 H 55.9938 -3.89535 -3.00871 0
M  V30 598 N 57.6459 0.756429 -1.3826 0
M  V30 599 C 58.5759 1.88374 -1.37976 0
M  V30 600 C 59.5569 1.68311 -0.246082 0
M  V30 601 O 60.7419 1.88944 -0.44874 0
M  V30 602 C 57.8719 3.25864 -1.20125 0
M  V30 603 C 56.8259 3.60523 -2.30666 0
M  V30 604 C 56.1519 4.9672 -1.97923 0
M  V30 605 C 57.4519 3.65692 -3.72916 0
M  V30 606 H 59.1459 1.88869 -2.32312 0
M  V30 607 H 56.6919 0.907272 -1.11824 0
M  V30 608 H 58.6449 4.0438 -1.18552 0
M  V30 609 H 57.3689 3.25841 -0.222498 0
M  V30 610 H 56.0279 2.84324 -2.3142 0
M  V30 611 H 55.6759 4.93253 -0.985393 0
M  V30 612 H 55.3759 5.20878 -2.71955 0
M  V30 613 H 56.8999 5.77618 -1.97964 0
M  V30 614 H 58.3139 4.34328 -3.74208 0
M  V30 615 H 56.7109 4.01358 -4.4613 0
M  V30 616 H 57.7809 2.65987 -4.05436 0
M  V30 617 N 59.124 1.23083 0.984299 0
M  V30 618 C 60.034 1.02515 2.11016 0
M  V30 619 C 61.05 -0.0291702 1.73976 0
M  V30 620 O 62.226 0.165434 2.00719 0
M  V30 621 C 59.291 0.614673 3.41208 0
M  V30 622 C 58.352 1.74359 3.92297 0
M  V30 623 C 57.585 1.35261 5.16275 0
M  V30 624 O 57.808 0.235136 5.69915 0
M  V30 625 O 56.742 2.17227 5.61334 0
M  V30 626 H 60.568 1.96862 2.31255 0
M  V30 627 H 58.153 1.01753 1.09392 0
M  V30 628 H 60.035 0.396518 4.1953 0
M  V30 629 H 58.71 -0.299851 3.22308 0
M  V30 630 H 57.617 2.01635 3.1511 0
M  V30 631 H 58.95 2.63629 4.15645 0
M  V30 632 N 60.6021 -1.18246 1.0419 0
M  V30 633 C 61.8301 -1.92195 0.766072 0
M  V30 634 C 62.2451 -1.76247 -0.676933 0
M  V30 635 O 61.6021 -1.09293 -1.46155 0
M  V30 636 C 61.6531 -3.43568 1.12442 0
M  V30 637 O 61.3741 -3.59015 2.51078 0
M  V30 638 C 62.8751 -4.34613 0.873275 0
M  V30 639 H 60.0951 -0.610114 0.279288 0
M  V30 640 H 62.6391 -1.50007 1.38989 0
M  V30 641 H 60.7941 -3.8354 0.545542 0
M  V30 642 H 61.2081 -4.5273 2.64831 0
M  V30 643 H 62.6821 -5.39374 1.17385 0
M  V30 644 H 63.1591 -4.38781 -0.191909 0
M  V30 645 H 63.7651 -4.00341 1.43551 0
M  V30 646 N 62.0802 -0.821533 -1.34494 0
M  V30 647 C 63.0102 -0.257138 -2.3208 0
M  V30 648 C 63.9912 0.625645 -1.58176 0
M  V30 649 O 65.1762 0.552811 -1.86166 0
M  V30 650 C 62.3062 0.582958 -3.42372 0
M  V30 651 C 61.2602 -0.202571 -4.2752 0
M  V30 652 C 60.5862 0.760179 -5.29269 0
M  V30 653 C 61.8862 -1.40998 -5.02908 0
M  V30 654 H 63.5802 -1.07247 -2.79532 0
M  V30 655 H 61.1262 -0.517163 -1.34393 0
M  V30 656 H 63.0792 0.987972 -4.09655 0
M  V30 657 H 61.8032 1.43133 -2.93565 0
M  V30 658 H 60.4622 -0.588936 -3.61838 0
M  V30 659 H 60.1102 1.60447 -4.76724 0
M  V30 660 H 59.8102 0.238809 -5.87115 0
M  V30 661 H 61.3342 1.16308 -5.9942 0
M  V30 662 H 62.7482 -1.07905 -5.63054 0
M  V30 663 H 61.1452 -1.86689 -5.70322 0
M  V30 664 H 62.2152 -2.1889 -4.32684 0
M  V30 665 N 63.5583 1.46682 -0.576371 0
M  V30 666 C 64.9743 1.57822 -0.237562 0
M  V30 667 C 65.1743 1.57237 1.26011 0
M  V30 668 O 64.2303 1.48596 2.04146 0
M  V30 669 C 65.5433 2.87499 -0.881168 0
M  V30 670 C 67.0913 3.01119 -0.85417 0
M  V30 671 C 67.5663 4.33524 -1.4772 0
M  V30 672 N 69.0573 4.40207 -1.44125 0
M  V30 673 C 69.7923 5.4126 -1.89276 0
M  V30 674 N 69.2883 6.49021 -2.42371 0
M  V30 675 N 71.0813 5.32422 -1.80231 0
M  V30 676 H 63.2323 1.45306 -1.54919 0
M  V30 677 H 65.4953 0.692733 -0.647167 0
M  V30 678 H 65.2013 2.9372 -1.93447 0
M  V30 679 H 65.0753 3.75224 -0.385592 0
M  V30 680 H 67.4623 2.94485 0.190491 0
M  V30 681 H 67.5433 2.14887 -1.3877 0
M  V30 682 H 67.1873 4.40916 -2.52103 0
M  V30 683 H 67.1173 5.1852 -0.918947 0
M  V30 684 H 69.6083 3.62931 -1.05307 0
M  V30 685 H 69.9213 7.2233 -2.74698 0
M  V30 686 H 68.2663 6.49858 -2.46393 0
M  V30 687 H 71.4573 4.47137 -1.38514 0
M  V30 688 H 71.6303 6.11034 -2.15735 0
M  V30 689 N 65.0364 0.313813 1.54444 0
M  V30 690 C 65.9994 -0.54379 2.22656 0
M  V30 691 C 66.9994 -1.05124 1.21678 0
M  V30 692 O 68.1894 -0.945225 1.46325 0
M  V30 693 C 65.3214 -1.75427 2.92298 0
M  V30 694 H 66.5144 0.0523599 2.99854 0
M  V30 695 H 64.0674 0.0647834 1.56166 0
M  V30 696 H 64.8024 -2.38991 2.19211 0
M  V30 697 H 64.5874 -1.39791 3.66334 0
M  V30 698 H 66.0774 -2.36325 3.44297 0
M  V30 699 N 66.5145 -1.57545 0.0417849 0
M  V30 700 C 67.4465 -2.07904 -0.964799 0
M  V30 701 C 68.4595 -1.00497 -1.28079 0
M  V30 702 O 69.6485 -1.28087 -1.24322 0
M  V30 703 C 66.7485 -2.49928 -2.28887 0
M  V30 704 C 65.9215 -3.80562 -2.15619 0
M  V30 705 C 64.9805 -4.08999 -3.31069 0
M  V30 706 O 64.0065 -4.79061 -3.0739 0
M  V30 707 N 65.2085 -3.6017 -4.55256 0
M  V30 708 H 67.9735 -2.94886 -0.535029 0
M  V30 709 H 65.5345 -1.61252 -0.144681 0
M  V30 710 H 67.5265 -2.66034 -3.04972 0
M  V30 711 H 66.0965 -1.68245 -2.63463 0
M  V30 712 H 65.3165 -3.74129 -1.24183 0
M  V30 713 H 66.6045 -4.66126 -2.03971 0
M  V30 714 H 66.0025 -3.03512 -4.77386 0
M  V30 715 H 64.5595 -3.81532 -5.28466 0
M  V30 716 N 67.9926 0.231505 -1.5589 0
M  V30 717 C 68.9226 1.29022 -1.94617 0
M  V30 718 C 69.9036 1.4941 -0.813067 0
M  V30 719 O 71.0886 1.6176 -1.07459 0
M  V30 720 C 68.2186 2.64199 -2.25424 0
M  V30 721 C 67.1726 2.58484 -3.41131 0
M  V30 722 C 66.4986 3.97599 -3.57518 0
M  V30 723 C 67.7986 2.1413 -4.76388 0
M  V30 724 H 69.4926 0.968563 -2.83301 0
M  V30 725 H 67.0386 0.464479 -1.36303 0
M  V30 726 H 68.9916 3.38413 -2.51107 0
M  V30 727 H 67.7156 2.98032 -1.33583 0
M  V30 728 H 66.3746 1.86727 -3.15481 0
M  V30 729 H 66.0226 4.28723 -2.6307 0
M  V30 730 H 65.7226 3.94659 -4.35337 0
M  V30 731 H 67.2466 4.7349 -3.85538 0
M  V30 732 H 68.6606 2.78083 -5.01341 0
M  V30 733 H 67.0576 2.2227 -5.57419 0
M  V30 734 H 68.1276 1.09331 -4.72414 0
M  V30 735 N 69.4707 1.49531 0.497807 0
M  V30 736 C 70.4007 1.6935 1.60757 0
M  V30 737 C 71.3817 0.542218 1.61227 0
M  V30 738 O 72.5667 0.778417 1.77917 0
M  V30 739 C 69.6967 1.76298 2.99226 0
M  V30 740 C 68.6507 2.91248 3.13622 0
M  V30 741 C 67.9767 2.83312 4.53474 0
M  V30 742 C 69.2767 4.3214 2.93346 0
M  V30 743 H 70.9707 2.62263 1.44425 0
M  V30 744 H 68.5167 1.26208 0.693367 0
M  V30 745 H 70.4697 1.88749 3.76765 0
M  V30 746 H 69.1937 0.799871 3.16654 0
M  V30 747 H 67.8527 2.78404 2.38509 0
M  V30 748 H 67.5007 1.84902 4.67782 0
M  V30 749 H 67.2007 3.60465 4.64046 0
M  V30 750 H 68.7247 2.97775 5.33069 0
M  V30 751 H 70.1387 4.45649 3.60652 0
M  V30 752 H 68.5357 5.1054 3.15387 0
M  V30 753 H 69.6057 4.46363 1.89441 0
M  V30 754 N 70.9488 -0.749086 1.3866 0
M  V30 755 C 71.8808 -1.87273 1.32142 0
M  V30 756 C 72.8938 -1.61127 0.232787 0
M  V30 757 O 74.0828 -1.71623 0.49069 0
M  V30 758 C 71.1828 -3.23005 1.02571 0
M  V30 759 C 70.3558 -3.7662 2.22433 0
M  V30 760 C 69.4148 -4.90879 1.89537 0
M  V30 761 O 68.4408 -5.05276 2.62078 0
M  V30 762 N 69.6428 -5.74198 0.853031 0
M  V30 763 H 72.4078 -1.93373 2.28969 0
M  V30 764 H 69.9688 -0.929216 1.32579 0
M  V30 765 H 71.9608 -3.96992 0.786085 0
M  V30 766 H 70.5308 -3.12262 0.145249 0
M  V30 767 H 69.7508 -2.94147 2.62434 0
M  V30 768 H 71.0388 -4.09173 3.02415 0
M  V30 769 H 70.4368 -5.6514 0.25155 0
M  V30 770 H 68.9938 -6.48313 0.67329 0
M  V30 771 N 72.4269 -1.23603 -0.977757 0
M  V30 772 C 73.8429 -0.999251 -1.24447 0
M  V30 773 C 74.0429 0.298053 -1.99283 0
M  V30 774 O 73.0989 1.01681 -2.31122 0
M  V30 775 C 74.4119 -2.20784 -2.04144 0
M  V30 776 C 75.9599 -2.25303 -2.17273 0
M  V30 777 C 76.4349 -3.45755 -3.00362 0
M  V30 778 N 77.9259 -3.4601 -3.07947 0
M  V30 779 C 78.6609 -4.35868 -3.72568 0
M  V30 780 N 78.1569 -5.35966 -4.38991 0
M  V30 781 N 79.9499 -4.23605 -3.6948 0
M  V30 782 H 72.1009 -2.06986 -0.476483 0
M  V30 783 H 74.3639 -0.907801 -0.273134 0
M  V30 784 H 74.0699 -3.14945 -1.56533 0
M  V30 785 H 73.9439 -2.22085 -3.04891 0
M  V30 786 H 76.3309 -1.3168 -2.64092 0
M  V30 787 H 76.4119 -2.28033 -1.15907 0
M  V30 788 H 76.0559 -4.39687 -2.5424 0
M  V30 789 H 75.9859 -3.40266 -4.01904 0
M  V30 790 H 78.4769 -2.73588 -2.60688 0
M  V30 791 H 78.7899 -6.00783 -4.86086 0
M  V30 792 H 77.1349 -5.39863 -4.37691 0
M  V30 793 H 80.3259 -3.44647 -3.16759 0
M  V30 794 H 80.4989 -4.93836 -4.1956 0
M  V30 795 N 73.905 1.17692 -1.04816 0
M  V30 796 C 75.13 1.92327 -0.776207 0
M  V30 797 C 75.555 1.76082 0.661581 0
M  V30 798 O 74.913 1.076 1.45917 0
M  V30 799 C 74.961 3.41539 -1.15687 0
M  V30 800 O 74.065 4.11402 -0.286775 0
M  V30 801 H 73.406 0.599735 -0.284981 0
M  V30 802 H 75.936 1.49201 -1.4 0
M  V30 803 H 75.946 3.92269 -1.12202 0
M  V30 804 H 74.621 3.52684 -2.20425 0
M  V30 805 H 73.198 3.70939 -0.381903 0
M  V30 806 N 75.3831 0.828654 1.34056 0
M  V30 807 C 76.7941 0.477534 1.8049 0
M  V30 808 C 77.1451 -1.00258 1.6865 0
M  V30 809 O 76.2701 -1.78057 1.22982 0
M  V30 810 C 76.8651 0.860018 3.27703 0
M  V30 811 C 75.4241 0.561185 3.72193 0
M  V30 812 C 74.5711 1.07385 2.55663 0
M  V30 813 H 77.5221 1.0183 1.21722 0
M  V30 814 H 77.5431 0.166038 3.80138 0
M  V30 815 H 77.0551 1.93731 3.36288 0
M  V30 816 H 75.1561 -0.506465 3.69142 0
M  V30 817 H 75.2691 1.10926 4.66082 0
M  V30 818 H 73.6331 0.495149 2.49841 0
M  V30 819 H 74.4161 2.15771 2.67016 0
M  V30 820 N 76.8612 -1.46375 0.584142 0
M  V30 821 C 78.1012 -2.0427 0.0729695 0
M  V30 822 C 78.4652 -1.44563 -1.26355 0
M  V30 823 O 79.6662 -1.93667 -1.86405 0
M  V30 824 C 77.9372 -3.57399 0.00967464 0
M  V30 825 S 79.4962 -4.36551 -0.443714 0
M  V30 826 H 76.3142 -0.709975 0.0381673 0
M  V30 827 H 78.9162 -1.79398 0.776962 0
M  V30 828 H 77.6202 -3.98372 0.986319 0
M  V30 829 H 77.1512 -3.8681 -0.717044 0
M  V30 830 H 79.1662 -4.66237 -1.69816 0
M  V30 831 N 78.3393 -0.321999 -1.54275 0
M  V30 832 C 79.5853 0.281461 -2.00837 0
M  V30 833 C 79.9183 1.51909 -1.20985 0
M  V30 834 O 79.1933 1.923 -0.291733 0
M  V30 835 C 79.4763 0.617162 -3.54772 0
M  V30 836 C 79.3293 -0.631064 -4.45351 0
M  V30 837 C 80.6483 1.43542 -4.16033 0
M  V30 838 H 77.7673 0.100826 -0.730071 0
M  V30 839 H 80.4093 -0.438268 -1.84876 0
M  V30 840 H 78.5593 1.23034 -3.68504 0
M  V30 841 H 80.2313 -1.26934 -4.43492 0
M  V30 842 H 78.4743 -1.26025 -4.15091 0
M  V30 843 H 79.1453 -0.351735 -5.50878 0
M  V30 844 H 81.6213 0.917134 -4.05867 0
M  V30 845 H 80.4973 1.63907 -5.23856 0
M  V30 846 H 80.7583 2.43108 -3.69257 0
M  V30 847 N 79.8174 1.5752 -0.0501392 0
M  V30 848 C 80.7804 2.1037 0.909786 0
M  V30 849 C 81.7804 1.02308 1.24056 0
M  V30 850 O 82.9704 1.28385 1.17741 0
M  V30 851 C 80.1024 2.58708 2.21998 0
M  V30 852 H 81.2954 2.96479 0.451665 0
M  V30 853 H 78.8484 1.55038 0.198248 0
M  V30 854 H 79.5834 1.75989 2.72394 0
M  V30 855 H 79.3684 3.37675 1.99295 0
M  V30 856 H 80.8584 2.99747 2.9076 0
M  V30 857 N 81.2955 -0.223234 1.56011 0
M  V30 858 C 82.2585 -1.26014 1.9145 0
M  V30 859 C 83.2585 -1.3989 0.792937 0
M  V30 860 O 84.4485 -1.38184 1.0607 0
M  V30 861 C 81.5805 -2.63422 2.16383 0
M  V30 862 H 82.7735 -0.95796 2.84189 0
M  V30 863 H 80.3265 -0.463576 1.49267 0
M  V30 864 H 81.0615 -2.98741 1.2619 0
M  V30 865 H 80.8465 -2.54728 2.98088 0
M  V30 866 H 82.3365 -3.38249 2.44903 0
M  V30 867 N 82.7736 -1.49793 -0.48987 0
M  V30 868 C 84.1846 -1.52914 -1.07118 0
M  V30 869 C 84.5356 -0.321738 -1.93544 0
M  V30 870 O 83.6606 0.567338 -2.08831 0
M  V30 871 C 84.2556 -2.771 -1.94938 0
M  V30 872 C 82.8146 -2.82963 -2.48212 0
M  V30 873 C 81.9616 -2.46972 -1.26096 0
M  V30 874 H 84.9126 -1.56329 -0.273289 0
M  V30 875 H 84.9336 -2.57892 -2.79771 0
M  V30 876 H 84.4456 -3.64959 -1.32009 0
M  V30 877 H 82.5466 -1.99411 -3.14748 0
M  V30 878 H 82.6596 -3.85406 -2.84603 0
M  V30 879 H 81.0236 -1.98994 -1.58976 0
M  V30 880 H 81.8066 -3.37118 -0.648581 0
M  V30 881 N 84.2517 0.741722 -1.39055 0
M  V30 882 C 85.2147 1.83733 -1.37021 0
M  V30 883 C 86.2147 1.58542 -0.268534 0
M  V30 884 O 87.4047 1.66067 -0.526076 0
M  V30 885 C 84.5367 3.2141 -1.13617 0
M  V30 886 H 85.7297 1.86941 -2.34506 0
M  V30 887 H 83.2827 0.944676 -1.24521 0
M  V30 888 H 84.0177 3.23865 -0.167863 0
M  V30 889 H 83.8027 3.4109 -1.93391 0
M  V30 890 H 85.2927 4.01477 -1.14918 0
M  V30 891 N 85.7298 1.2412 0.971189 0
M  V30 892 C 86.6598 1.05508 2.08304 0
M  V30 893 C 87.6408 -0.0308864 1.70072 0
M  V30 894 O 88.8258 0.135521 1.93727 0
M  V30 895 C 85.9558 0.655365 3.4106 0
M  V30 896 C 84.9098 1.68971 3.93234 0
M  V30 897 C 84.2358 1.14516 5.22293 0
M  V30 898 C 85.5358 3.08487 4.21465 0
M  V30 899 H 87.2298 1.98507 2.24132 0
M  V30 900 H 84.7758 0.955821 1.07704 0
M  V30 901 H 86.7288 0.51217 4.18276 0
M  V30 902 H 85.4528 -0.31032 3.25122 0
M  V30 903 H 84.1118 1.82106 3.18171 0
M  V30 904 H 83.7598 0.170189 5.02712 0
M  V30 905 H 83.4598 1.83635 5.58168 0
M  V30 906 H 84.9838 1.01401 6.02121 0
M  V30 907 H 86.3978 2.98601 4.89398 0
M  V30 908 H 84.7948 3.74926 4.68562 0
M  V30 909 H 85.8648 3.56787 3.28376 0
M  V30 910 N 87.2079 -1.17134 1.05439 0
M  V30 911 C 88.4849 -1.83411 0.679699 0
M  V30 912 C 88.8649 -1.9368 -0.839726 0
M  V30 913 O 88.2129 -1.47325 -1.74664 0
M  V30 914 C 88.4229 -3.20918 1.37159 0
M  V30 915 C 89.7709 -3.96796 1.51123 0
M  V30 916 O 90.7949 -3.30406 1.3308 0
M  V30 917 O 89.6539 -5.15778 1.80651 0
M  V30 918 H 86.7479 -0.79154 0.239569 0
M  V30 919 H 89.2939 -1.24411 1.15413 0
M  V30 920 H 88.0659 -3.08428 2.40807 0
M  V30 921 H 87.6889 -3.87587 0.886674 0
M  V30 922 N 88.686 -0.835752 -1.33615 0
M  V30 923 C 89.649 -0.272 -2.2758 0
M  V30 924 C 90.649 0.557487 -1.50827 0
M  V30 925 O 91.839 0.37173 -1.70188 0
M  V30 926 C 88.971 0.617173 -3.35267 0
M  V30 927 H 90.164 -1.10111 -2.78954 0
M  V30 928 H 87.717 -0.608594 -1.43965 0
M  V30 929 H 88.452 1.46884 -2.89129 0
M  V30 930 H 88.237 0.0237066 -3.92093 0
M  V30 931 H 89.727 1.005 -4.05326 0
M  V30 932 N 90.1641 1.46063 -0.591896 0
M  V30 933 C 91.4111 2.02338 -0.0809991 0
M  V30 934 C 91.7391 1.46228 1.28249 0
M  V30 935 O 90.9941 0.620818 1.85592 0
M  V30 936 C 91.2931 3.57391 0.0249813 0
M  V30 937 C 90.9591 4.32583 -1.27211 0
M  V30 938 C 89.6211 4.52844 -1.62745 0
M  V30 939 C 91.9731 4.75687 -2.13005 0
M  V30 940 C 89.3011 5.13462 -2.83855 0
M  V30 941 C 91.6531 5.37644 -3.3335 0
M  V30 942 C 90.3171 5.5613 -3.69155 0
M  V30 943 H 89.5871 0.740407 -0.0296397 0
M  V30 944 H 92.2341 1.75321 -0.770374 0
M  V30 945 H 90.5391 3.83597 0.797537 0
M  V30 946 H 92.2361 3.98621 0.436184 0
M  V30 947 H 88.8261 4.17116 -0.985499 0
M  V30 948 H 93.0101 4.59782 -1.86855 0
M  V30 949 H 88.2661 5.25965 -3.11722 0
M  V30 950 H 92.4401 5.7 -4.00092 0
M  V30 951 H 90.0671 6.0287 -4.63089 0
M  V30 952 N 91.6422 0.330177 1.54103 0
M  V30 953 C 92.8882 -0.270806 2.00984 0
M  V30 954 C 93.2212 -1.51265 1.21789 0
M  V30 955 O 92.4962 -1.92142 0.301927 0
M  V30 956 C 92.7792 -0.598339 3.55094 0
M  V30 957 C 92.6322 0.654674 4.4501 0
M  V30 958 C 93.9512 -1.41334 4.16789 0
M  V30 959 H 91.0702 -0.0969531 0.730595 0
M  V30 960 H 93.7122 0.448066 1.84641 0
M  V30 961 H 91.8622 -1.21078 3.69151 0
M  V30 962 H 93.5342 1.29285 4.42813 0
M  V30 963 H 91.7772 1.28224 4.14416 0
M  V30 964 H 92.4482 0.380944 5.50684 0
M  V30 965 H 94.9242 -0.895597 4.06347 0
M  V30 966 H 93.8002 -1.61127 5.24718 0
M  V30 967 H 94.0612 -2.41146 3.70541 0
M  V30 968 N 93.1203 -1.57491 0.0584922 0
M  V30 969 C 94.0303 -2.15448 -0.928414 0
M  V30 970 C 95.0463 -1.11416 -1.3365 0
M  V30 971 O 96.2223 -1.4362 -1.41193 0
M  V30 972 C 93.2873 -2.69393 -2.18239 0
M  V30 973 C 92.3483 -3.88249 -1.83196 0
M  V30 974 C 91.5813 -4.39613 -3.02616 0
M  V30 975 O 91.8043 -3.90023 -4.16219 0
M  V30 976 O 90.7383 -5.31111 -2.83204 0
M  V30 977 H 94.5643 -3.00112 -0.465483 0
M  V30 978 H 92.1493 -1.48499 -0.163826 0
M  V30 979 H 94.0313 -3.04026 -2.91798 0
M  V30 980 H 92.7063 -1.87796 -2.63656 0
M  V30 981 H 91.6133 -3.58492 -1.06931 0
M  V30 982 H 92.9463 -4.71098 -1.42573 0
M  V30 983 N 94.5984 0.214957 -1.56127 0
M  V30 984 C 96.0144 0.564948 -1.49267 0
M  V30 985 C 96.2144 1.86827 -0.754838 0
M  V30 986 O 95.2704 2.50745 -0.297198 0
M  V30 987 C 96.5834 0.638071 -2.93852 0
M  V30 988 C 98.1314 0.728253 -3.0441 0
M  V30 989 C 98.6064 0.832663 -4.50367 0
M  V30 990 N 100.097 0.896712 -4.54437 0
M  V30 991 C 100.832 0.997324 -5.6466 0
M  V30 992 N 100.328 1.06147 -6.8462 0
M  V30 993 N 102.121 1.03297 -5.52527 0
M  V30 994 H 94.2724 -0.640211 -2.02522 0
M  V30 995 H 96.5354 -0.225507 -0.920788 0
M  V30 996 H 96.2414 -0.250126 -3.50809 0
M  V30 997 H 96.1154 1.49947 -3.46115 0
M  V30 998 H 98.5024 1.60689 -2.47514 0
M  V30 999 H 98.5834 -0.158952 -2.55306 0
M  V30 1000 H 98.2274 -0.0415417 -5.07883 0
M  V30 1001 H 98.1574 1.73538 -4.97184 0
M  V30 1002 H 100.648 0.857188 -3.6805 0
M  V30 1003 H 100.961 1.1382 -7.64372 0
M  V30 1004 H 99.3064 1.03049 -6.87318 0
M  V30 1005 H 102.497 0.979558 -4.57736 0
M  V30 1006 H 102.67 1.10793 -6.38458 0
M  V30 1007 N 96.0765 1.50051 0.48192 0
M  V30 1008 C 97.3225 1.60736 1.2366 0
M  V30 1009 C 97.6555 0.301786 1.91841 0
M  V30 1010 O 96.9305 -0.696025 1.8162 0
M  V30 1011 C 97.2135 2.78009 2.28874 0
M  V30 1012 C 97.0665 4.18416 1.65069 0
M  V30 1013 C 98.3855 2.90867 3.30279 0
M  V30 1014 H 95.5045 0.585031 0.448228 0
M  V30 1015 H 98.1465 1.82402 0.531946 0
M  V30 1016 H 96.2965 2.59667 2.88973 0
M  V30 1017 H 97.9685 4.48322 1.0865 0
M  V30 1018 H 96.2115 4.23177 0.954148 0
M  V30 1019 H 96.8825 4.96381 2.41474 0
M  V30 1020 H 99.3585 3.07623 2.80191 0
M  V30 1021 H 98.2345 3.74566 4.01238 0
M  V30 1022 H 98.4955 2.01021 3.93755 0
M  V30 1023 N 97.5546 -0.734337 1.39446 0
M  V30 1024 C 98.4846 -1.86155 1.40955 0
M  V30 1025 C 99.4656 -1.67898 0.272827 0
M  V30 1026 O 100.651 -1.88207 0.478743 0
M  V30 1027 C 97.7806 -3.23912 1.25294 0
M  V30 1028 C 96.7346 -3.56808 2.36373 0
M  V30 1029 C 96.0606 -4.93508 2.058 0
M  V30 1030 C 97.3606 -3.59713 3.78687 0
M  V30 1031 H 99.0546 -1.8515 2.35287 0
M  V30 1032 H 96.6006 -0.889367 1.13253 0
M  V30 1033 H 98.5536 -4.02443 1.2497 0
M  V30 1034 H 97.2776 -3.25446 0.274308 0
M  V30 1035 H 95.9366 -2.80606 2.35914 0
M  V30 1036 H 95.5846 -4.91623 1.06374 0
M  V30 1037 H 95.2846 -5.16486 2.80208 0
M  V30 1038 H 96.8086 -5.74396 2.07128 0
M  V30 1039 H 98.2226 -4.2832 3.81071 0
M  V30 1040 H 96.6196 -3.94209 4.52459 0
M  V30 1041 H 97.6896 -2.59504 4.09617 0
M  V30 1042 N 99.0327 -1.24633 -0.964593 0
M  V30 1043 C 99.9957 -1.0424 -2.04124 0
M  V30 1044 C 100.996 0.00137563 -1.608 0
M  V30 1045 O 102.186 -0.239883 -1.7254 0
M  V30 1046 C 99.3177 -0.580588 -3.3592 0
M  V30 1047 H 100.511 -1.99803 -2.23649 0
M  V30 1048 H 98.0637 -1.06899 -1.14027 0
M  V30 1049 H 98.7987 0.3781 -3.22088 0
M  V30 1050 H 98.5837 -1.33398 -3.6871 0
M  V30 1051 H 100.074 -0.459034 -4.15069 0
M  V30 1052 N 100.511 1.16574 -1.06058 0
M  V30 1053 C 101.474 2.19085 -0.673392 0
M  V30 1054 C 102.474 1.5835 0.279648 0
M  V30 1055 O 103.664 1.74088 0.0623488 0
M  V30 1056 C 100.796 3.40899 0.00954234 0
M  V30 1057 H 101.989 2.54853 -1.58081 0
M  V30 1058 H 99.5418 1.30808 -0.855516 0
M  V30 1059 H 100.277 3.10684 0.929826 0
M  V30 1060 H 100.062 3.86233 -0.67573 0
M  V30 1061 H 101.552 4.1675 0.266245 0
M  V30 1062 N 101.989 0.842826 1.3317 0
M  V30 1063 C 103.237 0.439577 1.97262 0
M  V30 1064 C 103.558 -1.00548 1.67078 0
M  V30 1065 O 102.828 -1.70098 0.971779 0
M  V30 1066 H 101.408 0.159558 0.72976 0
M  V30 1067 H 104.07 1.07665 1.62463 0
M  V30 1068 H 103.166 0.574886 3.0676 0
M  V30 1069 N 103.467 -1.45747 0.599634 0
M  V30 1070 C 104.883 -1.57424 0.26264 0
M  V30 1071 C 105.083 -1.59222 -1.23493 0
M  V30 1072 O 104.139 -1.51825 -2.01756 0
M  V30 1073 C 105.452 -2.86061 0.926795 0
M  V30 1074 C 107 -2.99722 0.901967 0
M  V30 1075 C 107.475 -4.31119 1.54598 0
M  V30 1076 N 108.966 -4.37858 1.5111 0
M  V30 1077 C 109.701 -5.3818 1.97863 0
M  V30 1078 N 109.197 -6.45083 2.52666 0
M  V30 1079 N 110.99 -5.29487 1.88679 0
M  V30 1080 H 103.141 -1.42823 1.57211 0
M  V30 1081 H 105.404 -0.68235 0.658105 0
M  V30 1082 H 105.11 -2.90605 1.98095 0
M  V30 1083 H 104.984 -3.74563 0.445238 0
M  V30 1084 H 107.371 -2.9475 -0.143617 0
M  V30 1085 H 107.452 -2.12652 1.42171 0
M  V30 1086 H 107.096 -4.36849 2.59085 0
M  V30 1087 H 107.026 -5.16992 1.00132 0
M  V30 1088 H 109.517 -3.61209 1.11068 0
M  V30 1089 H 109.83 -7.17869 2.86155 0
M  V30 1090 H 108.175 -6.45856 2.56701 0
M  V30 1091 H 111.366 -4.44877 1.4561 0
M  V30 1092 H 111.539 -6.07524 2.25429 0
M  V30 1093 N 104.945 -0.338344 -1.53925 0
M  V30 1094 C 105.875 0.51328 -2.27789 0
M  V30 1095 C 106.856 1.107 -1.29149 0
M  V30 1096 O 108.041 1.12937 -1.57984 0
M  V30 1097 C 105.171 1.66697 -3.04679 0
M  V30 1098 C 104.125 1.20183 -4.1078 0
M  V30 1099 C 103.451 2.44363 -4.75595 0
M  V30 1100 C 104.751 0.30605 -5.21403 0
M  V30 1101 H 106.445 -0.102883 -2.99223 0
M  V30 1102 H 103.991 -0.0509219 -1.4391 0
M  V30 1103 H 105.944 2.26915 -3.55088 0
M  V30 1104 H 104.668 2.30995 -2.30887 0
M  V30 1105 H 103.327 0.622499 -3.61276 0
M  V30 1106 H 102.975 3.07057 -3.98403 0
M  V30 1107 H 102.675 2.13925 -5.47275 0
M  V30 1108 H 104.199 3.05317 -5.28786 0
M  V30 1109 H 105.613 0.814929 -5.67478 0
M  V30 1110 H 104.01 0.0937929 -6.00027 0
M  V30 1111 H 105.08 -0.65921 -4.80398 0
M  V30 1112 N 106.423 1.57458 -0.0668435 0
M  V30 1113 C 107.671 1.92919 0.602214 0
M  V30 1114 C 107.992 0.947215 1.70449 0
M  V30 1115 O 107.262 -0.00544117 1.95899 0
M  V30 1116 H 105.842 0.71217 0.22544 0
M  V30 1117 H 108.504 1.94508 -0.123535 0
M  V30 1118 H 107.6 2.94589 1.03073 0
M  V30 1119 N 107.901 -0.206675 1.56239 0
M  V30 1120 C 109.317 -0.557025 1.49564 0
M  V30 1121 C 109.517 -1.86424 0.764735 0
M  V30 1122 O 108.573 -2.50584 0.310491 0
M  V30 1123 C 109.886 -0.622478 2.94186 0
M  V30 1124 C 111.434 -0.712099 3.04792 0
M  V30 1125 C 111.909 -0.808767 4.50803 0
M  V30 1126 N 113.4 -0.8726 4.54907 0
M  V30 1127 C 114.135 -0.967365 5.65181 0
M  V30 1128 N 113.631 -1.02515 6.85173 0
M  V30 1129 N 115.424 -1.00366 5.53067 0
M  V30 1130 H 107.575 0.650943 2.02179 0
M  V30 1131 H 109.838 0.230387 0.919579 0
M  V30 1132 H 109.544 0.268727 3.50672 0
M  V30 1133 H 109.418 -1.4811 3.46905 0
M  V30 1134 H 111.805 -1.59374 2.48363 0
M  V30 1135 H 111.886 0.172489 2.55218 0
M  V30 1136 H 111.53 0.0684754 5.07854 0
M  V30 1137 H 111.46 -1.70899 4.98098 0
M  V30 1138 H 113.951 -0.837657 3.68499 0
M  V30 1139 H 114.264 -1.09765 7.64965 0
M  V30 1140 H 112.609 -0.994026 6.87855 0
M  V30 1141 H 115.8 -0.95527 4.58249 0
M  V30 1142 H 115.973 -1.07405 6.39037 0
M  V30 1143 N 109.379 -1.50304 -0.473955 0
M  V30 1144 C 110.625 -1.61389 -1.22806 0
M  V30 1145 C 110.958 -0.311955 -1.91678 0
M  V30 1146 O 110.233 0.686384 -1.81986 0
M  V30 1147 C 110.516 -2.79219 -2.27396 0
M  V30 1148 C 110.369 -4.19286 -1.62848 0
M  V30 1149 C 111.688 -2.92614 -3.28732 0
M  V30 1150 H 108.807 -0.587399 -0.445119 0
M  V30 1151 H 111.449 -1.82681 -0.522265 0
M  V30 1152 H 109.599 -2.61195 -2.87592 0
M  V30 1153 H 111.271 -4.48892 -1.06271 0
M  V30 1154 H 109.514 -4.23677 -0.931693 0
M  V30 1155 H 110.185 -4.97655 -2.38838 0
M  V30 1156 H 112.661 -3.09105 -2.78556 0
M  V30 1157 H 111.537 -3.76688 -3.99246 0
M  V30 1158 H 111.798 -2.03107 -3.92683 0
M  V30 1159 N 110.857 0.726932 -1.39834 0
M  V30 1160 C 112.103 1.48884 -1.377 0
M  V30 1161 C 112.436 1.94185 0.0244852 0
M  V30 1162 O 111.711 1.67361 0.990986 0
M  V30 1163 C 111.994 2.72288 -2.3565 0
M  V30 1164 C 111.847 2.32956 -3.84775 0
M  V30 1165 C 113.166 3.74414 -2.31306 0
M  V30 1166 H 110.285 0.540062 -0.5015 0
M  V30 1167 H 112.927 0.830547 -1.70886 0
M  V30 1168 H 111.077 3.28457 -2.07481 0
M  V30 1169 H 112.749 1.82356 -4.23726 0
M  V30 1170 H 110.992 1.65088 -4.01159 0
M  V30 1171 H 111.663 3.21362 -4.4881 0
M  V30 1172 H 114.139 3.27849 -2.56231 0
M  V30 1173 H 113.015 4.58414 -3.01907 0
M  V30 1174 H 113.276 4.21909 -1.32081 0
M  V30 1175 N 112.336 1.25143 0.95797 0
M  V30 1176 C 113.266 1.07711 2.07173 0
M  V30 1177 C 114.247 -0.0128462 1.70095 0
M  V30 1178 O 115.432 0.156061 1.93572 0
M  V30 1179 C 112.562 0.691503 3.40346 0
M  V30 1180 C 111.516 1.73132 3.9142 0
M  V30 1181 C 110.842 1.20049 5.21049 0
M  V30 1182 C 112.142 3.1294 4.1817 0
M  V30 1183 H 113.836 2.00873 2.22014 0
M  V30 1184 H 111.382 0.967191 1.06684 0
M  V30 1185 H 113.335 0.556505 4.17709 0
M  V30 1186 H 112.059 -0.275819 3.25433 0
M  V30 1187 H 110.718 1.8547 3.16222 0
M  V30 1188 H 110.366 0.223499 5.02503 0
M  V30 1189 H 110.066 1.89545 5.56189 0
M  V30 1190 H 111.59 1.07782 6.01012 0
M  V30 1191 H 113.004 3.03775 4.86203 0
M  V30 1192 H 111.401 3.79875 4.64559 0
M  V30 1193 H 112.471 3.6025 3.24573 0
M  V30 1194 N 113.814 -1.1601 1.06675 0
M  V30 1195 C 114.777 -2.18724 0.685001 0
M  V30 1196 C 115.777 -1.58496 -0.271246 0
M  V30 1197 O 116.967 -1.74119 -0.0531156 0
M  V30 1198 C 114.099 -3.40899 0.00853648 0
M  V30 1199 H 115.292 -2.54011 1.59431 0
M  V30 1200 H 112.845 -1.30352 0.862441 0
M  V30 1201 H 113.58 -3.11173 -0.913337 0
M  V30 1202 H 113.365 -3.8587 0.696204 0
M  V30 1203 H 114.855 -4.16886 -0.24414 0
M  V30 1204 N 115.292 -0.849877 -1.32721 0
M  V30 1205 C 116.24 -0.279745 -2.30912 0
M  V30 1206 C 117.234 0.594278 -1.58634 0
M  V30 1207 O 118.44 0.482613 -1.73409 0
M  V30 1208 H 114.815 -0.0717521 -0.748569 0
M  V30 1209 H 116.786 -1.12222 -2.76494 0
M  V30 1210 C 115.535 0.521108 -3.43773 0
M  V30 1211 H 114.858 -0.142141 -3.99547 0
M  V30 1212 H 116.298 0.885693 -4.14646 0
M  V30 1213 C 114.757 1.70442 -2.90605 0
M  V30 1214 O 115.287 2.8034 -2.87702 0
M  V30 1215 N 113.493 1.52991 -2.47067 0
M  V30 1216 H 113.04 0.635914 -2.49628 0
M  V30 1217 H 112.998 2.32311 -2.11847 0
M  V30 1218 N 116.77 1.45427 -0.607355 0
M  V30 1219 C 117.733 2.28974 0.101693 0
M  V30 1220 C 118.733 1.39754 0.795329 0
M  V30 1221 O 119.923 1.61878 0.643527 0
M  V30 1222 C 117.055 3.20768 1.15414 0
M  V30 1223 H 118.248 2.93147 -0.632844 0
M  V30 1224 H 115.801 1.51945 -0.366391 0
M  V30 1225 H 116.536 2.61395 1.91945 0
M  V30 1226 H 116.321 3.86489 0.66098 0
M  V30 1227 H 117.811 3.83589 1.65073 0
M  V30 1228 N 118.248 0.346503 1.53744 0
M  V30 1229 C 119.473 -0.253074 2.0585 0
M  V30 1230 C 119.898 -1.43202 1.21962 0
M  V30 1231 O 119.256 -1.79783 0.234073 0
M  V30 1232 C 119.304 -0.643193 3.54817 0
M  V30 1233 O 118.408 -1.74286 3.73762 0
M  V30 1234 H 117.749 -0.0413583 0.662711 0
M  V30 1235 H 120.279 0.501574 1.98357 0
M  V30 1236 H 120.289 -0.919526 3.97503 0
M  V30 1237 H 118.964 0.218966 4.15323 0
M  V30 1238 H 117.541 -1.46356 3.42979 0
M  V30 1239 N 119.726 -1.57421 0.075193 0
M  V30 1240 C 120.974 -1.93236 -0.591974 0
M  V30 1241 C 121.295 -0.956241 -1.69944 0
M  V30 1242 O 120.565 -0.00494792 -1.95899 0
M  V30 1243 H 119.145 -0.713355 -0.22166 0
M  V30 1244 H 121.807 -1.9444 0.133848 0
M  V30 1245 H 120.903 -2.95131 -1.01509 0
M  V30 1246 N 121.204 0.198386 -1.56346 0
M  V30 1247 C 122.429 0.939682 -1.84891 0
M  V30 1248 C 122.854 1.76202 -0.658369 0
M  V30 1249 O 122.212 1.76993 0.392851 0
M  V30 1250 C 122.26 1.81428 -3.11635 0
M  V30 1251 O 121.364 2.91265 -2.91956 0
M  V30 1252 H 120.705 0.264807 -0.608912 0
M  V30 1253 H 123.235 0.204695 -2.03573 0
M  V30 1254 H 123.245 2.21958 -3.42343 0
M  V30 1255 H 121.92 1.21004 -3.97908 0
M  V30 1256 H 120.497 2.54514 -2.72538 0
M  V30 1257 N 122.682 1.50554 0.465978 0
M  V30 1258 C 123.645 1.69233 1.54574 0
M  V30 1259 C 124.645 0.562901 1.50626 0
M  V30 1260 O 125.835 0.830016 1.53155 0
M  V30 1261 C 122.967 1.7223 2.94193 0
M  V30 1262 H 124.16 2.65571 1.39327 0
M  V30 1263 H 121.713 1.40111 0.692711 0
M  V30 1264 H 122.448 0.77603 3.14878 0
M  V30 1265 H 122.233 2.54285 2.98466 0
M  V30 1266 H 123.723 1.88618 3.72576 0
M  V30 1267 N 124.16 -0.719506 1.40217 0
M  V30 1268 C 125.108 -1.85493 1.40339 0
M  V30 1269 C 126.102 -1.66995 0.284415 0
M  V30 1270 O 127.308 -1.74148 0.455252 0
M  V30 1271 H 123.683 -0.610857 0.438586 0
M  V30 1272 H 125.654 -1.82506 2.36081 0
M  V30 1273 C 124.403 -3.23321 1.27901 0
M  V30 1274 H 123.726 -3.38159 2.1328 0
M  V30 1275 H 125.166 -4.02914 1.32045 0
M  V30 1276 C 123.625 -3.36898 -0.0111355 0
M  V30 1277 O 124.155 -3.89674 -0.975538 0
M  V30 1278 N 122.361 -2.90492 -0.0793393 0
M  V30 1279 H 121.908 -2.47731 0.706183 0
M  V30 1280 H 121.866 -2.99955 -0.942038 0
M  V30 1281 N 125.638 -1.25649 -0.95132 0
M  V30 1282 C 126.601 -1.06399 -2.03007 0
M  V30 1283 C 127.601 -0.0156794 -1.60792 0
M  V30 1284 O 128.791 -0.25817 -1.72276 0
M  V30 1285 C 125.923 -0.616184 -3.35285 0
M  V30 1286 H 127.116 -2.02164 -2.21517 0
M  V30 1287 H 124.669 -1.08103 -1.12887 0
M  V30 1288 H 125.404 0.343917 -3.22471 0
M  V30 1289 H 125.189 -1.37301 -3.67275 0
M  V30 1290 H 126.679 -0.503032 -4.14559 0
M  V30 1291 N 127.117 1.15442 -1.07289 0
M  V30 1292 C 128.342 1.90638 -0.816828 0
M  V30 1293 C 128.767 1.77445 0.624083 0
M  V30 1294 O 128.125 1.10671 1.43602 0
M  V30 1295 C 128.173 3.39008 -1.22906 0
M  V30 1296 O 127.277 4.10701 -0.373975 0
M  V30 1297 H 126.618 0.593555 -0.297638 0
M  V30 1298 H 129.148 1.46198 -1.43134 0
M  V30 1299 H 129.158 3.89801 -1.20497 0
M  V30 1300 H 127.833 3.47929 -2.27856 0
M  V30 1301 H 126.41 3.70046 -0.460499 0
M  V30 1302 N 128.595 0.856903 1.32268 0
M  V30 1303 C 129.872 0.382583 1.91822 0
M  V30 1304 C 130.252 -1.13407 1.78051 0
M  V30 1305 O 129.6 -1.95673 1.18001 0
M  V30 1306 C 129.81 0.849446 3.38505 0
M  V30 1307 C 131.158 0.867936 4.15634 0
M  V30 1308 O 132.182 0.794232 3.47232 0
M  V30 1309 O 131.041 0.972286 5.37781 0
M  V30 1310 H 128.135 0.112014 0.819379 0
M  V30 1311 H 130.681 0.943952 1.41024 0
M  V30 1312 H 129.453 1.89267 3.42482 0
M  V30 1313 H 129.076 0.265652 3.96712 0
M  V30 1314 N 130.073 -1.45103 0.615059 0
M  V30 1315 C 131.484 -1.85654 0.197383 0
M  V30 1316 C 131.835 -1.51433 -1.24749 0
M  V30 1317 O 130.96 -0.944608 -1.94695 0
M  V30 1318 C 131.555 -3.36972 0.351448 0
M  V30 1319 C 130.114 -3.76398 -0.011593 0
M  V30 1320 C 129.261 -2.69024 0.672394 0
M  V30 1321 H 132.212 -1.35797 0.821263 0
M  V30 1322 H 132.233 -3.78239 -0.414227 0
M  V30 1323 H 131.745 -3.61847 1.40314 0
M  V30 1324 H 129.846 -3.5714 -1.06217 0
M  V30 1325 H 129.959 -4.77532 0.387265 0
M  V30 1326 H 128.323 -2.54465 0.109284 0
M  V30 1327 H 129.106 -2.96735 1.72636 0
M  V30 1328 N 131.551 -0.354651 -1.53558 0
M  V30 1329 C 132.514 0.484566 -2.24019 0
M  V30 1330 C 133.514 1.01861 -1.24422 0
M  V30 1331 O 134.704 0.906097 -1.4878 0
M  V30 1332 C 131.836 1.67615 -2.96847 0
M  V30 1333 H 133.029 -0.131843 -2.9961 0
M  V30 1334 H 130.582 -0.106165 -1.55939 0
M  V30 1335 H 131.317 2.33095 -2.25471 0
M  V30 1336 H 131.102 1.30029 -3.69912 0
M  V30 1337 H 132.592 2.27114 -3.50441 0
M  V30 1338 N 133.029 1.57378 -0.0835403 0
M  V30 1339 C 134.275 1.95025 0.577664 0
M  V30 1340 C 134.63 0.964049 1.66505 0
M  V30 1341 O 133.923 -0.0118235 1.91596 0
M  V30 1342 C 134.117 3.37063 1.1884 0
M  V30 1343 C 133.946 4.49409 0.16171 0
M  V30 1344 C 132.716 5.04642 -0.257756 0
M  V30 1345 C 134.914 5.10722 -0.605634 0
M  V30 1346 N 132.896 6.00537 -1.27393 0
M  V30 1347 C 134.267 6.02225 -1.47395 0
M  V30 1348 C 136.322 4.93501 -0.660418 0
M  V30 1349 C 135.025 6.78355 -2.39221 0
M  V30 1350 C 137.051 5.70283 -1.56623 0
M  V30 1351 C 136.413 6.61444 -2.4222 0
M  V30 1352 H 132.512 0.760512 0.182058 0
M  V30 1353 H 135.096 1.94013 -0.163419 0
M  V30 1354 H 133.267 3.3879 1.89936 0
M  V30 1355 H 134.999 3.61917 1.81103 0
M  V30 1356 H 131.754 4.73428 0.127702 0
M  V30 1357 H 132.178 6.53184 -1.77987 0
M  V30 1358 H 136.82 4.22798 -0.0128221 0
M  V30 1359 H 134.538 7.48327 -3.05011 0
M  V30 1360 H 138.124 5.58976 -1.61361 0
M  V30 1361 H 137.004 7.1982 -3.11174 0
M  V30 1362 N 134.507 -0.190092 1.56449 0
M  V30 1363 C 135.784 -0.935886 1.71757 0
M  V30 1364 C 136.164 -2.01173 0.639726 0
M  V30 1365 O 135.512 -2.25827 -0.348502 0
M  V30 1366 C 135.722 -1.51775 3.1427 0
M  V30 1367 C 137.07 -1.99794 3.74656 0
M  V30 1368 O 138.094 -1.61607 3.1743 0
M  V30 1369 O 136.953 -2.70079 4.751 0
M  V30 1370 H 134.047 -0.439229 0.700719 0
M  V30 1371 H 136.593 -0.179395 1.68749 0
M  V30 1372 H 135.365 -0.742505 3.84191 0
M  V30 1373 H 134.988 -2.33894 3.21527 0
M  V30 1374 N 135.985 -1.50799 -0.457987 0
M  V30 1375 C 137.232 -1.62442 -1.20908 0
M  V30 1376 C 137.56 -0.330865 -1.91665 0
M  V30 1377 O 136.815 0.68401 -1.83357 0
M  V30 1378 C 137.114 -2.76358 -2.2663 0
M  V30 1379 C 136.78 -4.16378 -1.73033 0
M  V30 1380 C 135.442 -4.54473 -1.58138 0
M  V30 1381 C 137.794 -5.03836 -1.33413 0
M  V30 1382 C 135.122 -5.77754 -1.02065 0
M  V30 1383 C 137.474 -6.27676 -0.78778 0
M  V30 1384 C 136.138 -6.64562 -0.625561 0
M  V30 1385 H 135.408 -0.594417 -0.442435 0
M  V30 1386 H 138.055 -1.84772 -0.503136 0
M  V30 1387 H 136.36 -2.48167 -3.03184 0
M  V30 1388 H 138.057 -2.82568 -2.84528 0
M  V30 1389 H 134.647 -3.86331 -1.85598 0
M  V30 1390 H 138.831 -4.75026 -1.4375 0
M  V30 1391 H 134.087 -6.04997 -0.882547 0
M  V30 1392 H 138.261 -6.94797 -0.472177 0
M  V30 1393 H 135.888 -7.59965 -0.188926 0
M  V30 1394 N 137.463 0.71206 -1.40597 0
M  V30 1395 C 138.426 1.80785 -1.40888 0
M  V30 1396 C 139.426 1.57937 -0.302103 0
M  V30 1397 O 140.616 1.64913 -0.561182 0
M  V30 1398 C 137.748 3.18927 -1.20409 0
M  V30 1399 H 138.941 1.81924 -2.38419 0
M  V30 1400 H 136.494 0.91805 -1.26497 0
M  V30 1401 H 137.229 3.23436 -0.236522 0
M  V30 1402 H 137.014 3.36911 -2.00582 0
M  V30 1403 H 138.504 3.98949 -1.23408 0
M  V30 1404 N 138.941 1.26152 0.944643 0
M  V30 1405 C 140.166 1.14363 1.7302 0
M  V30 1406 C 140.591 -0.29772 1.85729 0
M  V30 1407 O 139.949 -1.2157 1.34501 0
M  V30 1408 C 139.997 1.81378 3.11664 0
M  V30 1409 O 139.101 1.10022 3.97453 0
M  V30 1410 H 138.442 0.398694 0.53098 0
M  V30 1411 H 140.972 1.66906 1.18337 0
M  V30 1412 H 140.982 1.88064 3.62072 0
M  V30 1413 H 139.657 2.86237 3.0173 0
M  V30 1414 H 138.234 1.11287 3.55907 0
M  V30 1415 N 140.419 -1.14872 1.07899 0
M  V30 1416 C 141.382 -2.17986 0.708161 0
M  V30 1417 C 142.382 -1.58775 -0.25442 0
M  V30 1418 O 143.572 -1.74166 -0.034645 0
M  V30 1419 C 140.704 -3.40871 0.0446929 0
M  V30 1420 H 141.897 -2.52306 1.62116 0
M  V30 1421 H 139.45 -1.2943 0.876218 0
M  V30 1422 H 140.185 -3.12124 -0.880281 0
M  V30 1423 H 139.97 -3.8511 0.737091 0
M  V30 1424 H 141.46 -4.17121 -0.19991 0
M  V30 1425 N 141.898 -0.863906 -1.31812 0
M  V30 1426 C 142.828 -0.330843 -2.31144 0
M  V30 1427 C 143.809 0.575005 -1.60087 0
M  V30 1428 O 144.994 0.493304 -1.8783 0
M  V30 1429 C 142.124 0.47374 -3.44054 0
M  V30 1430 C 141.078 -0.338481 -4.26659 0
M  V30 1431 C 140.404 0.591412 -5.31419 0
M  V30 1432 C 141.704 -1.56926 -4.98168 0
M  V30 1433 H 143.398 -1.16086 -2.75979 0
M  V30 1434 H 140.944 -0.559657 -1.32679 0
M  V30 1435 H 142.897 0.857143 -4.12591 0
M  V30 1436 H 141.621 1.33721 -2.9797 0
M  V30 1437 H 140.28 -0.703754 -3.59782 0
M  V30 1438 H 139.928 1.45199 -4.81587 0
M  V30 1439 H 139.628 0.0519022 -5.87577 0
M  V30 1440 H 141.152 0.97179 -6.02817 0
M  V30 1441 H 142.566 -1.25764 -5.59336 0
M  V30 1442 H 140.963 -2.04739 -5.64094 0
M  V30 1443 H 142.033 -2.32544 -4.25501 0
M  V30 1444 N 143.376 1.44774 -0.622745 0
M  V30 1445 C 144.623 2.02121 -0.1239 0
M  V30 1446 C 144.951 1.48915 1.25118 0
M  V30 1447 O 144.206 0.660045 1.84233 0
M  V30 1448 C 144.505 3.57364 -0.0508323 0
M  V30 1449 C 144.171 4.29787 -1.36358 0
M  V30 1450 C 142.833 4.4929 -1.72314 0
M  V30 1451 C 145.185 4.71062 -2.23048 0
M  V30 1452 C 142.513 5.07325 -2.94682 0
M  V30 1453 C 144.865 5.30452 -3.44679 0
M  V30 1454 C 143.529 5.48175 -3.80868 0
M  V30 1455 H 142.799 0.739612 -0.0453381 0
M  V30 1456 H 145.446 1.73648 -0.807389 0
M  V30 1457 H 143.751 3.85202 0.715991 0
M  V30 1458 H 145.448 3.99456 0.351533 0
M  V30 1459 H 142.038 4.14932 -1.07375 0
M  V30 1460 H 146.222 4.55715 -1.96565 0
M  V30 1461 H 141.478 5.19235 -3.22809 0
M  V30 1462 H 145.652 5.61385 -4.12092 0
M  V30 1463 H 143.279 5.92912 -4.75773 0
M  V30 1464 N 144.854 0.36279 1.53368 0
M  V30 1465 C 146.101 -0.227776 2.01215 0
M  V30 1466 C 146.429 -1.49003 1.25014 0
M  V30 1467 O 145.684 -1.92876 0.331236 0
M  V30 1468 C 145.983 -0.568417 3.52851 0
M  V30 1469 C 145.649 0.59918 4.46901 0
M  V30 1470 C 144.311 0.919559 4.72332 0
M  V30 1471 C 146.663 1.38156 5.02556 0
M  V30 1472 C 143.991 2.02434 5.5067 0
M  V30 1473 C 146.343 2.47674 5.821 0
M  V30 1474 C 145.007 2.8025 6.05819 0
M  V30 1475 H 144.277 -0.083349 0.736297 0
M  V30 1476 H 146.924 0.494677 1.85001 0
M  V30 1477 H 145.229 -1.37185 3.66998 0
M  V30 1478 H 146.926 -1.03756 3.87344 0
M  V30 1479 H 143.516 0.339437 4.27254 0
M  V30 1480 H 147.7 1.14729 4.82857 0
M  V30 1481 H 142.956 2.28075 5.67267 0
M  V30 1482 H 147.13 3.08716 6.24234 0
M  V30 1483 H 144.757 3.65979 6.66306 0
M  V30 1484 N 146.332 -1.57332 0.0918853 0
M  V30 1485 C 147.295 -2.12708 -0.85369 0
M  V30 1486 C 148.295 -1.05561 -1.213 0
M  V30 1487 O 149.485 -1.31461 -1.14296 0
M  V30 1488 C 146.617 -2.64503 -2.15061 0
M  V30 1489 H 147.81 -2.97573 -0.3729 0
M  V30 1490 H 145.363 -1.55509 -0.157072 0
M  V30 1491 H 146.098 -1.83149 -2.67632 0
M  V30 1492 H 145.883 -3.4284 -1.90272 0
M  V30 1493 H 147.373 -3.07351 -2.82711 0
M  V30 1494 N 147.81 0.181792 -1.56548 0
M  V30 1495 C 149.035 0.920019 -1.85877 0
M  V30 1496 C 149.46 1.75494 -0.677021 0
M  V30 1497 O 148.818 1.77399 0.374056 0
M  V30 1498 C 148.866 1.78112 -3.13542 0
M  V30 1499 O 147.97 2.88152 -2.95029 0
M  V30 1500 H 147.311 0.258334 -0.611686 0
M  V30 1501 H 149.841 0.183092 -2.03779 0
M  V30 1502 H 149.851 2.18314 -3.44678 0
M  V30 1503 H 148.526 1.16777 -3.99169 0
M  V30 1504 H 147.103 2.51609 -2.75222 0
M  V30 1505 N 149.288 1.51039 0.449983 0
M  V30 1506 C 150.516 1.66869 1.2232 0
M  V30 1507 C 150.931 0.360727 1.85322 0
M  V30 1508 O 150.288 -0.659531 1.70166 0
M  V30 1509 C 150.339 2.77524 2.31652 0
M  V30 1510 O 150.06 4.03252 1.7123 0
M  V30 1511 C 151.561 3.04512 3.2216 0
M  V30 1512 H 148.781 0.560326 0.369155 0
M  V30 1513 H 151.325 1.97385 0.534719 0
M  V30 1514 H 149.48 2.49642 2.96239 0
M  V30 1515 H 149.894 4.64609 2.43389 0
M  V30 1516 H 151.368 3.85551 3.95038 0
M  V30 1517 H 151.845 2.16415 3.8218 0
M  V30 1518 H 152.451 3.34005 2.63288 0
M  V30 1519 N 150.766 -0.704594 1.40972 0
M  V30 1520 C 151.696 -1.83124 1.44872 0
M  V30 1521 C 152.677 -1.67281 0.30838 0
M  V30 1522 O 153.862 -1.87149 0.518556 0
M  V30 1523 C 150.992 -3.21181 1.32136 0
M  V30 1524 C 149.946 -3.51714 2.43888 0
M  V30 1525 C 149.272 -4.89032 2.16222 0
M  V30 1526 C 150.572 -3.516 3.86232 0
M  V30 1527 H 152.266 -1.80117 2.39161 0
M  V30 1528 H 149.812 -0.865145 1.15114 0
M  V30 1529 H 151.765 -3.99702 1.33479 0
M  V30 1530 H 150.489 -3.24791 0.343279 0
M  V30 1531 H 149.148 -2.75539 2.41813 0
M  V30 1532 H 148.796 -4.89256 1.16778 0
M  V30 1533 H 148.496 -5.10426 2.911 0
M  V30 1534 H 150.02 -5.69873 2.19265 0
M  V30 1535 H 151.434 -4.2014 3.9007 0
M  V30 1536 H 149.831 -3.84523 4.60719 0
M  V30 1537 H 150.901 -2.50757 4.15029 0
M  V30 1538 N 152.244 -1.26651 -0.937939 0
M  V30 1539 C 153.493 -1.11775 -1.67897 0
M  V30 1540 C 153.806 0.33794 -1.92659 0
M  V30 1541 O 155.012 0.607434 -2.64618 0
M  V30 1542 C 153.468 -1.9523 -3.02346 0
M  V30 1543 C 153.076 -3.45393 -2.8532 0
M  V30 1544 C 154.82 -1.88972 -3.80118 0
M  V30 1545 C 152.727 -4.21083 -4.15263 0
M  V30 1546 H 151.657 -0.414696 -0.629717 0
M  V30 1547 H 154.308 -1.50988 -1.04283 0
M  V30 1548 H 152.69 -1.48853 -3.66959 0
M  V30 1549 H 153.864 -3.99561 -2.29537 0
M  V30 1550 H 152.179 -3.52921 -2.20988 0
M  V30 1551 H 154.776 -2.42805 -4.76392 0
M  V30 1552 H 155.119 -0.86113 -4.07296 0
M  V30 1553 H 155.652 -2.33189 -3.22285 0
M  V30 1554 H 152.391 -5.24425 -3.93267 0
M  V30 1555 H 151.911 -3.71695 -4.70747 0
M  V30 1556 H 153.59 -4.29706 -4.83696 0
M  V30 1557 N 153.722 1.14298 -1.08507 0
M  V30 1558 C 154.95 1.89219 -0.836876 0
M  V30 1559 C 155.365 1.78638 0.611054 0
M  V30 1560 O 154.722 1.14643 1.41998 0
M  V30 1561 C 154.773 3.39158 -1.25116 0
M  V30 1562 O 154.494 3.49449 -2.64229 0
M  V30 1563 C 155.995 4.31073 -1.03398 0
M  V30 1564 H 153.215 0.599328 -0.301739 0
M  V30 1565 H 155.759 1.44746 -1.44461 0
M  V30 1566 H 153.914 3.81251 -0.687514 0
M  V30 1567 H 154.328 4.42589 -2.81452 0
M  V30 1568 H 155.802 5.34646 -1.37323 0
M  V30 1569 H 156.279 4.3919 0.0289259 0
M  V30 1570 H 156.885 3.94738 -1.58311 0
M  V30 1571 N 155.201 0.870884 1.31352 0
M  V30 1572 C 156.429 0.49677 2.00848 0
M  V30 1573 C 156.844 -0.910998 1.65367 0
M  V30 1574 O 156.201 -1.59696 0.883374 0
M  V30 1575 C 156.252 0.645308 3.55694 0
M  V30 1576 O 155.973 1.99764 3.89905 0
M  V30 1577 C 157.474 0.272326 4.42463 0
M  V30 1578 H 154.694 0.193462 0.642506 0
M  V30 1579 H 157.238 1.1723 1.67563 0
M  V30 1580 H 155.393 0.0173176 3.87396 0
M  V30 1581 H 155.807 2.00607 4.84621 0
M  V30 1582 H 157.281 0.427208 5.50344 0
M  V30 1583 H 157.758 -0.788587 4.32062 0
M  V30 1584 H 158.364 0.876054 4.1618 0
M  V30 1585 N 156.679 -1.44442 0.630414 0
M  V30 1586 C 157.925 -2.02351 0.134816 0
M  V30 1587 C 158.258 -1.4947 -1.23986 0
M  V30 1588 O 157.533 -0.678475 -1.82283 0
M  V30 1589 C 157.816 -3.59898 0.120707 0
M  V30 1590 C 157.669 -4.23063 1.52767 0
M  V30 1591 C 158.988 -4.36585 -0.555127 0
M  V30 1592 H 156.107 -0.73527 0.0504646 0
M  V30 1593 H 158.749 -1.72022 0.806751 0
M  V30 1594 H 156.899 -3.85868 -0.451477 0
M  V30 1595 H 158.571 -4.08202 2.14869 0
M  V30 1596 H 156.814 -3.80586 2.08175 0
M  V30 1597 H 157.485 -5.32071 1.46984 0
M  V30 1598 H 159.961 -4.16044 -0.0685429 0
M  V30 1599 H 158.837 -5.46294 -0.534185 0
M  V30 1600 H 159.098 -4.11138 -1.62535 0
M  V30 1601 N 158.157 -0.370918 -1.53173 0
M  V30 1602 C 159.405 0.216673 -2.00935 0
M  V30 1603 C 159.726 1.48845 -1.25977 0
M  V30 1604 O 158.996 1.92286 -0.374551 0
M  V30 1605 H 157.576 0.0830565 -0.742368 0
M  V30 1606 H 160.238 -0.49838 -1.8842 0
M  V30 1607 H 159.334 0.439893 -3.08984 0
M  V30 1608 N 159.635 1.57281 -0.100228 0
M  V30 1609 C 160.865 1.98591 0.569681 0
M  V30 1610 C 161.273 0.978315 1.61943 0
M  V30 1611 O 160.616 -0.0396108 1.83657 0
M  V30 1612 C 160.678 3.36282 1.271 0
M  V30 1613 C 160.342 4.55488 0.371409 0
M  V30 1614 C 161.339 5.18491 -0.382504 0
M  V30 1615 C 159.024 5.01474 0.287965 0
M  V30 1616 C 161.018 6.25852 -1.20779 0
M  V30 1617 C 158.705 6.08701 -0.540965 0
M  V30 1618 C 159.703 6.70755 -1.28749 0
M  V30 1619 O 159.391 7.75914 -2.10269 0
M  V30 1620 H 159.123 0.65752 0.156982 0
M  V30 1621 H 161.677 2.0463 -0.177734 0
M  V30 1622 H 159.907 3.26941 2.0651 0
M  V30 1623 H 161.596 3.62005 1.83595 0
M  V30 1624 H 162.362 4.83891 -0.3278 0
M  V30 1625 H 158.241 4.52932 0.858689 0
M  V30 1626 H 161.785 6.74218 -1.79096 0
M  V30 1627 H 157.682 6.42732 -0.597131 0
M  V30 1628 H 158.45 7.92925 -2.03007 0
M  V30 1629 N 161.113 -0.173488 1.56642 0
M  V30 1630 C 162.361 -0.888706 1.81512 0
M  V30 1631 C 162.682 -1.82875 0.676872 0
M  V30 1632 O 161.952 -1.93536 -0.303414 0
M  V30 1633 H 160.532 -0.331164 0.669582 0
M  V30 1634 H 163.194 -0.173823 1.94123 0
M  V30 1635 H 162.29 -1.46691 2.75478 0
M  V30 1636 N 162.591 -1.51276 -0.441967 0
M  V30 1637 C 163.821 -1.67273 -1.21257 0
M  V30 1638 C 164.229 -0.367624 -1.85594 0
M  V30 1639 O 163.572 0.663349 -1.71305 0
M  V30 1640 C 163.634 -2.72807 -2.34129 0
M  V30 1641 C 163.298 -4.1554 -1.90198 0
M  V30 1642 C 164.295 -5.00471 -1.40801 0
M  V30 1643 C 161.98 -4.61616 -1.9803 0
M  V30 1644 C 163.974 -6.29536 -0.998174 0
M  V30 1645 C 161.661 -5.90679 -1.56658 0
M  V30 1646 C 162.659 -6.74466 -1.07633 0
M  V30 1647 O 162.347 -8.01116 -0.668459 0
M  V30 1648 H 162.079 -0.564614 -0.371734 0
M  V30 1649 H 164.633 -1.9843 -0.530521 0
M  V30 1650 H 162.863 -2.36954 -3.05597 0
M  V30 1651 H 164.552 -2.77729 -2.96009 0
M  V30 1652 H 165.318 -4.66079 -1.34148 0
M  V30 1653 H 161.197 -3.96526 -2.35135 0
M  V30 1654 H 164.741 -6.94885 -0.61482 0
M  V30 1655 H 160.638 -6.24586 -1.62979 0
M  V30 1656 H 161.406 -8.14633 -0.794722 0
M  V30 1657 N 164.069 0.697108 -1.41344 0
M  V30 1658 C 165.297 1.48593 -1.43972 0
M  V30 1659 C 165.712 1.88747 -0.0445612 0
M  V30 1660 O 165.069 1.56682 0.935785 0
M  V30 1661 C 165.12 2.74946 -2.34706 0
M  V30 1662 O 164.841 2.36484 -3.68791 0
M  V30 1663 C 166.342 3.687 -2.46121 0
M  V30 1664 H 163.562 0.457964 -0.490418 0
M  V30 1665 H 166.106 0.858429 -1.8561 0
M  V30 1666 H 164.261 3.33937 -1.9638 0
M  V30 1667 H 164.675 3.17918 -4.17167 0
M  V30 1668 H 166.149 4.54145 -3.13777 0
M  V30 1669 H 166.626 4.13081 -1.49199 0
M  V30 1670 H 167.232 3.15613 -2.85076 0
M  V30 1671 N 165.547 1.27147 0.931209 0
M  V30 1672 C 166.775 1.16082 1.71267 0
M  V30 1673 C 167.19 -0.282772 1.8667 0
M  V30 1674 O 166.547 -1.19283 1.38122 0
M  V30 1675 C 166.598 1.8358 3.11417 0
M  V30 1676 O 166.319 3.22299 2.96741 0
M  V30 1677 C 167.82 1.78597 4.05732 0
M  V30 1678 H 165.04 0.403758 0.535929 0
M  V30 1679 H 167.584 1.67953 1.16671 0
M  V30 1680 H 165.739 1.35623 3.62885 0
M  V30 1681 H 166.153 3.55851 3.85319 0
M  V30 1682 H 167.627 2.30444 5.01597 0
M  V30 1683 H 168.104 0.754564 4.3267 0
M  V30 1684 H 168.71 2.26152 3.60188 0
M  V30 1685 N 167.025 -1.13721 1.09112 0
M  V30 1686 C 168.436 -1.6648 0.845068 0
M  V30 1687 C 168.787 -1.85911 -0.62701 0
M  V30 1688 O 167.912 -1.57556 -1.48341 0
M  V30 1689 C 168.507 -3.02413 1.52748 0
M  V30 1690 C 167.066 -3.52176 1.32849 0
M  V30 1691 C 166.213 -2.27492 1.58564 0
M  V30 1692 H 169.164 -0.976872 1.25072 0
M  V30 1693 H 169.185 -3.68223 0.958752 0
M  V30 1694 H 168.697 -2.88238 2.59885 0
M  V30 1695 H 166.798 -3.7156 0.278137 0
M  V30 1696 H 166.911 -4.32499 2.0611 0
M  V30 1697 H 165.275 -2.33923 1.00758 0
M  V30 1698 H 166.058 -2.15886 2.66924 0
M  V30 1699 N 168.503 -0.877838 -1.30888 0
M  V30 1700 C 169.433 -0.35534 -2.3078 0
M  V30 1701 C 170.414 0.557994 -1.60687 0
M  V30 1702 O 171.599 0.473355 -1.88343 0
M  V30 1703 C 168.729 0.437221 -3.44537 0
M  V30 1704 C 167.683 -0.383715 -4.26276 0
M  V30 1705 C 167.009 0.535014 -5.32017 0
M  V30 1706 C 168.309 -1.62201 -4.96476 0
M  V30 1707 H 170.003 -1.19007 -2.74732 0
M  V30 1708 H 167.549 -0.573698 -1.32078 0
M  V30 1709 H 169.502 0.813334 -4.13477 0
M  V30 1710 H 168.226 1.30553 -2.99372 0
M  V30 1711 H 166.885 -0.741874 -3.59015 0
M  V30 1712 H 166.533 1.40083 -4.831 0
M  V30 1713 H 166.233 -0.0104211 -5.87599 0
M  V30 1714 H 167.757 0.907799 -6.03814 0
M  V30 1715 H 169.171 -1.31689 -5.5797 0
M  V30 1716 H 167.568 -2.10711 -5.61891 0
M  V30 1717 H 168.638 -2.37044 -4.23011 0
M  V30 1718 N 169.982 1.44106 -0.638065 0
M  V30 1719 C 171.21 2.06336 -0.152615 0
M  V30 1720 C 171.625 1.47731 1.17563 0
M  V30 1721 O 170.982 0.602806 1.72257 0
M  V30 1722 C 171.033 3.61479 -0.0391491 0
M  V30 1723 O 170.754 4.17903 -1.31487 0
M  V30 1724 C 172.255 4.40757 0.474176 0
M  V30 1725 H 169.475 0.665862 -0.0828776 0
M  V30 1726 H 172.019 1.84862 -0.87443 0
M  V30 1727 H 170.174 3.82191 0.633142 0
M  V30 1728 H 170.588 5.11416 -1.16421 0
M  V30 1729 H 172.062 5.49707 0.502562 0
M  V30 1730 H 172.539 4.12697 1.50258 0
M  V30 1731 H 173.145 4.24979 -0.165102 0
M  V30 1732 N 171.46 0.379036 1.52974 0
M  V30 1733 C 172.737 -0.263479 1.93817 0
M  V30 1734 C 173.117 -1.65244 1.31368 0
M  V30 1735 O 172.465 -2.23448 0.477856 0
M  V30 1736 C 172.675 -0.300166 3.47707 0
M  V30 1737 C 174.023 -0.534061 4.21228 0
M  V30 1738 O 175.047 -0.38081 3.54159 0
M  V30 1739 O 173.906 -0.833501 5.40106 0
M  V30 1740 H 171 -0.161149 0.811147 0
M  V30 1741 H 173.546 0.432798 1.64088 0
M  V30 1742 H 172.318 0.673138 3.85467 0
M  V30 1743 H 171.941 -1.04179 3.83709 0
M  V30 1744 N 172.938 -1.57226 0.108567 0
M  V30 1745 C 173.901 -2.13602 -0.831082 0
M  V30 1746 C 174.901 -1.06841 -1.20173 0
M  V30 1747 O 176.091 -1.32666 -1.12895 0
M  V30 1748 C 173.223 -2.66769 -2.12243 0
M  V30 1749 H 174.416 -2.97951 -0.341317 0
M  V30 1750 H 171.969 -1.55667 -0.14057 0
M  V30 1751 H 172.704 -1.85977 -2.65675 0
M  V30 1752 H 172.489 -3.44839 -1.86625 0
M  V30 1753 H 173.979 -3.10332 -2.79435 0
M  V30 1754 N 174.416 0.165178 -1.56732 0
M  V30 1755 C 175.664 0.879068 -1.8198 0
M  V30 1756 C 175.985 1.82514 -0.686561 0
M  V30 1757 O 175.255 1.93694 0.293146 0
M  V30 1758 H 173.835 0.327608 -0.671329 0
M  V30 1759 H 176.497 0.163526 -1.94213 0
M  V30 1760 H 175.593 1.45228 -2.76252 0
M  V30 1761 N 175.894 1.51508 0.433938 0
M  V30 1762 C 176.841 1.73068 1.52696 0
M  V30 1763 C 177.811 0.572441 1.55924 0
M  V30 1764 O 178.996 0.807253 1.72882 0
M  V30 1765 C 176.136 1.86474 2.90381 0
M  V30 1766 C 175.249 3.14037 2.96656 0
M  V30 1767 C 174.384 3.18019 4.25485 0
M  V30 1768 C 173.423 4.39882 4.2564 0
M  V30 1769 N 172.56 4.41394 5.45999 0
M  V30 1770 H 177.4 2.66366 1.33615 0
M  V30 1771 H 174.937 1.32008 0.649018 0
M  V30 1772 H 176.895 1.92229 3.70275 0
M  V30 1773 H 175.525 0.965809 3.08013 0
M  V30 1774 H 174.577 3.17575 2.09404 0
M  V30 1775 H 175.889 4.0394 2.92633 0
M  V30 1776 H 175.043 3.22708 5.13755 0
M  V30 1777 H 173.782 2.2601 4.3217 0
M  V30 1778 H 172.787 4.35366 3.35763 0
M  V30 1779 H 174.012 5.33159 4.20617 0
M  V30 1780 H 171.958 3.52258 5.53399 0
M  V30 1781 H 171.875 5.25111 5.4387 0
M  V30 1782 H 173.143 4.50281 6.36292 0
M  V30 1783 N 177.372 -0.689602 1.41712 0
M  V30 1784 C 178.335 -1.78521 1.43746 0
M  V30 1785 C 179.335 -1.57436 0.327191 0
M  V30 1786 O 180.525 -1.64 0.587348 0
M  V30 1787 C 177.657 -3.16971 1.25467 0
M  V30 1788 H 178.85 -1.78108 2.41283 0
M  V30 1789 H 176.403 -0.89781 1.27942 0
M  V30 1790 H 177.138 -3.23019 0.287948 0
M  V30 1791 H 176.923 -3.33678 2.05917 0
M  V30 1792 H 178.413 -3.96935 1.2974 0
M  V30 1793 N 178.85 -1.27639 -0.924453 0
M  V30 1794 C 180.097 -1.14167 -1.67249 0
M  V30 1795 C 180.425 0.311863 -1.91984 0
M  V30 1796 O 179.68 1.24425 -1.51053 0
M  V30 1797 C 179.979 -1.87407 -3.04325 0
M  V30 1798 C 179.645 -3.37249 -2.99289 0
M  V30 1799 C 178.307 -3.7812 -2.97622 0
M  V30 1800 C 180.659 -4.32845 -2.90336 0
M  V30 1801 C 177.987 -5.12944 -2.8479 0
M  V30 1802 C 180.339 -5.6773 -2.79045 0
M  V30 1803 C 179.003 -6.07889 -2.7573 0
M  V30 1804 H 178.273 -0.417766 -0.612007 0
M  V30 1805 H 180.92 -1.58286 -1.07786 0
M  V30 1806 H 179.225 -1.35805 -3.67511 0
M  V30 1807 H 180.922 -1.74408 -3.61086 0
M  V30 1808 H 177.512 -3.04748 -3.01374 0
M  V30 1809 H 181.696 -4.02239 -2.90719 0
M  V30 1810 H 176.952 -5.432 -2.80612 0
M  V30 1811 H 181.126 -6.41472 -2.71083 0
M  V30 1812 H 178.753 -7.12314 -2.65544 0
M  V30 1813 N 180.328 1.1314 -1.09713 0
M  V30 1814 C 181.553 1.88862 -0.857081 0
M  V30 1815 C 181.978 1.78729 0.586304 0
M  V30 1816 O 181.336 1.13692 1.41222 0
M  V30 1817 C 181.384 3.36325 -1.30069 0
M  V30 1818 O 180.488 4.09815 -0.461007 0
M  V30 1819 H 179.829 0.587108 -0.310162 0
M  V30 1820 H 182.359 1.43129 -1.46203 0
M  V30 1821 H 182.369 3.87157 -1.28738 0
M  V30 1822 H 181.044 3.43017 -2.35185 0
M  V30 1823 H 179.621 3.68986 -0.538888 0
M  V30 1824 N 181.806 0.884767 1.30421 0
M  V30 1825 C 183.055 0.499164 1.95426 0
M  V30 1826 C 183.368 -0.95645 1.70621 0
M  V30 1827 O 184.574 -1.44889 2.29607 0
M  V30 1828 C 183.03 0.84177 3.49917 0
M  V30 1829 C 182.638 2.31514 3.83543 0
M  V30 1830 C 184.382 0.525355 4.21237 0
M  V30 1831 C 182.289 2.59939 5.31212 0
M  V30 1832 H 181.219 0.182944 0.73147 0
M  V30 1833 H 183.87 1.07971 1.48373 0
M  V30 1834 H 182.252 0.190311 3.95542 0
M  V30 1835 H 183.426 3.0109 3.48829 0
M  V30 1836 H 181.741 2.59907 3.25326 0
M  V30 1837 H 184.338 0.714762 5.29901 0
M  V30 1838 H 184.681 -0.535222 4.12845 0
M  V30 1839 H 185.214 1.134 3.81294 0
M  V30 1840 H 181.953 3.64736 5.44654 0
M  V30 1841 H 181.473 1.94972 5.67227 0
M  V30 1842 H 183.152 2.45429 5.98643 0
M  V30 1843 N 183.284 -1.43765 0.645699 0
M  V30 1844 C 184.247 -2.29163 -0.0409488 0
M  V30 1845 C 185.247 -1.41813 -0.757996 0
M  V30 1846 O 186.437 -1.63527 -0.600382 0
M  V30 1847 C 183.569 -3.23716 -1.06869 0
M  V30 1848 H 184.762 -2.91366 0.710345 0
M  V30 1849 H 182.315 -1.5092 0.406547 0
M  V30 1850 H 183.05 -2.66393 -1.84947 0
M  V30 1851 H 182.835 -3.88105 -0.558277 0
M  V30 1852 H 184.325 -3.87831 -1.54845 0
M  V30 1853 N 184.763 -0.387143 -1.52771 0
M  V30 1854 C 186.01 0.195735 -2.01552 0
M  V30 1855 C 186.338 1.46995 -1.27369 0
M  V30 1856 O 185.593 1.92325 -0.361879 0
M  V30 1857 C 185.892 0.512209 -3.53711 0
M  V30 1858 C 185.558 -0.670202 -4.45891 0
M  V30 1859 C 184.22 -0.994586 -4.70809 0
M  V30 1860 C 186.572 -1.46134 -5.00294 0
M  V30 1861 C 183.9 -2.11169 -5.4738 0
M  V30 1862 C 186.252 -2.56903 -5.78086 0
M  V30 1863 C 184.916 -2.89852 -6.01284 0
M  V30 1864 H 184.186 0.0716246 -0.73753 0
M  V30 1865 H 186.833 -0.524046 -1.8419 0
M  V30 1866 H 185.138 1.31329 -3.69134 0
M  V30 1867 H 186.835 0.975804 -3.88946 0
M  V30 1868 H 183.425 -0.407366 -4.2666 0
M  V30 1869 H 187.609 -1.22397 -4.80971 0
M  V30 1870 H 182.865 -2.3707 -5.63567 0
M  V30 1871 H 187.039 -3.18608 -6.19243 0
M  V30 1872 H 184.666 -3.76533 -6.60399 0
M  V30 1873 N 186.241 1.57166 -0.116904 0
M  V30 1874 C 187.204 2.14039 0.819742 0
M  V30 1875 C 188.204 1.07477 1.19605 0
M  V30 1876 O 189.394 1.33263 1.1219 0
M  V30 1877 C 186.526 2.67891 2.10826 0
M  V30 1878 H 187.719 2.98128 0.325511 0
M  V30 1879 H 185.272 1.55739 0.132312 0
M  V30 1880 H 186.007 1.87384 2.64685 0
M  V30 1881 H 185.792 3.45823 1.84793 0
M  V30 1882 H 187.282 3.11809 2.77785 0
M  V30 1883 N 187.719 -0.156864 1.56817 0
M  V30 1884 C 188.649 -1.19589 2.00551 0
M  V30 1885 C 189.63 -1.4536 0.883426 0
M  V30 1886 O 190.815 -1.56449 1.15054 0
M  V30 1887 C 187.945 -2.53143 2.37773 0
M  V30 1888 C 186.899 -2.41913 3.53075 0
M  V30 1889 C 186.225 -3.80088 3.76081 0
M  V30 1890 C 187.525 -1.91157 4.86062 0
M  V30 1891 H 189.219 -0.832293 2.87599 0
M  V30 1892 H 186.765 -0.398918 1.38364 0
M  V30 1893 H 188.718 -3.26047 2.66967 0
M  V30 1894 H 187.442 -2.91319 1.4765 0
M  V30 1895 H 186.101 -1.71462 3.24031 0
M  V30 1896 H 185.749 -4.15683 2.83225 0
M  V30 1897 H 185.449 -3.73439 4.53671 0
M  V30 1898 H 186.973 -4.54556 4.0769 0
M  V30 1899 H 188.387 -2.53846 5.14038 0
M  V30 1900 H 186.784 -1.95422 5.67389 0
M  V30 1901 H 187.854 -0.866673 4.77092 0
M  V30 1902 N 189.197 -1.51736 -0.425897 0
M  V30 1903 C 190.127 -1.76827 -1.52494 0
M  V30 1904 C 191.108 -0.618524 -1.58456 0
M  V30 1905 O 192.293 -0.862416 -1.74 0
M  V30 1906 C 189.423 -1.90374 -2.90474 0
M  V30 1907 C 188.377 -3.0588 -2.99369 0
M  V30 1908 C 187.703 -3.04625 -4.3944 0
M  V30 1909 C 189.003 -4.45644 -2.72394 0
M  V30 1910 H 190.697 -2.68855 -1.31748 0
M  V30 1911 H 188.243 -1.29372 -0.632362 0
M  V30 1912 H 190.196 -2.0651 -3.6733 0
M  V30 1913 H 188.92 -0.95004 -3.12477 0
M  V30 1914 H 187.579 -2.89467 -2.24954 0
M  V30 1915 H 187.227 -2.0701 -4.58428 0
M  V30 1916 H 186.927 -3.82195 -4.46319 0
M  V30 1917 H 188.451 -3.22869 -5.18255 0
M  V30 1918 H 189.865 -4.62348 -3.38979 0
M  V30 1919 H 188.262 -5.25006 -2.9067 0
M  V30 1920 H 189.332 -4.54893 -1.67929 0
M  V30 1921 N 190.675 0.682077 -1.42076 0
M  V30 1922 C 191.923 1.4393 -1.41876 0
M  V30 1923 C 192.244 1.94971 -0.0335599 0
M  V30 1924 O 191.514 1.72591 0.926773 0
M  V30 1925 H 190.094 0.534085 -0.522267 0
M  V30 1926 H 192.756 0.806427 -1.77434 0
M  V30 1927 H 191.852 2.29588 -2.11414 0
M  V30 1928 N 192.153 1.28127 0.917671 0
M  V30 1929 C 193.399 1.15223 1.66888 0
M  V30 1930 C 193.732 -0.299293 1.9188 0
M  V30 1931 O 193.007 -1.21805 1.51637 0
M  V30 1932 C 193.29 1.94706 3.02922 0
M  V30 1933 C 193.143 3.47898 2.85109 0
M  V30 1934 C 194.462 1.75939 4.03402 0
M  V30 1935 H 191.581 0.419946 0.605652 0
M  V30 1936 H 194.223 1.57398 1.06423 0
M  V30 1937 H 192.373 1.58864 3.54534 0
M  V30 1938 H 194.045 3.93624 2.40537 0
M  V30 1939 H 192.288 3.7373 2.20246 0
M  V30 1940 H 192.959 3.98765 3.81694 0
M  V30 1941 H 195.435 2.07209 3.60837 0
M  V30 1942 H 194.311 2.33931 4.96556 0
M  V30 1943 H 194.572 0.709877 4.36364 0
M  V30 1944 N 193.631 -1.12557 1.10312 0
M  V30 1945 C 195.042 -1.65574 0.862678 0
M  V30 1946 C 195.393 -1.86566 -0.607256 0
M  V30 1947 O 194.518 -1.59121 -1.46662 0
M  V30 1948 C 195.113 -3.00776 1.55947 0
M  V30 1949 C 193.672 -3.50748 1.36576 0
M  V30 1950 C 192.819 -2.25797 1.60968 0
M  V30 1951 H 195.77 -0.963552 1.26101 0
M  V30 1952 H 195.791 -3.67185 0.997753 0
M  V30 1953 H 195.303 -2.85465 2.62928 0
M  V30 1954 H 193.404 -3.71245 0.317531 0
M  V30 1955 H 193.517 -4.30289 2.10686 0
M  V30 1956 H 191.881 -2.32841 1.03234 0
M  V30 1957 H 192.664 -2.13043 2.69198 0
M  V30 1958 N 195.109 -0.891671 -1.2995 0
M  V30 1959 C 196.337 -0.52866 -2.00032 0
M  V30 1960 C 196.752 0.884574 -1.66795 0
M  V30 1961 O 196.109 1.5827 -0.908669 0
M  V30 1962 C 196.16 -0.701814 -3.54622 0
M  V30 1963 O 195.881 -2.05942 -3.86678 0
M  V30 1964 C 197.382 -0.342683 -4.41973 0
M  V30 1965 H 194.602 -0.203659 -0.639347 0
M  V30 1966 H 197.146 -1.19881 -1.65677 0
M  V30 1967 H 195.301 -0.0789468 -3.8732 0
M  V30 1968 H 195.715 -2.08291 -4.81368 0
M  V30 1969 H 197.189 -0.514709 -5.49595 0
M  V30 1970 H 197.666 0.71975 -4.33262 0
M  V30 1971 H 198.272 -0.942154 -4.14733 0
M  V30 1972 N 196.587 1.43421 -0.653314 0
M  V30 1973 C 197.815 2.06163 -0.174491 0
M  V30 1974 C 198.23 1.48969 1.1599 0
M  V30 1975 O 197.587 0.621042 1.71608 0
M  V30 1976 C 197.638 3.61417 -0.0774865 0
M  V30 1977 O 197.359 4.16485 -1.35912 0
M  V30 1978 C 198.86 4.41235 0.427402 0
M  V30 1979 H 196.08 0.664946 -0.0899353 0
M  V30 1980 H 198.624 1.83924 -0.893988 0
M  V30 1981 H 196.779 3.82841 0.59257 0
M  V30 1982 H 197.193 5.10153 -1.21839 0
M  V30 1983 H 198.667 5.5021 0.44423 0
M  V30 1984 H 199.144 4.14268 1.45873 0
M  V30 1985 H 199.75 4.2478 -0.210167 0
M  V30 1986 N 198.065 0.39524 1.52563 0
M  V30 1987 C 198.998 -0.4813 2.23067 0
M  V30 1988 C 199.976 -1.05927 1.23362 0
M  V30 1989 O 201.16 -1.10979 1.52368 0
M  V30 1990 C 198.287 -1.66676 2.9485 0
M  V30 1991 C 197.333 -1.21348 4.08873 0
M  V30 1992 S 198.166 -0.190102 5.35162 0
M  V30 1993 C 199.322 -1.38121 6.1047 0
M  V30 1994 H 199.555 0.117381 2.97068 0
M  V30 1995 H 197.088 0.179458 1.53354 0
M  V30 1996 H 199.046 -2.3466 3.36816 0
M  V30 1997 H 197.707 -2.23676 2.20518 0
M  V30 1998 H 196.9 -2.09877 4.58222 0
M  V30 1999 H 196.502 -0.612486 3.68951 0
M  V30 2000 H 198.794 -2.30726 6.37002 0
M  V30 2001 H 199.737 -0.928521 7.01986 0
M  V30 2002 H 200.145 -1.60071 5.41329 0
M  V30 2003 N 199.544 -1.57102 0.125237 0
M  V30 2004 C 200.474 -2.18659 -0.819174 0
M  V30 2005 C 201.455 -1.12843 -1.27281 0
M  V30 2006 O 202.64 -1.41104 -1.33429 0
M  V30 2007 C 199.77 -2.79096 -2.06695 0
M  V30 2008 C 198.724 -3.90548 -1.75088 0
M  V30 2009 C 198.05 -4.37821 -3.06948 0
M  V30 2010 C 199.35 -5.12356 -1.01435 0
M  V30 2011 H 201.044 -2.9783 -0.306202 0
M  V30 2012 H 198.59 -1.4326 -0.145839 0
M  V30 2013 H 200.543 -3.2082 -2.73226 0
M  V30 2014 H 199.267 -1.97223 -2.60328 0
M  V30 2015 H 197.926 -3.49409 -1.10944 0
M  V30 2016 H 197.574 -3.52799 -3.58527 0
M  V30 2017 H 197.274 -5.12982 -2.86571 0
M  V30 2018 H 198.798 -4.822 -3.74587 0
M  V30 2019 H 200.212 -5.5106 -1.58132 0
M  V30 2020 H 198.609 -5.9314 -0.911319 0
M  V30 2021 H 199.679 -4.849 -0.00218681 0
M  V30 2022 N 201.022 0.148545 -1.56898 0
M  V30 2023 C 201.952 1.18524 -2.01182 0
M  V30 2024 C 202.933 1.4489 -0.891123 0
M  V30 2025 O 204.118 1.55836 -1.15882 0
M  V30 2026 C 201.248 2.51879 -2.39112 0
M  V30 2027 C 200.202 2.40038 -3.54353 0
M  V30 2028 C 199.528 3.78089 -3.78091 0
M  V30 2029 C 200.828 1.88577 -4.87069 0
M  V30 2030 H 202.522 0.817029 -2.88036 0
M  V30 2031 H 200.068 0.391575 -1.38574 0
M  V30 2032 H 202.021 3.24627 -2.68692 0
M  V30 2033 H 200.745 2.90532 -1.49193 0
M  V30 2034 H 199.404 1.69742 -3.24936 0
M  V30 2035 H 199.052 4.14175 -2.85426 0
M  V30 2036 H 198.752 3.71028 -4.55645 0
M  V30 2037 H 200.276 4.52387 -4.10095 0
M  V30 2038 H 201.69 2.51117 -5.15377 0
M  V30 2039 H 200.087 1.9241 -5.68417 0
M  V30 2040 H 201.157 0.84136 -4.77545 0
M  V30 2041 N 202.5 1.5196 0.417844 0
M  V30 2042 C 203.43 1.77634 1.51554 0
M  V30 2043 C 204.411 0.626918 1.58126 0
M  V30 2044 O 205.596 0.871632 1.7354 0
M  V30 2045 C 202.726 1.91911 2.8946 0
M  V30 2046 C 201.68 3.07463 2.97743 0
M  V30 2047 C 201.006 3.06951 4.37819 0
M  V30 2048 C 202.306 4.47082 2.70027 0
M  V30 2049 H 204 2.6955 1.3032 0
M  V30 2050 H 201.546 1.29706 0.625492 0
M  V30 2051 H 203.499 2.08455 3.6623 0
M  V30 2052 H 202.223 0.966598 3.11969 0
M  V30 2053 H 200.882 2.90656 2.23416 0
M  V30 2054 H 200.53 2.09438 4.57323 0
M  V30 2055 H 200.23 3.84556 4.44286 0
M  V30 2056 H 201.754 3.25613 5.16535 0
M  V30 2057 H 203.168 4.6414 3.36522 0
M  V30 2058 H 201.565 5.2654 2.87881 0
M  V30 2059 H 202.635 4.55777 1.65514 0
M  V30 2060 N 203.978 -0.674533 1.42435 0
M  V30 2061 C 205.206 -1.46283 1.46317 0
M  V30 2062 C 205.621 -1.88653 0.0745836 0
M  V30 2063 O 204.978 -1.58151 -0.91074 0
M  V30 2064 C 205.029 -2.71178 2.3905 0
M  V30 2065 O 204.75 -2.30586 3.72507 0
M  V30 2066 C 206.251 -3.64738 2.51955 0
M  V30 2067 H 203.471 -0.450104 0.497642 0
M  V30 2068 H 206.015 -0.828792 1.86953 0
M  V30 2069 H 204.17 -3.3077 2.01667 0
M  V30 2070 H 204.584 -3.11241 4.22172 0
M  V30 2071 H 206.058 -4.49096 3.20962 0
M  V30 2072 H 206.535 -4.10656 1.55752 0
M  V30 2073 H 207.141 -3.11038 2.90061 0
M  V30 2074 N 205.456 -1.28612 -0.910864 0
M  V30 2075 C 206.419 -1.12803 -1.9952 0
M  V30 2076 C 207.419 -0.0668264 -1.60661 0
M  V30 2077 O 208.609 -0.312847 -1.71368 0
M  V30 2078 C 205.741 -0.72254 -3.33155 0
M  V30 2079 H 206.934 -2.09109 -2.14973 0
M  V30 2080 H 204.487 -1.11639 -1.09391 0
M  V30 2081 H 205.222 0.241152 -3.23402 0
M  V30 2082 H 205.007 -1.48916 -3.62721 0
M  V30 2083 H 206.497 -0.634666 -4.12749 0
M  V30 2084 N 206.934 1.1197 -1.10907 0
M  V30 2085 C 208.159 1.87942 -0.877064 0
M  V30 2086 C 208.584 1.79341 0.567314 0
M  V30 2087 O 207.942 1.15184 1.40009 0
M  V30 2088 C 207.99 3.34926 -1.33629 0
M  V30 2089 O 207.094 4.09303 -0.504447 0
M  V30 2090 H 206.435 0.583785 -0.316371 0
M  V30 2091 H 208.965 1.4157 -1.47712 0
M  V30 2092 H 208.975 3.8577 -1.32837 0
M  V30 2093 H 207.65 3.40504 -2.3881 0
M  V30 2094 H 206.227 3.68393 -0.577993 0
M  V30 2095 N 208.412 0.89855 1.29475 0
M  V30 2096 C 209.375 0.380272 2.26023 0
M  V30 2097 C 210.375 -0.484891 1.53315 0
M  V30 2098 O 211.565 -0.290108 1.71767 0
M  V30 2099 C 208.697 -0.45651 3.3783 0
M  V30 2100 H 209.89 1.23295 2.73383 0
M  V30 2101 H 207.443 0.676589 1.40897 0
M  V30 2102 H 208.178 -1.32922 2.95808 0
M  V30 2103 H 207.963 0.163393 3.91759 0
M  V30 2104 H 209.453 -0.810466 4.0966 0
M  V30 2105 N 209.89 -1.43072 0.660911 0
M  V30 2106 C 210.822 -2.29108 -0.0647641 0
M  V30 2107 C 211.835 -1.42928 -0.779448 0
M  V30 2108 O 213.024 -1.66788 -0.635921 0
M  V30 2109 C 210.124 -3.20032 -1.11503 0
M  V30 2110 C 209.297 -4.34792 -0.476955 0
M  V30 2111 C 208.356 -5.06534 -1.42513 0
M  V30 2112 O 207.382 -5.61538 -0.930771 0
M  V30 2113 N 208.584 -5.1075 -2.75889 0
M  V30 2114 H 211.349 -2.92029 0.673731 0
M  V30 2115 H 208.91 -1.53846 0.50427 0
M  V30 2116 H 210.902 -3.64892 -1.75032 0
M  V30 2117 H 209.472 -2.58658 -1.75541 0
M  V30 2118 H 208.692 -3.92752 0.337572 0
M  V30 2119 H 209.98 -5.0879 -0.0318525 0
M  V30 2120 H 209.378 -4.67447 -3.18606 0
M  V30 2121 H 207.935 -5.59302 -3.347 0
M  V30 2122 N 211.368 -0.403325 -1.52352 0
M  V30 2123 C 212.784 -0.0539281 -1.59509 0
M  V30 2124 C 212.984 1.43307 -1.41652 0
M  V30 2125 O 212.04 2.19924 -1.24056 0
M  V30 2126 C 213.353 -0.543654 -2.95745 0
M  V30 2127 C 214.901 -0.501125 -3.08962 0
M  V30 2128 C 215.376 -0.967267 -4.47669 0
M  V30 2129 N 216.867 -0.923849 -4.53893 0
M  V30 2130 C 217.602 -1.25578 -5.5948 0
M  V30 2131 N 217.098 -1.65889 -6.72646 0
M  V30 2132 N 218.891 -1.17613 -5.49658 0
M  V30 2133 H 211.042 -1.37123 -1.62206 0
M  V30 2134 H 213.305 -0.56294 -0.76276 0
M  V30 2135 H 213.011 -1.58275 -3.14073 0
M  V30 2136 H 212.885 0.0498042 -3.77167 0
M  V30 2137 H 215.272 0.528909 -2.90321 0
M  V30 2138 H 215.353 -1.13056 -2.2946 0
M  V30 2139 H 214.997 -1.9956 -4.67053 0
M  V30 2140 H 214.927 -0.314698 -5.25659 0
M  V30 2141 H 217.418 -0.627403 -3.72655 0
M  V30 2142 H 217.731 -1.89543 -7.49195 0
M  V30 2143 H 216.076 -1.69787 -6.73942 0
M  V30 2144 H 219.267 -0.860115 -4.6013 0
M  V30 2145 H 219.44 -1.43812 -6.3184 0
M  V30 2146 N 212.846 1.57033 -0.133567 0
M  V30 2147 C 213.776 2.1909 0.807567 0
M  V30 2148 C 214.757 1.13517 1.26681 0
M  V30 2149 O 215.942 1.41809 1.32679 0
M  V30 2150 C 213.072 2.80188 2.05212 0
M  V30 2151 C 212.026 3.91471 1.73015 0
M  V30 2152 C 211.352 4.39443 3.04622 0
M  V30 2153 C 212.652 5.12886 0.987168 0
M  V30 2154 H 214.346 2.97988 0.290403 0
M  V30 2155 H 211.892 1.43335 0.138239 0
M  V30 2156 H 213.845 3.22264 2.71521 0
M  V30 2157 H 212.569 1.98601 2.59278 0
M  V30 2158 H 211.228 3.49993 1.0909 0
M  V30 2159 H 210.876 3.54695 3.56651 0
M  V30 2160 H 210.576 5.14495 2.83847 0
M  V30 2161 H 212.1 4.8418 3.72024 0
M  V30 2162 H 213.514 5.51891 1.55208 0
M  V30 2163 H 211.911 5.93615 0.87985 0
M  V30 2164 H 212.981 4.84894 -0.0235286 0
M  V30 2165 N 214.325 -0.140222 1.56975 0
M  V30 2166 C 215.55 -0.870414 1.88251 0
M  V30 2167 C 215.975 -1.73637 0.723312 0
M  V30 2168 O 215.333 -1.78329 -0.32689 0
M  V30 2169 C 215.381 -1.69737 3.18154 0
M  V30 2170 O 214.485 -2.80229 3.02565 0
M  V30 2171 H 213.826 -0.242025 0.61832 0
M  V30 2172 H 216.356 -0.128999 2.04193 0
M  V30 2173 H 216.366 -2.09099 3.50345 0
M  V30 2174 H 215.041 -1.06152 4.02125 0
M  V30 2175 H 213.618 -2.44224 2.81796 0
M  V30 2176 N 215.803 -1.52179 -0.40978 0
M  V30 2177 C 216.733 -1.78435 -1.5061 0
M  V30 2178 C 217.714 -0.635295 -1.57791 0
M  V30 2179 O 218.899 -0.880823 -1.73076 0
M  V30 2180 C 216.029 -1.93444 -2.88439 0
M  V30 2181 C 214.983 -3.09038 -2.96108 0
M  V30 2182 C 214.309 -3.09268 -4.36185 0
M  V30 2183 C 215.609 -4.48508 -2.67652 0
M  V30 2184 H 217.303 -2.70237 -1.28889 0
M  V30 2185 H 214.849 -1.30036 -0.618605 0
M  V30 2186 H 216.802 -2.10394 -3.65119 0
M  V30 2187 H 215.526 -0.983129 -3.11452 0
M  V30 2188 H 214.185 -2.91837 -2.21872 0
M  V30 2189 H 213.833 -2.11861 -4.56206 0
M  V30 2190 H 213.533 -3.86907 -4.42241 0
M  V30 2191 H 215.057 -3.28348 -5.14801 0
M  V30 2192 H 216.471 -4.65918 -3.34056 0
M  V30 2193 H 214.868 -5.28059 -2.85085 0
M  V30 2194 H 215.938 -4.56649 -1.63095 0
M  V30 2195 N 217.281 0.66697 -1.42791 0
M  V30 2196 C 218.211 1.79218 -1.49677 0
M  V30 2197 C 219.192 1.66405 -0.352623 0
M  V30 2198 O 220.377 1.85708 -0.567993 0
M  V30 2199 C 217.507 3.17565 -1.40605 0
M  V30 2200 C 216.461 3.45124 -2.53127 0
M  V30 2201 C 215.787 4.83127 -2.29112 0
M  V30 2202 C 217.087 3.41236 -3.95418 0
M  V30 2203 H 218.781 1.73713 -2.43853 0
M  V30 2204 H 216.327 0.83432 -1.17367 0
M  V30 2205 H 218.28 3.96022 -1.44029 0
M  V30 2206 H 217.004 3.23767 -0.429271 0
M  V30 2207 H 215.663 2.69031 -2.49034 0
M  V30 2208 H 215.311 4.85988 -1.29709 0
M  V30 2209 H 215.011 5.02528 -3.04531 0
M  V30 2210 H 216.535 5.63859 -2.34297 0
M  V30 2211 H 217.949 4.09651 -4.01073 0
M  V30 2212 H 216.346 3.72173 -4.70752 0
M  V30 2213 H 217.416 2.39665 -4.21532 0
M  V30 2214 N 218.759 1.29093 0.90403 0
M  V30 2215 C 219.689 1.16401 2.02418 0
M  V30 2216 C 220.67 0.0593085 1.69997 0
M  V30 2217 O 221.855 0.238021 1.92736 0
M  V30 2218 C 218.985 0.835233 3.37107 0
M  V30 2219 C 217.939 1.89578 3.83724 0
M  V30 2220 C 217.265 1.42041 5.15489 0
M  V30 2221 C 218.565 3.30394 4.04521 0
M  V30 2222 H 220.259 2.10109 2.13295 0
M  V30 2223 H 217.805 1.01157 1.02486 0
M  V30 2224 H 219.758 0.733169 4.14973 0
M  V30 2225 H 218.482 -0.137543 3.2631 0
M  V30 2226 H 217.141 1.98715 3.08071 0
M  V30 2227 H 216.789 0.436426 5.01103 0
M  V30 2228 H 216.489 2.12964 5.4765 0
M  V30 2229 H 218.013 1.33176 5.959 0
M  V30 2230 H 219.427 3.24123 4.72882 0
M  V30 2231 H 217.824 3.99237 4.48029 0
M  V30 2232 H 218.894 3.73692 3.09002 0
M  V30 2233 N 220.237 -1.11381 1.11499 0
M  V30 2234 C 221.465 -1.86934 0.88675 0
M  V30 2235 C 221.88 -1.80195 -0.563476 0
M  V30 2236 O 221.237 -1.18367 -1.38908 0
M  V30 2237 C 221.288 -3.35722 1.34064 0
M  V30 2238 O 221.009 -3.4232 2.73401 0
M  V30 2239 C 222.51 -4.2818 1.14791 0
M  V30 2240 H 219.73 -0.591117 0.317523 0
M  V30 2241 H 222.274 -1.40865 1.48248 0
M  V30 2242 H 220.429 -3.79294 0.788355 0
M  V30 2243 H 220.843 -4.34971 2.93087 0
M  V30 2244 H 222.317 -5.30817 1.5145 0
M  V30 2245 H 222.794 -4.39113 0.0875279 0
M  V30 2246 H 223.4 -3.90402 1.68721 0
M  V30 2247 N 221.715 -0.905404 -1.28997 0
M  V30 2248 C 222.665 -0.358713 -2.25161 0
M  V30 2249 C 223.649 0.524449 -1.52113 0
M  V30 2250 O 224.841 0.365534 -1.73184 0
M  V30 2251 C 221.97 0.407609 -3.40872 0
M  V30 2252 C 221.056 -0.490797 -4.21251 0
M  V30 2253 N 221.447 -1.60061 -4.79806 0
M  V30 2254 C 219.745 -0.289636 -4.45059 0
M  V30 2255 C 220.446 -2.15757 -5.40207 0
M  V30 2256 N 219.422 -1.44988 -5.23908 0
M  V30 2257 H 223.224 -1.20642 -2.67998 0
M  V30 2258 H 220.738 -0.757103 -1.43672 0
M  V30 2259 H 222.735 0.816046 -4.08835 0
M  V30 2260 H 221.395 1.25251 -2.9957 0
M  V30 2261 H 222.406 -1.98329 -4.7842 0
M  V30 2262 H 219.083 0.51643 -4.14294 0
M  V30 2263 H 220.473 -3.09069 -5.96595 0
M  V30 2264 N 223.193 1.4272 -0.668489 0
M  V30 2265 C 224.439 2.01923 -0.188419 0
M  V30 2266 C 224.772 1.52704 1.19979 0
M  V30 2267 O 224.047 0.726566 1.8042 0
M  V30 2268 C 224.33 3.59451 -0.216085 0
M  V30 2269 C 224.183 4.18864 -1.6393 0
M  V30 2270 C 225.502 4.37903 0.439179 0
M  V30 2271 H 222.621 0.733674 -0.0699412 0
M  V30 2272 H 225.263 1.69822 -0.852076 0
M  V30 2273 H 223.413 3.86929 0.349012 0
M  V30 2274 H 225.085 4.02362 -2.25616 0
M  V30 2275 H 223.328 3.74933 -2.18193 0
M  V30 2276 H 223.999 5.27987 -1.61039 0
M  V30 2277 H 226.475 4.16079 -0.0417878 0
M  V30 2278 H 225.351 5.47519 0.389157 0
M  V30 2279 H 225.612 4.15303 1.51577 0
M  V30 2280 N 224.671 0.411399 1.52136 0
M  V30 2281 C 226.082 -0.0576826 1.86611 0
M  V30 2282 C 226.433 -1.44238 1.33003 0
M  V30 2283 O 225.558 -2.05759 0.670228 0
M  V30 2284 C 226.153 -0.111448 3.38617 0
M  V30 2285 C 224.712 -0.52487 3.72723 0
M  V30 2286 C 223.859 0.299176 2.75681 0
M  V30 2287 H 226.81 0.628368 1.4573 0
M  V30 2288 H 226.831 -0.926252 3.69054 0
M  V30 2289 H 226.343 0.896488 3.77604 0
M  V30 2290 H 224.444 -1.53936 3.39315 0
M  V30 2291 H 224.557 -0.267681 4.78352 0
M  V30 2292 H 222.921 -0.238814 2.53578 0
M  V30 2293 H 223.704 1.3055 3.17508 0
M  V30 2294 N 226.149 -1.5696 0.141893 0
M  V30 2295 C 227.079 -2.19516 -0.795936 0
M  V30 2296 C 228.06 -1.14187 -1.26077 0
M  V30 2297 O 229.245 -1.42511 -1.31925 0
M  V30 2298 C 226.375 -2.81272 -2.03723 0
M  V30 2299 C 225.329 -3.92384 -1.70936 0
M  V30 2300 C 224.655 -4.41052 -3.02287 0
M  V30 2301 C 225.955 -5.13403 -0.959954 0
M  V30 2302 H 227.649 -2.98138 -0.274596 0
M  V30 2303 H 225.195 -1.43406 -0.130636 0
M  V30 2304 H 227.148 -3.237 -2.69808 0
M  V30 2305 H 225.872 -1.99973 -2.58221 0
M  V30 2306 H 224.531 -3.50566 -1.07232 0
M  V30 2307 H 224.179 -3.56582 -3.54765 0
M  V30 2308 H 223.879 -5.15993 -2.81114 0
M  V30 2309 H 225.403 -4.86146 -3.69451 0
M  V30 2310 H 226.817 -5.52706 -1.52279 0
M  V30 2311 H 225.214 -5.94073 -0.848357 0
M  V30 2312 H 226.284 -4.84875 0.0492434 0
M  V30 2313 N 227.627 0.131896 -1.57047 0
M  V30 2314 C 228.852 0.860418 -1.8871 0
M  V30 2315 C 229.277 1.73251 -0.73251 0
M  V30 2316 O 228.635 1.785 0.317429 0
M  V30 2317 C 228.683 1.68047 -3.19049 0
M  V30 2318 O 227.787 2.7862 -3.04047 0
M  V30 2319 H 227.128 0.238743 -0.619595 0
M  V30 2320 H 229.658 0.118169 -2.04258 0
M  V30 2321 H 229.668 2.07238 -3.51449 0
M  V30 2322 H 228.343 1.04018 -4.02682 0
M  V30 2323 H 226.92 2.42726 -2.83088 0
M  V30 2324 N 229.106 1.52395 0.401703 0
M  V30 2325 C 230.352 1.68019 1.14635 0
M  V30 2326 C 230.707 0.408722 1.88009 0
M  V30 2327 O 230 -0.597133 1.82057 0
M  V30 2328 C 230.194 2.84578 2.16217 0
M  V30 2329 C 230.023 4.22938 1.5282 0
M  V30 2330 C 228.793 4.88352 1.29772 0
M  V30 2331 C 230.991 5.04778 0.985094 0
M  V30 2332 N 228.973 6.10726 0.623455 0
M  V30 2333 C 230.344 6.1845 0.438172 0
M  V30 2334 C 232.399 4.90057 0.880275 0
M  V30 2335 C 231.102 7.19013 -0.203306 0
M  V30 2336 C 233.128 5.9086 0.252639 0
M  V30 2337 C 232.49 7.03829 -0.283573 0
M  V30 2338 H 228.589 0.668413 0.405892 0
M  V30 2339 H 231.173 1.89717 0.437674 0
M  V30 2340 H 229.344 2.64483 2.84435 0
M  V30 2341 H 231.076 2.89202 2.83098 0
M  V30 2342 H 227.831 4.46846 1.56926 0
M  V30 2343 H 228.255 6.76323 0.302733 0
M  V30 2344 H 232.897 4.02938 1.28065 0
M  V30 2345 H 230.615 8.05751 -0.615726 0
M  V30 2346 H 234.201 5.81543 0.172954 0
M  V30 2347 H 233.081 7.80493 -0.761575 0
M  V30 2348 N 230.584 -0.659388 1.43143 0
M  V30 2349 C 231.514 -1.78422 1.50625 0
M  V30 2350 C 232.495 -1.66216 0.361443 0
M  V30 2351 O 233.68 -1.85404 0.577834 0
M  V30 2352 C 230.81 -3.16815 1.42287 0
M  V30 2353 C 229.764 -3.43777 2.54954 0
M  V30 2354 C 229.09 -4.81905 2.31671 0
M  V30 2355 C 230.39 -3.39134 3.97222 0
M  V30 2356 H 232.084 -1.72417 2.44771 0
M  V30 2357 H 229.63 -0.828084 1.17808 0
M  V30 2358 H 231.583 -3.95253 1.46127 0
M  V30 2359 H 230.307 -3.23534 0.446435 0
M  V30 2360 H 228.966 -2.67707 2.50457 0
M  V30 2361 H 228.614 -4.85294 1.32284 0
M  V30 2362 H 228.314 -5.00906 3.07192 0
M  V30 2363 H 229.838 -5.62609 2.37284 0
M  V30 2364 H 231.252 -4.07518 4.03239 0
M  V30 2365 H 229.649 -3.69671 4.72719 0
M  V30 2366 H 230.719 -2.37426 4.22797 0
M  V30 2367 N 232.062 -1.29571 -0.897171 0
M  V30 2368 C 233.287 -1.20705 -1.68656 0
M  V30 2369 C 233.712 0.228582 -1.86706 0
M  V30 2370 O 233.07 1.16494 -1.3892 0
M  V30 2371 C 233.118 -1.9282 -3.04717 0
M  V30 2372 O 232.222 -1.24697 -3.93096 0
M  V30 2373 H 231.563 -0.418126 -0.515816 0
M  V30 2374 H 234.093 -1.71183 -1.12061 0
M  V30 2375 H 234.103 -2.01372 -3.54843 0
M  V30 2376 H 232.778 -2.97239 -2.90899 0
M  V30 2377 H 231.355 -1.2442 -3.51531 0
M  V30 2378 N 233.54 1.10788 -1.12088 0
M  V30 2379 C 234.473 2.16237 -0.729168 0
M  V30 2380 C 235.451 1.60207 0.277921 0
M  V30 2381 O 236.635 1.87707 0.172737 0
M  V30 2382 C 233.762 3.38609 -0.0786848 0
M  V30 2383 C 232.808 4.13322 -1.05201 0
M  V30 2384 S 233.641 4.69371 -2.57781 0
M  V30 2385 C 234.797 5.95058 -1.94053 0
M  V30 2386 H 235.03 2.4913 -1.62239 0
M  V30 2387 H 232.563 1.22519 -0.939603 0
M  V30 2388 H 234.521 4.09473 0.290254 0
M  V30 2389 H 233.182 3.03962 0.791593 0
M  V30 2390 H 232.375 5.01051 -0.544433 0
M  V30 2391 H 231.977 3.48251 -1.36371 0
M  V30 2392 H 234.269 6.65278 -1.28107 0
M  V30 2393 H 235.212 6.50472 -2.79807 0
M  V30 2394 H 235.62 5.46918 -1.39787 0
M  V30 2395 N 235.018 0.912232 1.28515 0
M  V30 2396 C 236.434 0.610159 1.47476 0
M  V30 2397 C 236.634 -0.844955 1.82928 0
M  V30 2398 O 235.69 -1.62416 1.93332 0
M  V30 2399 C 237.003 1.54675 2.57868 0
M  V30 2400 C 238.551 1.55331 2.71738 0
M  V30 2401 C 239.026 2.47649 3.85272 0
M  V30 2402 N 240.517 2.45767 3.92623 0
M  V30 2403 C 241.252 3.13896 4.79851 0
M  V30 2404 N 240.748 3.9135 5.71679 0
M  V30 2405 N 242.541 3.02991 4.73448 0
M  V30 2406 H 234.692 1.85318 1.03783 0
M  V30 2407 H 236.955 0.794777 0.516753 0
M  V30 2408 H 236.661 2.5841 2.38574 0
M  V30 2409 H 236.535 1.27671 3.54937 0
M  V30 2410 H 238.922 0.52335 2.90422 0
M  V30 2411 H 239.003 1.86378 1.75205 0
M  V30 2412 H 238.647 3.50745 3.67342 0
M  V30 2413 H 238.577 2.13904 4.81199 0
M  V30 2414 H 241.068 1.89503 3.26951 0
M  V30 2415 H 241.381 4.40359 6.35062 0
M  V30 2416 H 239.726 3.95455 5.71524 0
M  V30 2417 H 242.917 2.41987 4.007 0
M  V30 2418 H 243.09 3.5636 5.41213 0
M  V30 2419 N 236.496 -1.42363 0.676048 0
M  V30 2420 C 237.742 -2.02336 0.207809 0
M  V30 2421 C 238.097 -1.52506 -1.17302 0
M  V30 2422 O 237.39 -0.718048 -1.77636 0
M  V30 2423 C 237.584 -3.56929 0.183431 0
M  V30 2424 C 237.413 -4.21762 1.56036 0
M  V30 2425 C 236.183 -4.56881 2.15842 0
M  V30 2426 C 238.381 -4.49267 2.50327 0
M  V30 2427 N 236.363 -5.069 3.46303 0
M  V30 2428 C 237.734 -5.00851 3.65443 0
M  V30 2429 C 239.789 -4.31257 2.48841 0
M  V30 2430 C 238.492 -5.36317 4.79329 0
M  V30 2431 C 240.518 -4.678 3.61824 0
M  V30 2432 C 239.88 -5.19537 4.75668 0
M  V30 2433 H 235.979 -0.772583 0.120993 0
M  V30 2434 H 238.563 -1.73203 0.889306 0
M  V30 2435 H 236.734 -3.85576 -0.467483 0
M  V30 2436 H 238.466 -4.03603 -0.297808 0
M  V30 2437 H 235.221 -4.4268 1.68319 0
M  V30 2438 H 235.645 -5.36338 4.13123 0
M  V30 2439 H 240.287 -3.90511 1.62051 0
M  V30 2440 H 238.005 -5.75995 5.66794 0
M  V30 2441 H 241.591 -4.55541 3.61903 0
M  V30 2442 H 240.471 -5.47287 5.61646 0
M  V30 2443 N 237.974 -0.419461 -1.51915 0
M  V30 2444 C 239.222 0.152637 -2.01523 0
M  V30 2445 C 239.543 1.44762 -1.30649 0
M  V30 2446 O 238.813 1.90997 -0.435535 0
M  V30 2447 H 237.393 0.0593966 -0.744635 0
M  V30 2448 H 240.055 -0.558073 -1.86739 0
M  V30 2449 H 239.151 0.341369 -3.10227 0
M  V30 2450 N 239.452 1.56882 -0.150215 0
M  V30 2451 C 240.698 1.97299 0.494427 0
M  V30 2452 C 241.053 1.0338 1.62266 0
M  V30 2453 O 240.346 0.0694497 1.91474 0
M  V30 2454 C 240.54 3.41801 1.04437 0
M  V30 2455 C 240.369 4.49691 -0.0290451 0
M  V30 2456 C 239.139 5.03095 -0.47156 0
M  V30 2457 C 241.337 5.07693 -0.821703 0
M  V30 2458 N 239.319 5.94593 -1.52749 0
M  V30 2459 C 240.69 5.95431 -1.72805 0
M  V30 2460 C 242.745 4.90256 -0.869134 0
M  V30 2461 C 241.448 6.67599 -2.67777 0
M  V30 2462 C 243.474 5.63127 -1.8067 0
M  V30 2463 C 242.836 6.50576 -2.70057 0
M  V30 2464 H 238.935 0.76755 0.149639 0
M  V30 2465 H 241.519 1.93145 -0.24556 0
M  V30 2466 H 239.69 3.46541 1.75396 0
M  V30 2467 H 241.422 3.69272 1.6559 0
M  V30 2468 H 238.177 4.73543 -0.0732101 0
M  V30 2469 H 238.601 6.45047 -2.05531 0
M  V30 2470 H 243.243 4.22363 -0.192134 0
M  V30 2471 H 240.961 7.34717 -3.36476 0
M  V30 2472 H 244.547 5.51629 -1.84924 0
M  V30 2473 H 243.427 7.05974 -3.41424 0
M  V30 2474 N 240.93 -0.123565 1.57115 0
M  V30 2475 C 242.207 -0.862196 1.75572 0
M  V30 2476 C 242.587 -1.98279 0.724475 0
M  V30 2477 O 241.935 -2.27102 -0.252407 0
M  V30 2478 C 242.145 -1.38309 3.20424 0
M  V30 2479 C 243.493 -1.83724 3.82793 0
M  V30 2480 O 244.517 -1.47999 3.23998 0
M  V30 2481 O 243.376 -2.49685 4.86127 0
M  V30 2482 H 240.47 -0.409113 0.718718 0
M  V30 2483 H 243.016 -0.107661 1.69358 0
M  V30 2484 H 241.788 -0.578889 3.86994 0
M  V30 2485 H 241.411 -2.20046 3.31158 0
M  V30 2486 N 242.408 -1.52605 -0.393616 0
M  V30 2487 C 243.819 -1.59417 -0.971761 0
M  V30 2488 C 244.17 -0.444173 -1.91106 0
M  V30 2489 O 243.295 0.433382 -2.12016 0
M  V30 2490 C 243.89 -2.88936 -1.76921 0
M  V30 2491 C 242.449 -2.98175 -2.29714 0
M  V30 2492 C 241.596 -2.54491 -1.10135 0
M  V30 2493 H 244.547 -1.57751 -0.173317 0
M  V30 2494 H 244.568 -2.75163 -2.62804 0
M  V30 2495 H 244.08 -3.72616 -1.08532 0
M  V30 2496 H 242.181 -2.19024 -3.01429 0
M  V30 2497 H 242.294 -4.02726 -2.59517 0
M  V30 2498 H 240.658 -2.08702 -1.45999 0
M  V30 2499 H 241.441 -3.4056 -0.432874 0
M  V30 2500 N 243.887 0.651787 -1.4349 0
M  V30 2501 C 245.303 0.96762 -1.26922 0
M  V30 2502 C 245.503 2.00602 -0.189982 0
M  V30 2503 O 244.559 2.48793 0.431107 0
M  V30 2504 C 245.872 1.45052 -2.63401 0
M  V30 2505 C 247.42 1.5671 -2.70945 0
M  V30 2506 C 247.895 2.0839 -4.07845 0
M  V30 2507 N 249.386 2.1569 -4.09917 0
M  V30 2508 C 250.121 2.56804 -5.12679 0
M  V30 2509 N 249.617 2.97203 -6.25813 0
M  V30 2510 N 251.41 2.56756 -5.00033 0
M  V30 2511 H 243.561 -0.0353158 -2.12371 0
M  V30 2512 H 245.824 0.0467858 -0.946845 0
M  V30 2513 H 245.53 0.761926 -3.43348 0
M  V30 2514 H 245.404 2.42529 -2.88894 0
M  V30 2515 H 247.791 2.2467 -1.9133 0
M  V30 2516 H 247.872 0.57662 -2.49216 0
M  V30 2517 H 247.516 1.41031 -4.87927 0
M  V30 2518 H 247.446 3.08271 -4.26938 0
M  V30 2519 H 249.937 1.87237 -3.28254 0
M  V30 2520 H 250.25 3.27328 -7.00055 0
M  V30 2521 H 248.595 2.95004 -6.29283 0
M  V30 2522 H 251.786 2.24572 -4.10713 0
M  V30 2523 H 251.959 2.88475 -5.80247 0
M  V30 2524 N 245.365 1.30045 0.890287 0
M  V30 2525 C 246.781 1.08261 1.17268 0
M  V30 2526 C 246.981 -0.160063 2.00863 0
M  V30 2527 O 246.037 -0.855181 2.37577 0
M  V30 2528 C 247.35 2.34323 1.8845 0
M  V30 2529 C 248.898 2.39735 2.01237 0
M  V30 2530 C 249.373 3.65625 2.7583 0
M  V30 2531 N 250.864 3.66402 2.83379 0
M  V30 2532 C 251.599 4.60498 3.41657 0
M  V30 2533 N 251.095 5.64933 4.01026 0
M  V30 2534 N 252.888 4.48051 3.39421 0
M  V30 2535 H 245.039 2.09777 0.332762 0
M  V30 2536 H 247.302 0.92446 0.209948 0
M  V30 2537 H 247.008 3.2498 1.34465 0
M  V30 2538 H 246.882 2.4256 2.88867 0
M  V30 2539 H 249.269 1.4956 2.54393 0
M  V30 2540 H 249.35 2.35476 0.999232 0
M  V30 2541 H 248.994 4.56156 2.23347 0
M  V30 2542 H 248.924 3.67144 3.77509 0
M  V30 2543 H 251.415 2.90896 2.41222 0
M  V30 2544 H 251.728 6.32841 4.43545 0
M  V30 2545 H 250.073 5.68732 3.99461 0
M  V30 2546 H 253.264 3.65649 2.92264 0
M  V30 2547 H 253.437 5.21565 3.84544 0
M  V30 2548 N 246.843 -1.10192 1.12674 0
M  V30 2549 C 247.806 -2.14786 0.799979 0
M  V30 2550 C 248.806 -1.59711 -0.18685 0
M  V30 2551 O 249.996 -1.74156 0.0392558 0
M  V30 2552 C 247.128 -3.40374 0.189228 0
M  V30 2553 H 248.321 -2.45203 1.72671 0
M  V30 2554 H 245.874 -1.25597 0.930326 0
M  V30 2555 H 246.609 -3.15577 -0.747107 0
M  V30 2556 H 246.394 -3.81637 0.899766 0
M  V30 2557 H 247.884 -4.17594 -0.0228143 0
M  V30 2558 N 248.321 -0.919034 -1.28029 0
M  V30 2559 C 249.284 -0.416182 -2.2539 0
M  V30 2560 C 250.284 0.460438 -1.54067 0
M  V30 2561 O 251.474 0.262744 -1.72207 0
M  V30 2562 C 248.606 0.402707 -3.38513 0
M  V30 2563 H 249.799 -1.27629 -2.71387 0
M  V30 2564 H 247.352 -0.698919 -1.39803 0
M  V30 2565 H 248.087 1.282 -2.97885 0
M  V30 2566 H 247.872 -0.225698 -3.9145 0
M  V30 2567 H 249.362 0.745191 -4.10897 0
M  V30 2568 N 249.799 1.42003 -0.683588 0
M  V30 2569 C 251.039 2.03282 -0.213513 0
M  V30 2570 C 251.403 1.52924 1.16097 0
M  V30 2571 O 252.604 2.06048 1.7262 0
M  V30 2572 C 250.875 3.56483 -0.255856 0
M  V30 2573 S 252.434 4.3857 0.14193 0
M  V30 2574 H 249.252 0.705659 -0.0869853 0
M  V30 2575 H 251.854 1.73619 -0.8987 0
M  V30 2576 H 250.558 3.90631 -1.25841 0
M  V30 2577 H 250.089 3.90831 0.448875 0
M  V30 2578 H 252.104 4.76828 1.37295 0
M  V30 2579 N 251.277 0.427512 1.51691 0
M  V30 2580 C 252.523 -0.134744 2.02953 0
M  V30 2581 C 252.878 -1.41235 1.30654 0
M  V30 2582 O 252.171 -1.87168 0.409713 0
M  V30 2583 C 252.365 -0.418249 3.54944 0
M  V30 2584 C 252.194 0.830327 4.41968 0
M  V30 2585 C 250.964 1.36097 4.86627 0
M  V30 2586 C 253.162 1.7137 4.84909 0
M  V30 2587 N 251.144 2.56311 5.57833 0
M  V30 2588 C 252.515 2.76195 5.55082 0
M  V30 2589 C 254.57 1.72928 4.66905 0
M  V30 2590 C 253.273 3.82512 6.09161 0
M  V30 2591 C 255.299 2.78175 5.21894 0
M  V30 2592 C 254.661 3.8172 5.92004 0
M  V30 2593 H 250.76 -0.0103958 0.781931 0
M  V30 2594 H 253.344 0.585981 1.85673 0
M  V30 2595 H 251.515 -1.10801 3.7226 0
M  V30 2596 H 253.247 -0.970999 3.92879 0
M  V30 2597 H 250.002 0.916311 4.64651 0
M  V30 2598 H 250.426 3.17242 5.98069 0
M  V30 2599 H 255.068 0.942081 4.12171 0
M  V30 2600 H 252.786 4.62077 6.62956 0
M  V30 2601 H 256.372 2.8031 5.09821 0
M  V30 2602 H 255.252 4.61821 6.33791 0
M  V30 2603 N 252.755 -1.56801 0.158532 0
M  V30 2604 C 253.705 -2.13923 -0.788738 0
M  V30 2605 C 254.689 -1.07006 -1.2016 0
M  V30 2606 O 255.881 -1.33159 -1.1661 0
M  V30 2607 C 253.01 -2.77348 -2.02319 0
M  V30 2608 C 252.096 -3.91404 -1.6329 0
M  V30 2609 N 252.487 -4.9677 -0.951463 0
M  V30 2610 C 250.785 -4.02326 -1.92482 0
M  V30 2611 C 251.486 -5.76698 -0.761221 0
M  V30 2612 N 250.462 -5.27859 -1.29869 0
M  V30 2613 H 254.264 -2.92757 -0.258995 0
M  V30 2614 H 251.778 -1.62344 -0.0426055 0
M  V30 2615 H 253.775 -3.16639 -2.71192 0
M  V30 2616 H 252.435 -1.99991 -2.558 0
M  V30 2617 H 253.446 -5.14284 -0.610928 0
M  V30 2618 H 250.123 -3.36059 -2.47732 0
M  V30 2619 H 251.513 -6.71529 -0.223284 0
M  V30 2620 N 254.233 0.115231 -1.57178 0
M  V30 2621 C 255.163 1.1423 -2.03651 0
M  V30 2622 C 256.144 1.42967 -0.921655 0
M  V30 2623 O 257.329 1.53343 -1.19162 0
M  V30 2624 C 254.459 2.4675 -2.44401 0
M  V30 2625 C 253.413 2.32467 -3.59365 0
M  V30 2626 C 252.739 3.69984 -3.86026 0
M  V30 2627 C 254.039 1.78203 -4.90959 0
M  V30 2628 H 255.733 0.755749 -2.89705 0
M  V30 2629 H 253.279 0.362093 -1.39373 0
M  V30 2630 H 255.232 3.18854 -2.75517 0
M  V30 2631 H 253.956 2.87302 -1.55322 0
M  V30 2632 H 252.615 1.62811 -3.28463 0
M  V30 2633 H 252.263 4.08028 -2.94147 0
M  V30 2634 H 251.963 3.61279 -4.63412 0
M  V30 2635 H 253.487 4.43587 -4.19599 0
M  V30 2636 H 254.901 2.40128 -5.20587 0
M  V30 2637 H 253.298 1.8031 -5.72371 0
M  V30 2638 H 254.368 0.739876 -4.79222 0
M  V30 2639 N 255.711 1.52812 0.385517 0
M  V30 2640 C 256.957 1.68275 1.13188 0
M  V30 2641 C 257.29 0.423179 1.89533 0
M  V30 2642 O 256.565 -0.579113 1.85679 0
M  V30 2643 C 256.848 2.92001 2.1073 0
M  V30 2644 C 256.701 4.28067 1.38125 0
M  V30 2645 C 258.02 3.11283 3.11113 0
M  V30 2646 H 255.139 0.612352 0.410115 0
M  V30 2647 H 257.781 1.85415 0.414869 0
M  V30 2648 H 255.931 2.77519 2.71874 0
M  V30 2649 H 257.603 4.54324 0.799187 0
M  V30 2650 H 255.846 4.28388 0.683092 0
M  V30 2651 H 256.517 5.10733 2.09417 0
M  V30 2652 H 258.993 3.2482 2.6006 0
M  V30 2653 H 257.869 3.99325 3.76605 0
M  V30 2654 H 258.13 2.25656 3.80173 0
M  V30 2655 N 257.189 -0.644168 1.43834 0
M  V30 2656 C 258.152 -1.73857 1.49353 0
M  V30 2657 C 259.152 -1.56315 0.377112 0
M  V30 2658 O 260.342 -1.62048 0.639226 0
M  V30 2659 C 257.474 -3.12819 1.35488 0
M  V30 2660 H 258.667 -1.70342 2.46827 0
M  V30 2661 H 256.22 -0.856652 1.30733 0
M  V30 2662 H 256.955 -3.2194 0.390569 0
M  V30 2663 H 256.74 -3.26958 2.16428 0
M  V30 2664 H 258.23 -3.92606 1.42302 0
M  V30 2665 N 258.668 -1.30515 -0.883378 0
M  V30 2666 C 259.598 -1.19607 -2.00541 0
M  V30 2667 C 260.579 -0.086346 -1.69881 0
M  V30 2668 O 261.764 -0.268654 -1.92333 0
M  V30 2669 C 258.894 -0.888758 -3.35736 0
M  V30 2670 C 257.848 -1.95659 -3.8066 0
M  V30 2671 C 257.174 -1.50224 -5.13164 0
M  V30 2672 C 258.474 -3.36788 -3.99213 0
M  V30 2673 H 260.168 -2.13476 -2.09925 0
M  V30 2674 H 257.714 -1.02775 -1.00863 0
M  V30 2675 H 259.667 -0.799094 -4.13754 0
M  V30 2676 H 258.391 0.0856125 -3.26488 0
M  V30 2677 H 257.05 -2.03591 -3.04871 0
M  V30 2678 H 256.698 -0.516092 -5.00345 0
M  V30 2679 H 256.398 -2.2165 -5.44192 0
M  V30 2680 H 257.922 -1.42639 -5.93706 0
M  V30 2681 H 259.336 -3.31605 -4.67665 0
M  V30 2682 H 257.733 -4.06314 -4.41621 0
M  V30 2683 H 258.803 -3.78561 -3.03017 0
M  V30 2684 N 260.146 1.09593 -1.13257 0
M  V30 2685 C 261.076 2.18214 -0.830946 0
M  V30 2686 C 262.057 1.68812 0.208966 0
M  V30 2687 O 263.242 1.9408 0.0682666 0
M  V30 2688 C 260.372 3.46051 -0.294296 0
M  V30 2689 C 259.326 4.08778 -1.26826 0
M  V30 2690 C 258.652 5.31419 -0.591449 0
M  V30 2691 C 259.952 4.51476 -2.62615 0
M  V30 2692 H 261.646 2.43703 -1.73923 0
M  V30 2693 H 259.192 1.17128 -0.837675 0
M  V30 2694 H 261.145 4.2134 -0.0709606 0
M  V30 2695 H 259.869 3.20079 0.649366 0
M  V30 2696 H 258.528 3.35505 -1.47756 0
M  V30 2697 H 258.176 5.01727 0.357633 0
M  V30 2698 H 257.876 5.74341 -1.24123 0
M  V30 2699 H 259.4 6.09433 -0.377355 0
M  V30 2700 H 260.814 5.17999 -2.45663 0
M  V30 2701 H 259.211 5.05277 -3.23752 0
M  V30 2702 H 260.281 3.63962 -3.20406 0
M  V30 2703 N 261.624 0.925811 1.2754 0
M  V30 2704 C 262.872 0.564138 1.94067 0
M  V30 2705 C 263.193 -0.897188 1.73134 0
M  V30 2706 O 262.463 -1.63573 1.07799 0
M  V30 2707 H 261.043 0.205645 0.718136 0
M  V30 2708 H 263.705 1.1778 1.55287 0
M  V30 2709 H 262.801 0.76881 3.02483 0
M  V30 2710 N 263.102 -1.41638 0.69111 0
M  V30 2711 C 264.348 -2.01598 0.220519 0
M  V30 2712 C 264.681 -1.54594 -1.17535 0
M  V30 2713 O 263.956 -0.755177 -1.79241 0
M  V30 2714 C 264.239 -3.59062 0.273243 0
M  V30 2715 C 264.092 -4.16203 1.70573 0
M  V30 2716 C 265.411 -4.38546 -0.369457 0
M  V30 2717 H 262.53 -0.732468 0.0816045 0
M  V30 2718 H 265.172 -1.68445 0.878986 0
M  V30 2719 H 263.322 -3.87435 -0.287411 0
M  V30 2720 H 264.994 -3.98722 2.31989 0
M  V30 2721 H 263.237 -3.71414 2.2413 0
M  V30 2722 H 263.908 -5.25358 1.69419 0
M  V30 2723 H 266.384 -4.1596 0.107977 0
M  V30 2724 H 265.26 -5.48069 -0.302002 0
M  V30 2725 H 265.521 -4.17662 -1.44951 0
M  V30 2726 N 264.58 -0.43555 -1.51462 0
M  V30 2727 C 265.826 0.131709 -2.02372 0
M  V30 2728 C 266.159 1.42516 -1.3192 0
M  V30 2729 O 265.434 1.89606 -0.433573 0
M  V30 2730 C 265.717 0.352301 -3.58373 0
M  V30 2731 C 265.57 -0.959676 -4.39443 0
M  V30 2732 C 266.889 1.12286 -4.25535 0
M  V30 2733 H 264.008 0.0463936 -0.735538 0
M  V30 2734 H 266.65 -0.574197 -1.81116 0
M  V30 2735 H 264.8 0.9536 -3.76615 0
M  V30 2736 H 266.472 -1.59482 -4.32855 0
M  V30 2737 H 264.715 -1.56468 -4.04599 0
M  V30 2738 H 265.386 -0.759394 -5.46752 0
M  V30 2739 H 267.862 0.613545 -4.11552 0
M  V30 2740 H 266.738 1.24598 -5.34571 0
M  V30 2741 H 266.999 2.15048 -3.86273 0
M  V30 2742 N 266.058 1.56714 -0.166846 0
M  V30 2743 C 267.304 1.97039 0.479962 0
M  V30 2744 C 267.637 1.05264 1.63197 0
M  V30 2745 O 266.912 0.0988833 1.94248 0
M  V30 2746 C 267.195 3.46867 0.967212 0
M  V30 2747 C 267.048 4.49421 -0.18466 0
M  V30 2748 C 268.367 3.9968 1.84238 0
M  V30 2749 H 265.486 0.71641 0.172992 0
M  V30 2750 H 268.128 1.8832 -0.252079 0
M  V30 2751 H 266.278 3.54428 1.59101 0
M  V30 2752 H 267.95 4.53924 -0.821621 0
M  V30 2753 H 266.193 4.25573 -0.840837 0
M  V30 2754 H 266.864 5.51644 0.198317 0
M  V30 2755 H 269.34 3.94723 1.31655 0
M  V30 2756 H 268.216 5.04941 2.15234 0
M  V30 2757 H 268.477 3.43226 2.78654 0
M  V30 2758 N 267.536 -0.106894 1.57237 0
M  V30 2759 C 268.764 -0.826389 1.8968 0
M  V30 2760 C 269.179 -1.72856 0.759353 0
M  V30 2761 O 268.536 -1.80503 -0.269263 0
M  V30 2762 C 268.587 -1.64967 3.21665 0
M  V30 2763 O 268.308 -0.783804 4.31031 0
M  V30 2764 C 269.809 -2.47326 3.67892 0
M  V30 2765 H 267.029 -0.236927 0.627779 0
M  V30 2766 H 269.573 -0.0876593 2.04312 0
M  V30 2767 H 267.728 -2.34103 3.08666 0
M  V30 2768 H 268.142 -1.35284 5.06753 0
M  V30 2769 H 269.616 -3.00604 4.6297 0
M  V30 2770 H 270.093 -3.25247 2.95146 0
M  V30 2771 H 270.699 -1.83411 3.83719 0
M  V30 2772 N 269.014 -1.53014 -0.377408 0
M  V30 2773 C 270.26 -1.68872 -1.12294 0
M  V30 2774 C 270.593 -0.433224 -1.89306 0
M  V30 2775 O 269.868 0.569258 -1.85983 0
M  V30 2776 C 270.151 -2.93115 -2.09179 0
M  V30 2777 C 270.004 -4.28794 -1.35853 0
M  V30 2778 C 271.323 -3.12928 -3.09458 0
M  V30 2779 H 268.442 -0.614518 -0.406862 0
M  V30 2780 H 271.084 -1.85633 -0.40503 0
M  V30 2781 H 269.234 -2.78956 -2.70399 0
M  V30 2782 H 270.906 -4.54742 -0.775082 0
M  V30 2783 H 269.149 -4.28744 -0.660364 0
M  V30 2784 H 269.82 -5.11837 -2.06706 0
M  V30 2785 H 272.296 -3.26194 -2.58334 0
M  V30 2786 H 271.172 -4.01316 -3.74482 0
M  V30 2787 H 271.433 -2.27669 -3.78971 0
M  V30 2788 N 270.492 0.636531 -1.44174 0
M  V30 2789 C 271.732 1.40781 -1.48189 0
M  V30 2790 C 272.096 1.91688 -0.10944 0
M  V30 2791 O 273.297 2.68789 -0.0242741 0
M  V30 2792 C 271.568 2.54575 -2.50851 0
M  V30 2793 S 273.127 3.4284 -2.73873 0
M  V30 2794 H 269.945 0.480345 -0.524204 0
M  V30 2795 H 272.547 0.737416 -1.81059 0
M  V30 2796 H 271.251 2.15478 -3.49281 0
M  V30 2797 H 270.782 3.26447 -2.19536 0
M  V30 2798 H 272.797 4.51846 -2.05059 0
M  V30 2799 N 271.97 1.30982 0.876444 0
M  V30 2800 C 273.217 1.20296 1.62896 0
M  V30 2801 C 273.545 -0.240395 1.93009 0
M  V30 2802 O 272.8 -1.18733 1.55567 0
M  V30 2803 C 273.099 1.98572 2.9716 0
M  V30 2804 C 272.765 3.48125 2.86566 0
M  V30 2805 C 271.427 3.88905 2.83383 0
M  V30 2806 C 273.779 4.43322 2.74071 0
M  V30 2807 C 271.107 5.2316 2.65556 0
M  V30 2808 C 273.459 5.77695 2.57781 0
M  V30 2809 C 272.123 6.17704 2.52979 0
M  V30 2810 H 271.393 0.440193 0.59608 0
M  V30 2811 H 274.04 1.62177 1.01837 0
M  V30 2812 H 272.345 1.49352 3.62217 0
M  V30 2813 H 274.042 1.8769 3.54364 0
M  V30 2814 H 270.632 3.15723 2.89856 0
M  V30 2815 H 274.816 4.12752 2.75589 0
M  V30 2816 H 270.072 5.53241 2.60259 0
M  V30 2817 H 274.246 6.51091 2.47089 0
M  V30 2818 H 271.873 7.21678 2.38924 0
M  V30 2819 N 273.449 -1.08991 1.13837 0
M  V30 2820 C 274.379 -2.17771 0.842507 0
M  V30 2821 C 275.36 -1.6892 -0.20001 0
M  V30 2822 O 276.545 -1.94113 -0.0579731 0
M  V30 2823 C 273.675 -3.4589 0.312644 0
M  V30 2824 C 272.629 -4.08099 1.28992 0
M  V30 2825 C 271.955 -5.31098 0.619623 0
M  V30 2826 C 273.255 -4.50077 2.65005 0
M  V30 2827 H 274.949 -2.42777 1.75213 0
M  V30 2828 H 272.495 -1.16682 0.843875 0
M  V30 2829 H 274.448 -4.21297 0.0933043 0
M  V30 2830 H 273.172 -3.20419 -0.632382 0
M  V30 2831 H 271.831 -3.34717 1.49533 0
M  V30 2832 H 271.479 -5.0191 -0.33102 0
M  V30 2833 H 271.179 -5.73674 1.27167 0
M  V30 2834 H 272.703 -6.09224 0.409669 0
M  V30 2835 H 274.117 -5.16688 2.48407 0
M  V30 2836 H 272.514 -5.03553 3.26427 0
M  V30 2837 H 273.584 -3.62257 3.22332 0
M  V30 2838 N 274.927 -0.932562 -1.27047 0
M  V30 2839 C 276.173 -0.576412 -1.94436 0
M  V30 2840 C 276.506 0.880891 -1.73072 0
M  V30 2841 O 275.781 1.62905 -1.06264 0
M  V30 2842 C 276.064 -0.909031 -3.48437 0
M  V30 2843 C 275.917 -2.42044 -3.79123 0
M  V30 2844 C 277.236 -0.418341 -4.38107 0
M  V30 2845 H 274.355 -0.210888 -0.706184 0
M  V30 2846 H 276.997 -1.16522 -1.50075 0
M  V30 2847 H 275.147 -0.407947 -3.86352 0
M  V30 2848 H 276.819 -2.99359 -3.50973 0
M  V30 2849 H 275.062 -2.86758 -3.25503 0
M  V30 2850 H 275.733 -2.6037 -4.86736 0
M  V30 2851 H 278.209 -0.847856 -4.0737 0
M  V30 2852 H 277.085 -0.679981 -5.44672 0
M  V30 2853 H 277.346 0.681642 -4.36814 0
M  V30 2854 N 276.405 1.4127 -0.698611 0
M  V30 2855 C 277.816 1.84187 -0.305289 0
M  V30 2856 C 278.167 1.58449 1.15708 0
M  V30 2857 O 277.292 1.05651 1.88856 0
M  V30 2858 C 277.887 3.3435 -0.547314 0
M  V30 2859 C 276.446 3.75826 -0.207878 0
M  V30 2860 C 275.593 2.64647 -0.828099 0
M  V30 2861 H 278.544 1.30778 -0.89904 0
M  V30 2862 H 278.565 3.8001 0.192998 0
M  V30 2863 H 278.077 3.53051 -1.61172 0
M  V30 2864 H 276.178 3.62725 0.852143 0
M  V30 2865 H 276.291 4.74462 -0.665021 0
M  V30 2866 H 274.655 2.53395 -0.257458 0
M  V30 2867 H 275.438 2.86165 -1.89643 0
M  V30 2868 N 277.883 0.443576 1.51229 0
M  V30 2869 C 278.846 -0.353132 2.26463 0
M  V30 2870 C 279.846 -0.944338 1.3015 0
M  V30 2871 O 281.036 -0.817813 1.5381 0
M  V30 2872 C 278.168 -1.50023 3.06114 0
M  V30 2873 H 279.361 0.3063 2.98332 0
M  V30 2874 H 276.914 0.196902 1.55055 0
M  V30 2875 H 277.649 -2.19553 2.38677 0
M  V30 2876 H 277.434 -1.08241 3.76864 0
M  V30 2877 H 278.924 -2.06296 3.63087 0
M  V30 2878 N 279.361 -1.56624 0.175154 0
M  V30 2879 C 280.607 -1.9729 -0.469506 0
M  V30 2880 C 280.94 -1.06128 -1.62636 0
M  V30 2881 O 280.215 -0.109183 -1.94193 0
M  V30 2882 C 280.498 -3.47375 -0.948804 0
M  V30 2883 C 280.351 -4.49317 0.208491 0
M  V30 2884 C 281.67 -4.00652 -1.82116 0
M  V30 2885 H 278.789 -0.717317 -0.16919 0
M  V30 2886 H 281.431 -1.88184 0.262062 0
M  V30 2887 H 279.581 -3.55267 -1.57219 0
M  V30 2888 H 281.253 -4.53482 0.845682 0
M  V30 2889 H 279.496 -4.25121 0.863395 0
M  V30 2890 H 280.167 -5.51741 -0.169059 0
M  V30 2891 H 282.643 -3.95416 -1.2956 0
M  V30 2892 H 281.519 -5.06075 -2.12554 0
M  V30 2893 H 281.78 -3.44699 -2.7683 0
M  V30 2894 N 280.839 0.0985539 -1.57292 0
M  V30 2895 C 282.088 0.801358 -1.85098 0
M  V30 2896 C 282.401 1.80066 -0.763902 0
M  V30 2897 O 283.607 2.55112 -0.928981 0
M  V30 2898 C 282.063 1.47599 -3.28242 0
M  V30 2899 C 281.671 0.516624 -4.45011 0
M  V30 2900 C 283.415 2.16272 -3.65276 0
M  V30 2901 C 281.322 1.19564 -5.79188 0
M  V30 2902 H 280.252 0.303022 -0.69043 0
M  V30 2903 H 282.903 0.0542623 -1.8342 0
M  V30 2904 H 281.285 2.27042 -3.2445 0
M  V30 2905 H 282.459 -0.246065 -4.60143 0
M  V30 2906 H 280.774 -0.064227 -4.1635 0
M  V30 2907 H 283.371 2.67802 -4.62803 0
M  V30 2908 H 283.714 2.95009 -2.93727 0
M  V30 2909 H 284.247 1.43693 -3.70941 0
M  V30 2910 H 280.986 0.449157 -6.53959 0
M  V30 2911 H 280.506 1.92984 -5.67906 0
M  V30 2912 H 282.185 1.7231 -6.23633 0
M  V30 2913 N 282.317 1.53212 0.369288 0
M  V30 2914 C 283.564 1.69215 1.11232 0
M  V30 2915 C 283.892 0.442048 1.8941 0
M  V30 2916 O 283.147 -0.575944 1.87033 0
M  V30 2917 C 283.446 2.89101 2.10132 0
M  V30 2918 C 283.112 4.25758 1.48463 0
M  V30 2919 C 281.774 4.6292 1.31372 0
M  V30 2920 C 284.126 5.10757 1.03811 0
M  V30 2921 C 281.454 5.82722 0.68207 0
M  V30 2922 C 283.806 6.31201 0.420487 0
M  V30 2923 C 282.47 6.67079 0.237038 0
M  V30 2924 H 281.74 0.619201 0.407027 0
M  V30 2925 H 284.387 1.87391 0.394552 0
M  V30 2926 H 282.692 2.65421 2.88199 0
M  V30 2927 H 284.389 2.98676 2.6757 0
M  V30 2928 H 280.979 3.96494 1.62758 0
M  V30 2929 H 285.163 4.82599 1.1581 0
M  V30 2930 H 280.419 6.09113 0.528316 0
M  V30 2931 H 284.593 6.96368 0.0662874 0
M  V30 2932 H 282.22 7.59774 -0.254477 0
M  V30 2933 N 283.795 -0.628877 1.44509 0
M  V30 2934 C 284.758 -1.72263 1.51188 0
M  V30 2935 C 285.758 -1.55907 0.39367 0
M  V30 2936 O 286.948 -1.61361 0.656377 0
M  V30 2937 C 284.08 -3.11365 1.38798 0
M  V30 2938 H 285.273 -1.67714 2.4862 0
M  V30 2939 H 282.826 -0.842737 1.31634 0
M  V30 2940 H 283.561 -3.21507 0.424693 0
M  V30 2941 H 283.346 -3.24644 2.19884 0
M  V30 2942 H 284.836 -3.91075 1.46458 0
M  V30 2943 N 285.273 -1.31445 -0.869486 0
M  V30 2944 C 286.223 -1.15731 -1.96444 0
M  V30 2945 C 287.207 -0.0681855 -1.60755 0
M  V30 2946 O 288.399 -0.293154 -1.74555 0
M  V30 2947 C 285.528 -0.867255 -3.32165 0
M  V30 2948 C 284.614 -1.99738 -3.74119 0
M  V30 2949 N 285.005 -3.24447 -3.88031 0
M  V30 2950 C 283.303 -1.89723 -4.03635 0
M  V30 2951 C 284.004 -3.98374 -4.23879 0
M  V30 2952 N 282.98 -3.26547 -4.3459 0
M  V30 2953 H 286.782 -2.10296 -2.05312 0
M  V30 2954 H 284.296 -1.23009 -1.06031 0
M  V30 2955 H 286.293 -0.735668 -4.10358 0
M  V30 2956 H 284.953 0.0701614 -3.24624 0
M  V30 2957 H 285.964 -3.59557 -3.72746 0
M  V30 2958 H 282.641 -1.03449 -4.04481 0
M  V30 2959 H 284.031 -5.05844 -4.42235 0
M  V30 2960 N 286.751 1.08385 -1.14413 0
M  V30 2961 C 287.681 2.17321 -0.854044 0
M  V30 2962 C 288.662 1.69024 0.191049 0
M  V30 2963 O 289.847 1.94141 0.0476779 0
M  V30 2964 C 286.977 3.45719 -0.330983 0
M  V30 2965 C 285.931 4.07409 -1.31155 0
M  V30 2966 C 285.257 5.30762 -0.64778 0
M  V30 2967 C 286.557 4.48665 -2.67388 0
M  V30 2968 H 288.251 2.41845 -1.76498 0
M  V30 2969 H 285.797 1.16233 -0.850051 0
M  V30 2970 H 287.75 4.21241 -0.115645 0
M  V30 2971 H 286.474 3.2075 0.615381 0
M  V30 2972 H 285.133 3.33919 -1.51306 0
M  V30 2973 H 284.781 5.02078 0.304398 0
M  V30 2974 H 284.481 5.72992 -1.30207 0
M  V30 2975 H 286.005 6.08998 -0.441972 0
M  V30 2976 H 287.419 5.15364 -2.51143 0
M  V30 2977 H 285.816 5.01814 -3.29093 0
M  V30 2978 H 286.886 3.60543 -3.24248 0
M  V30 2979 N 288.23 0.939286 1.26551 0
M  V30 2980 C 289.14 0.453432 2.30176 0
M  V30 2981 C 290.156 -0.471649 1.67486 0
M  V30 2982 O 291.332 -0.35164 1.98306 0
M  V30 2983 C 288.397 -0.275326 3.45605 0
M  V30 2984 C 287.458 0.686084 4.23782 0
M  V30 2985 C 286.691 -0.00798994 5.33699 0
M  V30 2986 O 286.914 -1.22528 5.57085 0
M  V30 2987 O 285.848 0.669746 5.98162 0
M  V30 2988 H 289.674 1.31416 2.73795 0
M  V30 2989 H 287.259 0.705095 1.31715 0
M  V30 2990 H 289.141 -0.685911 4.1578 0
M  V30 2991 H 287.816 -1.11147 3.0402 0
M  V30 2992 H 286.723 1.14658 3.56096 0
M  V30 2993 H 288.056 1.48979 4.69112 0
M  V30 2994 N 289.708 -1.40897 0.706093 0
M  V30 2995 C 290.618 -2.3455 0.0482286 0
M  V30 2996 C 291.634 -1.56796 -0.754396 0
M  V30 2997 O 292.81 -1.89228 -0.689538 0
M  V30 2998 C 289.875 -3.35625 -0.869303 0
M  V30 2999 C 288.936 -4.29261 -0.0576994 0
M  V30 3000 C 288.169 -5.25508 -0.931531 0
M  V30 3001 O 288.392 -5.27472 -2.17092 0
M  V30 3002 O 287.326 -6.00727 -0.375587 0
M  V30 3003 H 291.152 -2.92407 0.820476 0
M  V30 3004 H 288.737 -1.4193 0.4665 0
M  V30 3005 H 290.619 -3.97635 -1.39514 0
M  V30 3006 H 289.294 -2.80196 -1.62086 0
M  V30 3007 H 288.201 -3.70566 0.512988 0
M  V30 3008 H 289.534 -4.87817 0.655426 0
M  V30 3009 N 291.186 -0.45159 -1.50991 0
M  V30 3010 C 292.149 0.341117 -2.26647 0
M  V30 3011 C 293.149 0.937422 -1.30649 0
M  V30 3012 O 294.339 0.809644 -1.54241 0
M  V30 3013 C 291.471 1.48398 -3.06905 0
M  V30 3014 H 292.664 -0.322117 -2.98165 0
M  V30 3015 H 290.217 -0.205122 -1.54948 0
M  V30 3016 H 290.952 2.18284 -2.39838 0
M  V30 3017 H 290.737 1.06241 -3.77432 0
M  V30 3018 H 292.227 2.04367 -3.64176 0
M  V30 3019 N 292.664 1.56529 -0.183458 0
M  V30 3020 C 293.91 1.98304 0.452466 0
M  V30 3021 C 294.265 1.06799 1.60037 0
M  V30 3022 O 293.558 0.110049 1.91284 0
M  V30 3023 C 293.752 3.43939 0.971637 0
M  V30 3024 C 293.581 4.49528 -0.124425 0
M  V30 3025 C 292.351 5.01981 -0.578168 0
M  V30 3026 C 294.549 5.05836 -0.929207 0
M  V30 3027 N 292.531 5.91219 -1.65327 0
M  V30 3028 C 293.902 5.91632 -1.85396 0
M  V30 3029 C 295.957 4.88302 -0.972929 0
M  V30 3030 C 294.66 6.61768 -2.81878 0
M  V30 3031 C 296.686 5.59168 -1.92574 0
M  V30 3032 C 296.048 6.44701 -2.83795 0
M  V30 3033 H 292.147 0.770551 0.133324 0
M  V30 3034 H 294.731 1.92581 -0.286473 0
M  V30 3035 H 292.902 3.50184 1.68006 0
M  V30 3036 H 294.634 3.72702 1.5772 0
M  V30 3037 H 291.389 4.73282 -0.173639 0
M  V30 3038 H 291.813 6.40543 -2.19167 0
M  V30 3039 H 296.455 4.21861 -0.28168 0
M  V30 3040 H 294.173 7.27415 -3.51984 0
M  V30 3041 H 297.759 5.47582 -1.96583 0
M  V30 3042 H 296.639 6.98573 -3.56322 0
M  V30 3043 N 294.142 -0.090211 1.57342 0
M  V30 3044 C 295.367 -0.810082 1.90925 0
M  V30 3045 C 295.792 -1.71248 0.778187 0
M  V30 3046 O 295.15 -1.79278 -0.269991 0
M  V30 3047 C 295.198 -1.59529 3.23393 0
M  V30 3048 O 294.302 -2.70461 3.11327 0
M  V30 3049 H 293.643 -0.222231 0.625707 0
M  V30 3050 H 296.173 -0.0639716 2.045 0
M  V30 3051 H 296.183 -1.97847 3.5682 0
M  V30 3052 H 294.858 -0.933055 4.05299 0
M  V30 3053 H 293.435 -2.35135 2.89423 0
M  V30 3054 N 295.62 -1.53406 -0.361157 0
M  V30 3055 C 296.867 -1.69802 -1.10333 0
M  V30 3056 C 297.195 -0.452087 -1.89173 0
M  V30 3057 O 296.45 0.566017 -1.87336 0
M  V30 3058 C 296.749 -2.90211 -2.08596 0
M  V30 3059 C 296.415 -4.26539 -1.46203 0
M  V30 3060 C 295.077 -4.6361 -1.28915 0
M  V30 3061 C 297.429 -5.113 -1.01101 0
M  V30 3062 C 294.757 -5.83075 -0.651157 0
M  V30 3063 C 297.109 -6.31415 -0.387007 0
M  V30 3064 C 295.773 -6.67195 -0.201657 0
M  V30 3065 H 295.043 -0.621351 -0.403737 0
M  V30 3066 H 297.69 -1.87598 -0.384609 0
M  V30 3067 H 295.995 -2.66946 -2.86788 0
M  V30 3068 H 297.692 -3.00091 -2.65982 0
M  V30 3069 H 294.282 -3.97352 -1.60653 0
M  V30 3070 H 298.466 -4.83206 -1.13249 0
M  V30 3071 H 293.722 -6.09385 -0.496006 0
M  V30 3072 H 297.896 -6.96394 -0.0293563 0
M  V30 3073 H 295.523 -7.59628 0.294766 0
M  V30 3074 N 297.098 0.621204 -1.44841 0
M  V30 3075 C 298.028 1.74366 -1.55303 0
M  V30 3076 C 299.009 1.65199 -0.405385 0
M  V30 3077 O 300.194 1.83807 -0.626787 0
M  V30 3078 C 297.324 3.12931 -1.50637 0
M  V30 3079 C 296.278 3.36896 -2.63979 0
M  V30 3080 C 295.604 4.75594 -2.44366 0
M  V30 3081 C 296.904 3.28483 -4.06074 0
M  V30 3082 H 298.598 1.65867 -2.49256 0
M  V30 3083 H 296.144 0.796558 -1.19962 0
M  V30 3084 H 298.097 3.9124 -1.56555 0
M  V30 3085 H 296.821 3.22237 -0.532057 0
M  V30 3086 H 295.48 2.60972 -2.57467 0
M  V30 3087 H 295.128 4.81616 -1.45105 0
M  V30 3088 H 294.828 4.92586 -3.20364 0
M  V30 3089 H 296.352 5.5612 -2.52117 0
M  V30 3090 H 297.766 3.96684 -4.13902 0
M  V30 3091 H 296.163 3.57008 -4.82354 0
M  V30 3092 H 297.233 2.26133 -4.28943 0
M  V30 3093 N 298.576 1.31904 0.862503 0
M  V30 3094 C 299.853 1.12644 1.59908 0
M  V30 3095 C 300.233 -0.316104 2.0872 0
M  V30 3096 O 299.581 -1.31145 1.87118 0
M  V30 3097 C 299.791 2.1472 2.7513 0
M  V30 3098 C 301.139 2.47637 3.44907 0
M  V30 3099 O 302.163 2.13205 2.85346 0
M  V30 3100 O 301.022 3.06632 4.52371 0
M  V30 3101 H 298.116 0.43416 0.703871 0
M  V30 3102 H 300.662 1.43408 0.907314 0
M  V30 3103 H 299.434 3.1172 2.3653 0
M  V30 3104 H 299.057 1.84905 3.51989 0
M  V30 3105 N 300.054 -1.07777 1.14986 0
M  V30 3106 C 301.017 -2.13041 0.845358 0
M  V30 3107 C 302.017 -1.60071 -0.152931 0
M  V30 3108 O 303.207 -1.74033 0.0761879 0
M  V30 3109 C 300.339 -3.39896 0.261383 0
M  V30 3110 H 301.532 -2.41485 1.77834 0
M  V30 3111 H 299.085 -1.23595 0.956757 0
M  V30 3112 H 299.82 -3.17091 -0.68 0
M  V30 3113 H 299.605 -3.79642 0.980514 0
M  V30 3114 H 301.095 -4.17548 0.0657687 0
M  V30 3115 N 301.532 -0.945985 -1.26051 0
M  V30 3116 C 302.779 -0.596118 -1.93527 0
M  V30 3117 C 303.107 0.865559 -1.74179 0
M  V30 3118 O 302.362 1.63524 -1.0751 0
M  V30 3119 C 302.661 -0.890475 -3.46129 0
M  V30 3120 C 302.327 -2.3368 -3.85622 0
M  V30 3121 C 300.989 -2.73216 -3.96114 0
M  V30 3122 C 303.341 -3.27648 -4.05334 0
M  V30 3123 C 300.669 -4.05806 -4.2372 0
M  V30 3124 C 303.021 -4.59841 -4.3443 0
M  V30 3125 C 301.685 -4.99185 -4.43137 0
M  V30 3126 H 300.955 -0.218135 -0.708165 0
M  V30 3127 H 303.602 -1.1934 -1.49768 0
M  V30 3128 H 301.907 -0.210711 -3.91233 0
M  V30 3129 H 303.604 -0.598478 -3.96509 0
M  V30 3130 H 300.194 -2.02015 -3.78005 0
M  V30 3131 H 304.378 -2.98298 -3.96651 0
M  V30 3132 H 299.634 -4.35945 -4.28675 0
M  V30 3133 H 303.808 -5.32641 -4.48628 0
M  V30 3134 H 301.435 -6.01952 -4.64282 0
M  V30 3135 N 303.011 1.40521 -0.713556 0
M  V30 3136 C 304.241 2.0494 -0.261395 0
M  V30 3137 C 304.649 1.53861 1.10107 0
M  V30 3138 O 303.992 0.689321 1.70276 0
M  V30 3139 C 304.054 3.59138 -0.161227 0
M  V30 3140 C 303.718 4.33096 -1.45865 0
M  V30 3141 C 304.715 4.61182 -2.40016 0
M  V30 3142 C 302.4 4.72043 -1.71701 0
M  V30 3143 C 304.394 5.27196 -3.58251 0
M  V30 3144 C 302.081 5.37789 -2.90218 0
M  V30 3145 C 303.079 5.65295 -3.83315 0
M  V30 3146 O 302.767 6.29683 -4.99754 0
M  V30 3147 H 302.499 0.666041 -0.115608 0
M  V30 3148 H 305.053 1.80954 -0.971849 0
M  V30 3149 H 303.283 3.81936 0.605153 0
M  V30 3150 H 304.972 4.05091 0.256105 0
M  V30 3151 H 305.738 4.31559 -2.21318 0
M  V30 3152 H 301.617 4.50003 -1.00092 0
M  V30 3153 H 305.161 5.48582 -4.30934 0
M  V30 3154 H 301.058 5.66831 -3.08825 0
M  V30 3155 H 301.826 6.4818 -4.99805 0
M  V30 3156 N 304.489 0.459591 1.5075 0
M  V30 3157 C 305.736 -0.0993495 2.02256 0
M  V30 3158 C 306.064 -1.40751 1.34237 0
M  V30 3159 O 305.319 -1.90379 0.453228 0
M  V30 3160 C 305.618 -0.342866 3.55752 0
M  V30 3161 C 305.284 0.88218 4.42186 0
M  V30 3162 C 303.946 1.21808 4.65528 0
M  V30 3163 C 306.298 1.69837 4.92752 0
M  V30 3164 C 303.626 2.37045 5.36681 0
M  V30 3165 C 305.978 2.84192 5.65171 0
M  V30 3166 C 304.642 3.1821 5.8677 0
M  V30 3167 H 303.912 -0.0363545 0.740108 0
M  V30 3168 H 306.559 0.611329 1.8148 0
M  V30 3169 H 304.864 -1.13567 3.7498 0
M  V30 3170 H 306.561 -0.789121 3.93159 0
M  V30 3171 H 303.151 0.610467 4.2423 0
M  V30 3172 H 307.335 1.45205 4.74583 0
M  V30 3173 H 302.591 2.63689 5.51614 0
M  V30 3174 H 306.765 3.4779 6.03337 0
M  V30 3175 H 304.392 4.07613 6.41682 0
M  V30 3176 N 305.967 -1.56429 0.191757 0
M  V30 3177 C 307.207 -1.99383 -0.450099 0
M  V30 3178 C 307.571 -1.07581 -1.59029 0
M  V30 3179 O 308.772 -1.39758 -2.29611 0
M  V30 3180 C 307.043 -3.45841 -0.901611 0
M  V30 3181 S 308.602 -4.10822 -1.54177 0
M  V30 3182 H 305.42 -0.696253 -0.144057 0
M  V30 3183 H 308.022 -1.93276 0.294036 0
M  V30 3184 H 306.726 -4.10354 -0.0616596 0
M  V30 3185 H 306.257 -3.55757 -1.67929 0
M  V30 3186 H 308.272 -4.07553 -2.83046 0
M  V30 3187 N 307.445 0.0818655 -1.57387 0
M  V30 3188 C 308.692 0.782914 -1.86753 0
M  V30 3189 C 309.02 1.78082 -0.782118 0
M  V30 3190 O 308.275 1.94426 0.22295 0
M  V30 3191 C 308.574 1.53513 -3.22752 0
M  V30 3192 C 308.24 0.678134 -4.45771 0
M  V30 3193 C 306.902 0.441929 -4.79166 0
M  V30 3194 C 309.254 0.0832243 -5.21134 0
M  V30 3195 C 306.582 -0.398833 -5.85343 0
M  V30 3196 C 308.934 -0.744935 -6.28199 0
M  V30 3197 C 307.598 -0.991107 -6.60101 0
M  V30 3198 H 306.868 0.286489 -0.683378 0
M  V30 3199 H 309.515 0.0439808 -1.91449 0
M  V30 3200 H 307.82 2.34599 -3.138 0
M  V30 3201 H 309.517 2.08218 -3.42705 0
M  V30 3202 H 306.107 0.872357 -4.19628 0
M  V30 3203 H 310.291 0.252847 -4.95655 0
M  V30 3204 H 305.547 -0.598405 -6.08465 0
M  V30 3205 H 309.721 -1.21271 -6.8576 0
M  V30 3206 H 307.348 -1.64437 -7.42202 0
M  V30 3207 N 308.923 1.53595 0.353017 0
M  V30 3208 C 310.172 1.69603 1.09168 0
M  V30 3209 C 310.485 0.460925 1.90092 0
M  V30 3210 O 311.691 0.501774 2.66823 0
M  V30 3211 C 310.147 2.99872 1.9901 0
M  V30 3212 C 309.755 4.30687 1.23339 0
M  V30 3213 C 311.499 3.25246 2.72792 0
M  V30 3214 C 309.406 5.52036 2.12156 0
M  V30 3215 H 308.336 0.631966 0.411261 0
M  V30 3216 H 310.987 1.80096 0.351802 0
M  V30 3217 H 309.369 2.83212 2.7678 0
M  V30 3218 H 310.543 4.58019 0.505456 0
M  V30 3219 H 308.858 4.11853 0.613663 0
M  V30 3220 H 311.455 4.13095 3.39495 0
M  V30 3221 H 311.798 2.41846 3.38846 0
M  V30 3222 H 312.331 3.42638 2.021 0
M  V30 3223 H 309.07 6.37951 1.50659 0
M  V30 3224 H 308.59 5.28966 2.82764 0
M  V30 3225 H 310.269 5.87313 2.71427 0
M  V30 3226 N 310.401 -0.613514 1.45168 0
M  V30 3227 C 311.626 -1.40437 1.52618 0
M  V30 3228 C 312.051 -1.87438 0.157707 0
M  V30 3229 O 311.409 -1.59791 -0.856537 0
M  V30 3230 C 311.457 -2.58894 2.51011 0
M  V30 3231 O 310.561 -3.59326 2.02382 0
M  V30 3232 H 309.902 -0.419506 0.514695 0
M  V30 3233 H 312.432 -0.747215 1.90467 0
M  V30 3234 H 312.442 -3.06214 2.69624 0
M  V30 3235 H 311.117 -2.24032 3.50403 0
M  V30 3236 H 309.694 -3.18695 1.93618 0
M  V30 3237 N 311.879 -1.3236 -0.855495 0
M  V30 3238 C 312.809 -1.23833 -1.97958 0
M  V30 3239 C 313.79 -0.122361 -1.69659 0
M  V30 3240 O 314.975 -0.30939 -1.9172 0
M  V30 3241 C 312.105 -0.959772 -3.33775 0
M  V30 3242 C 311.059 -2.03689 -3.76424 0
M  V30 3243 C 310.385 -1.61075 -5.09862 0
M  V30 3244 C 311.685 -3.4518 -3.9198 0
M  V30 3245 H 313.379 -2.1788 -2.0535 0
M  V30 3246 H 310.925 -1.04891 -0.986605 0
M  V30 3247 H 312.878 -0.886678 -4.11966 0
M  V30 3248 H 311.602 0.0163404 -3.26596 0
M  V30 3249 H 310.261 -2.10012 -3.00484 0
M  V30 3250 H 309.909 -0.622107 -4.99138 0
M  V30 3251 H 309.609 -2.33143 -5.39368 0
M  V30 3252 H 311.133 -1.55201 -5.90546 0
M  V30 3253 H 312.547 -3.4145 -4.60526 0
M  V30 3254 H 310.944 -4.1559 -4.32903 0
M  V30 3255 H 312.014 -3.84903 -2.94919 0
M  V30 3256 N 313.357 1.07166 -1.15556 0
M  V30 3257 C 314.582 1.84053 -0.955988 0
M  V30 3258 C 315.007 1.81586 0.490739 0
M  V30 3259 O 314.365 1.21018 1.34997 0
M  V30 3260 C 314.413 3.28957 -1.47714 0
M  V30 3261 O 313.517 4.06795 -0.677593 0
M  V30 3262 H 312.858 0.569842 -0.340847 0
M  V30 3263 H 315.388 1.35178 -1.53584 0
M  V30 3264 H 315.398 3.79788 -1.4908 0
M  V30 3265 H 314.073 3.30068 -2.53037 0
M  V30 3266 H 312.65 3.6561 -0.733721 0
M  V30 3267 N 314.835 0.952656 1.25548 0
M  V30 3268 C 316.063 0.623496 1.97282 0
M  V30 3269 C 316.478 -0.803987 1.70826 0
M  V30 3270 O 315.835 -1.53755 0.983147 0
M  V30 3271 C 315.886 0.870209 3.5087 0
M  V30 3272 O 315.607 2.24156 3.76412 0
M  V30 3273 C 317.108 0.553164 4.39835 0
M  V30 3274 H 314.328 0.233931 0.628902 0
M  V30 3275 H 316.872 1.27649 1.59768 0
M  V30 3276 H 315.027 0.263652 3.86502 0
M  V30 3277 H 315.441 2.31021 4.70882 0
M  V30 3278 H 316.915 0.776342 5.46513 0
M  V30 3279 H 317.392 -0.512215 4.36203 0
M  V30 3280 H 317.998 1.13896 4.09766 0
M  V30 3281 N 316.313 -1.40141 0.720998 0
M  V30 3282 C 317.562 -2.0002 0.259804 0
M  V30 3283 C 317.875 -1.57839 -1.15526 0
M  V30 3284 O 319.081 -2.10455 -1.71525 0
M  V30 3285 C 317.537 -3.57516 0.413566 0
M  V30 3286 C 317.145 -4.08667 1.83562 0
M  V30 3287 C 318.889 -4.24498 0.0134387 0
M  V30 3288 C 316.796 -5.58686 1.93968 0
M  V30 3289 H 315.726 -0.748195 0.0933806 0
M  V30 3290 H 318.377 -1.60313 0.892866 0
M  V30 3291 H 316.759 -3.9495 -0.288169 0
M  V30 3292 H 317.933 -3.82598 2.56817 0
M  V30 3293 H 316.248 -3.543 2.1877 0
M  V30 3294 H 318.845 -5.34654 0.0703954 0
M  V30 3295 H 319.188 -4.03375 -1.02927 0
M  V30 3296 H 319.721 -3.92188 0.665815 0
M  V30 3297 H 316.46 -5.8467 2.96379 0
M  V30 3298 H 315.98 -5.86602 1.25131 0
M  V30 3299 H 317.659 -6.23875 1.71431 0
M  V30 3300 N 317.792 -0.46758 -1.50504 0
M  V30 3301 C 319.04 0.0884469 -2.01906 0
M  V30 3302 C 319.361 1.40532 -1.35188 0
M  V30 3303 O 318.631 1.89515 -0.496079 0
M  V30 3304 H 317.211 0.0356765 -0.746148 0
M  V30 3305 H 319.873 -0.6172 -1.84869 0
M  V30 3306 H 318.969 0.2425 -3.11156 0
M  V30 3307 N 319.27 1.56325 -0.20005 0
M  V30 3308 C 320.2 2.22318 0.713916 0
M  V30 3309 C 321.181 1.18788 1.21752 0
M  V30 3310 O 322.366 1.47309 1.26545 0
M  V30 3311 C 319.496 2.88639 1.93144 0
M  V30 3312 C 318.45 3.98457 1.56255 0
M  V30 3313 C 317.776 4.51967 2.85709 0
M  V30 3314 C 319.076 5.16612 0.768747 0
M  V30 3315 H 320.77 2.98952 0.163755 0
M  V30 3316 H 318.316 1.43792 0.0773219 0
M  V30 3317 H 320.269 3.33491 2.57608 0
M  V30 3318 H 318.993 2.09419 2.50621 0
M  V30 3319 H 317.652 3.54305 0.941471 0
M  V30 3320 H 317.3 3.69503 3.41287 0
M  V30 3321 H 317 5.26071 2.6177 0
M  V30 3322 H 318.524 4.99523 3.51154 0
M  V30 3323 H 319.938 5.57977 1.3166 0
M  V30 3324 H 318.335 5.96812 0.627286 0
M  V30 3325 H 319.405 4.84358 -0.229168 0
M  V30 3326 N 320.748 -0.0735177 1.57428 0
M  V30 3327 C 321.996 -0.771472 1.86796 0
M  V30 3328 C 322.317 -1.78201 0.791804 0
M  V30 3329 O 321.587 -1.95074 -0.179718 0
M  V30 3330 H 320.167 -0.28791 0.689287 0
M  V30 3331 H 322.829 -0.0500161 1.94836 0
M  V30 3332 H 321.925 -1.28874 2.8425 0
M  V30 3333 N 322.226 -1.5378 -0.344866 0
M  V30 3334 C 323.503 -1.61589 -1.10219 0
M  V30 3335 C 323.883 -0.436316 -2.06542 0
M  V30 3336 O 323.231 0.571543 -2.21237 0
M  V30 3337 C 323.441 -2.97602 -1.82301 0
M  V30 3338 C 324.789 -3.5291 -2.36093 0
M  V30 3339 O 325.813 -2.99768 -1.924 0
M  V30 3340 O 324.672 -4.45859 -3.16026 0
M  V30 3341 H 321.766 -0.653522 -0.506792 0
M  V30 3342 H 324.312 -1.66126 -0.346465 0
M  V30 3343 H 323.084 -3.74893 -1.12121 0
M  V30 3344 H 322.707 -2.9665 -2.64735 0
M  V30 3345 N 323.704 0.605807 -1.45491 0
M  V30 3346 C 324.934 1.38934 -1.52908 0
M  V30 3347 C 325.342 1.88513 -0.161086 0
M  V30 3348 O 324.685 1.62962 0.847891 0
M  V30 3349 C 324.747 2.62737 -2.45376 0
M  V30 3350 C 324.411 2.34785 -3.92078 0
M  V30 3351 C 325.408 1.95038 -4.8193 0
M  V30 3352 C 323.093 2.47642 -4.37011 0
M  V30 3353 C 325.087 1.68511 -6.14722 0
M  V30 3354 C 322.774 2.20728 -5.69844 0
M  V30 3355 C 323.772 1.81225 -6.58519 0
M  V30 3356 O 323.46 1.54627 -7.88889 0
M  V30 3357 H 323.192 0.431629 -0.520262 0
M  V30 3358 H 325.746 0.74573 -1.91384 0
M  V30 3359 H 323.976 3.29824 -2.01874 0
M  V30 3360 H 325.665 3.24783 -2.43456 0
M  V30 3361 H 326.431 1.84639 -4.48479 0
M  V30 3362 H 322.31 2.77356 -3.68232 0
M  V30 3363 H 325.854 1.37602 -6.83894 0
M  V30 3364 H 321.751 2.30744 -6.02849 0
M  V30 3365 H 322.519 1.68665 -8.00933 0
M  V30 3366 N 325.182 1.32811 0.848464 0
M  V30 3367 C 326.428 1.23907 1.60546 0
M  V30 3368 C 326.761 -0.197161 1.93197 0
M  V30 3369 O 326.036 -1.13596 1.5788 0
M  V30 3370 C 326.319 2.10489 2.92175 0
M  V30 3371 C 326.172 3.62522 2.66266 0
M  V30 3372 C 327.491 1.97075 3.93509 0
M  V30 3373 H 324.61 0.451459 0.58254 0
M  V30 3374 H 327.252 1.62818 0.979296 0
M  V30 3375 H 325.402 1.77434 3.45614 0
M  V30 3376 H 327.074 4.05821 2.19334 0
M  V30 3377 H 325.317 3.84879 2.00126 0
M  V30 3378 H 325.988 4.18437 3.6002 0
M  V30 3379 H 328.464 2.26045 3.49346 0
M  V30 3380 H 327.34 2.59923 4.83457 0
M  V30 3381 H 327.601 0.940186 4.31987 0
M  V30 3382 N 326.66 -1.06551 1.16123 0
M  V30 3383 C 328.071 -1.60768 0.949232 0
M  V30 3384 C 328.422 -1.89523 -0.507508 0
M  V30 3385 O 327.547 -1.66671 -1.38021 0
M  V30 3386 C 328.142 -2.92086 1.71671 0
M  V30 3387 C 326.701 -3.43015 1.54977 0
M  V30 3388 C 325.848 -2.16947 1.72711 0
M  V30 3389 H 328.799 -0.895354 1.31031 0
M  V30 3390 H 328.82 -3.6138 1.19099 0
M  V30 3391 H 328.332 -2.71127 2.7769 0
M  V30 3392 H 326.433 -3.69039 0.513873 0
M  V30 3393 H 326.546 -4.18516 2.33198 0
M  V30 3394 H 324.91 -2.27041 1.15431 0
M  V30 3395 H 325.693 -1.98473 2.80113 0
M  V30 3396 N 328.138 -0.959301 -1.25041 0
M  V30 3397 C 329.386 -0.615393 -1.92503 0
M  V30 3398 C 329.707 0.850969 -1.75452 0
M  V30 3399 O 328.977 1.60658 -1.12098 0
M  V30 3400 H 327.557 -0.224613 -0.712431 0
M  V30 3401 H 330.219 -1.21855 -1.5211 0
M  V30 3402 H 329.315 -0.848738 -3.00338 0
M  V30 3403 N 329.616 1.39756 -0.72842 0
M  V30 3404 C 330.526 2.34444 -0.0855374 0
M  V30 3405 C 331.542 1.57976 0.729356 0
M  V30 3406 O 332.718 1.90301 0.659346 0
M  V30 3407 C 329.783 3.36965 0.815798 0
M  V30 3408 C 328.844 4.29299 -0.0105996 0
M  V30 3409 C 328.077 5.26923 0.84781 0
M  V30 3410 O 328.3 5.30859 2.08673 0
M  V30 3411 O 327.234 6.01249 0.279969 0
M  V30 3412 H 331.06 2.91065 -0.866892 0
M  V30 3413 H 328.645 1.4117 -0.48902 0
M  V30 3414 H 330.527 3.99804 1.33171 0
M  V30 3415 H 329.202 2.82739 1.57608 0
M  V30 3416 H 328.109 3.69703 -0.571877 0
M  V30 3417 H 329.442 4.86712 -0.73295 0
M  V30 3418 N 331.094 0.475555 1.50254 0
M  V30 3419 C 332.057 -0.305016 2.27161 0
M  V30 3420 C 333.057 -0.916519 1.32123 0
M  V30 3421 O 334.247 -0.785003 1.5551 0
M  V30 3422 C 331.379 -1.43496 3.09227 0
M  V30 3423 H 332.572 0.369511 2.97615 0
M  V30 3424 H 330.125 0.229747 1.54602 0
M  V30 3425 H 330.86 -2.14441 2.43281 0
M  V30 3426 H 330.645 -1.00223 3.79075 0
M  V30 3427 H 332.135 -1.98548 3.67381 0
M  V30 3428 N 332.573 -1.56217 0.208337 0
M  V30 3429 C 333.984 -1.84243 -0.301904 0
M  V30 3430 C 334.335 -1.12939 -1.60434 0
M  V30 3431 O 333.46 -0.39461 -2.12772 0
M  V30 3432 C 334.055 -3.34231 -0.554543 0
M  V30 3433 C 332.614 -3.62621 -1.00912 0
M  V30 3434 C 331.761 -2.77224 -0.064933 0
M  V30 3435 H 334.712 -1.52712 0.431833 0
M  V30 3436 H 334.733 -3.5372 -1.40223 0
M  V30 3437 H 334.245 -3.86099 0.393561 0
M  V30 3438 H 332.346 -3.16197 -1.97104 0
M  V30 3439 H 332.459 -4.7071 -0.892674 0
M  V30 3440 H 330.823 -2.48256 -0.56929 0
M  V30 3441 H 331.606 -3.31887 0.877851 0
M  V30 3442 N 334.051 0.0651679 -1.57465 0
M  V30 3443 C 335.299 0.761555 -1.87202 0
M  V30 3444 C 335.62 1.77778 -0.801243 0
M  V30 3445 O 334.89 1.95166 0.16937 0
M  V30 3446 H 333.47 0.284251 -0.690804 0
M  V30 3447 H 336.132 0.0396827 -1.9486 0
M  V30 3448 H 335.228 1.27365 -2.84929 0
M  V30 3449 N 335.529 1.53961 0.336706 0
M  V30 3450 C 336.461 1.78751 1.4346 0
M  V30 3451 C 337.474 0.669019 1.48418 0
M  V30 3452 O 338.663 0.945884 1.51378 0
M  V30 3453 C 335.763 1.87844 2.82078 0
M  V30 3454 C 334.936 3.17854 3.00479 0
M  V30 3455 C 333.995 3.17816 4.19379 0
M  V30 3456 O 333.021 3.91511 4.13168 0
M  V30 3457 N 334.223 2.40669 5.2826 0
M  V30 3458 H 336.988 2.73493 1.22563 0
M  V30 3459 H 334.549 1.53096 0.526625 0
M  V30 3460 H 336.541 1.85261 3.59806 0
M  V30 3461 H 335.111 1.00257 2.96086 0
M  V30 3462 H 334.331 3.33504 2.10163 0
M  V30 3463 H 335.619 4.03718 3.0966 0
M  V30 3464 H 335.017 1.8036 5.36178 0
M  V30 3465 H 333.574 2.43877 6.04456 0
M  V30 3466 N 337.007 -0.598083 1.45811 0
M  V30 3467 C 338.418 -1.18011 1.44673 0
M  V30 3468 C 338.769 -1.95378 0.179364 0
M  V30 3469 O 337.894 -2.04124 -0.718509 0
M  V30 3470 C 338.489 -2.14677 2.62105 0
M  V30 3471 C 337.048 -2.68236 2.64057 0
M  V30 3472 C 336.195 -1.43816 2.37091 0
M  V30 3473 H 339.146 -0.38686 1.53913 0
M  V30 3474 H 339.167 -2.97878 2.36746 0
M  V30 3475 H 338.679 -1.5834 3.5433 0
M  V30 3476 H 336.78 -3.28486 1.75864 0
M  V30 3477 H 336.893 -3.12021 3.63566 0
M  V30 3478 H 335.257 -1.731 1.86838 0
M  V30 3479 H 336.04 -0.893333 3.31473 0
M  V30 3480 N 338.485 -1.33259 -0.841409 0
M  V30 3481 C 339.715 -1.2742 -1.62628 0
M  V30 3482 C 340.123 0.157604 -1.88542 0
M  V30 3483 O 339.466 1.10938 -1.46419 0
M  V30 3484 C 339.528 -1.97797 -3.00194 0
M  V30 3485 C 339.192 -3.47109 -2.97261 0
M  V30 3486 C 340.189 -4.42358 -2.73159 0
M  V30 3487 C 337.874 -3.89247 -3.17478 0
M  V30 3488 C 339.868 -5.77718 -2.69296 0
M  V30 3489 C 337.555 -5.24713 -3.13241 0
M  V30 3490 C 338.553 -6.1876 -2.89181 0
M  V30 3491 O 338.241 -7.51745 -2.84843 0
M  V30 3492 H 337.973 -0.440436 -0.512827 0
M  V30 3493 H 340.527 -1.76153 -1.05638 0
M  V30 3494 H 338.757 -1.43652 -3.59028 0
M  V30 3495 H 340.446 -1.8549 -3.61038 0
M  V30 3496 H 341.212 -4.11127 -2.57294 0
M  V30 3497 H 337.091 -3.16456 -3.35226 0
M  V30 3498 H 340.635 -6.51097 -2.50436 0
M  V30 3499 H 336.532 -5.55569 -3.28654 0
M  V30 3500 H 337.3 -7.61262 -3.00702 0
M  V30 3501 N 339.963 1.05934 -1.16686 0
M  V30 3502 C 341.379 1.30938 -0.912542 0
M  V30 3503 C 341.579 1.96803 0.432533 0
M  V30 3504 O 340.635 2.23693 1.17123 0
M  V30 3505 C 341.948 2.18649 -2.06429 0
M  V30 3506 C 343.496 2.32055 -2.10047 0
M  V30 3507 C 343.971 3.23122 -3.24586 0
M  V30 3508 N 345.462 3.30706 -3.24327 0
M  V30 3509 C 346.197 4.01273 -4.09594 0
M  V30 3510 N 345.693 4.74332 -5.04956 0
M  V30 3511 N 347.486 3.97361 -3.97569 0
M  V30 3512 H 339.637 0.615777 -2.03278 0
M  V30 3513 H 341.9 0.334077 -0.887185 0
M  V30 3514 H 341.606 1.77534 -3.03603 0
M  V30 3515 H 341.48 3.19252 -2.00894 0
M  V30 3516 H 343.867 2.72415 -1.13464 0
M  V30 3517 H 343.948 1.31107 -2.19647 0
M  V30 3518 H 343.592 2.83477 -4.2143 0
M  V30 3519 H 343.522 4.24057 -3.12223 0
M  V30 3520 H 346.013 2.78644 -2.55276 0
M  V30 3521 H 346.326 5.25716 -5.6643 0
M  V30 3522 H 344.671 4.733 -5.08933 0
M  V30 3523 H 347.862 3.39405 -3.22369 0
M  V30 3524 H 348.035 4.52089 -4.64241 0
M  V30 3525 N 341.441 0.965919 1.2453 0
M  V30 3526 C 342.404 0.499547 2.2369 0
M  V30 3527 C 343.404 -0.40294 1.5567 0
M  V30 3528 O 344.594 -0.19865 1.73064 0
M  V30 3529 C 341.726 -0.276792 3.39774 0
M  V30 3530 H 342.919 1.37613 2.66463 0
M  V30 3531 H 340.472 0.750324 1.37112 0
M  V30 3532 H 341.207 -1.17055 3.02438 0
M  V30 3533 H 340.992 0.370826 3.90343 0
M  V30 3534 H 342.482 -0.592175 4.1338 0
M  V30 3535 N 342.919 -1.39368 0.735821 0
M  V30 3536 C 343.849 -2.33234 0.111506 0
M  V30 3537 C 344.83 -1.53954 -0.723334 0
M  V30 3538 O 346.015 -1.82344 -0.668147 0
M  V30 3539 C 343.145 -3.38057 -0.795917 0
M  V30 3540 C 342.099 -4.2795 -0.065172 0
M  V30 3541 C 341.425 -5.23479 -1.08967 0
M  V30 3542 C 342.725 -5.10741 1.09273 0
M  V30 3543 H 344.419 -2.85692 0.895571 0
M  V30 3544 H 341.965 -1.37364 0.432109 0
M  V30 3545 H 343.918 -4.02675 -1.24221 0
M  V30 3546 H 342.642 -2.8404 -1.61211 0
M  V30 3547 H 341.301 -3.64813 0.361511 0
M  V30 3548 H 340.949 -4.65758 -1.89944 0
M  V30 3549 H 340.649 -5.84472 -0.605489 0
M  V30 3550 H 342.173 -5.90974 -1.53565 0
M  V30 3551 H 343.587 -5.68699 0.724841 0
M  V30 3552 H 341.984 -5.8088 1.50659 0
M  V30 3553 H 343.054 -4.45525 1.91404 0
M  V30 3554 N 344.397 -0.483516 -1.5 0
M  V30 3555 C 345.627 0.0643896 -2.065 0
M  V30 3556 C 346.035 1.32949 -1.34615 0
M  V30 3557 O 345.378 1.79003 -0.412756 0
M  V30 3558 C 345.44 0.405983 -3.572 0
M  V30 3559 C 345.104 -0.758875 -4.50655 0
M  V30 3560 C 346.101 -1.64445 -4.93208 0
M  V30 3561 C 343.786 -0.952725 -4.93182 0
M  V30 3562 C 345.78 -2.70818 -5.77006 0
M  V30 3563 C 343.467 -2.01966 -5.76761 0
M  V30 3564 C 344.465 -2.89574 -6.18576 0
M  V30 3565 O 344.153 -3.94429 -7.00486 0
M  V30 3566 H 343.885 -0.00934786 -0.675935 0
M  V30 3567 H 346.439 -0.674959 -1.93993 0
M  V30 3568 H 344.669 1.19869 -3.67652 0
M  V30 3569 H 346.358 0.890433 -3.96013 0
M  V30 3570 H 347.124 -1.50643 -4.61012 0
M  V30 3571 H 343.003 -0.280247 -4.60147 0
M  V30 3572 H 346.547 -3.3923 -6.09565 0
M  V30 3573 H 342.444 -2.1577 -6.0837 0
M  V30 3574 H 343.212 -3.91568 -7.1876 0
M  V30 3575 N 345.875 1.56104 -0.216619 0
M  V30 3576 C 346.822 2.2007 0.695531 0
M  V30 3577 C 347.792 1.15471 1.19397 0
M  V30 3578 O 348.977 1.43807 1.25396 0
M  V30 3579 C 346.117 2.88073 1.90021 0
M  V30 3580 C 345.23 4.07253 1.44113 0
M  V30 3581 C 344.365 4.63052 2.603 0
M  V30 3582 C 343.404 5.74545 2.11103 0
M  V30 3583 N 342.541 6.24656 3.20545 0
M  V30 3584 H 347.381 2.97655 0.143327 0
M  V30 3585 H 344.918 1.46982 0.0589934 0
M  V30 3586 H 346.876 3.25681 2.60745 0
M  V30 3587 H 345.506 2.13015 2.42538 0
M  V30 3588 H 344.558 3.75164 0.628999 0
M  V30 3589 H 345.87 4.8783 1.04036 0
M  V30 3590 H 345.024 5.03078 3.39113 0
M  V30 3591 H 343.763 3.81628 3.03663 0
M  V30 3592 H 342.768 5.34027 1.3075 0
M  V30 3593 H 343.993 6.57801 1.68746 0
M  V30 3594 H 341.939 5.46148 3.63399 0
M  V30 3595 H 341.856 7.00343 2.84704 0
M  V30 3596 H 343.124 6.69338 3.99508 0
M  V30 3597 N 347.353 -0.0568162 1.57498 0
M  V30 3598 C 348.599 -0.75422 1.88253 0
M  V30 3599 C 348.932 -1.76461 0.810865 0
M  V30 3600 O 348.207 -1.93691 -0.177259 0
M  V30 3601 C 348.49 -1.44878 3.2967 0
M  V30 3602 C 348.343 -0.453789 4.47505 0
M  V30 3603 C 349.662 -2.38994 3.69554 0
M  V30 3604 H 346.781 -0.272724 0.684683 0
M  V30 3605 H 349.423 -0.0172113 1.89992 0
M  V30 3606 H 347.573 -2.077 3.28318 0
M  V30 3607 H 349.245 0.170371 4.60985 0
M  V30 3608 H 347.488 0.229552 4.33192 0
M  V30 3609 H 348.159 -0.977699 5.43273 0
M  V30 3610 H 350.635 -1.86239 3.72095 0
M  V30 3611 H 349.511 -2.84587 4.69363 0
M  V30 3612 H 349.772 -3.24461 3.00296 0
M  V30 3613 N 348.832 -1.54138 -0.328536 0
M  V30 3614 C 349.762 -1.86167 -1.40939 0
M  V30 3615 C 350.743 -0.718044 -1.54202 0
M  V30 3616 O 351.928 -0.971328 -1.68163 0
M  V30 3617 C 349.058 -2.08461 -2.77779 0
M  V30 3618 C 348.012 -3.24299 -2.7931 0
M  V30 3619 C 347.338 -3.31955 -4.19178 0
M  V30 3620 C 348.638 -4.62065 -2.43502 0
M  V30 3621 H 350.332 -2.76689 -1.14383 0
M  V30 3622 H 347.878 -1.33132 -0.548806 0
M  V30 3623 H 349.831 -2.29453 -3.53454 0
M  V30 3624 H 348.555 -1.14684 -3.05802 0
M  V30 3625 H 347.214 -3.03187 -2.0609 0
M  V30 3626 H 346.862 -2.35745 -4.44335 0
M  V30 3627 H 346.562 -4.09805 -4.2111 0
M  V30 3628 H 348.086 -3.55175 -4.96672 0
M  V30 3629 H 349.5 -4.8297 -3.08889 0
M  V30 3630 H 347.897 -5.42429 -2.56693 0
M  V30 3631 H 348.967 -4.64652 -1.38659 0
M  V30 3632 N 350.31 0.590341 -1.46126 0
M  V30 3633 C 351.556 1.35082 -1.51264 0
M  V30 3634 C 351.889 1.93534 -0.160711 0
M  V30 3635 O 351.164 1.76045 0.826956 0
M  V30 3636 C 351.447 2.48588 -2.6053 0
M  V30 3637 C 351.3 1.95221 -4.05227 0
M  V30 3638 C 352.619 3.50662 -2.6594 0
M  V30 3639 H 349.738 0.489803 -0.550692 0
M  V30 3640 H 352.38 0.663887 -1.78024 0
M  V30 3641 H 350.53 3.07186 -2.37843 0
M  V30 3642 H 352.202 1.41139 -4.39178 0
M  V30 3643 H 350.445 1.26101 -4.15068 0
M  V30 3644 H 351.116 2.77121 -4.77397 0
M  V30 3645 H 353.592 3.01934 -2.86313 0
M  V30 3646 H 352.468 4.27551 -3.44226 0
M  V30 3647 H 352.729 4.07399 -1.71694 0
M  V30 3648 N 351.788 1.33704 0.83433 0
M  V30 3649 C 353.016 1.28467 1.62185 0
M  V30 3650 C 353.431 -0.143526 1.88254 0
M  V30 3651 O 352.788 -1.08709 1.4659 0
M  V30 3652 C 352.839 2.06174 2.96942 0
M  V30 3653 O 352.56 3.43422 2.72016 0
M  V30 3654 C 354.061 2.08201 3.91366 0
M  V30 3655 H 351.281 0.4424 0.504503 0
M  V30 3656 H 353.825 1.76145 1.03891 0
M  V30 3657 H 351.98 1.62167 3.51825 0
M  V30 3658 H 352.394 3.83453 3.57861 0
M  V30 3659 H 353.868 2.67017 4.83121 0
M  V30 3660 H 354.345 1.07343 4.2588 0
M  V30 3661 H 354.951 2.52246 3.42421 0
M  V30 3662 N 353.266 -1.05314 1.17247 0
M  V30 3663 C 354.512 -1.78557 0.961513 0
M  V30 3664 C 354.845 -1.87419 -0.508697 0
M  V30 3665 O 354.12 -1.37307 -1.37757 0
M  V30 3666 C 354.403 -3.22514 1.60176 0
M  V30 3667 C 354.256 -3.21673 3.14399 0
M  V30 3668 C 355.575 -4.20318 1.30463 0
M  V30 3669 H 352.694 -0.6482 0.350723 0
M  V30 3670 H 355.336 -1.23102 1.44727 0
M  V30 3671 H 353.486 -3.69867 1.18871 0
M  V30 3672 H 355.158 -2.82405 3.64753 0
M  V30 3673 H 353.401 -2.60048 3.47214 0
M  V30 3674 H 354.072 -4.23271 3.54324 0
M  V30 3675 H 356.548 -3.81454 1.66229 0
M  V30 3676 H 355.424 -5.19289 1.77848 0
M  V30 3677 H 355.685 -4.41526 0.22521 0
M  V30 3678 N 354.744 -0.972509 -1.24016 0
M  V30 3679 C 355.974 -0.653853 -1.9598 0
M  V30 3680 C 356.382 0.781801 -1.72292 0
M  V30 3681 O 355.725 1.53677 -1.00644 0
M  V30 3682 C 355.787 -0.854608 -3.49194 0
M  V30 3683 C 355.451 -2.27082 -3.96589 0
M  V30 3684 C 356.448 -3.24892 -4.05883 0
M  V30 3685 C 354.133 -2.5998 -4.29786 0
M  V30 3686 C 356.127 -4.53684 -4.47716 0
M  V30 3687 C 353.814 -3.88997 -4.71301 0
M  V30 3688 C 354.812 -4.85661 -4.80232 0
M  V30 3689 O 354.5 -6.12376 -5.20818 0
M  V30 3690 H 354.232 -0.242572 -0.630979 0
M  V30 3691 H 356.786 -1.30431 -1.58673 0
M  V30 3692 H 355.016 -0.146985 -3.86421 0
M  V30 3693 H 356.705 -0.534311 -4.02368 0
M  V30 3694 H 357.471 -3.00805 -3.80449 0
M  V30 3695 H 353.35 -1.85457 -4.22051 0
M  V30 3696 H 356.894 -5.29135 -4.54601 0
M  V30 3697 H 352.791 -4.12882 -4.96184 0
M  V30 3698 H 353.559 -6.16013 -5.38953 0
M  V30 3699 N 356.222 1.38976 -0.743202 0
M  V30 3700 C 357.152 2.33171 -0.123873 0
M  V30 3701 C 358.133 1.54336 0.71516 0
M  V30 3702 O 359.318 1.82696 0.658467 0
M  V30 3703 C 356.448 3.38474 0.777978 0
M  V30 3704 C 355.402 4.27979 0.0424758 0
M  V30 3705 C 354.728 5.2405 1.06189 0
M  V30 3706 C 356.028 5.10155 -1.1198 0
M  V30 3707 H 357.722 2.85213 -0.910709 0
M  V30 3708 H 355.268 1.37133 -0.439388 0
M  V30 3709 H 357.221 4.03328 1.22084 0
M  V30 3710 H 355.945 2.84891 1.59702 0
M  V30 3711 H 354.604 3.64616 -0.380853 0
M  V30 3712 H 354.252 4.66758 1.87472 0
M  V30 3713 H 353.952 5.84785 0.574485 0
M  V30 3714 H 355.476 5.9178 1.50428 0
M  V30 3715 H 356.89 5.68307 -0.75499 0
M  V30 3716 H 355.287 5.80073 -1.53738 0
M  V30 3717 H 356.357 4.44504 -1.93764 0
M  V30 3718 N 357.7 0.491464 1.49741 0
M  V30 3719 C 358.947 -0.0564256 2.02421 0
M  V30 3720 C 359.275 -1.37872 1.37192 0
M  V30 3721 O 358.53 -1.89375 0.493508 0
M  V30 3722 C 358.829 -0.267329 3.56399 0
M  V30 3723 C 358.495 0.975775 4.40215 0
M  V30 3724 C 357.157 1.31655 4.62839 0
M  V30 3725 C 359.509 1.80251 4.89039 0
M  V30 3726 C 356.837 2.48375 5.31532 0
M  V30 3727 C 359.189 2.96116 5.59015 0
M  V30 3728 C 357.853 3.30585 5.79888 0
M  V30 3729 H 357.123 -0.0206476 0.740712 0
M  V30 3730 H 359.77 0.649686 1.80143 0
M  V30 3731 H 358.075 -1.05588 3.77304 0
M  V30 3732 H 359.772 -0.705549 3.94744 0
M  V30 3733 H 356.362 0.700315 4.2284 0
M  V30 3734 H 360.546 1.55239 4.71396 0
M  V30 3735 H 355.802 2.7533 5.45897 0
M  V30 3736 H 359.976 3.60509 5.95824 0
M  V30 3737 H 357.603 4.21132 6.32892 0
M  V30 3738 N 359.178 -1.55987 0.224894 0
M  V30 3739 C 360.108 -2.23426 -0.678457 0
M  V30 3740 C 361.089 -1.20709 -1.19847 0
M  V30 3741 O 362.274 -1.49304 -1.24186 0
M  V30 3742 C 359.404 -2.91676 -1.88527 0
M  V30 3743 C 358.358 -4.00893 -1.49896 0
M  V30 3744 C 357.684 -4.56455 -2.78483 0
M  V30 3745 C 358.984 -5.17769 -0.686461 0
M  V30 3746 H 360.678 -2.99175 -0.116173 0
M  V30 3747 H 358.224 -1.43897 -0.054436 0
M  V30 3748 H 360.177 -3.37547 -2.5227 0
M  V30 3749 H 358.901 -2.1338 -2.47258 0
M  V30 3750 H 357.56 -3.55758 -0.884985 0
M  V30 3751 H 357.208 -3.74886 -3.35365 0
M  V30 3752 H 356.908 -5.30169 -2.53368 0
M  V30 3753 H 358.432 -5.05047 -3.43162 0
M  V30 3754 H 359.846 -5.60001 -1.22767 0
M  V30 3755 H 358.243 -5.97735 -0.532259 0
M  V30 3756 H 359.313 -4.83932 0.306196 0
M  V30 3757 N 360.656 0.0484629 -1.57525 0
M  V30 3758 C 361.904 0.741657 -1.88 0
M  V30 3759 C 362.225 1.76918 -0.820054 0
M  V30 3760 O 361.495 1.95335 0.148661 0
M  V30 3761 H 360.075 0.276908 -0.69378 0
M  V30 3762 H 362.737 0.019013 -1.94891 0
M  V30 3763 H 361.833 1.24336 -2.86264 0
M  V30 3764 N 362.134 1.5431 0.320358 0
M  V30 3765 C 363.064 1.86912 1.3995 0
M  V30 3766 C 364.045 0.726211 1.53819 0
M  V30 3767 O 365.23 0.980233 1.67646 0
M  V30 3768 C 362.36 2.09932 2.7667 0
M  V30 3769 C 361.314 3.25776 2.77586 0
M  V30 3770 C 360.64 3.34173 4.17412 0
M  V30 3771 C 361.94 4.6335 2.41048 0
M  V30 3772 H 363.634 2.77292 1.12914 0
M  V30 3773 H 361.18 1.33421 0.541738 0
M  V30 3774 H 363.133 2.31324 3.52232 0
M  V30 3775 H 361.857 1.16304 3.0519 0
M  V30 3776 H 360.516 3.04276 2.04479 0
M  V30 3777 H 360.164 2.38098 4.43078 0
M  V30 3778 H 359.864 4.12033 4.18931 0
M  V30 3779 H 361.388 3.57803 4.94782 0
M  V30 3780 H 362.802 4.84602 3.06324 0
M  V30 3781 H 361.199 5.43782 2.53813 0
M  V30 3782 H 362.269 4.65381 1.36193 0
M  V30 3783 N 363.613 -0.582584 1.46437 0
M  V30 3784 C 364.859 -1.34278 1.51978 0
M  V30 3785 C 365.192 -1.93446 0.170973 0
M  V30 3786 O 364.467 -1.76481 -0.817608 0
M  V30 3787 C 364.75 -2.47203 2.61845 0
M  V30 3788 C 364.603 -1.93069 4.06257 0
M  V30 3789 C 365.922 -3.49247 2.67795 0
M  V30 3790 H 363.041 -0.486876 0.553282 0
M  V30 3791 H 365.683 -0.654437 1.78374 0
M  V30 3792 H 363.833 -3.0592 2.39469 0
M  V30 3793 H 365.505 -1.38808 4.3992 0
M  V30 3794 H 363.748 -1.23898 4.1573 0
M  V30 3795 H 364.419 -2.74586 4.7886 0
M  V30 3796 H 366.895 -3.00411 2.8791 0
M  V30 3797 H 365.771 -4.25719 3.46489 0
M  V30 3798 H 366.032 -4.06482 1.73852 0
M  V30 3799 N 365.091 -1.34144 -0.827227 0
M  V30 3800 C 366.054 -1.25264 -1.91942 0
M  V30 3801 C 367.054 -0.168866 -1.59911 0
M  V30 3802 O 368.244 -0.421198 -1.69031 0
M  V30 3803 C 365.376 -0.932952 -3.27885 0
M  V30 3804 H 366.569 -2.22357 -2.0124 0
M  V30 3805 H 364.122 -1.1837 -1.0207 0
M  V30 3806 H 364.857 0.0349917 -3.24281 0
M  V30 3807 H 364.642 -1.71682 -3.52516 0
M  V30 3808 H 366.132 -0.895874 -4.07877 0
M  V30 3809 N 366.569 1.04691 -1.17803 0
M  V30 3810 C 367.502 2.12068 -0.842765 0
M  V30 3811 C 368.48 1.61455 0.192608 0
M  V30 3812 O 369.664 1.88359 0.072995 0
M  V30 3813 C 366.791 3.37715 -0.258063 0
M  V30 3814 C 365.837 4.07164 -1.26962 0
M  V30 3815 S 366.67 4.55047 -2.82299 0
M  V30 3816 C 367.826 5.83935 -2.25323 0
M  V30 3817 H 368.059 2.4018 -1.75217 0
M  V30 3818 H 365.592 1.17366 -1.00323 0
M  V30 3819 H 367.55 4.10435 0.0727935 0
M  V30 3820 H 366.211 3.0773 0.629357 0
M  V30 3821 H 365.404 4.9746 -0.809263 0
M  V30 3822 H 365.006 3.40533 -1.54639 0
M  V30 3823 H 367.298 6.57552 -1.63192 0
M  V30 3824 H 368.241 6.34725 -3.13894 0
M  V30 3825 H 368.649 5.3874 -1.68582 0
M  V30 3826 N 368.047 0.979072 1.23499 0
M  V30 3827 C 369.293 0.648178 1.92163 0
M  V30 3828 C 369.626 -0.816049 1.76222 0
M  V30 3829 O 368.901 -1.58849 1.12237 0
M  V30 3830 C 369.184 1.03773 3.44824 0
M  V30 3831 C 369.037 2.55948 3.69879 0
M  V30 3832 C 370.356 0.580653 4.36253 0
M  V30 3833 H 367.475 0.236952 0.69787 0
M  V30 3834 H 370.117 1.22012 1.45647 0
M  V30 3835 H 368.267 0.551058 3.84572 0
M  V30 3836 H 369.939 3.12179 3.3962 0
M  V30 3837 H 368.182 2.98641 3.14636 0
M  V30 3838 H 368.853 2.78255 4.76737 0
M  V30 3839 H 371.329 0.998465 4.03943 0
M  V30 3840 H 370.205 0.881663 5.41773 0
M  V30 3841 H 370.466 -0.519052 4.39042 0
M  V30 3842 N 369.525 -1.3858 0.750561 0
M  V30 3843 C 370.455 -2.33102 0.136237 0
M  V30 3844 C 371.436 -1.54713 -0.706965 0
M  V30 3845 O 372.621 -1.83043 -0.648769 0
M  V30 3846 C 369.751 -3.38882 -0.760017 0
M  V30 3847 C 368.705 -4.27995 -0.0197785 0
M  V30 3848 C 368.031 -5.24605 -1.03408 0
M  V30 3849 C 369.331 -5.09554 1.14684 0
M  V30 3850 H 371.025 -2.84726 0.925822 0
M  V30 3851 H 368.571 -1.36898 0.446654 0
M  V30 3852 H 370.524 -4.0397 -1.19943 0
M  V30 3853 H 369.248 -2.85734 -1.58189 0
M  V30 3854 H 367.907 -3.64409 0.400184 0
M  V30 3855 H 367.555 -4.67746 -1.84994 0
M  V30 3856 H 367.255 -5.85081 -0.543464 0
M  V30 3857 H 368.779 -5.9257 -1.47288 0
M  V30 3858 H 370.193 -5.67899 0.785118 0
M  V30 3859 H 368.59 -5.7925 1.56812 0
M  V30 3860 H 369.66 -4.4347 1.96118 0
M  V30 3861 N 371.003 -0.499398 -1.49478 0
M  V30 3862 C 372.249 0.0457576 -2.02748 0
M  V30 3863 C 372.582 1.36793 -1.37846 0
M  V30 3864 O 371.857 1.87596 -0.513601 0
M  V30 3865 C 372.14 0.199986 -3.59544 0
M  V30 3866 C 371.993 -1.1452 -4.34977 0
M  V30 3867 C 373.312 0.94137 -4.29914 0
M  V30 3868 H 370.431 0.0151552 -0.736844 0
M  V30 3869 H 373.073 -0.650498 -1.78518 0
M  V30 3870 H 371.223 0.793007 -3.8032 0
M  V30 3871 H 372.895 -1.77697 -4.25701 0
M  V30 3872 H 371.138 -1.73488 -3.97598 0
M  V30 3873 H 371.809 -0.990607 -5.43039 0
M  V30 3874 H 374.285 0.43844 -4.13784 0
M  V30 3875 H 373.161 1.01812 -5.39375 0
M  V30 3876 H 373.422 1.98471 -3.95046 0
M  V30 3877 N 372.481 1.55866 -0.233164 0
M  V30 3878 C 373.411 2.23783 0.666599 0
M  V30 3879 C 374.392 1.21343 1.19205 0
M  V30 3880 O 375.577 1.4996 1.23392 0
M  V30 3881 C 372.707 2.92671 1.86978 0
M  V30 3882 C 371.661 4.01682 1.47768 0
M  V30 3883 C 370.987 4.57926 2.76058 0
M  V30 3884 C 372.287 5.18126 0.658993 0
M  V30 3885 H 373.981 2.99232 0.100306 0
M  V30 3886 H 371.527 1.43924 0.046804 0
M  V30 3887 H 373.48 3.3888 2.50476 0
M  V30 3888 H 372.204 2.14688 2.46123 0
M  V30 3889 H 370.863 3.56222 0.866106 0
M  V30 3890 H 370.511 3.76659 3.33372 0
M  V30 3891 H 370.211 5.31505 2.50552 0
M  V30 3892 H 371.735 5.06859 3.40479 0
M  V30 3893 H 373.149 5.60644 1.19795 0
M  V30 3894 H 371.546 5.98009 0.500552 0
M  V30 3895 H 372.616 4.83763 -0.331856 0
M  V30 3896 N 373.959 -0.0401083 1.57549 0
M  V30 3897 C 374.891 -1.07149 2.02612 0
M  V30 3898 C 375.904 -1.33126 0.937085 0
M  V30 3899 O 377.093 -1.30808 1.21456 0
M  V30 3900 C 374.193 -2.41561 2.37701 0
M  V30 3901 C 373.366 -2.35096 3.68848 0
M  V30 3902 C 372.425 -3.51867 3.91249 0
M  V30 3903 O 371.451 -3.3186 4.62447 0
M  V30 3904 N 372.653 -4.73351 3.36035 0
M  V30 3905 H 375.418 -0.687485 2.91708 0
M  V30 3906 H 372.979 -0.228248 1.60283 0
M  V30 3907 H 374.971 -3.18379 2.49833 0
M  V30 3908 H 373.541 -2.71846 1.54332 0
M  V30 3909 H 372.761 -1.4345 3.67173 0
M  V30 3910 H 374.049 -2.27908 4.54901 0
M  V30 3911 H 373.447 -4.92507 2.78304 0
M  V30 3912 H 372.004 -5.47572 3.53565 0
M  V30 3913 N 375.437 -1.54477 -0.31217 0
M  V30 3914 C 376.665 -1.77205 -1.068 0
M  V30 3915 C 377.08 -0.526114 -1.81321 0
M  V30 3916 O 376.437 0.503647 -1.75413 0
M  V30 3917 C 376.488 -2.97253 -2.05725 0
M  V30 3918 O 376.209 -4.1703 -1.34228 0
M  V30 3919 C 377.71 -3.32281 -2.93435 0
M  V30 3920 H 374.93 -0.591287 -0.317208 0
M  V30 3921 H 377.474 -2.01398 -0.354834 0
M  V30 3922 H 375.629 -2.753 -2.72559 0
M  V30 3923 H 376.043 -4.84636 -2.00571 0
M  V30 3924 H 377.517 -4.19551 -3.58721 0
M  V30 3925 H 377.994 -2.49945 -3.61143 0
M  V30 3926 H 378.6 -3.56353 -2.32147 0
M  V30 3927 N 376.915 0.57481 -1.46744 0
M  V30 3928 C 378.162 1.33272 -1.52462 0
M  V30 3929 C 378.49 1.93669 -0.179572 0
M  V30 3930 O 377.745 1.7743 0.825664 0
M  V30 3931 C 378.044 2.476 -2.57738 0
M  V30 3932 C 377.71 2.05146 -4.01529 0
M  V30 3933 C 376.372 1.93284 -4.40676 0
M  V30 3934 C 378.724 1.72506 -4.91824 0
M  V30 3935 C 376.052 1.47049 -5.67973 0
M  V30 3936 C 378.404 1.27748 -6.19567 0
M  V30 3937 C 377.068 1.14468 -6.57612 0
M  V30 3938 H 376.338 0.487678 -0.557899 0
M  V30 3939 H 378.985 0.646456 -1.80259 0
M  V30 3940 H 377.29 3.21708 -2.23632 0
M  V30 3941 H 378.987 3.05807 -2.5939 0
M  V30 3942 H 375.577 2.15316 -3.7059 0
M  V30 3943 H 379.761 1.80552 -4.62293 0
M  V30 3944 H 375.017 1.35417 -5.96215 0
M  V30 3945 H 379.191 1.01547 -6.88957 0
M  V30 3946 H 376.818 0.78419 -7.56145 0
M  V30 3947 N 378.394 1.34581 0.820102 0
M  V30 3948 C 379.81 1.14325 1.11364 0
M  V30 3949 C 380.01 -0.0533648 2.01429 0
M  V30 3950 O 379.066 -0.728044 2.41776 0
M  V30 3951 C 380.379 2.43983 1.75764 0
M  V30 3952 C 381.927 2.50065 1.88246 0
M  V30 3953 C 382.402 3.79732 2.56061 0
M  V30 3954 N 383.893 3.80908 2.63558 0
M  V30 3955 C 384.628 4.77961 3.16766 0
M  V30 3956 N 384.124 5.85397 3.70517 0
M  V30 3957 N 385.917 4.65413 3.15194 0
M  V30 3958 H 378.068 2.11246 0.221096 0
M  V30 3959 H 380.331 0.934289 0.160649 0
M  V30 3960 H 380.037 3.31651 1.1705 0
M  V30 3961 H 379.911 2.57531 2.75604 0
M  V30 3962 H 382.298 1.62834 2.46108 0
M  V30 3963 H 382.379 2.40442 0.873006 0
M  V30 3964 H 382.023 4.67354 1.98853 0
M  V30 3965 H 381.953 3.86639 3.57516 0
M  V30 3966 H 384.444 3.03274 2.25463 0
M  V30 3967 H 384.757 6.55463 4.09376 0
M  V30 3968 H 383.102 5.89107 3.68752 0
M  V30 3969 H 386.293 3.80627 2.72471 0
M  V30 3970 H 386.466 5.41216 3.56356 0
M  V30 3971 N 379.872 -1.04064 1.18357 0
M  V30 3972 C 380.822 -2.10393 0.878561 0
M  V30 3973 C 381.806 -1.60183 -0.151713 0
M  V30 3974 O 382.998 -1.76923 0.0523303 0
M  V30 3975 C 380.127 -3.4089 0.406096 0
M  V30 3976 C 379.213 -3.97866 1.46844 0
M  V30 3977 N 379.604 -4.28657 2.68489 0
M  V30 3978 C 377.902 -4.2574 1.32896 0
M  V30 3979 C 378.603 -4.74253 3.36836 0
M  V30 3980 N 377.579 -4.75068 2.64219 0
M  V30 3981 H 381.381 -2.32076 1.80327 0
M  V30 3982 H 378.895 -1.21818 1.07397 0
M  V30 3983 H 380.892 -4.16557 0.169088 0
M  V30 3984 H 379.552 -3.20633 -0.512275 0
M  V30 3985 H 380.563 -4.18304 3.05356 0
M  V30 3986 H 377.24 -4.1481 0.473134 0
M  V30 3987 H 378.63 -5.07096 4.40798 0
M  V30 3988 N 381.35 -0.985608 -1.22978 0
M  V30 3989 C 382.596 -0.65836 -1.91816 0
M  V30 3990 C 382.929 0.806692 -1.76653 0
M  V30 3991 O 382.204 1.58252 -1.13078 0
M  V30 3992 C 382.487 -1.056 -3.44268 0
M  V30 3993 C 382.34 -2.57906 -3.68516 0
M  V30 3994 C 383.659 -0.603781 -4.35939 0
M  V30 3995 H 380.778 -0.24065 -0.696604 0
M  V30 3996 H 383.42 -1.22783 -1.44998 0
M  V30 3997 H 381.57 -0.571445 -3.84274 0
M  V30 3998 H 383.242 -3.13976 -3.3796 0
M  V30 3999 H 381.485 -3.00305 -3.13048 0
M  V30 4000 H 382.156 -2.80779 -4.75255 0
M  V30 4001 H 384.632 -1.01987 -4.03408 0
M  V30 4002 H 383.508 -0.910383 -5.41298 0
M  V30 4003 H 383.769 0.495761 -4.39312 0
M  V30 4004 N 382.828 1.3818 -0.7579 0
M  V30 4005 C 384.053 2.04827 -0.325679 0
M  V30 4006 C 384.478 1.56788 1.03919 0
M  V30 4007 O 383.836 0.721811 1.66312 0
M  V30 4008 C 383.884 3.58774 -0.362447 0
M  V30 4009 O 382.988 4.07372 0.642033 0
M  V30 4010 H 382.329 0.64833 -0.143402 0
M  V30 4011 H 384.859 1.7677 -1.03023 0
M  V30 4012 H 384.869 4.07434 -0.214844 0
M  V30 4013 H 383.544 3.93096 -1.35824 0
M  V30 4014 H 382.121 3.70068 0.458688 0
M  V30 4015 N 384.306 0.507319 1.49211 0
M  V30 4016 C 385.583 -0.0982702 1.95353 0
M  V30 4017 C 385.963 -1.53516 1.449 0
M  V30 4018 O 385.311 -2.18594 0.66551 0
M  V30 4019 C 385.521 -0.00440283 3.49 0
M  V30 4020 C 386.869 -0.175147 4.24239 0
M  V30 4021 O 387.893 -0.0792891 3.56112 0
M  V30 4022 O 386.752 -0.37276 5.45227 0
M  V30 4023 H 383.846 -0.0918236 0.821887 0
M  V30 4024 H 386.392 0.570307 1.5983 0
M  V30 4025 H 385.164 0.997402 3.78375 0
M  V30 4026 H 384.787 -0.712845 3.91158 0
M  V30 4027 N 385.784 -1.5574 0.241426 0
M  V30 4028 C 386.714 -2.24133 -0.654722 0
M  V30 4029 C 387.695 -1.21974 -1.1856 0
M  V30 4030 O 388.88 -1.50612 -1.22595 0
M  V30 4031 C 386.01 -2.93659 -1.85423 0
M  V30 4032 C 384.964 -4.0246 -1.45636 0
M  V30 4033 C 384.29 -4.59383 -2.73626 0
M  V30 4034 C 385.59 -5.18468 -0.631506 0
M  V30 4035 H 387.284 -2.99281 -0.0844353 0
M  V30 4036 H 384.83 -1.43947 -0.0391707 0
M  V30 4037 H 386.783 -3.40203 -2.48676 0
M  V30 4038 H 385.507 -2.15991 -2.44981 0
M  V30 4039 H 384.166 -3.56676 -0.847202 0
M  V30 4040 H 383.814 -3.78422 -3.3137 0
M  V30 4041 H 383.514 -5.32826 -2.4773 0
M  V30 4042 H 385.038 -5.08658 -3.37786 0
M  V30 4043 H 386.452 -5.61272 -1.1682 0
M  V30 4044 H 384.849 -5.98266 -0.468831 0
M  V30 4045 H 385.919 -4.8358 0.357506 0
M  V30 4046 N 387.262 0.0317525 -1.57568 0
M  V30 4047 C 388.212 1.04101 -2.02847 0
M  V30 4048 C 389.196 1.3219 -0.917317 0
M  V30 4049 O 390.388 1.31819 -1.18121 0
M  V30 4050 C 387.517 2.34295 -2.5092 0
M  V30 4051 C 386.603 2.09308 -3.68851 0
M  V30 4052 N 386.994 1.5437 -4.81667 0
M  V30 4053 C 385.292 2.39604 -3.76172 0
M  V30 4054 C 385.993 1.45126 -5.63306 0
M  V30 4055 N 384.969 1.92589 -5.08341 0
M  V30 4056 H 388.771 0.610217 -2.87495 0
M  V30 4057 H 386.285 0.238108 -1.60645 0
M  V30 4058 H 388.282 3.07404 -2.81617 0
M  V30 4059 H 386.942 2.78055 -1.67677 0
M  V30 4060 H 387.953 1.22678 -5.03161 0
M  V30 4061 H 384.63 2.86457 -3.03724 0
M  V30 4062 H 386.02 1.03163 -6.63933 0
M  V30 4063 N 388.74 1.54641 0.303973 0
M  V30 4064 C 389.988 1.73437 1.0375 0
M  V30 4065 C 390.309 0.521449 1.87899 0
M  V30 4066 O 389.579 -0.46432 1.90318 0
M  V30 4067 H 388.159 0.639518 0.386039 0
M  V30 4068 H 390.821 1.91988 0.335675 0
M  V30 4069 H 389.917 2.62235 1.69231 0
M  V30 4070 N 390.218 -0.567019 1.47046 0
M  V30 4071 C 391.148 -1.68482 1.61667 0
M  V30 4072 C 392.129 -1.6358 0.466418 0
M  V30 4073 O 393.314 -1.81354 0.694574 0
M  V30 4074 C 390.444 -3.07124 1.62148 0
M  V30 4075 C 389.398 -3.26867 2.76301 0
M  V30 4076 C 388.724 -4.66196 2.61849 0
M  V30 4077 C 390.024 -3.13186 4.17986 0
M  V30 4078 H 391.718 -1.56502 2.5524 0
M  V30 4079 H 389.264 -0.751486 1.22836 0
M  V30 4080 H 391.217 -3.8516 1.70968 0
M  V30 4081 H 389.941 -3.2004 0.651287 0
M  V30 4082 H 388.6 -2.51237 2.66975 0
M  V30 4083 H 388.248 -4.75898 1.62879 0
M  V30 4084 H 387.948 -4.80356 3.38425 0
M  V30 4085 H 389.472 -5.46379 2.72584 0
M  V30 4086 H 390.886 -3.81049 4.2834 0
M  V30 4087 H 389.283 -3.3886 4.95272 0
M  V30 4088 H 390.353 -2.10057 4.3704 0
M  V30 4089 N 391.696 -1.35014 -0.812953 0
M  V30 4090 C 392.924 -1.31031 -1.6012 0
M  V30 4091 C 393.339 0.113558 -1.88458 0
M  V30 4092 O 392.696 1.06363 -1.48301 0
M  V30 4093 C 392.747 -2.10872 -2.93624 0
M  V30 4094 O 392.468 -3.47706 -2.66518 0
M  V30 4095 C 393.969 -2.14401 -3.88004 0
M  V30 4096 H 391.189 -0.45037 -0.497401 0
M  V30 4097 H 393.733 -1.77775 -1.01076 0
M  V30 4098 H 391.888 -1.67744 -3.492 0
M  V30 4099 H 392.302 -3.89097 -3.51715 0
M  V30 4100 H 393.776 -2.74669 -4.78812 0
M  V30 4101 H 394.253 -1.14105 -4.24119 0
M  V30 4102 H 394.859 -2.57662 -3.38364 0
M  V30 4103 N 393.175 1.03435 -1.18907 0
M  V30 4104 C 394.085 2.15075 -0.937015 0
M  V30 4105 C 395.101 1.73706 0.101085 0
M  V30 4106 O 396.277 2.01232 -0.0822948 0
M  V30 4107 C 393.342 3.43458 -0.473057 0
M  V30 4108 C 392.403 3.99172 -1.57989 0
M  V30 4109 C 391.636 5.21427 -1.13797 0
M  V30 4110 O 391.859 5.704 0.000725941 0
M  V30 4111 O 390.793 5.69837 -1.9383 0
M  V30 4112 H 394.619 2.39198 -1.87131 0
M  V30 4113 H 392.204 1.13506 -0.971427 0
M  V30 4114 H 394.086 4.20811 -0.222702 0
M  V30 4115 H 392.761 3.20793 0.432869 0
M  V30 4116 H 391.668 3.23178 -1.88433 0
M  V30 4117 H 393.001 4.2619 -2.46217 0
M  V30 4118 N 394.653 0.992116 1.22453 0
M  V30 4119 C 395.583 0.561677 2.26644 0
M  V30 4120 C 396.564 -0.411055 1.65059 0
M  V30 4121 O 397.749 -0.301861 1.9184 0
M  V30 4122 C 394.879 -0.125247 3.47074 0
M  V30 4123 C 393.833 0.765948 4.21091 0
M  V30 4124 C 393.159 -0.0538484 5.34673 0
M  V30 4125 C 394.459 2.06242 4.79856 0
M  V30 4126 H 396.153 1.43259 2.62902 0
M  V30 4127 H 393.699 0.690283 1.26377 0
M  V30 4128 H 395.652 -0.437764 4.1912 0
M  V30 4129 H 394.376 -1.03069 3.0991 0
M  V30 4130 H 393.035 1.0621 3.50878 0
M  V30 4131 H 392.683 -0.960188 4.9375 0
M  V30 4132 H 392.383 0.539415 5.85119 0
M  V30 4133 H 393.907 -0.360477 6.09535 0
M  V30 4134 H 395.321 1.8139 5.43848 0
M  V30 4135 H 393.718 2.60444 5.40638 0
M  V30 4136 H 394.788 2.74167 3.99951 0
M  V30 4137 N 396.131 -1.37776 0.765217 0
M  V30 4138 C 397.38 -1.99092 0.323307 0
M  V30 4139 C 397.693 -1.61434 -1.10446 0
M  V30 4140 O 398.899 -2.15805 -1.64743 0
M  V30 4141 C 397.355 -3.56019 0.527098 0
M  V30 4142 C 396.963 -4.0262 1.96471 0
M  V30 4143 C 398.707 -4.2424 0.148483 0
M  V30 4144 C 396.614 -5.52233 2.11644 0
M  V30 4145 H 395.544 -0.744846 0.117137 0
M  V30 4146 H 398.195 -1.57391 0.943417 0
M  V30 4147 H 396.577 -3.95667 -0.162372 0
M  V30 4148 H 397.751 -3.74234 2.68859 0
M  V30 4149 H 396.066 -3.47161 2.29931 0
M  V30 4150 H 398.663 -5.34159 0.240456 0
M  V30 4151 H 399.006 -4.06446 -0.900422 0
M  V30 4152 H 399.539 -3.89872 0.79025 0
M  V30 4153 H 396.278 -5.74945 3.1483 0
M  V30 4154 H 395.798 -5.82324 1.4373 0
M  V30 4155 H 397.477 -6.18106 1.91193 0
M  V30 4156 N 397.609 -0.515225 -1.4894 0
M  V30 4157 C 398.539 0.244628 -2.32215 0
M  V30 4158 C 399.52 0.949136 -1.41157 0
M  V30 4159 O 400.705 0.937783 -1.70057 0
M  V30 4160 C 397.835 1.30096 -3.22013 0
M  V30 4161 C 396.789 0.715486 -4.21977 0
M  V30 4162 C 396.115 1.87339 -5.00808 0
M  V30 4163 C 397.415 -0.302982 -5.2142 0
M  V30 4164 H 399.109 -0.450501 -2.95991 0
M  V30 4165 H 396.655 -0.218098 -1.42339 0
M  V30 4166 H 398.608 1.84037 -3.79089 0
M  V30 4167 H 397.332 2.02547 -2.56207 0
M  V30 4168 H 395.991 0.197715 -3.66066 0
M  V30 4169 H 395.639 2.58592 -4.31438 0
M  V30 4170 H 395.339 1.48764 -5.68457 0
M  V30 4171 H 396.863 2.41686 -5.60732 0
M  V30 4172 H 398.277 0.148802 -5.73107 0
M  V30 4173 H 396.674 -0.60532 -5.97039 0
M  V30 4174 H 397.744 -1.21395 -4.69459 0
M  V30 4175 N 399.087 1.5561 -0.249682 0
M  V30 4176 C 400.017 2.24477 0.642826 0
M  V30 4177 C 400.998 1.22601 1.17911 0
M  V30 4178 O 402.183 1.5126 1.21795 0
M  V30 4179 C 399.313 2.94638 1.83863 0
M  V30 4180 C 398.267 4.03227 1.435 0
M  V30 4181 C 397.593 4.60828 2.71186 0
M  V30 4182 C 398.893 5.18796 0.604002 0
M  V30 4183 H 400.587 2.99321 0.0685625 0
M  V30 4184 H 398.133 1.43965 0.0315363 0
M  V30 4185 H 400.086 3.41517 2.46868 0
M  V30 4186 H 398.81 2.17287 2.43832 0
M  V30 4187 H 397.469 3.57121 0.828275 0
M  V30 4188 H 397.117 3.80174 3.29358 0
M  V30 4189 H 396.817 5.34132 2.44901 0
M  V30 4190 H 398.341 5.10442 3.35084 0
M  V30 4191 H 399.755 5.61883 1.13842 0
M  V30 4192 H 398.152 5.98506 0.437097 0
M  V30 4193 H 399.222 4.83384 -0.383147 0
M  V30 4194 N 400.565 -0.0233959 1.57583 0
M  V30 4195 C 401.976 -0.56927 1.77809 0
M  V30 4196 C 402.327 -1.75284 0.881472 0
M  V30 4197 O 401.452 -2.1626 0.0777805 0
M  V30 4198 C 402.047 -1.03949 3.22459 0
M  V30 4199 C 400.606 -1.53084 3.43864 0
M  V30 4200 C 399.753 -0.471454 2.73263 0
M  V30 4201 H 402.704 0.202825 1.57399 0
M  V30 4202 H 402.725 -1.90661 3.29285 0
M  V30 4203 H 402.237 -0.177865 3.87692 0
M  V30 4204 H 400.338 -2.41414 2.83814 0
M  V30 4205 H 400.451 -1.57443 4.52491 0
M  V30 4206 H 398.815 -0.927788 2.37201 0
M  V30 4207 H 399.598 0.380808 3.41181 0
M  V30 4208 N 402.043 -1.548 -0.295768 0
M  V30 4209 C 403.454 -1.65274 -0.868411 0
M  V30 4210 C 403.805 -0.56481 -1.87894 0
M  V30 4211 O 402.93 0.29767 -2.14343 0
M  V30 4212 C 403.525 -2.99603 -1.58188 0
M  V30 4213 C 402.084 -3.12181 -2.10286 0
M  V30 4214 C 401.231 -2.6098 -0.93727 0
M  V30 4215 H 404.182 -1.58534 -0.0726422 0
M  V30 4216 H 404.203 -2.91319 -2.44772 0
M  V30 4217 H 403.715 -3.78764 -0.846151 0
M  V30 4218 H 401.816 -2.3775 -2.8689 0
M  V30 4219 H 401.929 -4.18415 -2.33379 0
M  V30 4220 H 400.293 -2.17564 -1.32431 0
M  V30 4221 H 401.076 -3.42623 -0.215414 0
M  V30 4222 N 403.521 0.559213 -1.47345 0
M  V30 4223 C 404.932 1.14134 -1.47751 0
M  V30 4224 C 405.283 1.94834 -0.231103 0
M  V30 4225 O 404.408 2.05957 0.664137 0
M  V30 4226 C 405.003 2.07653 -2.67705 0
M  V30 4227 C 403.562 2.61141 -2.71076 0
M  V30 4228 C 402.709 1.3748 -2.40821 0
M  V30 4229 H 405.66 0.345917 -1.54884 0
M  V30 4230 H 405.681 2.91497 -2.44561 0
M  V30 4231 H 405.193 1.4889 -3.58404 0
M  V30 4232 H 403.294 3.23707 -1.84511 0
M  V30 4233 H 403.407 3.02272 -3.7171 0
M  V30 4234 H 401.771 1.68086 -1.91362 0
M  V30 4235 H 402.554 0.805135 -3.33725 0
M  V30 4236 N 404.999 1.35443 0.805782 0
M  V30 4237 C 406.239 1.30127 1.57627 0
M  V30 4238 C 406.603 -0.122567 1.91608 0
M  V30 4239 O 407.804 -0.300107 2.67119 0
M  V30 4240 C 406.075 2.18314 2.82973 0
M  V30 4241 S 407.634 2.30521 3.7337 0
M  V30 4242 H 404.452 0.462439 0.540066 0
M  V30 4243 H 407.054 1.70843 0.95042 0
M  V30 4244 H 405.758 3.20741 2.56034 0
M  V30 4245 H 405.289 1.78558 3.50543 0
M  V30 4246 H 407.304 1.49062 4.73281 0
M  V30 4247 N 406.477 -1.02803 1.19454 0
M  V30 4248 C 407.888 -1.57667 0.999899 0
M  V30 4249 C 408.239 -1.91041 -0.446956 0
M  V30 4250 O 407.364 -1.70978 -1.32648 0
M  V30 4251 C 407.959 -2.86477 1.80877 0
M  V30 4252 C 406.518 -3.37911 1.65811 0
M  V30 4253 C 405.665 -2.11343 1.79526 0
M  V30 4254 H 408.616 -0.853214 1.33813 0
M  V30 4255 H 408.637 -3.57408 1.30536 0
M  V30 4256 H 408.149 -2.62155 2.86175 0
M  V30 4257 H 406.25 -3.67218 0.63102 0
M  V30 4258 H 406.363 -4.10885 2.46395 0
M  V30 4259 H 404.727 -2.23254 1.22596 0
M  V30 4260 H 405.51 -1.89461 2.86285 0
M  V30 4261 N 407.956 -0.998596 -1.21925 0
M  V30 4262 C 408.919 -0.558679 -2.22287 0
M  V30 4263 C 409.919 0.361525 -1.56683 0
M  V30 4264 O 411.109 0.152695 -1.73529 0
M  V30 4265 C 408.241 0.18661 -3.40389 0
M  V30 4266 H 409.434 -1.4463 -2.62721 0
M  V30 4267 H 406.987 -0.786413 -1.35075 0
M  V30 4268 H 407.722 1.08996 -3.05435 0
M  V30 4269 H 407.507 -0.474188 -3.89222 0
M  V30 4270 H 408.997 0.482367 -4.14805 0
M  V30 4271 N 409.434 1.37368 -0.772513 0
M  V30 4272 C 410.659 2.0447 -0.347386 0
M  V30 4273 C 411.084 1.57882 1.0225 0
M  V30 4274 O 410.442 0.73941 1.65537 0
M  V30 4275 C 410.49 3.58369 -0.400479 0
M  V30 4276 O 409.594 4.0803 0.598789 0
M  V30 4277 H 408.935 0.646773 -0.15027 0
M  V30 4278 H 411.465 1.75667 -1.04892 0
M  V30 4279 H 411.475 4.07183 -0.258045 0
M  V30 4280 H 410.15 3.91633 -1.39986 0
M  V30 4281 H 408.727 3.70534 0.419411 0
M  V30 4282 N 410.912 0.523116 1.48665 0
M  V30 4283 C 412.159 -0.0134763 2.02496 0
M  V30 4284 C 412.487 -1.3493 1.40086 0
M  V30 4285 O 411.742 -1.88286 0.533567 0
M  V30 4286 C 412.041 -0.191671 3.56886 0
M  V30 4287 C 411.707 1.06893 4.38046 0
M  V30 4288 C 410.369 1.41443 4.59943 0
M  V30 4289 C 412.721 1.90584 4.85106 0
M  V30 4290 C 410.049 2.59594 5.26144 0
M  V30 4291 C 412.401 3.07907 5.52609 0
M  V30 4292 C 411.065 3.42811 5.72745 0
M  V30 4293 H 410.335 -0.00493133 0.740984 0
M  V30 4294 H 412.982 0.687751 1.78724 0
M  V30 4295 H 411.287 -0.97561 3.79459 0
M  V30 4296 H 412.984 -0.621659 3.96152 0
M  V30 4297 H 409.574 0.789848 4.21259 0
M  V30 4298 H 413.758 1.65203 4.67997 0
M  V30 4299 H 409.014 2.86847 5.39934 0
M  V30 4300 H 413.188 3.73066 5.88043 0
M  V30 4301 H 410.815 4.34462 6.23816 0
M  V30 4302 N 412.39 -1.55475 0.257931 0
M  V30 4303 C 413.338 -2.23244 -0.653076 0
M  V30 4304 C 414.332 -1.22366 -1.17144 0
M  V30 4305 O 415.538 -1.40347 -1.12706 0
M  V30 4306 H 411.913 -0.716247 -0.229117 0
M  V30 4307 H 413.884 -2.98343 -0.0584788 0
M  V30 4308 C 412.633 -2.95401 -1.83395 0
M  V30 4309 H 411.956 -3.72802 -1.44424 0
M  V30 4310 H 413.396 -3.46165 -2.44838 0
M  V30 4311 C 411.855 -1.99895 -2.71189 0
M  V30 4312 O 412.385 -1.53909 -3.71046 0
M  V30 4313 N 410.591 -1.6676 -2.3799 0
M  V30 4314 H 410.138 -2.04352 -1.56837 0
M  V30 4315 H 410.096 -1.03127 -2.97005 0
M  V30 4316 N 413.868 0.0150385 -1.57593 0
M  V30 4317 C 414.831 0.995996 -2.06428 0
M  V30 4318 C 415.831 1.2818 -0.970903 0
M  V30 4319 O 417.021 1.22949 -1.23406 0
M  V30 4320 C 414.153 2.32506 -2.49307 0
M  V30 4321 H 415.346 0.573873 -2.94358 0
M  V30 4322 H 412.899 0.262186 -1.54085 0
M  V30 4323 H 413.634 2.79438 -1.64575 0
M  V30 4324 H 413.419 2.13087 -3.29145 0
M  V30 4325 H 414.909 3.02906 -2.87468 0
M  V30 4326 N 415.346 1.54954 0.287554 0
M  V30 4327 C 416.623 1.65569 1.04146 0
M  V30 4328 C 417.003 0.512672 2.0478 0
M  V30 4329 O 416.351 -0.489038 2.23205 0
M  V30 4330 C 416.561 3.04163 1.71131 0
M  V30 4331 C 417.909 3.61429 2.22832 0
M  V30 4332 O 418.933 3.06702 1.81141 0
M  V30 4333 O 417.792 4.57281 2.9926 0
M  V30 4334 H 414.886 0.671881 0.482188 0
M  V30 4335 H 417.432 1.67297 0.28457 0
M  V30 4336 H 416.204 3.78796 0.981303 0
M  V30 4337 H 415.827 3.06271 2.53543 0
M  V30 4338 N 416.824 -0.551391 1.4764 0
M  V30 4339 C 417.734 -1.68525 1.63207 0
M  V30 4340 C 418.75 -1.6621 0.514815 0
M  V30 4341 O 419.926 -1.85551 0.783113 0
M  V30 4342 C 416.991 -3.05025 1.64805 0
M  V30 4343 C 416.052 -3.18362 2.88 0
M  V30 4344 C 415.285 -4.4835 2.89513 0
M  V30 4345 O 415.508 -5.34163 2.00065 0
M  V30 4346 O 414.442 -4.65602 3.81443 0
M  V30 4347 H 418.268 -1.58333 2.59161 0
M  V30 4348 H 415.853 -0.722063 1.30792 0
M  V30 4349 H 417.735 -3.86245 1.68502 0
M  V30 4350 H 416.41 -3.15587 0.720197 0
M  V30 4351 H 415.317 -2.36518 2.89845 0
M  V30 4352 H 416.65 -3.12707 3.80099 0
M  V30 4353 N 418.302 -1.35869 -0.798587 0
M  V30 4354 C 419.579 -1.20145 -1.54352 0
M  V30 4355 C 419.959 0.216161 -2.0999 0
M  V30 4356 O 419.307 1.22068 -1.93162 0
M  V30 4357 C 419.517 -2.27602 -2.64572 0
M  V30 4358 C 420.865 -2.63811 -3.32699 0
M  V30 4359 O 421.889 -2.26576 -2.74849 0
M  V30 4360 O 420.748 -3.27866 -4.37226 0
M  V30 4361 H 417.842 -0.467248 -0.682355 0
M  V30 4362 H 420.388 -1.47574 -0.837859 0
M  V30 4363 H 419.16 -3.2265 -2.21388 0
M  V30 4364 H 418.783 -2.01488 -3.42766 0
M  V30 4365 N 419.78 1.02168 -1.19998 0
M  V30 4366 C 421.057 1.72816 -0.916191 0
M  V30 4367 C 421.437 2.03081 0.576325 0
M  V30 4368 O 420.785 1.69122 1.53656 0
M  V30 4369 C 420.995 2.9997 -1.78378 0
M  V30 4370 C 422.343 3.73336 -2.02251 0
M  V30 4371 O 423.367 3.09914 -1.75589 0
M  V30 4372 O 422.226 4.87371 -2.47249 0
M  V30 4373 H 419.32 0.752924 -0.342103 0
M  V30 4374 H 421.866 1.08062 -1.30846 0
M  V30 4375 H 420.638 2.73888 -2.79466 0
M  V30 4376 H 420.261 3.72464 -1.39126 0
M  V30 4377 N 421.258 1.00505 1.21394 0
M  V30 4378 C 422.674 0.717873 1.42544 0
M  V30 4379 C 422.874 -0.706936 1.88692 0
M  V30 4380 O 421.93 -1.47627 2.04847 0
M  V30 4381 C 423.243 1.73377 2.45684 0
M  V30 4382 C 424.791 1.75059 2.59467 0
M  V30 4383 C 425.266 2.75545 3.6584 0
M  V30 4384 N 426.757 2.74213 3.73311 0
M  V30 4385 C 427.492 3.48626 4.55245 0
M  V30 4386 N 426.988 4.32678 5.41075 0
M  V30 4387 N 428.781 3.37276 4.49668 0
M  V30 4388 H 420.932 1.92506 0.897503 0
M  V30 4389 H 423.195 0.830919 0.456375 0
M  V30 4390 H 422.901 2.75395 2.18748 0
M  V30 4391 H 422.775 1.53647 3.44489 0
M  V30 4392 H 425.162 0.737337 2.8574 0
M  V30 4393 H 425.243 1.98861 1.60897 0
M  V30 4394 H 424.887 3.77028 3.40313 0
M  V30 4395 H 424.817 2.49009 4.64007 0
M  V30 4396 H 427.308 2.13234 3.11993 0
M  V30 4397 H 427.621 4.86253 6.00648 0
M  V30 4398 H 425.966 4.3676 5.40616 0
M  V30 4399 H 429.157 2.71043 3.81646 0
M  V30 4400 H 429.33 3.95524 5.13288 0
M  V30 4401 N 422.737 -1.36956 0.779787 0
M  V30 4402 C 423.983 -1.99787 0.348281 0
M  V30 4403 C 424.316 -1.61756 -1.07465 0
M  V30 4404 O 423.591 -0.867639 -1.74075 0
M  V30 4405 C 423.874 -3.56597 0.50104 0
M  V30 4406 C 423.727 -4.04513 1.96697 0
M  V30 4407 C 425.046 -4.40008 -0.0898097 0
M  V30 4408 H 422.165 -0.725796 0.128022 0
M  V30 4409 H 424.807 -1.62514 0.984331 0
M  V30 4410 H 422.957 -3.88479 -0.0404347 0
M  V30 4411 H 424.629 -3.83161 2.56876 0
M  V30 4412 H 422.872 -3.56408 2.47297 0
M  V30 4413 H 423.543 -5.1352 2.02486 0
M  V30 4414 H 426.019 -4.14431 0.372293 0
M  V30 4415 H 424.895 -5.4888 0.0471605 0
M  V30 4416 H 425.156 -4.26035 -1.18096 0
M  V30 4417 N 424.215 -0.530993 -1.48385 0
M  V30 4418 C 425.492 0.0671788 -1.95485 0
M  V30 4419 C 425.872 1.51191 -1.47324 0
M  V30 4420 O 425.22 2.17507 -0.700202 0
M  V30 4421 C 425.43 -0.0511206 -3.48963 0
M  V30 4422 C 426.778 0.107632 -4.24464 0
M  V30 4423 O 427.802 0.0226248 -3.56193 0
M  V30 4424 O 426.661 0.285972 -5.45751 0
M  V30 4425 H 423.755 0.0787365 -0.823243 0
M  V30 4426 H 426.301 -0.595662 -1.58902 0
M  V30 4427 H 425.073 -1.05747 -3.7674 0
M  V30 4428 H 424.696 0.650525 -3.92242 0
M  V30 4429 N 425.693 1.55336 -0.266172 0
M  V30 4430 C 426.942 1.98574 0.353749 0
M  V30 4431 C 427.255 1.15789 1.57646 0
M  V30 4432 O 428.461 1.49129 2.26876 0
M  V30 4433 C 426.917 3.53403 0.680747 0
M  V30 4434 C 426.525 4.44953 -0.52165 0
M  V30 4435 C 428.269 4.05251 1.26379 0
M  V30 4436 C 426.176 5.91156 -0.169736 0
M  V30 4437 H 425.106 0.741643 0.135949 0
M  V30 4438 H 427.757 1.79743 -0.369421 0
M  V30 4439 H 426.139 3.68001 1.46257 0
M  V30 4440 H 427.313 4.42121 -1.29869 0
M  V30 4441 H 425.628 4.03691 -1.02093 0
M  V30 4442 H 428.225 5.12021 1.54074 0
M  V30 4443 H 428.568 3.53749 2.19471 0
M  V30 4444 H 429.101 3.94057 0.544447 0
M  V30 4445 H 425.84 6.46736 -1.0683 0
M  V30 4446 H 425.36 5.97079 0.570717 0
M  V30 4447 H 427.039 6.4655 0.241245 0
M  V30 4448 N 427.171 -0.0066808 1.57599 0
M  V30 4449 C 428.101 -0.999296 2.11036 0
M  V30 4450 C 429.082 -1.36278 1.01795 0
M  V30 4451 O 430.267 -1.4477 1.29442 0
M  V30 4452 C 427.397 -2.29328 2.60818 0
M  V30 4453 C 426.351 -2.07159 3.74525 0
M  V30 4454 C 425.677 -3.42512 4.10596 0
M  V30 4455 C 426.977 -1.43959 5.02069 0
M  V30 4456 H 428.671 -0.554382 2.94223 0
M  V30 4457 H 426.217 -0.265221 1.41536 0
M  V30 4458 H 428.17 -2.99117 2.96828 0
M  V30 4459 H 426.894 -2.7592 1.74745 0
M  V30 4460 H 425.553 -1.39797 3.38899 0
M  V30 4461 H 425.201 -3.86795 3.21556 0
M  V30 4462 H 424.901 -3.28498 4.87199 0
M  V30 4463 H 426.425 -4.13628 4.4916 0
M  V30 4464 H 427.839 -2.03696 5.35893 0
M  V30 4465 H 426.236 -1.40452 5.83432 0
M  V30 4466 H 427.306 -0.407992 4.83181 0
M  V30 4467 N 428.649 -1.55105 -0.279332 0
M  V30 4468 C 429.897 -1.75066 -1.00977 0
M  V30 4469 C 430.218 -0.551276 -1.87045 0
M  V30 4470 O 429.488 0.433984 -1.91032 0
M  V30 4471 H 428.068 -0.645578 -0.375816 0
M  V30 4472 H 430.73 -1.92497 -0.305089 0
M  V30 4473 H 429.826 -2.64894 -1.65038 0
M  V30 4474 N 430.127 0.543554 -1.4793 0
M  V30 4475 C 431.538 1.12561 -1.48953 0
M  V30 4476 C 431.889 1.94578 -0.251754 0
M  V30 4477 O 431.014 2.0665 0.642255 0
M  V30 4478 C 431.609 2.04801 -2.69892 0
M  V30 4479 C 430.168 2.58251 -2.73831 0
M  V30 4480 C 429.315 1.34918 -2.42265 0
M  V30 4481 H 432.266 0.32947 -1.55242 0
M  V30 4482 H 432.287 2.88886 -2.47639 0
M  V30 4483 H 431.799 1.4508 -3.59963 0
M  V30 4484 H 429.9 3.21732 -1.87934 0
M  V30 4485 H 430.013 2.98312 -3.74895 0
M  V30 4486 H 428.377 1.66046 -1.93134 0
M  V30 4487 H 429.16 0.769693 -3.3456 0
M  V30 4488 N 431.605 1.3629 0.791371 0
M  V30 4489 C 432.537 1.26321 1.91248 0
M  V30 4490 C 433.55 0.18313 1.61767 0
M  V30 4491 O 434.739 0.437682 1.73051 0
M  V30 4492 C 431.839 0.925901 3.26007 0
M  V30 4493 C 431.012 2.10746 3.83281 0
M  V30 4494 C 430.071 1.74352 4.96475 0
M  V30 4495 O 429.097 2.46416 5.13096 0
M  V30 4496 N 430.299 0.676058 5.7655 0
M  V30 4497 H 433.064 2.22915 2.00323 0
M  V30 4498 H 430.625 1.29659 0.969546 0
M  V30 4499 H 432.617 0.663636 3.99222 0
M  V30 4500 H 431.187 0.0491581 3.12561 0
M  V30 4501 H 430.407 2.53264 3.02077 0
M  V30 4502 H 431.695 2.8969 4.18279 0
M  V30 4503 H 431.093 0.0776467 5.65647 0
M  V30 4504 H 429.65 0.473612 6.50077 0
M  V30 4505 N 433.083 -1.0153 1.20538 0
M  V30 4506 C 434.494 -1.56598 1.01657 0
M  V30 4507 C 434.845 -1.91505 -0.426668 0
M  V30 4508 O 433.97 -1.72375 -1.30827 0
M  V30 4509 C 434.565 -2.84542 1.83905 0
M  V30 4510 C 433.124 -3.36133 1.69386 0
M  V30 4511 C 432.271 -2.09427 1.81757 0
M  V30 4512 H 435.222 -0.838974 1.34711 0
M  V30 4513 H 435.243 -3.56004 1.34319 0
M  V30 4514 H 434.755 -2.59105 2.8894 0
M  V30 4515 H 432.856 -3.66528 0.669933 0
M  V30 4516 H 432.969 -4.08248 2.50739 0
M  V30 4517 H 431.333 -2.21941 1.24957 0
M  V30 4518 H 432.116 -1.86414 2.88279 0
M  V30 4519 N 434.561 -1.01147 -1.20859 0
M  V30 4520 C 435.471 -0.58686 -2.27141 0
M  V30 4521 C 436.487 0.373198 -1.69951 0
M  V30 4522 O 437.663 0.235423 -2.00019 0
M  V30 4523 C 434.728 0.0733602 -3.46622 0
M  V30 4524 C 433.789 -0.931995 -4.19061 0
M  V30 4525 C 433.022 -0.303186 -5.32838 0
M  V30 4526 O 433.245 0.898395 -5.63281 0
M  V30 4527 O 432.179 -1.01735 -5.9324 0
M  V30 4528 H 436.005 -1.47155 -2.65667 0
M  V30 4529 H 433.59 -0.780689 -1.2738 0
M  V30 4530 H 435.472 0.442333 -4.19072 0
M  V30 4531 H 434.147 0.932329 -3.09983 0
M  V30 4532 H 433.054 -1.35224 -3.48805 0
M  V30 4533 H 434.387 -1.76076 -4.59628 0
M  V30 4534 N 436.039 1.36541 -0.78704 0
M  V30 4535 C 437.264 2.0409 -0.369053 0
M  V30 4536 C 437.689 1.58957 1.00569 0
M  V30 4537 O 437.047 0.756926 1.64743 0
M  V30 4538 C 437.095 3.57924 -0.438466 0
M  V30 4539 O 436.199 4.08642 0.555479 0
M  V30 4540 H 435.54 0.645142 -0.157122 0
M  V30 4541 H 438.07 1.74545 -1.06749 0
M  V30 4542 H 438.08 4.06887 -0.301218 0
M  V30 4543 H 436.755 3.90127 -1.44132 0
M  V30 4544 H 435.332 3.70958 0.380088 0
M  V30 4545 N 437.518 0.538854 1.48102 0
M  V30 4546 C 438.468 -0.23907 2.26743 0
M  V30 4547 C 439.452 -0.901923 1.33245 0
M  V30 4548 O 440.644 -0.803263 1.57723 0
M  V30 4549 C 437.773 -1.2799 3.18549 0
M  V30 4550 C 436.859 -0.621388 4.19523 0
M  V30 4551 N 437.25 0.298004 5.04921 0
M  V30 4552 C 435.548 -0.877533 4.37282 0
M  V30 4553 C 436.249 0.678757 5.77726 0
M  V30 4554 N 435.225 0.0377881 5.43587 0
M  V30 4555 H 439.027 0.468096 2.90148 0
M  V30 4556 H 436.541 0.357497 1.58416 0
M  V30 4557 H 438.538 -1.851 3.73555 0
M  V30 4558 H 437.198 -1.98835 2.567 0
M  V30 4559 H 438.209 0.671126 5.13533 0
M  V30 4560 H 434.886 -1.57588 3.86616 0
M  V30 4561 H 436.276 1.43316 6.56437 0
M  V30 4562 N 438.996 -1.55193 0.274407 0
M  V30 4563 C 439.928 -2.1989 -0.646595 0
M  V30 4564 C 440.941 -1.1834 -1.11801 0
M  V30 4565 O 442.13 -1.4507 -1.04004 0
M  V30 4566 C 439.23 -2.8104 -1.89393 0
M  V30 4567 C 438.403 -4.08274 -1.56943 0
M  V30 4568 C 437.462 -4.53478 -2.66916 0
M  V30 4569 O 436.488 -5.19267 -2.33132 0
M  V30 4570 N 437.69 -4.2356 -3.9696 0
M  V30 4571 H 440.455 -2.99556 -0.0928686 0
M  V30 4572 H 438.016 -1.61618 0.0954783 0
M  V30 4573 H 440.008 -3.08226 -2.62257 0
M  V30 4574 H 438.578 -2.05372 -2.35672 0
M  V30 4575 H 437.798 -3.88384 -0.674655 0
M  V30 4576 H 439.086 -4.91173 -1.32764 0
M  V30 4577 H 438.484 -3.70799 -4.27229 0
M  V30 4578 H 437.041 -4.55518 -4.66205 0
M  V30 4579 N 440.474 -0.00167713 -1.576 0
M  V30 4580 C 441.406 1.0174 -2.05382 0
M  V30 4581 C 442.419 1.30595 -0.972052 0
M  V30 4582 O 443.608 1.27542 -1.24882 0
M  V30 4583 C 440.708 2.35174 -2.44022 0
M  V30 4584 C 439.881 2.25234 -3.74951 0
M  V30 4585 C 438.94 3.4137 -4.00441 0
M  V30 4586 O 437.966 3.19483 -4.71083 0
M  V30 4587 N 439.168 4.64275 -3.48467 0
M  V30 4588 H 441.933 0.609902 -2.93428 0
M  V30 4589 H 439.494 0.185672 -1.60832 0
M  V30 4590 H 441.486 3.11643 -2.58187 0
M  V30 4591 H 440.056 2.67659 -1.61485 0
M  V30 4592 H 439.276 1.33664 -3.70847 0
M  V30 4593 H 440.564 2.15767 -4.60784 0
M  V30 4594 H 439.962 4.84955 -2.91264 0
M  V30 4595 H 438.519 5.38005 -3.67959 0
M  V30 4596 N 441.952 1.55251 0.271103 0
M  V30 4597 C 442.882 1.9127 1.33933 0
M  V30 4598 C 443.863 0.77478 1.5143 0
M  V30 4599 O 445.048 1.03307 1.64442 0
M  V30 4600 C 442.178 2.18627 2.69851 0
M  V30 4601 C 441.132 3.34442 2.67081 0
M  V30 4602 C 440.458 3.47284 4.06569 0
M  V30 4603 C 441.758 4.70784 2.26185 0
M  V30 4604 H 443.452 2.80744 1.04035 0
M  V30 4605 H 440.998 1.35077 0.499017 0
M  V30 4606 H 442.951 2.42413 3.44694 0
M  V30 4607 H 441.675 1.25955 3.01335 0
M  V30 4608 H 440.334 3.10627 1.94695 0
M  V30 4609 H 439.982 2.52074 4.35279 0
M  V30 4610 H 439.682 4.25152 4.0561 0
M  V30 4611 H 441.206 3.73363 4.83148 0
M  V30 4612 H 442.62 4.94102 2.90751 0
M  V30 4613 H 441.017 5.51582 2.36384 0
M  V30 4614 H 442.087 4.69478 1.21319 0
M  V30 4615 N 443.43 -0.535701 1.48216 0
M  V30 4616 C 444.655 -1.32149 1.59848 0
M  V30 4617 C 445.08 -1.86338 0.256842 0
M  V30 4618 O 444.438 -1.64107 -0.770632 0
M  V30 4619 C 444.486 -2.45224 2.64381 0
M  V30 4620 O 443.59 -3.48093 2.21144 0
M  V30 4621 H 442.931 -0.391634 0.536208 0
M  V30 4622 H 445.461 -0.645202 1.94161 0
M  V30 4623 H 445.471 -2.91491 2.85476 0
M  V30 4624 H 444.146 -2.05143 3.61786 0
M  V30 4625 H 442.723 -3.07984 2.10239 0
M  V30 4626 N 444.908 -1.36708 -0.784132 0
M  V30 4627 C 445.871 -1.31307 -1.87859 0
M  V30 4628 C 446.871 -0.219654 -1.59293 0
M  V30 4629 O 448.061 -0.47476 -1.67606 0
M  V30 4630 C 445.193 -1.03679 -3.24751 0
M  V30 4631 H 446.386 -2.28647 -1.94064 0
M  V30 4632 H 443.939 -1.21558 -0.98252 0
M  V30 4633 H 444.674 -0.0681936 -3.24228 0
M  V30 4634 H 444.459 -1.82811 -3.46876 0
M  V30 4635 H 445.949 -1.02518 -4.04821 0
M  V30 4636 N 446.386 1.0089 -1.21074 0
M  V30 4637 C 447.611 1.78727 -1.05221 0
M  V30 4638 C 448.036 1.83932 0.393795 0
M  V30 4639 O 447.394 1.28004 1.28393 0
M  V30 4640 C 447.442 3.20665 -1.64944 0
M  V30 4641 O 446.546 4.02632 -0.892273 0
M  V30 4642 H 445.887 0.550973 -0.370574 0
M  V30 4643 H 448.417 1.26847 -1.60534 0
M  V30 4644 H 448.427 3.71352 -1.69002 0
M  V30 4645 H 447.102 3.16191 -2.70177 0
M  V30 4646 H 445.679 3.61207 -0.926492 0
M  V30 4647 N 447.864 1.01787 1.20321 0
M  V30 4648 C 449.089 0.727009 1.9424 0
M  V30 4649 C 449.514 -0.706179 1.74341 0
M  V30 4650 O 448.872 -1.48609 1.03852 0
M  V30 4651 C 448.92 1.06958 3.44372 0
M  V30 4652 O 448.024 0.181983 4.11998 0
M  V30 4653 H 447.365 0.269626 0.606793 0
M  V30 4654 H 449.895 1.36158 1.52716 0
M  V30 4655 H 449.905 1.02182 3.94997 0
M  V30 4656 H 448.58 2.11378 3.58179 0
M  V30 4657 H 447.157 0.287378 3.71791 0
M  V30 4658 N 449.342 -1.36122 0.79427 0
M  V30 4659 C 450.292 -2.27373 0.169017 0
M  V30 4660 C 451.276 -1.4719 -0.649913 0
M  V30 4661 O 452.468 -1.69518 -0.50919 0
M  V30 4662 C 449.597 -3.36264 -0.691455 0
M  V30 4663 C 448.683 -4.2388 0.13653 0
M  V30 4664 N 449.074 -4.91519 1.19345 0
M  V30 4665 C 447.372 -4.45921 -0.0838499 0
M  V30 4666 C 448.073 -5.56369 1.6979 0
M  V30 4667 N 447.049 -5.34204 1.00634 0
M  V30 4668 H 450.851 -2.77154 0.977897 0
M  V30 4669 H 448.365 -1.49504 0.634208 0
M  V30 4670 H 450.362 -4.00572 -1.15534 0
M  V30 4671 H 449.022 -2.88037 -1.49883 0
M  V30 4672 H 450.033 -4.9334 1.57594 0
M  V30 4673 H 446.71 -4.08518 -0.861341 0
M  V30 4674 H 448.1 -6.20368 2.58055 0
M  V30 4675 N 450.82 -0.546701 -1.47814 0
M  V30 4676 C 452.048 -0.0232857 -2.06887 0
M  V30 4677 C 452.463 1.26571 -1.4009 0
M  V30 4678 O 451.82 1.7569 -0.493906 0
M  V30 4679 C 451.871 0.186975 -3.61016 0
M  V30 4680 O 451.592 -1.05097 -4.25307 0
M  V30 4681 C 453.093 0.748872 -4.36929 0
M  V30 4682 H 450.313 -0.0410763 -0.669742 0
M  V30 4683 H 452.857 -0.757117 -1.89968 0
M  V30 4684 H 451.012 0.870903 -3.77484 0
M  V30 4685 H 451.426 -0.842121 -5.17695 0
M  V30 4686 H 452.9 0.845334 -5.45489 0
M  V30 4687 H 453.377 1.75772 -4.02493 0
M  V30 4688 H 453.983 0.100979 -4.2518 0
M  V30 4689 N 452.299 1.55045 -0.282633 0
M  V30 4690 C 453.576 1.9179 0.384166 0
M  V30 4691 C 453.956 1.20778 1.73136 0
M  V30 4692 O 453.304 0.33719 2.25998 0
M  V30 4693 C 453.514 3.45149 0.517014 0
M  V30 4694 C 454.862 4.17064 0.796427 0
M  V30 4695 O 455.886 3.51084 0.601535 0
M  V30 4696 O 454.745 5.33837 1.16962 0
M  V30 4697 H 451.839 0.799483 0.211558 0
M  V30 4698 H 454.385 1.66474 -0.32934 0
M  V30 4699 H 453.157 3.88922 -0.430772 0
M  V30 4700 H 452.78 3.76443 1.2797 0
M  V30 4701 N 453.777 0.010035 1.57597 0
M  V30 4702 C 455.007 -0.682422 1.95004 0
M  V30 4703 C 455.415 -1.67278 0.884014 0
M  V30 4704 O 454.758 -1.83129 -0.144672 0
M  V30 4705 C 454.82 -1.46141 3.28456 0
M  V30 4706 C 454.484 -0.631523 4.52615 0
M  V30 4707 C 455.481 0.0850905 5.1983 0
M  V30 4708 C 453.166 -0.574539 4.99003 0
M  V30 4709 C 455.16 0.847566 6.3174 0
M  V30 4710 C 452.847 0.191655 6.10799 0
M  V30 4711 C 453.845 0.901432 6.77025 0
M  V30 4712 O 453.533 1.65511 7.86677 0
M  V30 4713 H 453.265 -0.194361 0.647456 0
M  V30 4714 H 455.819 0.060312 2.05311 0
M  V30 4715 H 454.049 -2.24885 3.14585 0
M  V30 4716 H 455.738 -2.04016 3.50902 0
M  V30 4717 H 456.504 0.0502812 4.84974 0
M  V30 4718 H 452.383 -1.11654 4.47274 0
M  V30 4719 H 455.927 1.4021 6.83364 0
M  V30 4720 H 451.824 0.228249 6.45096 0
M  V30 4721 H 452.592 1.57287 8.03245 0
M  V30 4722 N 455.255 -1.55392 -0.262866 0
M  V30 4723 C 456.218 -1.88181 -1.30846 0
M  V30 4724 C 457.218 -0.757079 -1.41862 0
M  V30 4725 O 458.408 -1.02519 -1.40838 0
M  V30 4726 C 455.54 -2.09609 -2.68844 0
M  V30 4727 H 456.733 -2.81659 -1.02997 0
M  V30 4728 H 454.286 -1.48039 -0.501414 0
M  V30 4729 H 455.021 -1.18547 -3.01856 0
M  V30 4730 H 454.806 -2.91508 -2.62231 0
M  V30 4731 H 456.296 -2.36215 -3.44372 0
M  V30 4732 N 456.733 0.527833 -1.48498 0
M  V30 4733 C 457.958 1.313 -1.60546 0
M  V30 4734 C 458.383 1.86199 -0.26672 0
M  V30 4735 O 457.741 1.64513 0.761918 0
M  V30 4736 C 457.789 2.43818 -2.65678 0
M  V30 4737 O 456.893 3.46916 -2.22987 0
M  V30 4738 H 456.234 0.388784 -0.538277 0
M  V30 4739 H 458.764 0.634896 -1.945 0
M  V30 4740 H 458.774 2.89973 -2.87018 0
M  V30 4741 H 457.449 2.03222 -3.62869 0
M  V30 4742 H 456.026 3.06864 -2.11869 0
M  V30 4743 N 458.211 1.37122 0.776871 0
M  V30 4744 C 459.46 1.31373 1.53049 0
M  V30 4745 C 459.773 -0.101016 1.95339 0
M  V30 4746 O 460.979 -0.280953 2.70042 0
M  V30 4747 C 459.435 2.30567 2.76346 0
M  V30 4748 C 459.043 3.77543 2.41175 0
M  V30 4749 C 460.787 2.33818 3.54301 0
M  V30 4750 C 458.694 4.68481 3.60943 0
M  V30 4751 H 457.624 0.488234 0.574581 0
M  V30 4752 H 460.275 1.62554 0.851372 0
M  V30 4753 H 458.657 1.92396 3.46121 0
M  V30 4754 H 459.831 4.24521 1.79216 0
M  V30 4755 H 458.146 3.77187 1.76405 0
M  V30 4756 H 460.743 2.98965 4.4331 0
M  V30 4757 H 461.086 1.3503 3.93793 0
M  V30 4758 H 461.619 2.7067 2.91518 0
M  V30 4759 H 458.358 5.68378 3.26537 0
M  V30 4760 H 457.878 4.2621 4.22025 0
M  V30 4761 H 459.557 4.85366 4.27819 0
M  V30 4762 N 459.689 -1.00246 1.21608 0
M  V30 4763 C 461.1 -1.55511 1.03312 0
M  V30 4764 C 461.451 -1.91946 -0.406332 0
M  V30 4765 O 460.576 -1.73753 -1.28992 0
M  V30 4766 C 461.171 -2.82576 1.86913 0
M  V30 4767 C 459.73 -3.34318 1.72941 0
M  V30 4768 C 458.877 -2.07487 1.83968 0
M  V30 4769 H 461.828 -0.824638 1.35593 0
M  V30 4770 H 461.849 -3.54559 1.38087 0
M  V30 4771 H 461.361 -2.56026 2.91672 0
M  V30 4772 H 459.462 -3.65797 0.70877 0
M  V30 4773 H 459.575 -4.05566 2.55055 0
M  V30 4774 H 457.939 -2.20603 1.27304 0
M  V30 4775 H 458.722 -1.83346 2.9024 0
M  V30 4776 N 461.167 -1.02423 -1.1978 0
M  V30 4777 C 462.583 -0.740459 -1.41384 0
M  V30 4778 C 462.783 0.676827 -1.89793 0
M  V30 4779 O 461.839 1.4435 -2.0717 0
M  V30 4780 C 463.152 -1.77264 -2.42895 0
M  V30 4781 C 464.7 -1.79165 -2.56649 0
M  V30 4782 C 465.175 -2.8133 -3.6141 0
M  V30 4783 N 466.666 -2.80118 -3.68901 0
M  V30 4784 C 467.401 -3.55824 -4.49641 0
M  V30 4785 N 466.897 -4.41231 -5.34123 0
M  V30 4786 N 468.69 -3.44387 -4.44246 0
M  V30 4787 H 460.841 -1.9391 -0.866764 0
M  V30 4788 H 463.104 -0.838074 -0.443098 0
M  V30 4789 H 462.81 -2.7884 -2.14339 0
M  V30 4790 H 462.684 -1.59108 -3.42001 0
M  V30 4791 H 465.071 -0.782702 -2.84531 0
M  V30 4792 H 465.152 -2.01396 -1.57713 0
M  V30 4793 H 464.796 -3.82394 -3.34271 0
M  V30 4794 H 464.726 -2.56359 -4.59986 0
M  V30 4795 H 467.217 -2.1817 -3.08562 0
M  V30 4796 H 467.53 -4.95747 -5.92836 0
M  V30 4797 H 465.875 -4.45306 -5.33599 0
M  V30 4798 H 469.066 -2.7708 -3.77285 0
M  V30 4799 H 469.239 -4.0364 -5.06931 0
M  V30 4800 O 462.684 1.31512 -0.937375 0
M  V30 4801 H 463.375 1.85319 -0.563611 0
M  V30 END ATOM
M  V30 BEGIN BOND
M  V30 END BOND
M  V30 END CTAB
M  END
$$$$
