drugbank_target|Q9X1B3 2-C-methyl-D-erythritol 4-phosphate cytidylyltransferase (DB02431)
 OpenBabel12092120013D

  0  0  0     0  0            999 V3000
M  V30 BEGIN CTAB
M  V30 COUNTS 3622 3656 0 0 0
M  V30 BEGIN ATOM
M  V30 1 H -0.908 1.98254 -0.117106 0
M  V30 2 N 0 1.576 0 0
M  V30 3 C 0.933 2.03868 1.02534 0
M  V30 4 C 1.911 0.928543 1.3348 0
M  V30 5 O 3.095 1.19667 1.45644 0
M  V30 6 C 0.222 2.43627 2.35294 0
M  V30 7 C -0.732 3.65373 2.2001 0
M  V30 8 S 0.101 5.13292 1.52614 0
M  V30 9 C 1.257 5.56322 2.86805 0
M  V30 10 H 1.49 2.90518 0.631377 0
M  V30 11 H -0.977 1.52953 0.210867 0
M  V30 12 H 0.981 2.67203 3.11629 0
M  V30 13 H -0.358 1.57376 2.7183 0
M  V30 14 H -1.165 3.90944 3.18086 0
M  V30 15 H -1.563 3.418 1.51819 0
M  V30 16 H 0.729 5.58782 3.83104 0
M  V30 17 H 1.672 6.56266 2.65933 0
M  V30 18 H 2.08 4.83886 2.90714 0
M  V30 19 N 1.4781 -0.272755 1.55222 0
M  V30 20 C 2.4261 -1.35705 1.88909 0
M  V30 21 C 3.4201 -1.5112 0.765456 0
M  V30 22 O 4.6261 -1.52901 0.949802 0
M  V30 23 H 1.0011 -0.453868 0.59959 0
M  V30 24 H 2.9721 -1.04544 2.79487 0
M  V30 25 C 1.7211 -2.71049 2.17779 0
M  V30 26 H 1.0441 -2.59979 3.03728 0
M  V30 27 H 2.4841 -3.45858 2.45272 0
M  V30 28 C 0.9431 -3.22165 0.985473 0
M  V30 29 O 1.4731 -4.01096 0.220233 0
M  V30 30 N -0.3209 -2.7985 0.783108 0
M  V30 31 H -0.7739 -2.15775 1.40708 0
M  V30 32 H -0.8159 -3.14397 -0.0130392 0
M  V30 33 N 2.9562 -1.48159 -0.537278 0
M  V30 34 C 4.2022 -1.56035 -1.29541 0
M  V30 35 C 4.5352 -0.230377 -1.92829 0
M  V30 36 O 3.8102 0.762952 -1.78911 0
M  V30 37 C 4.0932 -2.69323 -2.39034 0
M  V30 38 C 3.9462 -4.12002 -1.80485 0
M  V30 39 C 5.2652 -2.78408 -3.40847 0
M  V30 40 H 2.3842 -0.567992 -0.469632 0
M  V30 41 H 5.0262 -1.80302 -0.599277 0
M  V30 42 H 3.1762 -2.48763 -2.98412 0
M  V30 43 H 4.8482 -4.43981 -1.25215 0
M  V30 44 H 3.0912 -4.19344 -1.11055 0
M  V30 45 H 3.7622 -4.87077 -2.59731 0
M  V30 46 H 6.2382 -2.97012 -2.91416 0
M  V30 47 H 5.1142 -3.59416 -4.14863 0
M  V30 48 H 5.3752 -1.86269 -4.00944 0
M  V30 49 N 4.4343 0.785586 -1.36625 0
M  V30 50 C 5.3973 1.87999 -1.31107 0
M  V30 51 C 6.3973 1.59316 -0.217959 0
M  V30 52 O 7.5873 1.67656 -0.472977 0
M  V30 53 C 4.7193 3.24861 -1.03334 0
M  V30 54 H 5.9123 1.94307 -2.2844 0
M  V30 55 H 3.4653 0.983813 -1.21453 0
M  V30 56 H 4.2003 3.24235 -0.0647432 0
M  V30 57 H 3.9853 3.4707 -1.82441 0
M  V30 58 H 5.4753 4.04929 -1.02088 0
M  V30 59 N 5.9124 1.20967 1.01018 0
M  V30 60 C 7.1614 1.01796 1.74128 0
M  V30 61 C 7.4744 -0.449691 1.90361 0
M  V30 62 O 8.6804 -0.76068 2.60626 0
M  V30 63 C 7.1364 1.7727 3.13215 0
M  V30 64 C 6.7444 3.28171 3.04972 0
M  V30 65 C 8.4884 1.66489 3.90489 0
M  V30 66 C 6.3954 3.96156 4.39107 0
M  V30 67 H 5.3254 0.377276 0.652824 0
M  V30 68 H 7.9764 1.44651 1.12909 0
M  V30 69 H 6.3584 1.27205 3.75013 0
M  V30 70 H 7.5324 3.85499 2.52443 0
M  V30 71 H 5.8474 3.39437 2.41188 0
M  V30 72 H 8.4444 2.14617 4.89738 0
M  V30 73 H 8.7874 0.6222 4.11624 0
M  V30 74 H 9.3204 2.14003 3.35332 0
M  V30 75 H 6.0594 5.00604 4.23174 0
M  V30 76 H 5.5794 3.43617 4.91617 0
M  V30 77 H 7.2584 4.00774 5.07926 0
M  V30 78 N 7.3905 -1.2043 1.01659 0
M  V30 79 C 8.3205 -2.25466 0.607226 0
M  V30 80 C 9.3015 -1.65853 -0.377716 0
M  V30 81 O 10.4865 -1.92409 -0.263149 0
M  V30 82 C 7.6165 -3.47256 -0.0552949 0
M  V30 83 C 6.5705 -4.19462 0.850632 0
M  V30 84 C 5.8965 -5.34673 0.0538859 0
M  V30 85 C 7.1965 -4.75603 2.15868 0
M  V30 86 H 8.8905 -2.59962 1.48526 0
M  V30 87 H 6.4365 -1.2496 0.715605 0
M  V30 88 H 8.3895 -4.19917 -0.353233 0
M  V30 89 H 7.1135 -3.11924 -0.968045 0
M  V30 90 H 5.7725 -3.48667 1.13257 0
M  V30 91 H 5.4205 -4.95585 -0.860514 0
M  V30 92 H 5.1205 -5.83913 0.657192 0
M  V30 93 H 6.6445 -6.10138 -0.237598 0
M  V30 94 H 8.0585 -5.40083 1.92311 0
M  V30 95 H 6.4555 -5.3528 2.71284 0
M  V30 96 H 7.5255 -3.94346 2.82169 0
M  V30 97 N 8.8686 -0.792821 -1.36206 0
M  V30 98 C 9.7986 -0.207853 -2.32573 0
M  V30 99 C 10.7796 0.659055 -1.56813 0
M  V30 100 O 11.9646 0.592176 -1.84951 0
M  V30 101 C 9.0946 0.655449 -3.41059 0
M  V30 102 C 8.0486 -0.111842 -4.27854 0
M  V30 103 C 7.3746 0.872274 -5.27537 0
M  V30 104 C 8.6746 -1.30299 -5.05786 0
M  V30 105 H 10.3686 -1.01294 -2.81744 0
M  V30 106 H 7.9146 -0.48854 -1.3546 0
M  V30 107 H 9.8676 1.07464 -4.07467 0
M  V30 108 H 8.5916 1.49328 -2.90463 0
M  V30 109 H 7.2506 -0.512053 -3.63006 0
M  V30 110 H 6.8986 1.70523 -4.73214 0
M  V30 111 H 6.5986 0.363291 -5.86476 0
M  V30 112 H 8.1226 1.28996 -5.96818 0
M  V30 113 H 9.5366 -0.959379 -5.65216 0
M  V30 114 H 7.9336 -1.7455 -5.74154 0
M  V30 115 H 9.0036 -2.09663 -4.37229 0
M  V30 116 N 10.3467 1.47872 -0.545128 0
M  V30 117 C 11.3097 2.28337 0.198717 0
M  V30 118 C 12.3097 1.36255 0.853888 0
M  V30 119 O 13.4997 1.59003 0.711606 0
M  V30 120 C 10.6317 3.15585 1.28915 0
M  V30 121 H 11.8247 2.95567 -0.507941 0
M  V30 122 H 9.3777 1.53362 -0.301616 0
M  V30 123 H 10.1127 2.53019 2.02859 0
M  V30 124 H 9.8977 3.83337 0.824309 0
M  V30 125 H 11.3877 3.76243 1.81194 0
M  V30 126 N 11.8248 0.280983 1.55075 0
M  V30 127 C 12.7878 -0.590896 2.21452 0
M  V30 128 C 13.7878 -1.07682 1.19421 0
M  V30 129 O 14.9778 -0.97605 1.44288 0
M  V30 130 C 12.1098 -1.81587 2.88511 0
M  V30 131 H 13.3028 -0.0112554 2.99898 0
M  V30 132 H 10.8558 0.0316438 1.56268 0
M  V30 133 H 11.5908 -2.43587 2.14093 0
M  V30 134 H 11.3758 -1.4753 3.63287 0
M  V30 135 H 12.8658 -2.43575 3.39206 0
M  V30 136 N 13.3029 -1.57598 0.00835791 0
M  V30 137 C 14.5509 -1.90551 -0.6734 0
M  V30 138 C 14.8719 -0.883301 -1.73847 0
M  V30 139 O 14.1419 0.0781442 -1.95744 0
M  V30 140 H 12.7219 -0.703312 -0.251717 0
M  V30 141 H 15.3839 -1.94833 0.0512592 0
M  V30 142 H 14.4799 -2.9056 -1.13935 0
M  V30 143 N 14.781 0.264519 -1.55364 0
M  V30 144 C 15.728 1.32717 -1.88825 0
M  V30 145 C 16.698 1.48675 -0.740605 0
M  V30 146 O 17.883 1.62945 -0.992657 0
M  V30 147 C 15.023 2.68089 -2.17307 0
M  V30 148 C 14.136 2.60284 -3.44785 0
M  V30 149 C 13.271 3.87892 -3.62924 0
M  V30 150 C 12.31 3.74631 -4.84064 0
M  V30 151 N 11.447 4.94092 -4.98816 0
M  V30 152 H 16.287 1.03481 -2.79456 0
M  V30 153 H 13.824 0.499757 -1.3835 0
M  V30 154 H 15.782 3.46864 -2.31821 0
M  V30 155 H 14.412 2.95509 -1.299 0
M  V30 156 H 13.464 1.73173 -3.38697 0
M  V30 157 H 14.776 2.46388 -4.33698 0
M  V30 158 H 13.93 4.75109 -3.77302 0
M  V30 159 H 12.669 4.04664 -2.7221 0
M  V30 160 H 11.674 2.85797 -4.69681 0
M  V30 161 H 12.899 3.5937 -5.76221 0
M  V30 162 H 10.845 5.11259 -4.11036 0
M  V30 163 H 10.762 4.8276 -5.81789 0
M  V30 164 H 12.03 5.82857 -5.17588 0
M  V30 165 N 16.2591 1.48442 0.529413 0
M  V30 166 C 17.5071 1.56179 1.28267 0
M  V30 167 C 17.8281 0.237721 1.93546 0
M  V30 168 O 17.0981 -0.740779 1.81354 0
M  V30 169 H 15.6781 0.575367 0.476405 0
M  V30 170 H 18.3401 1.84909 0.61602 0
M  V30 171 H 17.4361 2.34312 2.06165 0
M  V30 172 N 17.7372 -0.778329 1.37039 0
M  V30 173 C 18.6472 -1.92253 1.34446 0
M  V30 174 C 19.6632 -1.72267 0.244991 0
M  V30 175 O 20.8392 -1.95615 0.479258 0
M  V30 176 C 17.9042 -3.27282 1.144 0
M  V30 177 C 16.9652 -3.59969 2.33925 0
M  V30 178 C 16.1982 -4.88555 2.14825 0
M  V30 179 O 16.4212 -5.59113 1.12912 0
M  V30 180 O 15.3552 -5.20153 3.02861 0
M  V30 181 H 19.1812 -1.97392 2.30803 0
M  V30 182 H 16.7662 -0.920154 1.17701 0
M  V30 183 H 18.6482 -4.08062 1.05182 0
M  V30 184 H 17.3232 -3.23011 0.211124 0
M  V30 185 H 16.2302 -2.7945 2.48714 0
M  V30 186 H 17.5632 -3.68976 3.25757 0
M  V30 187 N 19.2153 -1.21501 -1.00376 0
M  V30 188 C 20.6313 -0.972629 -1.26539 0
M  V30 189 C 20.8313 0.340257 -1.98606 0
M  V30 190 O 19.8873 1.06561 -2.28913 0
M  V30 191 C 21.2003 -2.16404 -2.08781 0
M  V30 192 C 22.7483 -2.20643 -2.22004 0
M  V30 193 C 23.2233 -3.39306 -3.07629 0
M  V30 194 N 24.7143 -3.39401 -3.15217 0
M  V30 195 C 25.4493 -4.27867 -3.81729 0
M  V30 196 N 24.9453 -5.26533 -4.5026 0
M  V30 197 N 26.7383 -4.15672 -3.78382 0
M  V30 198 H 18.8893 -2.05929 -0.520281 0
M  V30 199 H 21.1523 -0.901803 -0.292328 0
M  V30 200 H 20.8583 -3.11554 -1.63178 0
M  V30 201 H 20.7323 -2.15567 -3.09533 0
M  V30 202 H 23.1193 -1.26048 -2.66825 0
M  V30 203 H 23.2003 -2.25523 -1.20718 0
M  V30 204 H 22.8443 -4.34195 -2.63509 0
M  V30 205 H 22.7743 -3.31665 -4.09031 0
M  V30 206 H 25.2653 -2.67997 -2.66432 0
M  V30 207 H 25.5783 -5.90337 -4.98721 0
M  V30 208 H 23.9233 -5.30457 -4.49044 0
M  V30 209 H 27.1143 -3.3785 -3.23998 0
M  V30 210 H 27.2873 -4.84825 -4.2994 0
M  V30 211 N 20.6934 1.19889 -1.02296 0
M  V30 212 C 21.6264 2.21639 -0.543282 0
M  V30 213 C 22.6044 1.57275 0.412698 0
M  V30 214 O 23.7884 1.85568 0.331198 0
M  V30 215 C 20.9154 3.38057 0.208571 0
M  V30 216 C 19.9614 4.20751 -0.697933 0
M  V30 217 S 20.7944 4.89529 -2.17075 0
M  V30 218 C 21.9504 6.09363 -1.42923 0
M  V30 219 H 22.1834 2.61984 -1.40541 0
M  V30 220 H 19.7164 1.30041 -0.832387 0
M  V30 221 H 21.6744 4.05539 0.63624 0
M  V30 222 H 20.3354 2.96159 1.04635 0
M  V30 223 H 19.5284 5.03862 -0.117831 0
M  V30 224 H 19.1304 3.58556 -1.06366 0
M  V30 225 H 21.4224 6.73742 -0.712637 0
M  V30 226 H 22.3654 6.71845 -2.23673 0
M  V30 227 H 22.7734 5.56798 -0.929327 0
M  V30 228 N 22.1715 0.800033 1.35784 0
M  V30 229 C 23.3965 0.388511 2.03729 0
M  V30 230 C 23.8215 -0.990481 1.5991 0
M  V30 231 O 23.1795 -1.64013 0.772612 0
M  V30 232 C 23.2275 0.4726 3.5749 0
M  V30 233 O 22.3315 -0.51646 4.09153 0
M  V30 234 H 21.6725 0.163271 0.643614 0
M  V30 235 H 24.2025 1.0841 1.73518 0
M  V30 236 H 24.2125 0.34003 4.06581 0
M  V30 237 H 22.8875 1.47848 3.88734 0
M  V30 238 H 21.4645 -0.344673 3.71304 0
M  V30 239 N 23.6496 -1.47581 0.552962 0
M  V30 240 C 24.5596 -2.33743 -0.200353 0
M  V30 241 C 25.5756 -1.47928 -0.916151 0
M  V30 242 O 26.7516 -1.80865 -0.885993 0
M  V30 243 C 23.8166 -3.24536 -1.21973 0
M  V30 244 C 22.8776 -4.26238 -0.511819 0
M  V30 245 C 22.1106 -5.12693 -1.48263 0
M  V30 246 O 22.3336 -5.01525 -2.71714 0
M  V30 247 O 21.2676 -5.93375 -1.00945 0
M  V30 248 H 25.0936 -2.9945 0.506304 0
M  V30 249 H 22.6786 -1.46071 0.313622 0
M  V30 250 H 24.5606 -3.80631 -1.80827 0
M  V30 251 H 23.2356 -2.61462 -1.90839 0
M  V30 252 H 22.1426 -3.73914 0.117799 0
M  V30 253 H 23.4756 -4.92014 0.135308 0
M  V30 254 N 25.1277 -0.289203 -1.54924 0
M  V30 255 C 26.0757 0.607966 -2.24514 0
M  V30 256 C 27.0697 1.14655 -1.24702 0
M  V30 257 O 28.2757 1.09856 -1.4259 0
M  V30 258 H 24.6507 0.21464 -0.720718 0
M  V30 259 H 26.6217 -0.00164182 -2.984 0
M  V30 260 C 25.3707 1.77406 -2.99036 0
M  V30 261 H 24.6937 1.36884 -3.75637 0
M  V30 262 H 26.1337 2.37814 -3.51028 0
M  V30 263 C 24.5927 2.67107 -2.05318 0
M  V30 264 O 25.1227 3.6787 -1.61353 0
M  V30 265 N 23.3287 2.34582 -1.71521 0
M  V30 266 H 22.8757 1.52688 -2.07471 0
M  V30 267 H 22.8337 2.94867 -1.0909 0
M  V30 268 N 26.6058 1.57591 -0.0167156 0
M  V30 269 C 27.8518 1.91567 0.665582 0
M  V30 270 C 28.1848 0.892298 1.72487 0
M  V30 271 O 27.4598 -0.0867127 1.94307 0
M  V30 272 C 27.7428 3.36069 1.29342 0
M  V30 273 C 27.5958 4.49135 0.244541 0
M  V30 274 C 28.9148 3.803 2.21495 0
M  V30 275 H 26.0338 0.69666 0.240488 0
M  V30 276 H 28.6758 1.89866 -0.0714356 0
M  V30 277 H 26.8258 3.3765 1.92158 0
M  V30 278 H 28.4978 4.59689 -0.385228 0
M  V30 279 H 26.7408 4.3165 -0.431379 0
M  V30 280 H 27.4118 5.47242 0.723207 0
M  V30 281 H 29.8878 3.80377 1.68678 0
M  V30 282 H 28.7638 4.82127 2.62382 0
M  V30 283 H 29.0248 3.15104 3.101 0
M  V30 284 N 28.0839 -0.256276 1.55502 0
M  V30 285 C 29.4949 -0.826068 1.67431 0
M  V30 286 C 29.8459 -1.86396 0.612446 0
M  V30 287 O 28.9709 -2.15031 -0.243025 0
M  V30 288 C 29.5659 -1.50512 3.03532 0
M  V30 289 C 28.1249 -2.02273 3.17431 0
M  V30 290 C 27.2719 -0.870548 2.63281 0
M  V30 291 H 30.2229 -0.0322728 1.58667 0
M  V30 292 H 30.2439 -2.37279 2.97454 0
M  V30 293 H 29.7559 -0.749484 3.80794 0
M  V30 294 H 27.8569 -2.80746 2.44974 0
M  V30 295 H 27.9699 -2.22655 4.24219 0
M  V30 296 H 26.3339 -1.26851 2.20864 0
M  V30 297 H 27.1169 -0.128149 3.43061 0
M  V30 298 N 29.562 -1.4872 -0.521534 0
M  V30 299 C 30.509 -1.63871 -1.62527 0
M  V30 300 C 31.479 -0.480559 -1.58996 0
M  V30 301 O 32.664 -0.705085 -1.77294 0
M  V30 302 C 29.804 -1.69227 -3.00759 0
M  V30 303 C 28.917 -2.96207 -3.14461 0
M  V30 304 C 28.052 -2.92671 -4.43303 0
M  V30 305 C 27.091 -4.14318 -4.50563 0
M  V30 306 N 26.228 -4.0881 -5.70805 0
M  V30 307 H 31.068 -2.58123 -1.48918 0
M  V30 308 H 28.605 -1.28 -0.724878 0
M  V30 309 H 30.563 -1.70314 -3.80853 0
M  V30 310 H 29.193 -0.784586 -3.1312 0
M  V30 311 H 28.245 -3.04826 -2.27564 0
M  V30 312 H 29.557 -3.86192 -3.15686 0
M  V30 313 H 28.711 -2.92206 -5.31696 0
M  V30 314 H 27.45 -2.00429 -4.44612 0
M  V30 315 H 26.455 -4.15049 -3.60575 0
M  V30 316 H 27.68 -5.07729 -4.50986 0
M  V30 317 H 25.626 -3.19394 -5.72995 0
M  V30 318 H 25.543 -4.92509 -5.7356 0
M  V30 319 H 26.811 -4.12418 -6.61462 0
M  V30 320 N 31.0401 0.771051 -1.3745 0
M  V30 321 C 31.9721 1.89352 -1.29146 0
M  V30 322 C 32.9851 1.61477 -0.207124 0
M  V30 323 O 34.1741 1.72382 -0.463324 0
M  V30 324 C 31.2741 3.24596 -0.974195 0
M  V30 325 C 30.4471 3.80111 -2.16413 0
M  V30 326 C 29.5061 4.93832 -1.81703 0
M  V30 327 O 28.5321 5.09382 -2.54006 0
M  V30 328 N 29.7341 5.75483 -0.761573 0
M  V30 329 H 32.4991 1.96991 -2.25864 0
M  V30 330 H 30.0601 0.950191 -1.31084 0
M  V30 331 H 32.0521 3.98193 -0.722828 0
M  V30 332 H 30.6221 3.12454 -0.0955527 0
M  V30 333 H 29.8421 2.98284 -2.57721 0
M  V30 334 H 31.1301 4.13932 -2.95867 0
M  V30 335 H 30.5281 5.65469 -0.161609 0
M  V30 336 H 29.0851 6.49302 -0.570064 0
M  V30 337 N 32.5182 1.22032 0.997298 0
M  V30 338 C 33.7652 1.04222 1.73621 0
M  V30 339 C 34.0932 -0.423264 1.89839 0
M  V30 340 O 33.3482 -1.3302 1.43542 0
M  V30 341 C 33.6472 1.69345 3.14733 0
M  V30 342 C 33.3132 3.19226 3.18442 0
M  V30 343 C 31.9752 3.60124 3.19161 0
M  V30 344 C 34.3272 4.15181 3.15078 0
M  V30 345 C 31.6552 4.95467 3.14212 0
M  V30 346 C 34.0072 5.50495 3.1167 0
M  V30 347 C 32.6712 5.90779 3.10703 0
M  V30 348 H 31.9412 0.381374 0.635323 0
M  V30 349 H 34.5882 1.51732 1.16831 0
M  V30 350 H 32.8932 1.14147 3.74803 0
M  V30 351 H 34.5902 1.53059 3.7064 0
M  V30 352 H 31.1802 2.86659 3.18629 0
M  V30 353 H 35.3642 3.84605 3.13676 0
M  V30 354 H 30.6202 5.25916 3.11805 0
M  V30 355 H 34.7942 6.24576 3.08022 0
M  V30 356 H 32.4212 6.9562 3.06622 0
M  V30 357 N 33.9963 -1.19345 1.0293 0
M  V30 358 C 34.9263 -2.2481 0.631105 0
M  V30 359 C 35.9073 -1.66245 -0.360104 0
M  V30 360 O 37.0923 -1.92677 -0.242726 0
M  V30 361 C 34.2223 -3.47295 -0.0184607 0
M  V30 362 C 33.1763 -4.18536 0.895073 0
M  V30 363 C 32.5023 -5.34586 0.110592 0
M  V30 364 C 33.8023 -4.73287 2.209 0
M  V30 365 H 35.4963 -2.58372 1.51275 0
M  V30 366 H 33.0423 -1.24194 0.728818 0
M  V30 367 H 34.9953 -4.20268 -0.308675 0
M  V30 368 H 33.7193 -3.12933 -0.934907 0
M  V30 369 H 32.3783 -3.47446 1.16949 0
M  V30 370 H 32.0263 -4.96469 -0.807902 0
M  V30 371 H 31.7263 -5.83183 0.719087 0
M  V30 372 H 33.2503 -6.10355 -0.172871 0
M  V30 373 H 34.6643 -5.38013 1.98028 0
M  V30 374 H 33.0613 -5.32373 2.76946 0
M  V30 375 H 34.1313 -3.91331 2.86336 0
M  V30 376 N 35.4744 -0.807222 -1.35358 0
M  V30 377 C 36.3844 -0.219594 -2.3357 0
M  V30 378 C 37.4004 0.637734 -1.61892 0
M  V30 379 O 38.5764 0.549336 -1.93763 0
M  V30 380 C 35.6414 0.62158 -3.41083 0
M  V30 381 C 34.7024 -0.256315 -4.28534 0
M  V30 382 C 33.9354 0.544807 -5.30912 0
M  V30 383 O 34.1584 1.77944 -5.41934 0
M  V30 384 O 33.0924 -0.0646478 -6.01865 0
M  V30 385 H 36.9184 -1.03208 -2.85625 0
M  V30 386 H 34.5034 -0.569025 -1.38139 0
M  V30 387 H 36.3854 1.10067 -4.06772 0
M  V30 388 H 35.0604 1.41165 -2.91297 0
M  V30 389 H 33.9674 -0.782559 -3.65823 0
M  V30 390 H 35.3004 -1.01034 -4.81719 0
M  V30 391 N 36.9525 1.47285 -0.560781 0
M  V30 392 C 38.2015 2.01668 -0.035895 0
M  V30 393 C 38.5145 1.44021 1.32353 0
M  V30 394 O 39.7205 1.90088 1.93853 0
M  V30 395 C 38.1765 3.59897 -0.0136659 0
M  V30 396 C 37.7845 4.26536 -1.37006 0
M  V30 397 C 39.5285 4.22017 0.458425 0
M  V30 398 C 37.4355 5.76782 -1.30675 0
M  V30 399 H 36.3655 0.753938 -0.00964879 0
M  V30 400 H 39.0165 1.69243 -0.709166 0
M  V30 401 H 37.3985 3.89301 0.725325 0
M  V30 402 H 38.5725 4.0877 -2.12705 0
M  V30 403 H 36.8875 3.76419 -1.78038 0
M  V30 404 H 39.4845 5.32124 0.524247 0
M  V30 405 H 39.8275 3.89437 1.4712 0
M  V30 406 H 40.3605 3.97159 -0.225818 0
M  V30 407 H 37.0995 6.13988 -2.29564 0
M  V30 408 H 36.6195 5.96875 -0.591622 0
M  V30 409 H 38.2985 6.39063 -1.01033 0
M  V30 410 N 38.4306 0.297415 1.54768 0
M  V30 411 C 39.3406 -0.58983 2.27064 0
M  V30 412 C 40.3566 -1.15144 1.30453 0
M  V30 413 O 41.5326 -1.17699 1.63428 0
M  V30 414 C 38.5976 -1.74714 2.9946 0
M  V30 415 C 37.6586 -1.21997 4.11601 0
M  V30 416 C 36.8916 -2.32212 4.80535 0
M  V30 417 O 37.1146 -3.52036 4.48806 0
M  V30 418 O 36.0486 -1.99106 5.68014 0
M  V30 419 H 39.8746 -0.00348199 3.037 0
M  V30 420 H 37.4596 0.0640035 1.49263 0
M  V30 421 H 39.3416 -2.42147 3.44881 0
M  V30 422 H 38.0166 -2.32016 2.25722 0
M  V30 423 H 36.9236 -0.511458 3.70587 0
M  V30 424 H 38.2566 -0.692419 4.87305 0
M  V30 425 N 39.9087 -1.5758 0.0250728 0
M  V30 426 C 41.1567 -1.91255 -0.653151 0
M  V30 427 C 41.4777 -0.901691 -1.729 0
M  V30 428 O 40.7477 0.0573785 -1.95816 0
M  V30 429 H 39.3277 -0.705942 -0.244243 0
M  V30 430 H 41.9897 -1.94767 0.0719209 0
M  V30 431 H 41.0857 -2.91752 -1.10847 0
M  V30 432 N 41.3868 0.248026 -1.55636 0
M  V30 433 C 42.8028 0.596483 -1.48035 0
M  V30 434 C 43.0028 1.88386 -0.715039 0
M  V30 435 O 42.0588 2.51319 -0.243944 0
M  V30 436 C 43.3718 0.700258 -2.92433 0
M  V30 437 C 44.9198 0.792659 -3.02797 0
M  V30 438 C 45.3948 0.928005 -4.485 0
M  V30 439 N 46.8858 0.992903 -4.52433 0
M  V30 440 C 47.6208 1.11687 -5.62418 0
M  V30 441 N 47.1168 1.20645 -6.82214 0
M  V30 442 N 48.9098 1.14994 -5.50212 0
M  V30 443 H 41.0608 -0.597109 -2.03834 0
M  V30 444 H 43.3238 -0.205925 -0.925364 0
M  V30 445 H 43.0298 -0.175658 -3.51261 0
M  V30 446 H 42.9038 1.57255 -3.42857 0
M  V30 447 H 45.2908 1.65903 -2.4405 0
M  V30 448 H 45.3718 -0.104762 -2.55585 0
M  V30 449 H 45.0158 0.0661971 -5.07857 0
M  V30 450 H 44.9458 1.84045 -4.93391 0
M  V30 451 H 47.4368 0.935064 -3.66149 0
M  V30 452 H 47.7498 1.30008 -7.61786 0
M  V30 453 H 46.0948 1.17605 -6.84977 0
M  V30 454 H 49.2858 1.07643 -4.55555 0
M  V30 455 H 49.4588 1.24311 -6.35965 0
M  V30 456 N 42.8649 1.48995 0.513639 0
M  V30 457 C 43.7979 1.59319 1.63379 0
M  V30 458 C 44.7759 0.442816 1.56454 0
M  V30 459 O 45.9599 0.656655 1.76693 0
M  V30 460 C 43.0869 1.5364 3.01848 0
M  V30 461 C 42.1329 2.7372 3.27078 0
M  V30 462 S 42.9659 4.35528 3.1157 0
M  V30 463 C 44.1219 4.32473 4.52458 0
M  V30 464 H 44.3549 2.54079 1.54374 0
M  V30 465 H 41.8879 1.3773 0.697849 0
M  V30 466 H 43.8459 1.51049 3.81699 0
M  V30 467 H 42.5069 0.601898 3.08279 0
M  V30 468 H 41.6999 2.6593 4.28132 0
M  V30 469 H 41.3019 2.73657 2.54927 0
M  V30 470 H 43.5939 4.03414 5.44301 0
M  V30 471 H 44.5369 5.33762 4.65299 0
M  V30 472 H 44.9449 3.62718 4.32546 0
M  V30 473 N 44.343 -0.763751 1.37857 0
M  V30 474 C 45.273 -1.89103 1.36975 0
M  V30 475 C 46.254 -1.68439 0.237152 0
M  V30 476 O 47.439 -1.8918 0.438713 0
M  V30 477 C 44.569 -3.26496 1.18395 0
M  V30 478 C 43.523 -3.61741 2.28751 0
M  V30 479 C 42.849 -4.97762 1.95286 0
M  V30 480 C 44.149 -3.67665 3.70972 0
M  V30 481 H 45.843 -1.90099 2.31307 0
M  V30 482 H 43.389 -0.91319 1.11341 0
M  V30 483 H 45.342 -4.05003 1.16406 0
M  V30 484 H 44.066 -3.25955 0.205215 0
M  V30 485 H 42.725 -2.85547 2.29909 0
M  V30 486 H 42.373 -4.93769 0.959221 0
M  V30 487 H 42.073 -5.22313 2.69189 0
M  V30 488 H 43.597 -5.7866 1.94898 0
M  V30 489 H 45.011 -4.36307 3.719 0
M  V30 490 H 43.408 -4.03718 4.43995 0
M  V30 491 H 44.478 -2.68134 4.0402 0
M  V30 492 N 45.8211 -1.22559 -0.990812 0
M  V30 493 C 47.0681 -1.05141 -1.73065 0
M  V30 494 C 47.3961 0.413191 -1.9006 0
M  V30 495 O 46.6511 1.32257 -1.44245 0
M  V30 496 C 46.9501 -1.71011 -3.13831 0
M  V30 497 C 46.6161 -3.20911 -3.16745 0
M  V30 498 C 45.2781 -3.61812 -3.17247 0
M  V30 499 C 47.6301 -4.16846 -3.12872 0
M  V30 500 C 44.9581 -4.97127 -3.1158 0
M  V30 501 C 47.3101 -5.5214 -3.08746 0
M  V30 502 C 45.9741 -5.92419 -3.07565 0
M  V30 503 H 45.2441 -0.384738 -0.633291 0
M  V30 504 H 47.8911 -1.5235 -1.16025 0
M  V30 505 H 46.1961 -1.16133 -3.74193 0
M  V30 506 H 47.8931 -1.55023 -3.69823 0
M  V30 507 H 44.4831 -2.88344 -3.17105 0
M  V30 508 H 48.6671 -3.86263 -3.11632 0
M  V30 509 H 43.9231 -5.27562 -3.09012 0
M  V30 510 H 48.0971 -6.26201 -3.04705 0
M  V30 511 H 45.7241 -6.97236 -3.02929 0
M  V30 512 N 47.2992 1.18797 -1.03562 0
M  V30 513 C 48.2092 2.25913 -0.632505 0
M  V30 514 C 49.2252 1.70668 0.338882 0
M  V30 515 O 50.4012 2.00453 0.195076 0
M  V30 516 C 47.4662 3.467 0.00350942 0
M  V30 517 C 46.5272 4.17098 -1.01624 0
M  V30 518 C 45.7602 5.32119 -0.410478 0
M  V30 519 O 45.9832 5.64976 0.784725 0
M  V30 520 O 44.9172 5.9107 -1.13667 0
M  V30 521 H 48.7432 2.62648 -1.52478 0
M  V30 522 H 46.3282 1.25781 -0.806195 0
M  V30 523 H 48.2102 4.19878 0.35781 0
M  V30 524 H 46.8852 3.11798 0.869686 0
M  V30 525 H 45.7922 3.4601 -1.42224 0
M  V30 526 H 47.1252 4.55987 -1.85301 0
M  V30 527 N 48.7773 0.814389 1.34928 0
M  V30 528 C 50.0073 0.41054 2.0248 0
M  V30 529 C 50.4153 -0.985625 1.61499 0
M  V30 530 O 49.7583 -1.64781 0.811976 0
M  V30 531 C 49.8203 0.423384 3.56998 0
M  V30 532 C 49.4843 1.77141 4.21272 0
M  V30 533 C 50.4813 2.73093 4.42398 0
M  V30 534 C 48.1663 2.05755 4.58225 0
M  V30 535 C 50.1603 3.95838 4.9959 0
M  V30 536 C 47.8473 3.28762 5.1513 0
M  V30 537 C 48.8453 4.23621 5.35755 0
M  V30 538 O 48.5333 5.44456 5.91458 0
M  V30 539 H 48.2653 0.163997 0.655806 0
M  V30 540 H 50.8193 1.10155 1.73364 0
M  V30 541 H 49.0493 -0.324276 3.85338 0
M  V30 542 H 50.7383 0.0407683 4.0588 0
M  V30 543 H 51.5043 2.5228 4.14222 0
M  V30 544 H 47.3833 1.32727 4.4148 0
M  V30 545 H 50.9273 4.69891 5.15605 0
M  V30 546 H 46.8243 3.49443 5.42734 0
M  V30 547 H 47.5923 5.4586 6.09901 0
M  V30 548 N 50.2554 -1.46986 0.568584 0
M  V30 549 C 51.6664 -1.86188 0.138219 0
M  V30 550 C 52.0174 -1.47388 -1.29504 0
M  V30 551 O 51.1424 -0.88219 -1.97602 0
M  V30 552 C 51.7374 -3.3792 0.244065 0
M  V30 553 C 50.2964 -3.76171 -0.131335 0
M  V30 554 C 49.4434 -2.71027 0.586465 0
M  V30 555 H 52.3944 -1.38342 0.777645 0
M  V30 556 H 52.4154 -3.76729 -0.534351 0
M  V30 557 H 51.9274 -3.66128 1.28731 0
M  V30 558 H 50.0284 -3.5358 -1.17526 0
M  V30 559 H 50.1414 -4.78523 0.235146 0
M  V30 560 H 48.5054 -2.54684 0.0282722 0
M  V30 561 H 49.2884 -3.02077 1.63109 0
M  V30 562 N 51.7335 -0.305618 -1.54608 0
M  V30 563 C 52.6635 0.561482 -2.26649 0
M  V30 564 C 53.6445 1.13415 -1.26772 0
M  V30 565 O 54.8295 1.16262 -1.55553 0
M  V30 566 C 51.9595 1.73122 -3.01075 0
M  V30 567 C 50.9135 1.2887 -4.08138 0
M  V30 568 C 50.2395 2.54396 -4.70305 0
M  V30 569 C 51.5395 0.416578 -5.20636 0
M  V30 570 H 53.2335 -0.0393902 -2.99374 0
M  V30 571 H 50.7795 -0.020385 -1.43986 0
M  V30 572 H 52.7325 2.34396 -3.50195 0
M  V30 573 H 51.4565 2.3584 -2.25936 0
M  V30 574 H 50.1155 0.698991 -3.59875 0
M  V30 575 H 49.7635 3.15439 -3.918 0
M  V30 576 H 49.4635 2.25486 -5.42614 0
M  V30 577 H 50.9875 3.16464 -5.2219 0
M  V30 578 H 52.4015 0.935116 -5.65622 0
M  V30 579 H 50.7985 0.221046 -5.99693 0
M  V30 580 H 51.8685 -0.557162 -4.81688 0
M  V30 581 N 53.2116 1.57565 -0.0334293 0
M  V30 582 C 54.4366 1.96689 0.657895 0
M  V30 583 C 54.8616 0.910057 1.64619 0
M  V30 584 O 54.2196 -0.128598 1.80843 0
M  V30 585 C 54.2676 3.34905 1.33683 0
M  V30 586 O 53.3716 3.31574 2.45219 0
M  V30 587 H 52.7126 0.641205 0.172489 0
M  V30 588 H 55.2426 2.04372 -0.0965621 0
M  V30 589 H 55.2526 3.71234 1.69262 0
M  V30 590 H 53.9276 4.11366 0.612411 0
M  V30 591 H 52.5046 3.06968 2.11719 0
M  V30 592 N 54.6897 -0.239769 1.55765 0
M  V30 593 C 55.9177 -0.98417 1.81994 0
M  V30 594 C 56.3327 -1.7867 0.610124 0
M  V30 595 O 55.6897 -1.77571 -0.421271 0
M  V30 596 C 55.7407 -1.91635 3.06526 0
M  V30 597 O 55.4617 -1.14629 4.22838 0
M  V30 598 C 56.9627 -2.77616 3.45607 0
M  V30 599 H 54.1827 -0.28928 0.605441 0
M  V30 600 H 56.7267 -0.260499 2.02834 0
M  V30 601 H 54.8817 -2.5942 2.87715 0
M  V30 602 H 55.2957 -1.77745 4.93464 0
M  V30 603 H 56.7697 -3.38759 4.35828 0
M  V30 604 H 57.2467 -3.4909 2.6652 0
M  V30 605 H 57.8527 -2.15271 3.66795 0
M  V30 606 N 56.1678 -1.49265 -0.50573 0
M  V30 607 C 57.4148 -1.58513 -1.26015 0
M  V30 608 C 57.7428 -0.26972 -1.92621 0
M  V30 609 O 56.9978 0.741997 -1.81088 0
M  V30 610 C 57.2968 -2.69008 -2.35308 0
M  V30 611 C 56.9628 -4.10662 -1.86192 0
M  V30 612 C 55.6248 -4.49212 -1.72516 0
M  V30 613 C 57.9768 -4.99336 -1.49375 0
M  V30 614 C 55.3048 -5.74214 -1.20394 0
M  V30 615 C 57.6568 -6.24852 -0.987072 0
M  V30 616 C 56.3208 -6.62236 -0.836669 0
M  V30 617 H 55.5908 -0.580041 -0.461122 0
M  V30 618 H 58.2378 -1.83078 -0.561665 0
M  V30 619 H 56.5428 -2.38396 -3.10926 0
M  V30 620 H 58.2398 -2.73373 -2.93374 0
M  V30 621 H 54.8298 -3.8023 -1.97795 0
M  V30 622 H 59.0138 -4.70212 -1.5879 0
M  V30 623 H 54.2698 -6.01883 -1.07458 0
M  V30 624 H 58.4438 -6.92944 -0.692983 0
M  V30 625 H 56.0708 -7.58979 -0.430607 0
M  V30 626 N 57.6459 0.756429 -1.3826 0
M  V30 627 C 58.5759 1.88374 -1.37976 0
M  V30 628 C 59.5569 1.68311 -0.246082 0
M  V30 629 O 60.7419 1.88944 -0.44874 0
M  V30 630 C 57.8719 3.25864 -1.20125 0
M  V30 631 C 56.8259 3.60523 -2.30666 0
M  V30 632 C 56.1519 4.9672 -1.97923 0
M  V30 633 C 57.4519 3.65692 -3.72916 0
M  V30 634 H 59.1459 1.88869 -2.32312 0
M  V30 635 H 56.6919 0.907272 -1.11824 0
M  V30 636 H 58.6449 4.0438 -1.18552 0
M  V30 637 H 57.3689 3.25841 -0.222498 0
M  V30 638 H 56.0279 2.84324 -2.3142 0
M  V30 639 H 55.6759 4.93253 -0.985393 0
M  V30 640 H 55.3759 5.20878 -2.71955 0
M  V30 641 H 56.8999 5.77618 -1.97964 0
M  V30 642 H 58.3139 4.34328 -3.74208 0
M  V30 643 H 56.7109 4.01358 -4.4613 0
M  V30 644 H 57.7809 2.65987 -4.05436 0
M  V30 645 N 59.124 1.23083 0.984299 0
M  V30 646 C 60.071 1.00854 2.07598 0
M  V30 647 C 61.041 -0.0726709 1.65941 0
M  V30 648 O 62.226 0.0786535 1.90638 0
M  V30 649 C 59.366 0.601645 3.39815 0
M  V30 650 C 58.479 1.75456 3.94765 0
M  V30 651 C 57.614 1.29482 5.15177 0
M  V30 652 C 56.653 2.41873 5.62284 0
M  V30 653 N 55.79 1.96885 6.73929 0
M  V30 654 H 60.63 1.943 2.25946 0
M  V30 655 H 58.167 0.968001 1.10762 0
M  V30 656 H 60.125 0.346854 4.15756 0
M  V30 657 H 58.755 -0.295803 3.21442 0
M  V30 658 H 57.807 2.12346 3.15616 0
M  V30 659 H 59.119 2.59965 4.25699 0
M  V30 660 H 58.273 0.997923 5.98437 0
M  V30 661 H 57.012 0.420046 4.85888 0
M  V30 662 H 56.017 2.72342 4.77608 0
M  V30 663 H 57.242 3.29881 5.93595 0
M  V30 664 H 55.188 1.11782 6.46406 0
M  V30 665 H 55.105 2.74956 7.04227 0
M  V30 666 H 56.373 1.70289 7.60672 0
M  V30 667 N 60.6021 -1.18246 1.0419 0
M  V30 668 C 61.8271 -1.92736 0.765996 0
M  V30 669 C 62.2521 -1.75728 -0.67091 0
M  V30 670 O 61.6101 -1.06825 -1.46486 0
M  V30 671 C 61.6581 -3.42148 1.13875 0
M  V30 672 O 60.7621 -4.11548 0.264954 0
M  V30 673 H 60.1031 -0.601238 0.281797 0
M  V30 674 H 62.6331 -1.49942 1.39207 0
M  V30 675 H 62.6431 -3.92858 1.1012 0
M  V30 676 H 61.3181 -3.53848 2.18551 0
M  V30 677 H 59.8951 -3.71137 0.362226 0
M  V30 678 N 62.0802 -0.821533 -1.34494 0
M  V30 679 C 62.9902 -0.244355 -2.33324 0
M  V30 680 C 64.0062 0.620527 -1.62559 0
M  V30 681 O 65.1822 0.528754 -1.94335 0
M  V30 682 C 62.2472 0.585368 -3.41723 0
M  V30 683 C 61.3082 -0.301752 -4.28238 0
M  V30 684 C 60.5412 0.488466 -5.3146 0
M  V30 685 O 60.7642 1.72186 -5.4379 0
M  V30 686 O 59.6982 -0.12848 -6.01763 0
M  V30 687 H 63.5242 -1.06231 -2.84515 0
M  V30 688 H 61.1092 -0.583645 -1.37528 0
M  V30 689 H 62.9912 1.05747 -4.07916 0
M  V30 690 H 61.6662 1.38068 -2.92778 0
M  V30 691 H 60.5732 -0.821315 -3.64973 0
M  V30 692 H 61.9062 -1.06138 -4.8062 0
M  V30 693 N 63.5583 1.46682 -0.576371 0
M  V30 694 C 64.5213 2.28707 0.150239 0
M  V30 695 C 65.5213 1.38035 0.824794 0
M  V30 696 O 66.7113 1.60476 0.677719 0
M  V30 697 C 63.8433 3.18248 1.22192 0
M  V30 698 H 65.0363 2.94423 -0.570521 0
M  V30 699 H 62.5893 1.52688 -0.334078 0
M  V30 700 H 63.3243 2.57265 1.97447 0
M  V30 701 H 63.1093 3.85 0.742812 0
M  V30 702 H 64.5993 3.80001 1.73172 0
M  V30 703 N 65.0364 0.313813 1.54444 0
M  V30 704 C 66.2854 -0.292519 1.99568 0
M  V30 705 C 66.5984 -1.54011 1.20582 0
M  V30 706 O 67.8044 -2.22183 1.56035 0
M  V30 707 C 66.2604 -0.571752 3.55329 0
M  V30 708 C 65.8684 0.658229 4.43138 0
M  V30 709 C 67.6124 -1.13857 4.08946 0
M  V30 710 C 65.5194 0.351439 5.90355 0
M  V30 711 H 64.4494 -0.113079 0.745472 0
M  V30 712 H 67.1004 0.424518 1.78522 0
M  V30 713 H 65.4824 -1.34872 3.72325 0
M  V30 714 H 66.6564 1.43403 4.37918 0
M  V30 715 H 64.9714 1.14458 4.0036 0
M  V30 716 H 67.5684 -1.38257 5.16516 0
M  V30 717 H 67.9114 -2.08489 3.6033 0
M  V30 718 H 68.4444 -0.423015 3.95544 0
M  V30 719 H 65.1834 1.26667 6.43145 0
M  V30 720 H 64.7034 -0.386842 5.98551 0
M  V30 721 H 66.3824 -0.0423134 6.46986 0
M  V30 722 N 66.5145 -1.57545 0.0417849 0
M  V30 723 C 67.7915 -1.83642 -0.673433 0
M  V30 724 C 68.1715 -0.928298 -1.89594 0
M  V30 725 O 67.5195 0.0129955 -2.28496 0
M  V30 726 C 67.7295 -3.33155 -1.03964 0
M  V30 727 C 69.0775 -3.99941 -1.42592 0
M  V30 728 O 70.1015 -3.37725 -1.13226 0
M  V30 729 O 68.9605 -5.09619 -1.9736 0
M  V30 730 H 66.0545 -0.757638 -0.331533 0
M  V30 731 H 68.6005 -1.69554 0.070433 0
M  V30 732 H 67.3725 -3.9093 -0.170098 0
M  V30 733 H 66.9955 -3.52396 -1.84126 0
M  V30 734 N 67.9926 0.231505 -1.5589 0
M  V30 735 C 69.2406 0.955461 -1.78088 0
M  V30 736 C 69.5616 1.85262 -0.608533 0
M  V30 737 O 68.8316 1.92277 0.375035 0
M  V30 738 H 67.4116 0.355787 -0.656829 0
M  V30 739 H 70.0736 0.245751 -1.93344 0
M  V30 740 H 69.1696 1.56814 -2.69844 0
M  V30 741 N 69.4707 1.49531 0.497807 0
M  V30 742 C 70.7167 1.59415 1.25358 0
M  V30 743 C 71.0497 0.281422 1.9215 0
M  V30 744 O 70.3247 -0.715249 1.80871 0
M  V30 745 C 70.6077 2.75566 2.3181 0
M  V30 746 C 70.4607 4.16642 1.69498 0
M  V30 747 C 71.7797 2.87347 3.33346 0
M  V30 748 H 68.8987 0.580244 0.454408 0
M  V30 749 H 71.5407 1.81827 0.551262 0
M  V30 750 H 69.6907 2.56587 2.91711 0
M  V30 751 H 71.3627 4.47145 1.13399 0
M  V30 752 H 69.6057 4.22141 0.998978 0
M  V30 753 H 70.2767 4.93792 2.46725 0
M  V30 754 H 72.7527 3.04634 2.83438 0
M  V30 755 H 71.6287 3.70289 4.05188 0
M  V30 756 H 71.8897 1.96834 3.95865 0
M  V30 757 N 70.9488 -0.749086 1.3866 0
M  V30 758 C 72.1948 -1.51056 1.35314 0
M  V30 759 C 72.5278 -1.94121 -0.0553751 0
M  V30 760 O 71.8028 -1.65763 -1.01749 0
M  V30 761 C 72.0858 -2.76003 2.31288 0
M  V30 762 C 71.9388 -2.39047 3.8102 0
M  V30 763 C 73.2578 -3.78046 2.2532 0
M  V30 764 H 70.3768 -0.547972 0.492844 0
M  V30 765 H 73.0188 -0.857628 1.69543 0
M  V30 766 H 71.1688 -3.31716 2.02229 0
M  V30 767 H 72.8408 -1.89074 4.20771 0
M  V30 768 H 71.0838 -1.71449 3.98482 0
M  V30 769 H 71.7548 -3.28462 4.4364 0
M  V30 770 H 74.2308 -3.31884 2.50983 0
M  V30 771 H 73.1068 -4.63159 2.94576 0
M  V30 772 H 73.3678 -4.23957 1.25352 0
M  V30 773 N 72.4269 -1.23603 -0.977757 0
M  V30 774 C 73.6759 -1.06377 -1.71368 0
M  V30 775 C 73.9889 0.399062 -1.91486 0
M  V30 776 O 75.1949 0.691312 -2.62551 0
M  V30 777 C 73.6509 -1.85512 -3.08404 0
M  V30 778 C 73.2589 -3.36141 -2.96164 0
M  V30 779 C 75.0029 -1.76783 -3.85938 0
M  V30 780 C 72.9099 -4.07659 -4.28449 0
M  V30 781 H 71.8399 -0.394452 -0.642591 0
M  V30 782 H 74.4909 -1.47594 -1.09034 0
M  V30 783 H 72.8729 -1.37103 -3.71509 0
M  V30 784 H 74.0469 -3.92056 -2.42133 0
M  V30 785 H 72.3619 -3.45712 -2.32104 0
M  V30 786 H 74.9589 -2.27526 -4.83876 0
M  V30 787 H 75.3019 -0.731116 -4.0983 0
M  V30 788 H 75.8349 -2.22818 -3.2954 0
M  V30 789 H 72.5739 -5.11648 -4.09752 0
M  V30 790 H 72.0939 -3.5653 -4.82334 0
M  V30 791 H 73.7729 -4.141 -4.97122 0
M  V30 792 N 73.905 1.17692 -1.04816 0
M  V30 793 C 75.151 1.88137 -0.75711 0
M  V30 794 C 75.484 1.80604 0.713841 0
M  V30 795 O 74.759 1.21146 1.52164 0
M  V30 796 C 75.042 3.38318 -1.2334 0
M  V30 797 C 74.895 3.54622 -2.76701 0
M  V30 798 C 76.214 4.32214 -0.829415 0
M  V30 799 H 73.333 0.683163 -0.27651 0
M  V30 800 H 75.975 1.38424 -1.30149 0
M  V30 801 H 74.125 3.80787 -0.770286 0
M  V30 802 H 75.797 3.21194 -3.31107 0
M  V30 803 H 74.04 2.97026 -3.16161 0
M  V30 804 H 74.711 4.60028 -3.05088 0
M  V30 805 H 77.187 3.97565 -1.22805 0
M  V30 806 H 76.063 5.35838 -1.19033 0
M  V30 807 H 76.324 4.41294 0.266891 0
M  V30 808 N 75.3831 0.828654 1.34056 0
M  V30 809 C 76.6111 0.43262 2.02326 0
M  V30 810 C 77.0261 -0.963147 1.62385 0
M  V30 811 O 76.3831 -1.62425 0.832121 0
M  V30 812 C 76.4341 0.53182 3.57567 0
M  V30 813 O 76.1551 1.87258 3.96063 0
M  V30 814 C 77.6561 0.131422 4.43105 0
M  V30 815 H 74.8761 0.172923 0.648335 0
M  V30 816 H 77.4201 1.1184 1.71208 0
M  V30 817 H 75.5751 -0.105938 3.87255 0
M  V30 818 H 75.9891 1.85087 4.90758 0
M  V30 819 H 77.4631 0.251904 5.51425 0
M  V30 820 H 77.9401 -0.925645 4.29335 0
M  V30 821 H 78.5461 0.743207 4.18756 0
M  V30 822 N 76.8612 -1.46375 0.584142 0
M  V30 823 C 78.2772 -1.57694 0.245929 0
M  V30 824 C 78.4772 -1.57903 -1.25175 0
M  V30 825 O 77.5332 -1.49676 -2.03355 0
M  V30 826 C 78.8462 -2.87028 0.896402 0
M  V30 827 C 80.3942 -3.00662 0.870127 0
M  V30 828 C 80.8692 -4.32734 1.50017 0
M  V30 829 N 82.3602 -4.39436 1.46458 0
M  V30 830 C 83.0952 -5.40248 1.92144 0
M  V30 831 N 82.5912 -6.47726 2.4581 0
M  V30 832 N 84.3842 -5.31459 1.83052 0
M  V30 833 H 76.5352 -1.44483 1.55687 0
M  V30 834 H 78.7982 -0.689291 0.650831 0
M  V30 835 H 78.5042 -2.9269 1.95002 0
M  V30 836 H 78.3782 -3.75014 0.405486 0
M  V30 837 H 80.7652 -2.94581 -0.174871 0
M  V30 838 H 80.8462 -2.14148 1.39908 0
M  V30 839 H 80.4902 -4.39573 2.54437 0
M  V30 840 H 80.4202 -5.18025 0.946432 0
M  V30 841 H 82.9112 -3.62367 1.07231 0
M  V30 842 H 83.2242 -7.20863 2.78525 0
M  V30 843 H 81.5692 -6.48542 2.49836 0
M  V30 844 H 84.7602 -4.46396 1.40883 0
M  V30 845 H 84.9332 -6.09881 2.18973 0
M  V30 846 N 78.3393 -0.321999 -1.54275 0
M  V30 847 C 79.7553 0.0306999 -1.5957 0
M  V30 848 C 79.9553 1.50614 -1.33857 0
M  V30 849 O 79.0113 2.2619 -1.12223 0
M  V30 850 C 80.3243 -0.386122 -2.98211 0
M  V30 851 C 81.8723 -0.336647 -3.11184 0
M  V30 852 C 82.3473 -0.728607 -4.52167 0
M  V30 853 N 83.8383 -0.681952 -4.58152 0
M  V30 854 C 84.5733 -0.957449 -5.6535 0
M  V30 855 N 84.0693 -1.3 -6.80494 0
M  V30 856 N 85.8623 -0.883113 -5.55119 0
M  V30 857 H 78.0133 -1.28332 -1.69247 0
M  V30 858 H 80.2763 -0.521716 -0.791528 0
M  V30 859 H 79.9823 -1.41404 -3.22022 0
M  V30 860 H 79.8563 0.249662 -3.76373 0
M  V30 861 H 82.2433 0.682058 -2.8711 0
M  V30 862 H 82.3243 -1.00734 -2.3513 0
M  V30 863 H 81.9683 -1.74522 -4.76974 0
M  V30 864 H 81.8983 -0.0356152 -5.26588 0
M  V30 865 H 84.3893 -0.428985 -3.75457 0
M  V30 866 H 84.7023 -1.49563 -7.58189 0
M  V30 867 H 83.0473 -1.33824 -6.81994 0
M  V30 868 H 86.2383 -0.615001 -4.64042 0
M  V30 869 H 86.4113 -1.10118 -6.38575 0
M  V30 870 N 79.8174 1.5752 -0.0501392 0
M  V30 871 C 80.7274 2.14952 0.939827 0
M  V30 872 C 81.7434 1.10706 1.34239 0
M  V30 873 O 82.9194 1.42869 1.41952 0
M  V30 874 C 79.9844 2.68232 2.19665 0
M  V30 875 C 79.0454 3.87272 1.85253 0
M  V30 876 C 78.2784 4.38002 3.04943 0
M  V30 877 O 78.5014 3.87811 4.18281 0
M  V30 878 O 77.4354 5.29602 2.86017 0
M  V30 879 H 81.2614 2.9986 0.481392 0
M  V30 880 H 78.8464 1.4841 0.171699 0
M  V30 881 H 80.7284 3.02475 2.93406 0
M  V30 882 H 79.4034 1.86395 2.64648 0
M  V30 883 H 78.3104 3.5792 1.0883 0
M  V30 884 H 79.6434 4.70336 1.4507 0
M  V30 885 N 81.2955 -0.223234 1.56011 0
M  V30 886 C 82.5415 -0.944891 1.8012 0
M  V30 887 C 82.8965 -1.82039 0.622862 0
M  V30 888 O 82.1895 -1.8773 -0.383143 0
M  V30 889 C 82.3835 -1.81948 3.0762 0
M  V30 890 C 82.2125 -1.03014 4.37742 0
M  V30 891 C 80.9825 -0.72574 5.00061 0
M  V30 892 C 83.1805 -0.396256 5.12771 0
M  V30 893 N 81.1625 0.0851816 6.13841 0
M  V30 894 C 82.5335 0.278137 6.19376 0
M  V30 895 C 84.5885 -0.309117 4.9694 0
M  V30 896 C 83.2915 1.03133 7.11868 0
M  V30 897 C 85.3175 0.430607 5.8983 0
M  V30 898 C 84.6795 1.09355 6.9586 0
M  V30 899 H 80.7785 -0.326081 0.710771 0
M  V30 900 H 83.3625 -0.215914 1.93499 0
M  V30 901 H 81.5335 -2.52029 2.95527 0
M  V30 902 H 83.2655 -2.47848 3.19927 0
M  V30 903 H 80.0205 -1.04335 4.61964 0
M  V30 904 H 80.4445 0.479428 6.753 0
M  V30 905 H 85.0865 -0.807313 4.15021 0
M  V30 906 H 82.8045 1.54105 7.9327 0
M  V30 907 H 86.3905 0.499012 5.79656 0
M  V30 908 H 85.2705 1.65679 7.66499 0
M  V30 909 N 82.7736 -1.49793 -0.48987 0
M  V30 910 C 84.0206 -1.59841 -1.24327 0
M  V30 911 C 84.3486 -0.290135 -1.92324 0
M  V30 912 O 83.6036 0.722749 -1.81865 0
M  V30 913 C 83.9026 -2.71488 -2.32441 0
M  V30 914 C 83.5686 -4.12614 -1.81826 0
M  V30 915 C 82.2306 -4.51017 -1.67742 0
M  V30 916 C 84.5826 -5.00892 -1.4407 0
M  V30 917 C 81.9106 -5.75459 -1.14297 0
M  V30 918 C 84.2626 -6.25863 -0.920742 0
M  V30 919 C 82.9266 -6.63086 -0.766383 0
M  V30 920 H 82.1966 -0.584899 -0.454944 0
M  V30 921 H 84.8436 -1.83663 -0.542215 0
M  V30 922 H 83.1486 -2.4168 -3.0838 0
M  V30 923 H 84.8456 -2.76469 -2.90458 0
M  V30 924 H 81.4356 -3.82307 -1.93751 0
M  V30 925 H 85.6196 -4.7187 -1.53794 0
M  V30 926 H 80.8756 -6.02989 -1.01068 0
M  V30 927 H 85.0496 -6.9364 -0.619448 0
M  V30 928 H 82.6766 -7.59393 -0.350083 0
M  V30 929 N 84.2517 0.741722 -1.39055 0
M  V30 930 C 85.1617 1.88621 -1.39496 0
M  V30 931 C 86.1777 1.71557 -0.290578 0
M  V30 932 O 87.3537 1.94275 -0.530954 0
M  V30 933 C 84.4187 3.24134 -1.23037 0
M  V30 934 C 83.4797 3.5364 -2.43387 0
M  V30 935 C 82.7127 4.82687 -2.27703 0
M  V30 936 O 82.9357 5.55922 -1.27696 0
M  V30 937 O 81.8697 5.1194 -3.16545 0
M  V30 938 H 85.6957 1.91203 -2.35956 0
M  V30 939 H 83.2807 0.888625 -1.20099 0
M  V30 940 H 85.1627 4.0513 -1.15964 0
M  V30 941 H 83.8377 3.22337 -0.296691 0
M  V30 942 H 82.7447 2.72758 -2.56035 0
M  V30 943 H 84.0777 3.60209 -3.35425 0
M  V30 944 N 85.7298 1.2412 0.971189 0
M  V30 945 C 86.9758 1.08041 1.71625 0
M  V30 946 C 87.3088 -0.380407 1.90438 0
M  V30 947 O 86.5838 -1.28127 1.46334 0
M  V30 948 C 86.8668 1.81682 3.10908 0
M  V30 949 C 86.7198 3.35493 2.99608 0
M  V30 950 C 88.0388 1.58671 4.10501 0
M  V30 951 H 85.1578 0.39388 0.622919 0
M  V30 952 H 87.7998 1.52743 1.13003 0
M  V30 953 H 85.9498 1.43684 3.60953 0
M  V30 954 H 87.6218 3.83068 2.57015 0
M  V30 955 H 85.8648 3.64052 2.35899 0
M  V30 956 H 86.5358 3.82217 3.98264 0
M  V30 957 H 89.0118 1.91719 3.69301 0
M  V30 958 H 87.8878 2.1266 5.06031 0
M  V30 959 H 88.1488 0.524161 4.38982 0
M  V30 960 N 87.2079 -1.17134 1.05439 0
M  V30 961 C 88.4539 -1.87733 0.767077 0
M  V30 962 C 88.7869 -1.8098 -0.704253 0
M  V30 963 O 88.0619 -1.21951 -1.5152 0
M  V30 964 C 88.3449 -3.37659 1.25133 0
M  V30 965 C 88.1979 -3.53149 2.78578 0
M  V30 966 C 89.5169 -4.31768 0.852324 0
M  V30 967 H 86.6359 -0.681687 0.280129 0
M  V30 968 H 89.2779 -1.37732 1.30881 0
M  V30 969 H 87.4279 -3.80373 0.790469 0
M  V30 970 H 89.0999 -3.19434 3.32806 0
M  V30 971 H 87.3429 -2.95345 3.17732 0
M  V30 972 H 88.0139 -4.58403 3.07523 0
M  V30 973 H 90.4899 -3.96909 1.24911 0
M  V30 974 H 89.3659 -5.35199 1.21873 0
M  V30 975 H 89.6269 -4.41429 -0.243485 0
M  V30 976 N 88.686 -0.835752 -1.33615 0
M  V30 977 C 89.596 -0.269088 -2.33052 0
M  V30 978 C 90.612 0.603251 -1.63208 0
M  V30 979 O 91.788 0.508112 -1.94885 0
M  V30 980 C 88.853 0.549091 -3.42324 0
M  V30 981 C 87.914 -0.347156 -4.27894 0
M  V30 982 C 87.147 0.43207 -5.31948 0
M  V30 983 O 87.37 1.66409 -5.45586 0
M  V30 984 O 86.304 -0.192298 -6.01593 0
M  V30 985 H 90.13 -1.09243 -2.83372 0
M  V30 986 H 87.715 -0.598198 -1.36901 0
M  V30 987 H 89.597 1.01414 -4.09015 0
M  V30 988 H 88.272 1.34955 -2.94226 0
M  V30 989 H 87.179 -0.859979 -3.64081 0
M  V30 990 H 88.512 -1.1123 -4.79467 0
M  V30 991 N 90.1641 1.46063 -0.591896 0
M  V30 992 C 91.1111 2.30399 0.136069 0
M  V30 993 C 92.0811 1.41169 0.875238 0
M  V30 994 O 93.2661 1.70112 0.86409 0
M  V30 995 C 90.4061 3.25804 1.13781 0
M  V30 996 C 89.5191 4.30134 0.401137 0
M  V30 997 C 88.6541 5.12659 1.39121 0
M  V30 998 C 87.6931 6.0873 0.641462 0
M  V30 999 N 86.8301 6.8409 1.58004 0
M  V30 1000 H 91.6701 2.92118 -0.589144 0
M  V30 1001 H 89.2071 1.43959 -0.302342 0
M  V30 1002 H 91.1651 3.79569 1.73156 0
M  V30 1003 H 89.7951 2.65872 1.83062 0
M  V30 1004 H 88.8471 3.79152 -0.307826 0
M  V30 1005 H 90.1591 4.98458 -0.184565 0
M  V30 1006 H 89.3131 5.70747 2.05749 0
M  V30 1007 H 88.0521 4.44316 2.01084 0
M  V30 1008 H 87.0571 5.49786 -0.0385419 0
M  V30 1009 H 88.2821 6.79095 0.0270945 0
M  V30 1010 H 86.2281 6.18449 2.18761 0
M  V30 1011 H 86.1451 7.48709 1.04738 0
M  V30 1012 H 87.4131 7.4673 2.23639 0
M  V30 1013 N 91.6422 0.330177 1.54103 0
M  V30 1014 C 93.0582 -0.0222371 1.59585 0
M  V30 1015 C 93.2582 -1.49902 1.34654 0
M  V30 1016 O 92.3142 -2.25592 1.13421 0
M  V30 1017 C 93.6272 0.401932 2.98002 0
M  V30 1018 C 95.1752 0.353145 3.11001 0
M  V30 1019 C 95.6502 0.752576 4.51775 0
M  V30 1020 N 97.1412 0.706239 4.57784 0
M  V30 1021 C 97.8762 0.987417 5.64834 0
M  V30 1022 N 97.3722 1.33607 6.79795 0
M  V30 1023 N 99.1652 0.91254 5.54643 0
M  V30 1024 H 91.3162 1.29228 1.68564 0
M  V30 1025 H 93.5792 0.525906 0.78875 0
M  V30 1026 H 93.2852 1.4311 3.21267 0
M  V30 1027 H 93.1592 -0.229699 3.765 0
M  V30 1028 H 95.5462 -0.666822 2.87467 0
M  V30 1029 H 95.6272 1.0198 2.34593 0
M  V30 1030 H 95.2712 1.77049 4.76042 0
M  V30 1031 H 95.2012 0.0635409 5.26562 0
M  V30 1032 H 97.6922 0.44889 3.75224 0
M  V30 1033 H 98.0052 1.53582 7.57385 0
M  V30 1034 H 96.3502 1.37439 6.81275 0
M  V30 1035 H 99.5412 0.639601 4.6371 0
M  V30 1036 H 99.7142 1.13503 6.37982 0
M  V30 1037 N 93.1203 -1.57491 0.0584922 0
M  V30 1038 C 94.3663 -1.93264 -0.614558 0
M  V30 1039 C 94.6993 -0.937717 -1.7006 0
M  V30 1040 O 93.9743 0.0351652 -1.94468 0
M  V30 1041 C 94.2573 -3.3938 -1.20386 0
M  V30 1042 C 94.1103 -4.49625 -0.125375 0
M  V30 1043 C 95.4293 -3.86039 -2.11334 0
M  V30 1044 H 92.5483 -0.702791 -0.221933 0
M  V30 1045 H 95.1903 -1.8961 0.12175 0
M  V30 1046 H 93.3403 -3.42626 -1.83139 0
M  V30 1047 H 95.0123 -4.58506 0.506971 0
M  V30 1048 H 93.2553 -4.30354 0.545672 0
M  V30 1049 H 93.9263 -5.48967 -0.577861 0
M  V30 1050 H 96.4023 -3.84716 -1.58534 0
M  V30 1051 H 95.2783 -4.88914 -2.49507 0
M  V30 1052 H 95.5393 -3.23215 -3.01636 0
M  V30 1053 N 94.5984 0.214957 -1.56127 0
M  V30 1054 C 95.8454 0.938372 -1.79446 0
M  V30 1055 C 96.1734 1.8407 -0.628378 0
M  V30 1056 O 95.4284 1.91837 0.386925 0
M  V30 1057 C 95.7274 1.80314 -3.0858 0
M  V30 1058 C 95.3934 1.05349 -4.3842 0
M  V30 1059 C 94.0554 0.846435 -4.73697 0
M  V30 1060 C 96.4074 0.524588 -5.18553 0
M  V30 1061 C 93.7354 0.098683 -5.86617 0
M  V30 1062 C 96.0874 -0.209853 -6.32252 0
M  V30 1063 C 94.7514 -0.428102 -6.66126 0
M  V30 1064 H 94.0214 0.343375 -0.656639 0
M  V30 1065 H 96.6684 0.206077 -1.90388 0
M  V30 1066 H 94.9734 2.6035 -2.92789 0
M  V30 1067 H 96.6704 2.36513 -3.23825 0
M  V30 1068 H 93.2604 1.22486 -4.10725 0
M  V30 1069 H 97.4444 0.672008 -4.91729 0
M  V30 1070 H 92.7004 -0.0805753 -6.11347 0
M  V30 1071 H 96.8744 -0.627157 -6.9357 0
M  V30 1072 H 94.5014 -1.00944 -7.53468 0
M  V30 1073 N 96.0765 1.50051 0.48192 0
M  V30 1074 C 97.0265 1.64512 1.5786 0
M  V30 1075 C 98.0105 0.500073 1.52932 0
M  V30 1076 O 99.2025 0.753964 1.60139 0
M  V30 1077 C 96.3315 1.73263 2.9637 0
M  V30 1078 C 95.4175 2.93409 3.06222 0
M  V30 1079 N 95.8085 4.17236 2.85915 0
M  V30 1080 C 94.1065 2.91742 3.37346 0
M  V30 1081 C 94.8075 4.981 3.00451 0
M  V30 1082 N 93.7835 4.3184 3.30174 0
M  V30 1083 H 97.5855 2.57955 1.40842 0
M  V30 1084 H 95.0995 1.47086 0.688439 0
M  V30 1085 H 97.0965 1.81724 3.75209 0
M  V30 1086 H 95.7565 0.809711 3.14442 0
M  V30 1087 H 96.7675 4.46909 2.6171 0
M  V30 1088 H 93.4445 2.08907 3.61475 0
M  V30 1089 H 94.8345 6.06532 2.89082 0
M  V30 1090 N 97.5546 -0.734337 1.39446 0
M  V30 1091 C 98.4646 -1.87879 1.40495 0
M  V30 1092 C 99.4806 -1.714 0.299672 0
M  V30 1093 O 100.657 -1.93991 0.541249 0
M  V30 1094 C 97.7216 -3.23477 1.24754 0
M  V30 1095 C 96.7826 -3.52344 2.45259 0
M  V30 1096 C 96.0156 -4.81473 2.30259 0
M  V30 1097 O 96.2386 -5.55237 1.30643 0
M  V30 1098 O 95.1726 -5.10254 3.19256 0
M  V30 1099 H 98.9986 -1.89949 2.36966 0
M  V30 1100 H 96.5836 -0.882243 1.20569 0
M  V30 1101 H 98.4656 -4.04509 1.18111 0
M  V30 1102 H 97.1406 -3.22176 0.313781 0
M  V30 1103 H 96.0476 -2.71396 2.57478 0
M  V30 1104 H 97.3806 -3.58426 3.37331 0
M  V30 1105 N 99.0327 -1.24633 -0.964593 0
M  V30 1106 C 99.9797 -1.04144 -2.05968 0
M  V30 1107 C 100.95 0.046262 -1.66036 0
M  V30 1108 O 102.135 -0.108972 -1.90489 0
M  V30 1109 C 99.2747 -0.65563 -3.38815 0
M  V30 1110 C 98.3877 -1.81714 -3.91923 0
M  V30 1111 C 97.5227 -1.37662 -5.13052 0
M  V30 1112 C 96.5617 -2.50788 -5.58365 0
M  V30 1113 N 95.6987 -2.07582 -6.70712 0
M  V30 1114 H 100.539 -1.9787 -2.22827 0
M  V30 1115 H 98.0757 -0.9855 -1.09208 0
M  V30 1116 H 100.034 -0.412954 -4.15151 0
M  V30 1117 H 98.6637 0.244627 -3.21872 0
M  V30 1118 H 97.7157 -2.1734 -3.12198 0
M  V30 1119 H 99.0277 -2.66705 -4.21509 0
M  V30 1120 H 98.1817 -1.093 -5.96773 0
M  V30 1121 H 96.9207 -0.497293 -4.85158 0
M  V30 1122 H 95.9257 -2.79906 -4.73215 0
M  V30 1123 H 97.1507 -3.39283 -5.88272 0
M  V30 1124 H 95.0967 -1.22051 -6.44546 0
M  V30 1125 H 95.0137 -2.86125 -6.99763 0
M  V30 1126 H 96.2817 -1.82369 -7.57867 0
M  V30 1127 N 100.511 1.16574 -1.06058 0
M  V30 1128 C 101.757 1.87324 -0.777022 0
M  V30 1129 C 102.09 1.81351 0.694645 0
M  V30 1130 O 101.365 1.22753 1.50871 0
M  V30 1131 C 101.648 3.36991 -1.26922 0
M  V30 1132 C 101.501 3.51667 -2.80447 0
M  V30 1133 C 102.82 4.3131 -0.87521 0
M  V30 1134 H 99.9388 0.680191 -0.28374 0
M  V30 1135 H 102.581 1.37036 -1.3161 0
M  V30 1136 H 100.731 3.79949 -0.81063 0
M  V30 1137 H 102.403 3.17664 -3.34495 0
M  V30 1138 H 100.646 2.93656 -3.19294 0
M  V30 1139 H 101.317 4.56766 -3.0995 0
M  V30 1140 H 103.793 3.9624 -1.27014 0
M  V30 1141 H 102.669 5.34545 -1.2471 0
M  V30 1142 H 102.93 4.41552 0.220071 0
M  V30 1143 N 101.989 0.842826 1.3317 0
M  V30 1144 C 102.919 0.294028 2.31641 0
M  V30 1145 C 103.9 -0.600401 1.59151 0
M  V30 1146 O 105.085 -0.523124 1.87022 0
M  V30 1147 C 102.215 -0.528416 3.43257 0
M  V30 1148 C 101.169 0.27056 4.27144 0
M  V30 1149 C 100.495 -0.675881 5.30411 0
M  V30 1150 C 101.795 1.48981 5.00602 0
M  V30 1151 H 103.489 1.11681 2.77791 0
M  V30 1152 H 101.035 0.538478 1.33553 0
M  V30 1153 H 102.988 -0.922674 4.11175 0
M  V30 1154 H 101.712 -1.38445 2.95805 0
M  V30 1155 H 100.371 0.646427 3.60856 0
M  V30 1156 H 100.019 -1.52842 4.79216 0
M  V30 1157 H 99.7189 -0.145374 5.8742 0
M  V30 1158 H 101.243 -1.06757 6.01195 0
M  V30 1159 H 102.657 1.16849 5.61266 0
M  V30 1160 H 101.054 1.95739 5.6728 0
M  V30 1161 H 102.124 2.25746 4.29147 0
M  V30 1162 N 103.467 -1.45747 0.599634 0
M  V30 1163 C 104.715 -2.01893 0.0915472 0
M  V30 1164 C 105.036 -1.47155 -1.27946 0
M  V30 1165 O 104.306 -0.66273 -1.84349 0
M  V30 1166 H 102.886 -0.746363 0.0308524 0
M  V30 1167 H 105.548 -1.78645 0.779237 0
M  V30 1168 H 104.644 -3.1208 0.0353086 0
M  V30 1169 N 104.945 -0.338344 -1.53925 0
M  V30 1170 C 106.194 0.260732 -2.00008 0
M  V30 1171 C 106.507 1.52073 -1.23017 0
M  V30 1172 O 107.713 2.19672 -1.5955 0
M  V30 1173 C 106.169 0.51515 -3.56194 0
M  V30 1174 C 105.777 -0.728645 -4.42035 0
M  V30 1175 C 107.521 1.07337 -4.10706 0
M  V30 1176 C 105.428 -0.445315 -5.89721 0
M  V30 1177 H 104.358 0.101205 -0.747177 0
M  V30 1178 H 107.009 -0.452866 -1.77824 0
M  V30 1179 H 105.391 1.28932 -3.74423 0
M  V30 1180 H 106.565 -1.50352 -4.35581 0
M  V30 1181 H 104.88 -1.20813 -3.98489 0
M  V30 1182 H 107.477 1.30022 -5.18651 0
M  V30 1183 H 107.82 2.0273 -3.63602 0
M  V30 1184 H 108.353 0.360034 -3.96167 0
M  V30 1185 H 105.092 -1.36883 -6.41049 0
M  V30 1186 H 104.612 0.291569 -5.99091 0
M  V30 1187 H 106.291 -0.0606218 -6.46972 0
M  V30 1188 N 106.423 1.57458 -0.0668435 0
M  V30 1189 C 107.669 1.93587 0.6043 0
M  V30 1190 C 108.002 0.946722 1.69561 0
M  V30 1191 O 107.277 -0.0248516 1.94484 0
M  V30 1192 C 107.56 3.40014 1.18585 0
M  V30 1193 C 107.413 4.49685 0.101529 0
M  V30 1194 C 108.732 3.87154 2.09284 0
M  V30 1195 H 105.851 0.703958 0.218202 0
M  V30 1196 H 108.493 1.89542 -0.131804 0
M  V30 1197 H 106.643 3.43592 1.81319 0
M  V30 1198 H 108.315 4.5823 -0.531279 0
M  V30 1199 H 106.558 4.30059 -0.568487 0
M  V30 1200 H 107.229 5.49266 0.54874 0
M  V30 1201 H 109.705 3.85551 1.56491 0
M  V30 1202 H 108.581 4.90231 2.46911 0
M  V30 1203 H 108.842 3.2481 2.99918 0
M  V30 1204 N 107.901 -0.206675 1.56239 0
M  V30 1205 C 108.811 -1.27686 1.96808 0
M  V30 1206 C 109.827 -1.50455 0.874035 0
M  V30 1207 O 111.003 -1.63295 1.17884 0
M  V30 1208 C 108.068 -2.60358 2.28942 0
M  V30 1209 C 107.129 -2.45762 3.51994 0
M  V30 1210 C 106.362 -3.72108 3.82585 0
M  V30 1211 O 106.585 -4.75776 3.14631 0
M  V30 1212 O 105.519 -3.6833 4.76043 0
M  V30 1213 H 109.345 -0.962593 2.88041 0
M  V30 1214 H 106.93 -0.410746 1.43643 0
M  V30 1215 H 108.812 -3.38687 2.50737 0
M  V30 1216 H 107.487 -2.91435 1.4088 0
M  V30 1217 H 106.394 -1.65584 3.35459 0
M  V30 1218 H 107.727 -2.19621 4.40486 0
M  V30 1219 N 109.379 -1.50304 -0.473955 0
M  V30 1220 C 110.627 -1.60832 -1.22382 0
M  V30 1221 C 110.948 -0.30939 -1.9253 0
M  V30 1222 O 110.218 0.67296 -1.83978 0
M  V30 1223 H 108.798 -0.592652 -0.454723 0
M  V30 1224 H 111.46 -1.87068 -0.546968 0
M  V30 1225 H 110.556 -2.41803 -1.97327 0
M  V30 1226 N 110.857 0.726932 -1.39834 0
M  V30 1227 C 112.105 1.4837 -1.37225 0
M  V30 1228 C 112.426 1.94979 0.0284857 0
M  V30 1229 O 111.696 1.69555 0.981213 0
M  V30 1230 H 110.276 0.55043 -0.505011 0
M  V30 1231 H 112.938 0.862468 -1.74778 0
M  V30 1232 H 112.034 2.36198 -2.04003 0
M  V30 1233 N 112.336 1.25143 0.95797 0
M  V30 1234 C 113.613 1.00472 1.67823 0
M  V30 1235 C 113.993 -0.470056 2.058 0
M  V30 1236 O 113.341 -1.44663 1.76875 0
M  V30 1237 C 113.551 1.9372 2.90299 0
M  V30 1238 C 114.899 2.21371 3.62326 0
M  V30 1239 O 115.923 1.91451 3.00375 0
M  V30 1240 O 114.782 2.72231 4.7387 0
M  V30 1241 H 111.876 0.380752 0.734137 0
M  V30 1242 H 114.422 1.36283 1.01119 0
M  V30 1243 H 113.194 2.93316 2.59001 0
M  V30 1244 H 112.817 1.58286 3.64735 0
M  V30 1245 N 113.814 -1.1601 1.06675 0
M  V30 1246 C 115.042 -1.90527 0.806667 0
M  V30 1247 C 115.457 -1.77643 -0.639396 0
M  V30 1248 O 114.814 -1.12369 -1.43803 0
M  V30 1249 C 114.865 -3.41106 1.19705 0
M  V30 1250 O 114.586 -3.53608 2.58636 0
M  V30 1251 C 116.087 -4.32663 0.965266 0
M  V30 1252 H 113.307 -0.604053 0.292166 0
M  V30 1253 H 115.851 -1.47026 1.4214 0
M  V30 1254 H 114.006 -3.82296 0.626774 0
M  V30 1255 H 114.42 -4.47011 2.74375 0
M  V30 1256 H 115.894 -5.36763 1.288 0
M  V30 1257 H 116.371 -4.39089 -0.0987936 0
M  V30 1258 H 116.977 -3.97206 1.52011 0
M  V30 1259 N 115.292 -0.849877 -1.32721 0
M  V30 1260 C 116.708 -0.539102 -1.50219 0
M  V30 1261 C 116.908 0.931271 -1.78689 0
M  V30 1262 O 115.964 1.71455 -1.85363 0
M  V30 1263 C 117.277 -1.42196 -2.64954 0
M  V30 1264 C 118.825 -1.42189 -2.78839 0
M  V30 1265 C 119.3 -2.28985 -3.96648 0
M  V30 1266 N 120.791 -2.26754 -4.03902 0
M  V30 1267 C 121.526 -2.90644 -4.94281 0
M  V30 1268 N 121.022 -3.63629 -5.897 0
M  V30 1269 N 122.815 -2.80057 -4.87365 0
M  V30 1270 H 114.966 -1.80156 -1.12506 0
M  V30 1271 H 117.229 -0.769217 -0.554085 0
M  V30 1272 H 116.935 -2.46733 -2.50631 0
M  V30 1273 H 116.809 -1.10591 -3.60624 0
M  V30 1274 H 119.196 -0.38419 -2.92588 0
M  V30 1275 H 119.277 -1.77807 -1.83898 0
M  V30 1276 H 118.921 -3.32819 -3.83658 0
M  V30 1277 H 118.851 -1.90702 -4.90857 0
M  V30 1278 H 121.342 -1.73688 -3.3562 0
M  V30 1279 H 121.655 -4.09558 -6.55349 0
M  V30 1280 H 120 -3.67737 -5.89741 0
M  V30 1281 H 123.191 -2.22593 -4.11789 0
M  V30 1282 H 123.364 -3.30132 -5.57599 0
M  V30 1283 N 116.77 1.45427 -0.607355 0
M  V30 1284 C 117.995 2.07124 -0.107006 0
M  V30 1285 C 118.42 1.44906 1.19933 0
M  V30 1286 O 117.778 0.541687 1.73019 0
M  V30 1287 C 117.826 3.60595 0.0194119 0
M  V30 1288 O 116.93 3.98285 1.0697 0
M  V30 1289 H 116.271 0.659868 -0.0739597 0
M  V30 1290 H 118.801 1.86683 -0.837297 0
M  V30 1291 H 118.811 4.07419 0.2177 0
M  V30 1292 H 117.486 4.05266 -0.934453 0
M  V30 1293 H 116.063 3.63133 0.847889 0
M  V30 1294 N 118.248 0.346503 1.53744 0
M  V30 1295 C 119.18 -0.543316 2.22667 0
M  V30 1296 C 120.193 -1.06159 1.23427 0
M  V30 1297 O 121.382 -0.971235 1.49764 0
M  V30 1298 C 118.482 -1.76076 2.89569 0
M  V30 1299 C 117.655 -1.37727 4.15151 0
M  V30 1300 C 116.714 -2.45471 4.65436 0
M  V30 1301 O 115.74 -2.08655 5.29577 0
M  V30 1302 N 116.942 -3.7677 4.41616 0
M  V30 1303 H 119.707 0.0469703 2.99663 0
M  V30 1304 H 117.268 0.170766 1.60997 0
M  V30 1305 H 119.26 -2.47593 3.20125 0
M  V30 1306 H 117.83 -2.25835 2.16142 0
M  V30 1307 H 117.05 -0.492746 3.91108 0
M  V30 1308 H 118.338 -1.09708 4.96832 0
M  V30 1309 H 117.736 -4.09467 3.90325 0
M  V30 1310 H 116.293 -4.44448 4.7677 0
M  V30 1311 N 119.726 -1.57421 0.075193 0
M  V30 1312 C 120.951 -1.98364 -0.605515 0
M  V30 1313 C 121.376 -0.953383 -1.62149 0
M  V30 1314 O 120.734 0.0806053 -1.81121 0
M  V30 1315 C 120.782 -3.38332 -1.24756 0
M  V30 1316 O 119.886 -3.37959 -2.36342 0
M  V30 1317 H 119.227 -0.645553 -0.155428 0
M  V30 1318 H 121.757 -2.04044 0.150714 0
M  V30 1319 H 121.767 -3.75591 -1.5936 0
M  V30 1320 H 120.442 -4.12846 -0.503129 0
M  V30 1321 H 119.019 -3.12474 -2.03506 0
M  V30 1322 N 121.204 0.198386 -1.56346 0
M  V30 1323 C 122.45 0.920648 -1.80698 0
M  V30 1324 C 122.783 1.83045 -0.648697 0
M  V30 1325 O 122.058 1.91308 0.350925 0
M  V30 1326 C 122.341 1.73971 -3.15287 0
M  V30 1327 C 122.194 0.85485 -4.41602 0
M  V30 1328 C 123.513 2.71296 -3.46535 0
M  V30 1329 H 120.632 0.333261 -0.657348 0
M  V30 1330 H 123.274 0.188198 -1.89066 0
M  V30 1331 H 121.424 2.36416 -3.08285 0
M  V30 1332 H 123.096 0.245362 -4.60647 0
M  V30 1333 H 121.339 0.161398 -4.335 0
M  V30 1334 H 122.01 1.46286 -5.32264 0
M  V30 1335 H 124.486 2.18983 -3.53816 0
M  V30 1336 H 123.362 3.2569 -4.41834 0
M  V30 1337 H 123.623 3.5018 -2.69864 0
M  V30 1338 N 122.682 1.50554 0.465978 0
M  V30 1339 C 124.098 1.38093 0.800154 0
M  V30 1340 C 124.298 0.440988 1.96615 0
M  V30 1341 O 123.354 -0.114499 2.5224 0
M  V30 1342 C 124.667 2.79565 1.10742 0
M  V30 1343 C 126.215 2.88516 1.21357 0
M  V30 1344 C 126.69 4.30833 1.55393 0
M  V30 1345 N 128.181 4.33807 1.62375 0
M  V30 1346 C 128.916 5.40927 1.90225 0
M  V30 1347 N 128.412 6.58247 2.16062 0
M  V30 1348 N 130.205 5.28376 1.9177 0
M  V30 1349 H 122.356 2.10237 -0.302366 0
M  V30 1350 H 124.619 0.945203 -0.0727746 0
M  V30 1351 H 124.325 3.50208 0.323661 0
M  V30 1352 H 124.199 3.17125 2.04234 0
M  V30 1353 H 126.586 2.1809 1.98799 0
M  V30 1354 H 126.667 2.54492 0.258321 0
M  V30 1355 H 126.311 5.01799 0.784889 0
M  V30 1356 H 126.241 4.62347 2.52076 0
M  V30 1357 H 128.732 3.49212 1.44427 0
M  V30 1358 H 129.045 7.3569 2.36601 0
M  V30 1359 H 127.39 6.61413 2.13444 0
M  V30 1360 H 130.581 4.35715 1.71085 0
M  V30 1361 H 130.754 6.11944 2.13139 0
M  V30 1362 N 124.16 -0.719506 1.40217 0
M  V30 1363 C 125.385 -1.51371 1.4178 0
M  V30 1364 C 125.81 -1.88091 0.0182355 0
M  V30 1365 O 125.168 -1.52997 -0.972707 0
M  V30 1366 C 125.216 -2.768 2.31115 0
M  V30 1367 O 124.32 -3.73349 1.7517 0
M  V30 1368 H 123.661 -0.456529 0.482159 0
M  V30 1369 H 126.191 -0.88644 1.844 0
M  V30 1370 H 126.201 -3.25371 2.46167 0
M  V30 1371 H 124.876 -2.49407 3.3282 0
M  V30 1372 H 123.453 -3.32179 1.69444 0
M  V30 1373 N 125.638 -1.25649 -0.95132 0
M  V30 1374 C 126.601 -1.06399 -2.03007 0
M  V30 1375 C 127.601 -0.0156794 -1.60792 0
M  V30 1376 O 128.791 -0.25817 -1.72276 0
M  V30 1377 C 125.923 -0.616184 -3.35285 0
M  V30 1378 H 127.116 -2.02164 -2.21517 0
M  V30 1379 H 124.669 -1.08103 -1.12887 0
M  V30 1380 H 125.404 0.343917 -3.22471 0
M  V30 1381 H 125.189 -1.37301 -3.67275 0
M  V30 1382 H 126.679 -0.503032 -4.14559 0
M  V30 1383 N 127.117 1.15442 -1.07289 0
M  V30 1384 C 128.047 2.22312 -0.714107 0
M  V30 1385 C 129.028 1.67467 0.298155 0
M  V30 1386 O 130.213 1.93445 0.171048 0
M  V30 1387 C 127.343 3.47124 -0.110448 0
M  V30 1388 C 126.297 4.14926 -1.04979 0
M  V30 1389 C 125.623 5.33807 -0.308924 0
M  V30 1390 C 126.923 4.64762 -2.38314 0
M  V30 1391 H 128.617 2.5258 -1.6076 0
M  V30 1392 H 126.163 1.21404 -0.77441 0
M  V30 1393 H 128.116 4.21124 0.152482 0
M  V30 1394 H 126.84 3.16187 0.81812 0
M  V30 1395 H 125.499 3.42866 -1.29764 0
M  V30 1396 H 125.147 4.99126 0.623084 0
M  V30 1397 H 124.847 5.80113 -0.935036 0
M  V30 1398 H 126.371 6.10576 -0.0537771 0
M  V30 1399 H 127.785 5.30292 -2.1786 0
M  V30 1400 H 126.182 5.21728 -2.96514 0
M  V30 1401 H 127.252 3.80434 -3.00663 0
M  V30 1402 N 128.595 0.856903 1.32268 0
M  V30 1403 C 129.505 0.306131 2.32594 0
M  V30 1404 C 130.521 -0.577209 1.64147 0
M  V30 1405 O 131.697 -0.477043 1.95669 0
M  V30 1406 C 128.762 -0.494561 3.43154 0
M  V30 1407 C 127.823 0.415186 4.27288 0
M  V30 1408 C 127.056 -0.347387 5.32568 0
M  V30 1409 O 127.279 -1.57708 5.48165 0
M  V30 1410 O 126.213 0.287982 6.01211 0
M  V30 1411 H 130.039 1.13737 2.81598 0
M  V30 1412 H 127.624 0.619902 1.35932 0
M  V30 1413 H 129.506 -0.948944 4.10576 0
M  V30 1414 H 128.181 -1.30257 2.96336 0
M  V30 1415 H 127.088 0.917793 3.62667 0
M  V30 1416 H 128.421 1.18844 4.77637 0
M  V30 1417 N 130.073 -1.45103 0.615059 0
M  V30 1418 C 131.32 -2.02183 0.113179 0
M  V30 1419 C 131.648 -1.48249 -1.25906 0
M  V30 1420 O 130.903 -0.650265 -1.84581 0
M  V30 1421 C 131.202 -3.57386 0.0318797 0
M  V30 1422 C 130.868 -4.30505 1.34077 0
M  V30 1423 C 129.53 -4.50197 1.69929 0
M  V30 1424 C 131.882 -4.72238 2.20546 0
M  V30 1425 C 129.21 -5.08881 2.91988 0
M  V30 1426 C 131.562 -5.32272 3.41861 0
M  V30 1427 C 130.226 -5.50187 3.77956 0
M  V30 1428 H 129.496 -0.739842 0.0414151 0
M  V30 1429 H 132.143 -1.74073 0.798168 0
M  V30 1430 H 130.448 -3.84817 -0.736409 0
M  V30 1431 H 132.145 -3.99264 -0.372712 0
M  V30 1432 H 128.735 -4.15496 1.05173 0
M  V30 1433 H 132.919 -4.56751 1.94146 0
M  V30 1434 H 128.175 -5.20939 3.2005 0
M  V30 1435 H 132.349 -5.63563 4.09109 0
M  V30 1436 H 129.976 -5.95427 4.72622 0
M  V30 1437 N 131.551 -0.354651 -1.53558 0
M  V30 1438 C 132.481 0.489091 -2.2832 0
M  V30 1439 C 133.462 1.09324 -1.30316 0
M  V30 1440 O 134.647 1.11255 -1.59173 0
M  V30 1441 C 131.777 1.63456 -3.0643 0
M  V30 1442 C 130.731 1.1582 -4.12031 0
M  V30 1443 C 130.057 2.39305 -4.7816 0
M  V30 1444 C 131.357 0.250731 -5.21698 0
M  V30 1445 H 133.051 -0.134614 -2.99097 0
M  V30 1446 H 130.597 -0.0661826 -1.43848 0
M  V30 1447 H 132.55 2.23136 -3.57475 0
M  V30 1448 H 131.274 2.28533 -2.33325 0
M  V30 1449 H 129.933 0.584146 -3.61916 0
M  V30 1450 H 129.581 3.02814 -4.01637 0
M  V30 1451 H 129.281 2.08109 -5.49513 0
M  V30 1452 H 130.805 2.99691 -5.31994 0
M  V30 1453 H 132.219 0.754695 -5.68311 0
M  V30 1454 H 130.616 0.0301468 -6.00092 0
M  V30 1455 H 131.686 -0.710125 -4.79672 0
M  V30 1456 N 133.029 1.57378 -0.0835403 0
M  V30 1457 C 133.939 2.16897 0.894021 0
M  V30 1458 C 134.955 1.13528 1.31861 0
M  V30 1459 O 136.131 1.45848 1.3889 0
M  V30 1460 C 133.196 2.72831 2.13925 0
M  V30 1461 C 132.257 3.91115 1.76997 0
M  V30 1462 C 131.49 4.44371 2.95584 0
M  V30 1463 O 131.713 3.96596 4.09961 0
M  V30 1464 O 130.647 5.35549 2.74719 0
M  V30 1465 H 134.473 3.00814 0.417679 0
M  V30 1466 H 132.058 1.48741 0.140181 0
M  V30 1467 H 133.94 3.0863 2.86924 0
M  V30 1468 H 132.615 1.91967 2.60635 0
M  V30 1469 H 131.522 3.60148 1.01214 0
M  V30 1470 H 132.855 4.73307 1.3506 0
M  V30 1471 N 134.507 -0.190092 1.56449 0
M  V30 1472 C 135.454 -1.23557 1.94942 0
M  V30 1473 C 136.424 -1.44972 0.810696 0
M  V30 1474 O 137.609 -1.58023 1.06927 0
M  V30 1475 C 134.749 -2.57416 2.2985 0
M  V30 1476 C 133.862 -2.43537 3.5681 0
M  V30 1477 C 132.997 -3.70134 3.81017 0
M  V30 1478 C 132.036 -3.51109 5.01387 0
M  V30 1479 N 131.173 -4.6973 5.21822 0
M  V30 1480 H 136.013 -0.900304 2.84075 0
M  V30 1481 H 133.55 -0.43318 1.40577 0
M  V30 1482 H 135.508 -3.35409 2.48106 0
M  V30 1483 H 134.138 -2.88975 1.43852 0
M  V30 1484 H 133.19 -1.56816 3.46573 0
M  V30 1485 H 134.502 -2.25415 4.4496 0
M  V30 1486 H 133.656 -4.56566 3.9954 0
M  V30 1487 H 132.395 -3.91215 2.91207 0
M  V30 1488 H 131.4 -2.63063 4.82782 0
M  V30 1489 H 132.625 -3.31468 5.9271 0
M  V30 1490 H 130.571 -4.91065 4.34961 0
M  V30 1491 H 130.488 -4.54452 6.0416 0
M  V30 1492 H 131.756 -5.57499 5.44808 0
M  V30 1493 N 135.985 -1.50799 -0.457987 0
M  V30 1494 C 137.232 -1.62442 -1.20908 0
M  V30 1495 C 137.56 -0.330865 -1.91665 0
M  V30 1496 O 136.815 0.68401 -1.83357 0
M  V30 1497 C 137.114 -2.76358 -2.2663 0
M  V30 1498 C 136.78 -4.16378 -1.73033 0
M  V30 1499 C 135.442 -4.54473 -1.58138 0
M  V30 1500 C 137.794 -5.03836 -1.33413 0
M  V30 1501 C 135.122 -5.77754 -1.02065 0
M  V30 1502 C 137.474 -6.27676 -0.78778 0
M  V30 1503 C 136.138 -6.64562 -0.625561 0
M  V30 1504 H 135.408 -0.594417 -0.442435 0
M  V30 1505 H 138.055 -1.84772 -0.503136 0
M  V30 1506 H 136.36 -2.48167 -3.03184 0
M  V30 1507 H 138.057 -2.82568 -2.84528 0
M  V30 1508 H 134.647 -3.86331 -1.85598 0
M  V30 1509 H 138.831 -4.75026 -1.4375 0
M  V30 1510 H 134.087 -6.04997 -0.882547 0
M  V30 1511 H 138.261 -6.94797 -0.472177 0
M  V30 1512 H 135.888 -7.59965 -0.188926 0
M  V30 1513 N 137.463 0.71206 -1.40597 0
M  V30 1514 C 138.688 1.50617 -1.42581 0
M  V30 1515 C 139.113 1.88079 -0.0282102 0
M  V30 1516 O 138.471 1.53511 0.964579 0
M  V30 1517 C 138.519 2.7557 -2.3258 0
M  V30 1518 O 137.623 3.72414 -1.77148 0
M  V30 1519 H 136.964 0.453966 -0.484573 0
M  V30 1520 H 139.494 0.876649 -1.84868 0
M  V30 1521 H 139.504 3.2406 -2.47889 0
M  V30 1522 H 138.179 2.47639 -3.34138 0
M  V30 1523 H 136.756 3.31276 -1.71204 0
M  V30 1524 N 138.941 1.26152 0.944643 0
M  V30 1525 C 140.352 1.10454 1.50522 0
M  V30 1526 C 140.703 -0.31635 1.93633 0
M  V30 1527 O 139.828 -1.20746 1.79581 0
M  V30 1528 C 140.423 1.99891 2.73549 0
M  V30 1529 C 138.982 1.88348 3.25886 0
M  V30 1530 C 138.129 1.93447 1.9868 0
M  V30 1531 H 141.08 1.39292 0.760489 0
M  V30 1532 H 141.101 1.54477 3.47732 0
M  V30 1533 H 140.613 3.03297 2.42141 0
M  V30 1534 H 138.714 0.878636 3.62092 0
M  V30 1535 H 138.827 2.73696 3.93227 0
M  V30 1536 H 137.191 1.37456 2.14425 0
M  V30 1537 H 137.974 2.98476 1.69607 0
M  V30 1538 N 140.419 -1.14872 1.07899 0
M  V30 1539 C 141.644 -1.90202 0.826926 0
M  V30 1540 C 142.069 -1.77774 -0.614664 0
M  V30 1541 O 141.427 -1.11431 -1.43013 0
M  V30 1542 C 141.475 -3.38352 1.24702 0
M  V30 1543 O 140.579 -4.10497 0.39575 0
M  V30 1544 H 139.92 -0.591968 0.300782 0
M  V30 1545 H 142.45 -1.45437 1.43907 0
M  V30 1546 H 142.46 -3.89156 1.22563 0
M  V30 1547 H 141.135 -3.46715 2.29698 0
M  V30 1548 H 139.712 -3.69796 0.480117 0
M  V30 1549 N 141.898 -0.863906 -1.31812 0
M  V30 1550 C 143.128 -0.485406 -2.00817 0
M  V30 1551 C 143.536 0.925007 -1.65046 0
M  V30 1552 O 142.879 1.61653 -0.872574 0
M  V30 1553 C 142.941 -0.555589 -3.55181 0
M  V30 1554 C 142.605 -1.92654 -4.14407 0
M  V30 1555 C 143.602 -2.89324 -4.31958 0
M  V30 1556 C 141.287 -2.2262 -4.50273 0
M  V30 1557 C 143.281 -4.14108 -4.84555 0
M  V30 1558 C 140.968 -3.47654 -5.02573 0
M  V30 1559 C 141.966 -4.43214 -5.19664 0
M  V30 1560 O 141.654 -5.66033 -5.70843 0
M  V30 1561 H 141.386 -0.188224 -0.649267 0
M  V30 1562 H 143.94 -1.16514 -1.69156 0
M  V30 1563 H 142.17 0.181037 -3.86276 0
M  V30 1564 H 143.859 -0.19138 -4.05449 0
M  V30 1565 H 144.625 -2.6748 -4.04573 0
M  V30 1566 H 140.504 -1.4902 -4.3625 0
M  V30 1567 H 144.048 -4.88703 -4.9781 0
M  V30 1568 H 139.945 -3.69345 -5.29391 0
M  V30 1569 H 140.713 -5.6812 -5.89222 0
M  V30 1570 N 143.376 1.44774 -0.622745 0
M  V30 1571 C 144.622 2.0242 -0.124083 0
M  V30 1572 C 144.955 1.4881 1.24777 0
M  V30 1573 O 144.23 0.668799 1.8264 0
M  V30 1574 C 144.513 3.59957 -0.101619 0
M  V30 1575 C 144.366 4.23867 -1.50521 0
M  V30 1576 C 145.685 4.36284 0.578272 0
M  V30 1577 H 142.804 0.735528 -0.0465645 0
M  V30 1578 H 145.446 1.72447 -0.797617 0
M  V30 1579 H 143.596 3.85623 0.471934 0
M  V30 1580 H 145.268 4.09336 -2.12701 0
M  V30 1581 H 143.511 3.81684 -2.06154 0
M  V30 1582 H 144.182 5.32843 -1.4416 0
M  V30 1583 H 146.658 4.16001 0.0906057 0
M  V30 1584 H 145.534 5.46004 0.563149 0
M  V30 1585 H 145.795 4.10271 1.64713 0
M  V30 1586 N 144.854 0.36279 1.53368 0
M  V30 1587 C 145.784 -0.476976 2.28576 0
M  V30 1588 C 146.765 -1.08631 1.30894 0
M  V30 1589 O 147.95 -1.10409 1.59761 0
M  V30 1590 C 145.08 -1.61828 3.07293 0
M  V30 1591 C 144.034 -1.13633 4.1264 0
M  V30 1592 C 143.36 -2.36766 4.79423 0
M  V30 1593 C 144.66 -0.223061 5.21823 0
M  V30 1594 H 146.354 0.150474 2.99022 0
M  V30 1595 H 143.9 0.0738103 1.43811 0
M  V30 1596 H 145.853 -2.21237 3.58653 0
M  V30 1597 H 144.577 -2.27292 2.34533 0
M  V30 1598 H 143.236 -0.564945 3.62221 0
M  V30 1599 H 142.884 -3.0068 4.03238 0
M  V30 1600 H 142.584 -2.05192 5.50609 0
M  V30 1601 H 144.108 -2.96865 5.33576 0
M  V30 1602 H 145.522 -0.724545 5.68703 0
M  V30 1603 H 143.919 0.001678 6.001 0
M  V30 1604 H 144.989 0.735553 4.79289 0
M  V30 1605 N 146.332 -1.57332 0.0918853 0
M  V30 1606 C 147.578 -1.94524 -0.573425 0
M  V30 1607 C 147.911 -0.973578 -1.68033 0
M  V30 1608 O 147.186 -0.00609226 -1.94499 0
M  V30 1609 C 147.469 -3.41858 -1.13161 0
M  V30 1610 C 147.322 -4.4979 -0.0299747 0
M  V30 1611 C 148.641 -3.90435 -2.03098 0
M  V30 1612 H 145.76 -0.70734 -0.206975 0
M  V30 1613 H 148.402 -1.89309 0.161942 0
M  V30 1614 H 146.552 -3.46433 -1.7583 0
M  V30 1615 H 148.224 -4.57327 0.604112 0
M  V30 1616 H 146.467 -4.291 0.636833 0
M  V30 1617 H 147.138 -5.50069 -0.461287 0
M  V30 1618 H 149.614 -3.87992 -1.50338 0
M  V30 1619 H 148.49 -4.94097 -2.39081 0
M  V30 1620 H 148.751 -3.29541 -2.94712 0
M  V30 1621 N 147.81 0.181792 -1.56548 0
M  V30 1622 C 148.76 1.22961 -1.92002 0
M  V30 1623 C 149.744 1.40331 -0.787146 0
M  V30 1624 O 150.936 1.42478 -1.05019 0
M  V30 1625 C 148.065 2.57144 -2.27446 0
M  V30 1626 C 147.151 2.43512 -3.47222 0
M  V30 1627 N 147.542 1.99577 -4.64761 0
M  V30 1628 C 145.84 2.74368 -3.51622 0
M  V30 1629 C 146.541 1.98156 -5.46909 0
M  V30 1630 N 145.517 2.40164 -4.8767 0
M  V30 1631 H 149.319 0.881462 -2.8037 0
M  V30 1632 H 146.833 0.390141 -1.57644 0
M  V30 1633 H 148.83 3.32847 -2.51035 0
M  V30 1634 H 147.49 2.92771 -1.40411 0
M  V30 1635 H 148.501 1.70078 -4.89177 0
M  V30 1636 H 145.178 3.14102 -2.75038 0
M  V30 1637 H 146.568 1.65975 -6.51077 0
M  V30 1638 N 149.288 1.51039 0.449983 0
M  V30 1639 C 150.565 1.53612 1.21089 0
M  V30 1640 C 150.945 0.292997 2.09057 0
M  V30 1641 O 150.293 -0.72259 2.16774 0
M  V30 1642 C 150.503 2.84337 2.0237 0
M  V30 1643 C 151.851 3.35807 2.59843 0
M  V30 1644 O 152.875 2.85802 2.12593 0
M  V30 1645 O 151.734 4.23029 3.45989 0
M  V30 1646 H 148.828 0.617057 0.550608 0
M  V30 1647 H 151.374 1.63344 0.460082 0
M  V30 1648 H 150.146 3.66278 1.37681 0
M  V30 1649 H 149.769 2.77708 2.84542 0
M  V30 1650 N 150.766 -0.704594 1.40972 0
M  V30 1651 C 151.991 -1.49858 1.43378 0
M  V30 1652 C 152.416 -1.88061 0.038184 0
M  V30 1653 O 151.774 -1.5402 -0.956425 0
M  V30 1654 C 151.822 -2.74333 2.34038 0
M  V30 1655 O 150.926 -3.7147 1.7912 0
M  V30 1656 H 150.267 -0.45139 0.486974 0
M  V30 1657 H 152.797 -0.866832 1.8533 0
M  V30 1658 H 152.807 -3.22741 2.49604 0
M  V30 1659 H 151.482 -2.45863 3.35446 0
M  V30 1660 H 150.059 -3.30363 1.72958 0
M  V30 1661 N 152.244 -1.26651 -0.937939 0
M  V30 1662 C 153.207 -1.08546 -2.01867 0
M  V30 1663 C 154.207 -0.0327327 -1.60767 0
M  V30 1664 O 155.397 -0.276427 -1.71993 0
M  V30 1665 C 152.529 -0.651711 -3.34613 0
M  V30 1666 H 153.722 -2.04502 -2.1936 0
M  V30 1667 H 151.275 -1.09294 -1.11734 0
M  V30 1668 H 152.01 0.309696 -3.22818 0
M  V30 1669 H 151.795 -1.41189 -3.65798 0
M  V30 1670 H 153.285 -0.546973 -4.14002 0
M  V30 1671 N 153.722 1.14298 -1.08507 0
M  V30 1672 C 155.138 1.37347 -0.812901 0
M  V30 1673 C 155.338 1.93052 0.577325 0
M  V30 1674 O 154.394 2.14389 1.33393 0
M  V30 1675 C 155.707 2.33359 -1.89642 0
M  V30 1676 C 157.255 2.46996 -1.92255 0
M  V30 1677 C 157.73 3.46309 -2.99724 0
M  V30 1678 N 159.221 3.53853 -2.98902 0
M  V30 1679 C 159.956 4.3055 -3.787 0
M  V30 1680 N 159.452 5.10482 -4.6838 0
M  V30 1681 N 161.245 4.25757 -3.66998 0
M  V30 1682 H 153.396 0.764867 -1.9815 0
M  V30 1683 H 155.659 0.398966 -0.859959 0
M  V30 1684 H 155.365 1.99565 -2.89597 0
M  V30 1685 H 155.239 3.33274 -1.76659 0
M  V30 1686 H 157.626 2.80081 -0.929445 0
M  V30 1687 H 157.707 1.47039 -2.09316 0
M  V30 1688 H 157.351 3.13957 -3.99241 0
M  V30 1689 H 157.281 4.46049 -2.79907 0
M  V30 1690 H 159.772 2.96812 -2.33904 0
M  V30 1691 H 160.085 5.66284 -5.25873 0
M  V30 1692 H 158.43 5.09747 -4.72422 0
M  V30 1693 H 161.621 3.62383 -2.96304 0
M  V30 1694 H 161.794 4.85279 -4.29427 0
M  V30 1695 N 155.201 0.870884 1.31352 0
M  V30 1696 C 156.612 0.534714 1.78879 0
M  V30 1697 C 156.963 -0.948423 1.71754 0
M  V30 1698 O 156.088 -1.74055 1.28584 0
M  V30 1699 C 156.683 0.963839 3.24801 0
M  V30 1700 C 155.242 0.679311 3.70219 0
M  V30 1701 C 154.389 1.15465 2.52117 0
M  V30 1702 H 157.34 1.05651 1.18421 0
M  V30 1703 H 157.361 0.286892 3.79417 0
M  V30 1704 H 156.873 2.04332 3.29955 0
M  V30 1705 H 154.974 -0.388769 3.70566 0
M  V30 1706 H 155.087 1.25698 4.62317 0
M  V30 1707 H 153.451 0.574383 2.48139 0
M  V30 1708 H 154.234 2.24157 2.60016 0
M  V30 1709 N 156.679 -1.44442 0.630414 0
M  V30 1710 C 157.926 -2.02052 0.134617 0
M  V30 1711 C 158.254 -1.49576 -1.24327 0
M  V30 1712 O 157.509 -0.669806 -1.83881 0
M  V30 1713 C 157.808 -3.57332 0.0697835 0
M  V30 1714 C 157.474 -4.29058 1.38635 0
M  V30 1715 C 156.136 -4.4837 1.74694 0
M  V30 1716 C 158.488 -4.69872 2.25543 0
M  V30 1717 C 155.816 -5.05756 2.97369 0
M  V30 1718 C 158.168 -5.28616 3.47487 0
M  V30 1719 C 156.832 -5.46147 3.8377 0
M  V30 1720 H 156.102 -0.739361 0.0492598 0
M  V30 1721 H 158.749 -1.73217 0.816586 0
M  V30 1722 H 157.054 -3.85577 -0.695553 0
M  V30 1723 H 158.751 -3.99637 -0.330344 0
M  V30 1724 H 155.341 -4.14357 1.09574 0
M  V30 1725 H 159.525 -4.54666 1.98979 0
M  V30 1726 H 154.781 -5.17515 3.25558 0
M  V30 1727 H 158.955 -5.59192 4.15063 0
M  V30 1728 H 156.582 -5.9038 4.7891 0
M  V30 1729 N 158.157 -0.370918 -1.53173 0
M  V30 1730 C 159.087 0.464847 -2.28826 0
M  V30 1731 C 160.068 1.07936 -1.31468 0
M  V30 1732 O 161.253 1.0956 -1.60344 0
M  V30 1733 C 158.383 1.60196 -3.08147 0
M  V30 1734 C 157.337 1.11443 -4.13237 0
M  V30 1735 C 156.663 2.3422 -4.80672 0
M  V30 1736 C 157.963 0.195384 -5.21934 0
M  V30 1737 H 159.657 -0.166329 -2.98938 0
M  V30 1738 H 157.203 -0.0814359 -1.4377 0
M  V30 1739 H 159.156 2.19332 -3.59822 0
M  V30 1740 H 157.88 2.26045 -2.35735 0
M  V30 1741 H 156.539 0.545727 -3.62515 0
M  V30 1742 H 156.187 2.98537 -4.04827 0
M  V30 1743 H 155.887 2.02269 -5.51689 0
M  V30 1744 H 157.411 2.94032 -5.35143 0
M  V30 1745 H 158.825 0.694375 -5.69079 0
M  V30 1746 H 157.222 -0.0335027 -6.00091 0
M  V30 1747 H 158.292 -0.760961 -4.78892 0
M  V30 1748 N 159.635 1.57281 -0.100228 0
M  V30 1749 C 161.051 1.57527 0.256416 0
M  V30 1750 C 161.251 1.11173 1.68056 0
M  V30 1751 O 160.307 0.79053 2.39806 0
M  V30 1752 C 161.62 3.00673 0.0401747 0
M  V30 1753 C 163.168 3.12815 0.107528 0
M  V30 1754 C 163.643 4.57929 -0.0807834 0
M  V30 1755 N 165.134 4.63193 -0.0261207 0
M  V30 1756 C 165.869 5.73212 -0.146999 0
M  V30 1757 N 165.365 6.92047 -0.322999 0
M  V30 1758 N 167.158 5.62031 -0.0879044 0
M  V30 1759 H 159.309 1.85718 -1.03065 0
M  V30 1760 H 161.572 0.857446 -0.404339 0
M  V30 1761 H 161.278 3.38804 -0.943649 0
M  V30 1762 H 161.152 3.69042 0.780262 0
M  V30 1763 H 163.539 2.74554 1.08186 0
M  V30 1764 H 163.62 2.47028 -0.664134 0
M  V30 1765 H 163.264 4.96886 -1.05201 0
M  V30 1766 H 163.194 5.21783 0.710635 0
M  V30 1767 H 165.685 3.77748 0.107161 0
M  V30 1768 H 165.998 7.7173 -0.406608 0
M  V30 1769 H 164.343 6.94074 -0.358733 0
M  V30 1770 H 167.534 4.68075 0.048498 0
M  V30 1771 H 167.707 6.47734 -0.185557 0
M  V30 1772 N 161.113 -0.173488 1.56642 0
M  V30 1773 C 162.06 -1.21482 1.96242 0
M  V30 1774 C 163.03 -1.44104 0.826027 0
M  V30 1775 O 164.215 -1.5688 1.08597 0
M  V30 1776 C 161.355 -2.54964 2.32567 0
M  V30 1777 C 160.468 -2.39739 3.59373 0
M  V30 1778 C 159.603 -3.66072 3.84921 0
M  V30 1779 C 158.642 -3.45771 5.05083 0
M  V30 1780 N 157.779 -4.64169 5.26775 0
M  V30 1781 H 162.619 -0.870123 2.85014 0
M  V30 1782 H 160.156 -0.418245 1.41029 0
M  V30 1783 H 162.114 -3.32758 2.5165 0
M  V30 1784 H 160.744 -2.87433 1.46908 0
M  V30 1785 H 159.796 -1.53131 3.48217 0
M  V30 1786 H 161.108 -2.20683 4.47326 0
M  V30 1787 H 160.262 -4.52303 4.0436 0
M  V30 1788 H 159.001 -3.88105 2.9534 0
M  V30 1789 H 158.006 -2.57927 4.85545 0
M  V30 1790 H 159.231 -3.25163 5.96193 0
M  V30 1791 H 157.177 -4.86425 4.40144 0
M  V30 1792 H 157.094 -4.48019 6.08946 0
M  V30 1793 H 158.362 -5.51689 5.5069 0
M  V30 1794 N 162.591 -1.51276 -0.441967 0
M  V30 1795 C 163.538 -1.72256 -1.53612 0
M  V30 1796 C 164.508 -0.564164 -1.56225 0
M  V30 1797 O 165.693 -0.798074 -1.73307 0
M  V30 1798 C 162.833 -1.84932 -2.91366 0
M  V30 1799 C 161.946 -3.12459 -2.98317 0
M  V30 1800 C 161.081 -3.15758 -4.27166 0
M  V30 1801 C 160.12 -4.37619 -4.27967 0
M  V30 1802 N 159.257 -4.38493 -5.48333 0
M  V30 1803 H 164.097 -2.65654 -1.35026 0
M  V30 1804 H 161.634 -1.31662 -0.656009 0
M  V30 1805 H 163.592 -1.90263 -3.7129 0
M  V30 1806 H 162.222 -0.949461 -3.08521 0
M  V30 1807 H 161.274 -3.1646 -2.11086 0
M  V30 1808 H 162.586 -4.02382 -2.94771 0
M  V30 1809 H 161.74 -3.19979 -5.15459 0
M  V30 1810 H 160.479 -2.23715 -4.33362 0
M  V30 1811 H 159.484 -4.33579 -3.38067 0
M  V30 1812 H 160.709 -5.30921 -4.23438 0
M  V30 1813 H 158.655 -3.49318 -5.55259 0
M  V30 1814 H 158.572 -5.22219 -5.46647 0
M  V30 1815 H 159.84 -4.469 -6.38671 0
M  V30 1816 N 164.069 0.697108 -1.41344 0
M  V30 1817 C 165.019 1.80313 -1.39539 0
M  V30 1818 C 166.003 1.58618 -0.270001 0
M  V30 1819 O 167.195 1.69477 -0.510551 0
M  V30 1820 C 164.324 3.18606 -1.27848 0
M  V30 1821 C 163.41 3.46001 -2.45244 0
M  V30 1822 N 163.801 3.44103 -3.70711 0
M  V30 1823 C 162.099 3.76542 -2.39023 0
M  V30 1824 C 162.8 3.7036 -4.48563 0
M  V30 1825 N 161.776 3.90027 -3.78655 0
M  V30 1826 H 165.578 1.77207 -2.34468 0
M  V30 1827 H 163.092 0.897031 -1.35378 0
M  V30 1828 H 165.089 3.97833 -1.24637 0
M  V30 1829 H 163.749 3.22925 -0.339032 0
M  V30 1830 H 164.76 3.2452 -4.03618 0
M  V30 1831 H 161.437 3.88241 -1.53542 0
M  V30 1832 H 162.827 3.75042 -5.57488 0
M  V30 1833 N 165.547 1.27147 0.931209 0
M  V30 1834 C 166.793 1.13446 1.68101 0
M  V30 1835 C 167.126 -0.319628 1.91552 0
M  V30 1836 O 166.401 -1.23407 1.50336 0
M  V30 1837 C 166.684 1.91482 3.0497 0
M  V30 1838 C 166.537 3.44855 2.88782 0
M  V30 1839 C 167.856 1.71651 4.05246 0
M  V30 1840 H 164.975 0.413498 0.610072 0
M  V30 1841 H 167.617 1.56261 1.08086 0
M  V30 1842 H 165.767 1.55095 3.56199 0
M  V30 1843 H 167.439 3.9105 2.44698 0
M  V30 1844 H 165.682 3.71373 2.24198 0
M  V30 1845 H 166.353 3.94694 3.85902 0
M  V30 1846 H 168.829 2.0337 3.63015 0
M  V30 1847 H 167.705 2.28651 4.99009 0
M  V30 1848 H 167.966 0.663555 4.37092 0
M  V30 1849 N 167.025 -1.13721 1.09112 0
M  V30 1850 C 168.25 -1.89314 0.847053 0
M  V30 1851 C 168.675 -1.78416 -0.595774 0
M  V30 1852 O 168.033 -1.12942 -1.41823 0
M  V30 1853 C 168.081 -3.3701 1.28284 0
M  V30 1854 O 167.185 -4.10054 0.439267 0
M  V30 1855 H 166.526 -0.588745 0.307044 0
M  V30 1856 H 169.056 -1.43902 1.45442 0
M  V30 1857 H 169.066 -3.87834 1.26683 0
M  V30 1858 H 167.741 -3.4426 2.33363 0
M  V30 1859 H 166.318 -3.69266 0.519312 0
M  V30 1860 N 168.503 -0.877838 -1.30888 0
M  V30 1861 C 169.413 -0.343096 -2.32078 0
M  V30 1862 C 170.429 0.551022 -1.65045 0
M  V30 1863 O 171.605 0.445854 -1.96403 0
M  V30 1864 C 168.67 0.439905 -3.43898 0
M  V30 1865 C 167.731 -0.483111 -4.26573 0
M  V30 1866 C 166.964 0.262616 -5.33053 0
M  V30 1867 O 167.187 1.48967 -5.50604 0
M  V30 1868 O 166.121 -0.383593 -6.00676 0
M  V30 1869 H 169.947 -1.18203 -2.79753 0
M  V30 1870 H 167.532 -0.64145 -1.34929 0
M  V30 1871 H 169.414 0.883504 -4.12034 0
M  V30 1872 H 168.089 1.25526 -2.98371 0
M  V30 1873 H 166.996 -0.975374 -3.61161 0
M  V30 1874 H 168.329 -1.26427 -4.75686 0
M  V30 1875 N 169.982 1.44106 -0.638065 0
M  V30 1876 C 171.228 2.02277 -0.145546 0
M  V30 1877 C 171.561 1.50125 1.23191 0
M  V30 1878 O 170.836 0.688133 1.8192 0
M  V30 1879 C 171.119 3.59829 -0.139791 0
M  V30 1880 C 170.972 4.22247 -1.55008 0
M  V30 1881 C 172.291 4.36873 0.531966 0
M  V30 1882 H 169.41 0.734992 -0.0543632 0
M  V30 1883 H 172.052 1.71592 -0.815863 0
M  V30 1884 H 170.202 3.86102 0.431007 0
M  V30 1885 H 171.874 4.07057 -2.1703 0
M  V30 1886 H 170.117 3.79476 -2.10191 0
M  V30 1887 H 170.788 5.31284 -1.49804 0
M  V30 1888 H 173.264 4.16074 0.0464781 0
M  V30 1889 H 172.14 5.4657 0.505206 0
M  V30 1890 H 172.401 4.11995 1.60352 0
M  V30 1891 N 171.46 0.379036 1.52974 0
M  V30 1892 C 172.39 -0.452706 2.29069 0
M  V30 1893 C 173.371 -1.07237 1.32039 0
M  V30 1894 O 174.556 -1.08708 1.60923 0
M  V30 1895 C 171.686 -1.5856 3.08992 0
M  V30 1896 C 170.64 -1.0925 4.13822 0
M  V30 1897 C 169.966 -2.31668 4.81907 0
M  V30 1898 C 171.266 -0.167702 5.22031 0
M  V30 1899 H 172.96 0.182181 2.98845 0
M  V30 1900 H 170.506 0.0890592 1.43724 0
M  V30 1901 H 172.459 -2.1742 3.6098 0
M  V30 1902 H 171.183 -2.24792 2.36931 0
M  V30 1903 H 169.842 -0.526494 3.628 0
M  V30 1904 H 169.49 -2.96386 4.06404 0
M  V30 1905 H 169.19 -1.9934 5.52754 0
M  V30 1906 H 170.714 -2.91189 5.36695 0
M  V30 1907 H 172.128 -0.664186 5.6944 0
M  V30 1908 H 170.525 0.0653265 6.00064 0
M  V30 1909 H 171.595 0.786347 4.78482 0
M  V30 1910 N 172.938 -1.57226 0.108567 0
M  V30 1911 C 174.354 -1.5766 -0.248058 0
M  V30 1912 C 174.554 -1.12063 -1.67464 0
M  V30 1913 O 173.61 -0.803236 -2.39383 0
M  V30 1914 C 174.923 -3.0069 -0.0242287 0
M  V30 1915 C 176.471 -3.12868 -0.0909372 0
M  V30 1916 C 176.946 -4.57879 0.105067 0
M  V30 1917 N 178.437 -4.63172 0.0506846 0
M  V30 1918 C 179.172 -5.73126 0.177396 0
M  V30 1919 N 178.668 -6.91866 0.359696 0
M  V30 1920 N 180.461 -5.61977 0.117709 0
M  V30 1921 H 172.612 -1.85169 1.04049 0
M  V30 1922 H 174.875 -0.85529 0.40888 0
M  V30 1923 H 174.581 -3.38299 0.961604 0
M  V30 1924 H 174.455 -3.6945 -0.76068 0
M  V30 1925 H 176.842 -2.75124 -1.06729 0
M  V30 1926 H 176.923 -2.46672 0.677225 0
M  V30 1927 H 176.567 -4.96321 1.07834 0
M  V30 1928 H 176.497 -5.22153 -0.682954 0
M  V30 1929 H 178.988 -3.778 -0.0871266 0
M  V30 1930 H 179.301 -7.71503 0.447529 0
M  V30 1931 H 177.646 -6.93874 0.395536 0
M  V30 1932 H 180.837 -4.68094 -0.0236741 0
M  V30 1933 H 181.01 -6.47627 0.219905 0
M  V30 1934 N 174.416 0.165178 -1.56732 0
M  V30 1935 C 175.832 0.517174 -1.50988 0
M  V30 1936 C 176.032 1.84331 -0.813894 0
M  V30 1937 O 175.088 2.49672 -0.37682 0
M  V30 1938 C 176.401 0.544261 -2.95733 0
M  V30 1939 C 177.949 0.631039 -3.06573 0
M  V30 1940 C 178.424 0.68896 -4.52788 0
M  V30 1941 N 179.915 0.751683 -4.5706 0
M  V30 1942 C 180.65 0.817177 -5.67547 0
M  V30 1943 N 180.146 0.843129 -6.8765 0
M  V30 1944 N 181.939 0.856668 -5.55534 0
M  V30 1945 H 174.09 -0.704318 -2.00382 0
M  V30 1946 H 176.353 -0.254687 -0.913148 0
M  V30 1947 H 176.059 -0.361607 -3.49836 0
M  V30 1948 H 175.933 1.3886 -3.5071 0
M  V30 1949 H 178.32 1.52733 -2.52501 0
M  V30 1950 H 178.401 -0.240095 -2.54671 0
M  V30 1951 H 178.045 -0.2031 -5.07494 0
M  V30 1952 H 177.975 1.57633 -5.02454 0
M  V30 1953 H 180.466 0.739661 -3.70591 0
M  V30 1954 H 180.779 0.894448 -7.67606 0
M  V30 1955 H 179.124 0.811304 -6.90248 0
M  V30 1956 H 182.315 0.833437 -4.60621 0
M  V30 1957 H 182.488 0.904247 -6.4166 0
M  V30 1958 N 175.894 1.51508 0.433938 0
M  V30 1959 C 176.857 1.72473 1.50949 0
M  V30 1960 C 177.857 0.594725 1.49398 0
M  V30 1961 O 179.047 0.862315 1.5136 0
M  V30 1962 C 176.179 1.78431 2.90474 0
M  V30 1963 H 177.372 2.68467 1.33662 0
M  V30 1964 H 174.925 1.41549 0.662836 0
M  V30 1965 H 175.66 0.842645 3.13161 0
M  V30 1966 H 175.445 2.60558 2.93005 0
M  V30 1967 H 176.935 1.96479 3.68491 0
M  V30 1968 N 177.372 -0.689602 1.41712 0
M  V30 1969 C 178.788 -1.00093 1.24312 0
M  V30 1970 C 178.988 -2.01036 0.136729 0
M  V30 1971 O 178.044 -2.47562 -0.496918 0
M  V30 1972 C 179.357 -1.51985 2.59463 0
M  V30 1973 C 180.905 -1.63838 2.66695 0
M  V30 1974 C 181.38 -2.1913 4.02177 0
M  V30 1975 N 182.871 -2.26483 4.04054 0
M  V30 1976 C 183.606 -2.70306 5.0569 0
M  V30 1977 N 183.102 -3.13691 6.17713 0
M  V30 1978 N 184.895 -2.69923 4.9305 0
M  V30 1979 H 177.046 -0.0210029 2.1239 0
M  V30 1980 H 179.309 -0.0718733 0.945272 0
M  V30 1981 H 179.015 -0.85269 3.41207 0
M  V30 1982 H 178.889 -2.50103 2.82362 0
M  V30 1983 H 181.276 -2.29664 1.85306 0
M  V30 1984 H 181.357 -0.642492 2.476 0
M  V30 1985 H 181.001 -1.53918 4.84016 0
M  V30 1986 H 180.931 -3.19482 4.18615 0
M  V30 1987 H 183.422 -1.95874 3.23174 0
M  V30 1988 H 183.735 -3.45773 6.9113 0
M  V30 1989 H 182.08 -3.11585 6.21241 0
M  V30 1990 H 185.271 -2.35382 4.04614 0
M  V30 1991 H 185.444 -3.03758 5.72394 0
M  V30 1992 N 178.85 -1.27639 -0.924453 0
M  V30 1993 C 179.76 -1.12466 -2.05885 0
M  V30 1994 C 180.776 -0.053869 -1.73917 0
M  V30 1995 O 181.952 -0.261012 -1.99702 0
M  V30 1996 C 179.017 -0.776768 -3.37886 0
M  V30 1997 C 178.078 -1.92878 -3.83532 0
M  V30 1998 C 177.311 -1.59739 -5.09234 0
M  V30 1999 O 177.534 -0.506782 -5.68144 0
M  V30 2000 O 176.468 -2.43761 -5.50331 0
M  V30 2001 H 180.294 -2.07671 -2.21599 0
M  V30 2002 H 177.879 -1.06857 -1.04413 0
M  V30 2003 H 179.761 -0.596229 -4.17161 0
M  V30 2004 H 178.436 0.145732 -3.23372 0
M  V30 2005 H 177.343 -2.1644 -3.0513 0
M  V30 2006 H 178.676 -2.8316 -4.02593 0
M  V30 2007 N 180.328 1.1314 -1.09713 0
M  V30 2008 C 181.556 1.88321 -0.856898 0
M  V30 2009 C 181.971 1.79276 0.592073 0
M  V30 2010 O 181.328 1.16142 1.40774 0
M  V30 2011 C 181.379 3.37812 -1.28706 0
M  V30 2012 O 181.1 3.46627 -2.67921 0
M  V30 2013 C 182.601 4.29952 -1.07964 0
M  V30 2014 H 179.821 0.596094 -0.308079 0
M  V30 2015 H 182.365 1.43205 -1.45988 0
M  V30 2016 H 180.52 3.805 -0.727912 0
M  V30 2017 H 180.934 4.39579 -2.8613 0
M  V30 2018 H 182.408 5.33159 -1.42986 0
M  V30 2019 H 182.885 4.39196 -0.0176577 0
M  V30 2020 H 183.491 3.93036 -1.62489 0
M  V30 2021 N 181.806 0.884767 1.30421 0
M  V30 2022 C 183.054 0.502112 1.95763 0
M  V30 2023 C 183.375 -0.951815 1.70192 0
M  V30 2024 O 182.645 -1.6692 1.0254 0
M  V30 2025 H 181.225 0.182694 0.724315 0
M  V30 2026 H 183.887 1.1278 1.58955 0
M  V30 2027 H 182.983 0.672188 3.04775 0
M  V30 2028 N 183.284 -1.43765 0.645699 0
M  V30 2029 C 184.247 -2.29163 -0.0409488 0
M  V30 2030 C 185.247 -1.41813 -0.757996 0
M  V30 2031 O 186.437 -1.63527 -0.600382 0
M  V30 2032 C 183.569 -3.23716 -1.06869 0
M  V30 2033 H 184.762 -2.91366 0.710345 0
M  V30 2034 H 182.315 -1.5092 0.406547 0
M  V30 2035 H 183.05 -2.66393 -1.84947 0
M  V30 2036 H 182.835 -3.88105 -0.558277 0
M  V30 2037 H 184.325 -3.87831 -1.54845 0
M  V30 2038 N 184.763 -0.387143 -1.52771 0
M  V30 2039 C 185.726 0.436939 -2.24997 0
M  V30 2040 C 186.726 0.991991 -1.26555 0
M  V30 2041 O 187.916 0.874335 -1.50669 0
M  V30 2042 C 185.048 1.61281 -3.00335 0
M  V30 2043 H 186.241 -0.195365 -2.99263 0
M  V30 2044 H 183.794 -0.139218 -1.55679 0
M  V30 2045 H 184.529 2.2826 -2.30364 0
M  V30 2046 H 184.314 1.22154 -3.72587 0
M  V30 2047 H 185.804 2.19629 -3.5518 0
M  V30 2048 N 186.241 1.57166 -0.116904 0
M  V30 2049 C 187.469 1.99473 0.549383 0
M  V30 2050 C 187.884 0.996541 1.60357 0
M  V30 2051 O 187.241 -0.0108731 1.82497 0
M  V30 2052 C 187.292 3.41788 1.17741 0
M  V30 2053 O 187.013 4.37788 0.165362 0
M  V30 2054 C 188.514 3.99216 1.92722 0
M  V30 2055 H 185.734 0.655009 0.145616 0
M  V30 2056 H 188.278 2.03494 -0.202625 0
M  V30 2057 H 186.433 3.38713 1.88021 0
M  V30 2058 H 186.847 5.20806 0.621403 0
M  V30 2059 H 188.321 5.00882 2.31995 0
M  V30 2060 H 188.798 3.3824 2.80161 0
M  V30 2061 H 189.404 4.0583 1.27209 0
M  V30 2062 N 187.719 -0.156864 1.56817 0
M  V30 2063 C 188.649 -1.19589 2.00551 0
M  V30 2064 C 189.63 -1.4536 0.883426 0
M  V30 2065 O 190.815 -1.56449 1.15054 0
M  V30 2066 C 187.945 -2.53143 2.37773 0
M  V30 2067 C 186.899 -2.41913 3.53075 0
M  V30 2068 C 186.225 -3.80088 3.76081 0
M  V30 2069 C 187.525 -1.91157 4.86062 0
M  V30 2070 H 189.219 -0.832293 2.87599 0
M  V30 2071 H 186.765 -0.398918 1.38364 0
M  V30 2072 H 188.718 -3.26047 2.66967 0
M  V30 2073 H 187.442 -2.91319 1.4765 0
M  V30 2074 H 186.101 -1.71462 3.24031 0
M  V30 2075 H 185.749 -4.15683 2.83225 0
M  V30 2076 H 185.449 -3.73439 4.53671 0
M  V30 2077 H 186.973 -4.54556 4.0769 0
M  V30 2078 H 188.387 -2.53846 5.14038 0
M  V30 2079 H 186.784 -1.95422 5.67389 0
M  V30 2080 H 187.854 -0.866673 4.77092 0
M  V30 2081 N 189.197 -1.51736 -0.425897 0
M  V30 2082 C 190.16 -1.73271 -1.50032 0
M  V30 2083 C 191.16 -0.602639 -1.4908 0
M  V30 2084 O 192.35 -0.87033 -1.509 0
M  V30 2085 C 189.482 -1.79969 -2.89523 0
M  V30 2086 H 190.675 -2.69172 -1.32237 0
M  V30 2087 H 188.228 -1.41899 -0.65532 0
M  V30 2088 H 188.963 -0.859241 -3.1271 0
M  V30 2089 H 188.748 -2.62109 -2.91619 0
M  V30 2090 H 190.238 -1.9843 -3.67444 0
M  V30 2091 N 190.675 0.682077 -1.42076 0
M  V30 2092 C 191.605 1.80796 -1.47767 0
M  V30 2093 C 192.586 1.6677 -0.334954 0
M  V30 2094 O 193.771 1.863 -0.548264 0
M  V30 2095 C 190.901 3.19038 -1.37229 0
M  V30 2096 C 189.855 3.47789 -2.49453 0
M  V30 2097 C 189.181 4.8553 -2.23975 0
M  V30 2098 C 190.481 3.45411 -3.91776 0
M  V30 2099 H 192.175 1.7629 -2.41997 0
M  V30 2100 H 189.721 0.846721 -1.16476 0
M  V30 2101 H 191.674 3.97528 -1.39821 0
M  V30 2102 H 190.398 3.24204 -0.394907 0
M  V30 2103 H 189.057 2.71657 -2.46166 0
M  V30 2104 H 188.705 4.87337 -1.24547 0
M  V30 2105 H 188.405 5.0573 -2.99184 0
M  V30 2106 H 189.929 5.66312 -2.28304 0
M  V30 2107 H 191.343 4.13882 -3.96705 0
M  V30 2108 H 189.74 3.77145 -4.66778 0
M  V30 2109 H 190.81 2.44122 -4.18966 0
M  V30 2110 N 192.153 1.28127 0.917671 0
M  V30 2111 C 193.1 1.11717 2.0196 0
M  V30 2112 C 194.07 0.0153929 1.66093 0
M  V30 2113 O 195.255 0.179596 1.89953 0
M  V30 2114 C 192.395 0.780927 3.36148 0
M  V30 2115 C 191.508 1.96135 3.84909 0
M  V30 2116 C 190.643 1.56609 5.0759 0
M  V30 2117 C 189.682 2.71339 5.48673 0
M  V30 2118 N 188.819 2.32332 6.62545 0
M  V30 2119 H 193.659 2.06003 2.15329 0
M  V30 2120 H 191.196 1.02535 1.05475 0
M  V30 2121 H 193.154 0.56675 4.13333 0
M  V30 2122 H 191.784 -0.124998 3.22558 0
M  V30 2123 H 190.836 2.28777 3.03916 0
M  V30 2124 H 192.148 2.82165 4.1132 0
M  V30 2125 H 191.302 1.31374 5.92305 0
M  V30 2126 H 190.041 0.677014 4.82978 0
M  V30 2127 H 189.046 2.97276 4.62501 0
M  V30 2128 H 190.271 3.60882 5.75274 0
M  V30 2129 H 188.217 1.45889 6.39572 0
M  V30 2130 H 188.134 3.11899 6.88662 0
M  V30 2131 H 189.402 2.10371 7.50576 0
M  V30 2132 N 193.631 -1.12557 1.10312 0
M  V30 2133 C 194.579 -2.20325 0.745629 0
M  V30 2134 C 195.573 -1.67429 -0.25763 0
M  V30 2135 O 196.779 -1.79612 -0.118132 0
M  V30 2136 H 193.154 -0.718118 0.223182 0
M  V30 2137 H 195.125 -2.47733 1.66346 0
M  V30 2138 C 193.874 -3.47168 0.192262 0
M  V30 2139 H 193.197 -3.88215 0.955475 0
M  V30 2140 H 194.637 -4.23995 -0.0198274 0
M  V30 2141 C 193.096 -3.19298 -1.07472 0
M  V30 2142 O 193.626 -3.3891 -2.15645 0
M  V30 2143 N 191.832 -2.73113 -0.992847 0
M  V30 2144 H 191.379 -2.57354 -0.112474 0
M  V30 2145 H 191.337 -2.54842 -1.84127 0
M  V30 2146 N 195.109 -0.891671 -1.2995 0
M  V30 2147 C 196.334 -0.527932 -2.00568 0
M  V30 2148 C 196.759 0.877969 -1.66353 0
M  V30 2149 O 196.117 1.58301 -0.883762 0
M  V30 2150 C 196.165 -0.717745 -3.53385 0
M  V30 2151 O 195.269 0.233376 -4.11739 0
M  V30 2152 H 194.61 -0.20722 -0.630837 0
M  V30 2153 H 197.14 -1.20105 -1.65638 0
M  V30 2154 H 197.15 -0.619307 -4.03272 0
M  V30 2155 H 195.825 -1.74276 -3.77625 0
M  V30 2156 H 194.402 0.0880706 -3.72796 0
M  V30 2157 N 196.587 1.43421 -0.653314 0
M  V30 2158 C 197.864 1.95361 -0.0966581 0
M  V30 2159 C 198.244 1.59461 1.38331 0
M  V30 2160 O 197.592 0.879777 2.10884 0
M  V30 2161 C 197.802 3.47311 -0.342988 0
M  V30 2162 C 199.15 4.23875 -0.24798 0
M  V30 2163 O 200.174 3.55133 -0.275553 0
M  V30 2164 O 199.033 5.4623 -0.171771 0
M  V30 2165 H 196.127 0.826945 0.00956291 0
M  V30 2166 H 198.673 1.5336 -0.726558 0
M  V30 2167 H 197.445 3.66569 -1.36906 0
M  V30 2168 H 197.068 3.9631 0.319975 0
M  V30 2169 N 198.065 0.39524 1.52563 0
M  V30 2170 C 199.028 -0.425001 2.25225 0
M  V30 2171 C 200.028 -0.985266 1.27079 0
M  V30 2172 O 201.218 -0.866332 1.5113 0
M  V30 2173 C 198.35 -1.59686 3.01186 0
M  V30 2174 H 199.543 0.211233 2.99155 0
M  V30 2175 H 197.096 0.147472 1.55603 0
M  V30 2176 H 197.831 -2.27035 2.31572 0
M  V30 2177 H 197.616 -1.20176 3.73229 0
M  V30 2178 H 199.106 -2.17743 3.5634 0
M  V30 2179 N 199.544 -1.57102 0.125237 0
M  V30 2180 C 200.474 -2.18659 -0.819174 0
M  V30 2181 C 201.455 -1.12843 -1.27281 0
M  V30 2182 O 202.64 -1.41104 -1.33429 0
M  V30 2183 C 199.77 -2.79096 -2.06695 0
M  V30 2184 C 198.724 -3.90548 -1.75088 0
M  V30 2185 C 198.05 -4.37821 -3.06948 0
M  V30 2186 C 199.35 -5.12356 -1.01435 0
M  V30 2187 H 201.044 -2.9783 -0.306202 0
M  V30 2188 H 198.59 -1.4326 -0.145839 0
M  V30 2189 H 200.543 -3.2082 -2.73226 0
M  V30 2190 H 199.267 -1.97223 -2.60328 0
M  V30 2191 H 197.926 -3.49409 -1.10944 0
M  V30 2192 H 197.574 -3.52799 -3.58527 0
M  V30 2193 H 197.274 -5.12982 -2.86571 0
M  V30 2194 H 198.798 -4.822 -3.74587 0
M  V30 2195 H 200.212 -5.5106 -1.58132 0
M  V30 2196 H 198.609 -5.9314 -0.911319 0
M  V30 2197 H 199.679 -4.849 -0.00218681 0
M  V30 2198 N 201.022 0.148545 -1.56898 0
M  V30 2199 C 202.268 0.862694 -1.83536 0
M  V30 2200 C 202.601 1.80889 -0.706604 0
M  V30 2201 O 201.876 1.92328 0.289885 0
M  V30 2202 C 202.159 1.63853 -3.20662 0
M  V30 2203 C 202.012 0.713925 -4.44098 0
M  V30 2204 C 203.331 2.60133 -3.54991 0
M  V30 2205 H 200.45 0.312179 -0.667618 0
M  V30 2206 H 203.092 0.127953 -1.89569 0
M  V30 2207 H 201.242 2.26489 -3.1565 0
M  V30 2208 H 202.914 0.098686 -4.61194 0
M  V30 2209 H 201.157 0.0234019 -4.33794 0
M  V30 2210 H 201.828 1.29278 -5.36648 0
M  V30 2211 H 204.304 2.07616 -3.60603 0
M  V30 2212 H 203.18 3.11468 -4.51972 0
M  V30 2213 H 203.441 3.41417 -2.80868 0
M  V30 2214 N 202.5 1.5196 0.417844 0
M  V30 2215 C 203.916 1.40569 0.755816 0
M  V30 2216 C 204.116 0.503316 1.95113 0
M  V30 2217 O 203.172 -0.0341925 2.52477 0
M  V30 2218 C 204.485 2.82947 1.01791 0
M  V30 2219 C 206.033 2.92231 1.12116 0
M  V30 2220 C 206.508 4.35559 1.41608 0
M  V30 2221 N 207.999 4.38753 1.48491 0
M  V30 2222 C 208.734 5.46705 1.7292 0
M  V30 2223 N 208.23 6.64788 1.95011 0
M  V30 2224 N 210.023 5.34209 1.74863 0
M  V30 2225 H 202.174 2.09168 -0.369098 0
M  V30 2226 H 204.437 0.942409 -0.102809 0
M  V30 2227 H 204.143 3.5106 0.212081 0
M  V30 2228 H 204.017 3.23462 1.94042 0
M  V30 2229 H 206.404 2.24304 1.9176 0
M  V30 2230 H 206.485 2.55185 0.177225 0
M  V30 2231 H 206.129 5.04042 0.624848 0
M  V30 2232 H 206.059 4.70133 2.37239 0
M  V30 2233 H 208.55 3.5363 1.33244 0
M  V30 2234 H 208.863 7.42845 2.13076 0
M  V30 2235 H 207.208 6.67869 1.92293 0
M  V30 2236 H 210.399 4.40937 1.57137 0
M  V30 2237 H 210.572 6.18415 1.93563 0
M  V30 2238 N 203.978 -0.674533 1.42435 0
M  V30 2239 C 205.224 -1.43671 1.43131 0
M  V30 2240 C 205.557 -1.94142 0.0476021 0
M  V30 2241 O 204.832 -1.70924 -0.928188 0
M  V30 2242 C 205.115 -2.63355 2.45594 0
M  V30 2243 C 204.968 -2.18514 3.93156 0
M  V30 2244 C 206.287 -3.65571 2.45043 0
M  V30 2245 H 203.406 -0.521077 0.521198 0
M  V30 2246 H 206.048 -0.766551 1.7385 0
M  V30 2247 H 204.198 -3.2053 2.19528 0
M  V30 2248 H 205.87 -1.66504 4.30202 0
M  V30 2249 H 204.113 -1.50086 4.07009 0
M  V30 2250 H 204.784 -3.04484 4.60428 0
M  V30 2251 H 207.26 -3.18113 2.68223 0
M  V30 2252 H 206.136 -4.46893 3.18713 0
M  V30 2253 H 206.397 -4.16716 1.47649 0
M  V30 2254 N 205.456 -1.28612 -0.910864 0
M  V30 2255 C 206.366 -1.14643 -2.0468 0
M  V30 2256 C 207.382 -0.0723121 -1.7385 0
M  V30 2257 O 208.558 -0.282178 -1.99413 0
M  V30 2258 C 205.623 -0.812561 -3.37044 0
M  V30 2259 C 204.684 -1.96935 -3.81465 0
M  V30 2260 C 203.917 -1.65131 -5.07511 0
M  V30 2261 O 204.14 -0.567013 -5.67575 0
M  V30 2262 O 203.074 -2.49585 -5.47714 0
M  V30 2263 H 206.9 -2.1001 -2.19384 0
M  V30 2264 H 204.485 -1.07958 -1.03274 0
M  V30 2265 H 206.367 -0.640441 -4.16505 0
M  V30 2266 H 205.042 0.111426 -3.23508 0
M  V30 2267 H 203.949 -2.19664 -3.02818 0
M  V30 2268 H 205.282 -2.87414 -3.99567 0
M  V30 2269 N 206.934 1.1197 -1.10907 0
M  V30 2270 C 207.882 2.19927 -0.757303 0
M  V30 2271 C 208.876 1.67564 0.248747 0
M  V30 2272 O 210.082 1.79672 0.108605 0
M  V30 2273 H 206.457 0.716925 -0.226987 0
M  V30 2274 H 208.428 2.46847 -1.67658 0
M  V30 2275 C 207.177 3.47061 -0.210671 0
M  V30 2276 H 206.5 3.87703 -0.976049 0
M  V30 2277 H 207.94 4.24 -0.0026584 0
M  V30 2278 C 206.399 3.19864 1.05777 0
M  V30 2279 O 206.929 3.40049 2.13845 0
M  V30 2280 N 205.135 2.73636 0.978349 0
M  V30 2281 H 204.682 2.5741 0.0988246 0
M  V30 2282 H 204.64 2.55815 1.82773 0
M  V30 2283 N 208.412 0.89855 1.29475 0
M  V30 2284 C 209.689 0.443416 1.90508 0
M  V30 2285 C 210.069 -1.07685 1.81569 0
M  V30 2286 O 209.417 -1.9182 1.24166 0
M  V30 2287 C 209.627 0.956708 3.35631 0
M  V30 2288 C 210.975 0.999728 4.12663 0
M  V30 2289 O 211.999 0.904299 3.4453 0
M  V30 2290 O 210.858 1.14289 5.34416 0
M  V30 2291 H 207.952 0.138025 0.815401 0
M  V30 2292 H 210.498 0.98834 1.37949 0
M  V30 2293 H 209.27 2.00067 3.36287 0
M  V30 2294 H 208.893 0.391728 3.95666 0
M  V30 2295 N 209.89 -1.43072 0.660911 0
M  V30 2296 C 211.306 -1.56169 0.329173 0
M  V30 2297 C 211.506 -1.64317 -1.16629 0
M  V30 2298 O 210.562 -1.60245 -1.95135 0
M  V30 2299 C 211.875 -2.81873 1.04729 0
M  V30 2300 C 213.423 -2.95627 1.02828 0
M  V30 2301 C 213.898 -4.24174 1.72744 0
M  V30 2302 N 215.389 -4.31055 1.69545 0
M  V30 2303 C 216.124 -5.29304 2.20511 0
M  V30 2304 N 215.62 -6.33786 2.79799 0
M  V30 2305 N 217.413 -5.21008 2.10966 0
M  V30 2306 H 209.564 -1.36027 1.63127 0
M  V30 2307 H 211.827 -0.653823 0.686454 0
M  V30 2308 H 211.533 -2.81942 2.10242 0
M  V30 2309 H 211.407 -3.72338 0.603702 0
M  V30 2310 H 213.794 -2.95094 -0.0184742 0
M  V30 2311 H 213.875 -2.06431 1.51063 0
M  V30 2312 H 213.519 -4.25467 2.7738 0
M  V30 2313 H 213.449 -5.1228 1.2197 0
M  V30 2314 H 215.94 -3.56174 1.26288 0
M  V30 2315 H 216.253 -7.05086 3.16344 0
M  V30 2316 H 214.598 -6.34387 2.83863 0
M  V30 2317 H 217.789 -4.38301 1.64347 0
M  V30 2318 H 217.962 -5.97416 2.50993 0
M  V30 2319 N 211.368 -0.403325 -1.52352 0
M  V30 2320 C 212.617 0.175668 -2.00934 0
M  V30 2321 C 212.93 1.46718 -1.29356 0
M  V30 2322 O 214.136 2.12708 -1.68724 0
M  V30 2323 C 212.592 0.363612 -3.58058 0
M  V30 2324 C 212.2 -0.915472 -4.38547 0
M  V30 2325 C 213.944 0.89821 -4.14888 0
M  V30 2326 C 211.851 -0.695035 -5.87302 0
M  V30 2327 H 210.781 0.0694234 -0.750797 0
M  V30 2328 H 213.432 -0.527879 -1.75743 0
M  V30 2329 H 211.814 1.12935 -3.79555 0
M  V30 2330 H 212.988 -1.68691 -4.28812 0
M  V30 2331 H 211.303 -1.37606 -3.93006 0
M  V30 2332 H 213.9 1.07907 -5.23699 0
M  V30 2333 H 214.243 1.87126 -3.71873 0
M  V30 2334 H 214.776 0.191681 -3.97338 0
M  V30 2335 H 211.515 -1.63948 -6.34666 0
M  V30 2336 H 211.035 0.0372116 -5.99788 0
M  V30 2337 H 212.714 -0.33497 -6.46132 0
M  V30 2338 N 212.846 1.57033 -0.133567 0
M  V30 2339 C 213.756 2.19632 0.824564 0
M  V30 2340 C 214.772 1.17666 1.28182 0
M  V30 2341 O 215.948 1.50193 1.3418 0
M  V30 2342 C 213.013 2.79499 2.05137 0
M  V30 2343 C 212.074 3.96548 1.64464 0
M  V30 2344 C 211.307 4.5355 2.81297 0
M  V30 2345 O 211.53 4.09438 3.97136 0
M  V30 2346 O 210.464 5.44018 2.57542 0
M  V30 2347 H 214.29 3.01991 0.321766 0
M  V30 2348 H 211.875 1.49112 0.0927889 0
M  V30 2349 H 213.757 3.17602 2.7696 0
M  V30 2350 H 212.432 2.00162 2.54395 0
M  V30 2351 H 211.339 3.63186 0.897048 0
M  V30 2352 H 212.672 4.77364 1.19934 0
M  V30 2353 N 214.325 -0.140222 1.56975 0
M  V30 2354 C 215.555 -0.865181 1.87612 0
M  V30 2355 C 215.963 -1.74942 0.72055 0
M  V30 2356 O 215.306 -1.80917 -0.318561 0
M  V30 2357 C 215.368 -1.76782 3.13031 0
M  V30 2358 C 215.032 -1.06005 4.44536 0
M  V30 2359 C 216.029 -0.410768 5.18275 0
M  V30 2360 C 213.714 -1.04754 4.91255 0
M  V30 2361 C 215.708 0.241572 6.36942 0
M  V30 2362 C 213.395 -0.391394 6.09845 0
M  V30 2363 C 214.393 0.252029 6.82535 0
M  V30 2364 O 214.081 0.897757 7.98871 0
M  V30 2365 H 213.813 -0.255188 0.625983 0
M  V30 2366 H 216.367 -0.135653 2.04952 0
M  V30 2367 H 214.597 -2.53846 2.91718 0
M  V30 2368 H 216.286 -2.36533 3.29859 0
M  V30 2369 H 217.052 -0.412195 4.83245 0
M  V30 2370 H 212.931 -1.53777 4.34596 0
M  V30 2371 H 216.475 0.744375 6.93617 0
M  V30 2372 H 212.372 -0.387656 6.44335 0
M  V30 2373 H 213.14 0.800102 8.1458 0
M  V30 2374 N 215.803 -1.52179 -0.40978 0
M  V30 2375 C 217.052 -1.65434 -1.15388 0
M  V30 2376 C 217.365 -0.390056 -1.91671 0
M  V30 2377 O 218.571 -0.402399 -2.68501 0
M  V30 2378 C 217.027 -2.92279 -2.10003 0
M  V30 2379 C 216.635 -4.25813 -1.39239 0
M  V30 2380 C 218.379 -3.14897 -2.84675 0
M  V30 2381 C 216.286 -5.43782 -2.32498 0
M  V30 2382 H 215.216 -0.616267 -0.434432 0
M  V30 2383 H 217.867 -1.78666 -0.418401 0
M  V30 2384 H 216.249 -2.72744 -2.871 0
M  V30 2385 H 217.423 -4.55828 -0.675099 0
M  V30 2386 H 215.738 -4.09292 -0.766097 0
M  V30 2387 H 218.335 -4.0021 -3.54593 0
M  V30 2388 H 218.678 -2.29103 -3.47588 0
M  V30 2389 H 219.211 -3.34901 -2.14677 0
M  V30 2390 H 215.95 -6.3192 -1.74233 0
M  V30 2391 H 215.47 -5.18106 -3.02201 0
M  V30 2392 H 217.149 -5.76834 -2.93038 0
M  V30 2393 N 217.281 0.66697 -1.42791 0
M  V30 2394 C 218.692 1.2478 -1.38877 0
M  V30 2395 C 219.043 1.96012 -0.0859426 0
M  V30 2396 O 218.168 2.00463 0.815081 0
M  V30 2397 C 218.763 2.26938 -2.51564 0
M  V30 2398 C 217.322 2.80529 -2.50959 0
M  V30 2399 C 216.469 1.54965 -2.29959 0
M  V30 2400 H 219.42 0.459853 -1.51892 0
M  V30 2401 H 219.441 3.08834 -2.22265 0
M  V30 2402 H 218.953 1.75065 -3.46372 0
M  V30 2403 H 217.054 3.36502 -1.59991 0
M  V30 2404 H 217.167 3.29012 -3.48265 0
M  V30 2405 H 215.531 1.81817 -1.78366 0
M  V30 2406 H 216.314 1.05047 -3.26833 0
M  V30 2407 N 218.759 1.29093 0.90403 0
M  V30 2408 C 220.175 1.07011 1.1841 0
M  V30 2409 C 220.375 -0.181358 2.00682 0
M  V30 2410 O 219.431 -0.880331 2.36657 0
M  V30 2411 C 220.744 2.32311 1.90924 0
M  V30 2412 C 222.292 2.37587 2.03768 0
M  V30 2413 C 222.767 3.62679 2.79693 0
M  V30 2414 N 224.258 3.63376 2.87249 0
M  V30 2415 C 224.993 4.56848 3.46522 0
M  V30 2416 N 224.489 5.60648 4.06996 0
M  V30 2417 N 226.282 4.44426 3.44154 0
M  V30 2418 H 218.433 2.09412 0.354993 0
M  V30 2419 H 220.696 0.922181 0.219742 0
M  V30 2420 H 220.402 3.23536 1.37905 0
M  V30 2421 H 220.276 2.39483 2.91424 0
M  V30 2422 H 222.663 1.46853 2.55965 0
M  V30 2423 H 222.744 2.34403 1.02415 0
M  V30 2424 H 222.388 4.53762 2.28173 0
M  V30 2425 H 222.318 3.63119 3.81381 0
M  V30 2426 H 224.809 2.88321 2.44293 0
M  V30 2427 H 225.122 6.28101 4.50232 0
M  V30 2428 H 223.467 5.64463 4.05471 0
M  V30 2429 H 226.658 3.62529 2.96126 0
M  V30 2430 H 226.831 5.17457 3.90054 0
M  V30 2431 N 220.237 -1.11381 1.11499 0
M  V30 2432 C 221.184 -2.17439 0.773887 0
M  V30 2433 C 222.154 -1.64132 -0.254899 0
M  V30 2434 O 223.339 -1.90345 -0.13168 0
M  V30 2435 C 220.479 -3.44373 0.223917 0
M  V30 2436 C 219.592 -4.1168 1.30934 0
M  V30 2437 C 218.727 -5.263 0.71984 0
M  V30 2438 C 217.766 -5.85493 1.78507 0
M  V30 2439 N 216.903 -6.91507 1.21502 0
M  V30 2440 H 221.743 -2.45962 1.68246 0
M  V30 2441 H 219.28 -1.20744 0.840191 0
M  V30 2442 H 221.238 -4.17047 -0.112921 0
M  V30 2443 H 219.868 -3.16232 -0.647851 0
M  V30 2444 H 218.92 -3.37073 1.76312 0
M  V30 2445 H 220.232 -4.51729 2.11524 0
M  V30 2446 H 219.386 -6.05785 0.333094 0
M  V30 2447 H 218.125 -4.87559 -0.117377 0
M  V30 2448 H 217.13 -5.04686 2.18111 0
M  V30 2449 H 218.355 -6.26301 2.62533 0
M  V30 2450 H 216.301 -6.54783 0.399455 0
M  V30 2451 H 216.218 -7.30214 1.95763 0
M  V30 2452 H 217.486 -7.74795 0.855181 0
M  V30 2453 N 221.715 -0.905404 -1.28997 0
M  V30 2454 C 222.963 -0.533192 -1.9494 0
M  V30 2455 C 223.284 0.924618 -1.71685 0
M  V30 2456 O 222.554 1.65268 -1.05183 0
M  V30 2457 H 221.134 -0.194194 -0.721317 0
M  V30 2458 H 223.796 -1.15294 -1.57141 0
M  V30 2459 H 222.892 -0.72059 -3.03667 0
M  V30 2460 N 223.193 1.4272 -0.668489 0
M  V30 2461 C 224.439 2.01923 -0.188419 0
M  V30 2462 C 224.772 1.52704 1.19979 0
M  V30 2463 O 224.047 0.726566 1.8042 0
M  V30 2464 C 224.33 3.59451 -0.216085 0
M  V30 2465 C 224.183 4.18864 -1.6393 0
M  V30 2466 C 225.502 4.37903 0.439179 0
M  V30 2467 H 222.621 0.733674 -0.0699412 0
M  V30 2468 H 225.263 1.69822 -0.852076 0
M  V30 2469 H 223.413 3.86929 0.349012 0
M  V30 2470 H 225.085 4.02362 -2.25616 0
M  V30 2471 H 223.328 3.74933 -2.18193 0
M  V30 2472 H 223.999 5.27987 -1.61039 0
M  V30 2473 H 226.475 4.16079 -0.0417878 0
M  V30 2474 H 225.351 5.47519 0.389157 0
M  V30 2475 H 225.612 4.15303 1.51577 0
M  V30 2476 N 224.671 0.411399 1.52136 0
M  V30 2477 C 225.901 -0.16284 2.05957 0
M  V30 2478 C 226.309 -1.3922 1.28119 0
M  V30 2479 O 225.652 -1.80768 0.326881 0
M  V30 2480 C 225.714 -0.575946 3.54856 0
M  V30 2481 C 225.378 0.542998 4.53763 0
M  V30 2482 C 226.375 1.40726 5.00492 0
M  V30 2483 C 224.06 0.716337 4.97166 0
M  V30 2484 C 226.054 2.4298 5.8927 0
M  V30 2485 C 223.741 1.74218 5.8574 0
M  V30 2486 C 224.739 2.59731 6.31687 0
M  V30 2487 O 224.427 3.60558 7.18507 0
M  V30 2488 H 224.159 -0.0229125 0.675612 0
M  V30 2489 H 226.713 0.581634 1.96993 0
M  V30 2490 H 224.943 -1.37274 3.61515 0
M  V30 2491 H 226.632 -1.07836 3.91313 0
M  V30 2492 H 227.398 1.28476 4.67674 0
M  V30 2493 H 223.277 0.0603857 4.6096 0
M  V30 2494 H 226.821 3.0976 6.25055 0
M  V30 2495 H 222.718 1.86498 6.17971 0
M  V30 2496 H 223.486 3.56829 7.36624 0
M  V30 2497 N 226.149 -1.5696 0.141893 0
M  V30 2498 C 227.565 -1.58151 -0.21456 0
M  V30 2499 C 227.765 -1.1559 -1.65049 0
M  V30 2500 O 226.821 -0.853832 -2.37626 0
M  V30 2501 C 228.134 -3.00674 0.0395576 0
M  V30 2502 C 229.682 -3.1299 -0.0245529 0
M  V30 2503 C 230.157 -4.57554 0.202167 0
M  V30 2504 N 231.648 -4.62961 0.148919 0
M  V30 2505 C 232.383 -5.7262 0.298924 0
M  V30 2506 N 231.879 -6.90947 0.50637 0
M  V30 2507 N 233.672 -5.61601 0.236886 0
M  V30 2508 H 225.823 -1.8292 1.07953 0
M  V30 2509 H 228.086 -0.846425 0.42693 0
M  V30 2510 H 227.792 -3.36183 1.03315 0
M  V30 2511 H 227.666 -3.70981 -0.682143 0
M  V30 2512 H 230.053 -2.77326 -1.00869 0
M  V30 2513 H 230.134 -2.4518 0.729396 0
M  V30 2514 H 229.778 -4.93922 1.18338 0
M  V30 2515 H 229.708 -5.23484 -0.572044 0
M  V30 2516 H 232.199 -3.77899 -0.00697015 0
M  V30 2517 H 232.512 -7.7038 0.611076 0
M  V30 2518 H 230.857 -6.92878 0.542628 0
M  V30 2519 H 234.048 -4.68039 0.0756209 0
M  V30 2520 H 234.221 -6.47015 0.357227 0
M  V30 2521 N 227.627 0.131896 -1.57047 0
M  V30 2522 C 228.876 0.84044 -1.83356 0
M  V30 2523 C 229.189 1.81646 -0.725535 0
M  V30 2524 O 230.395 2.57025 -0.874659 0
M  V30 2525 C 228.851 1.54528 -3.25037 0
M  V30 2526 C 228.459 0.610902 -4.43815 0
M  V30 2527 C 230.203 2.23972 -3.60606 0
M  V30 2528 C 228.11 1.31823 -5.76521 0
M  V30 2529 H 227.04 0.317599 -0.683847 0
M  V30 2530 H 229.691 0.0931561 -1.83263 0
M  V30 2531 H 228.073 2.33873 -3.19561 0
M  V30 2532 H 229.247 -0.148407 -4.60561 0
M  V30 2533 H 227.562 0.0241016 -4.16393 0
M  V30 2534 H 230.159 2.77558 -4.57018 0
M  V30 2535 H 230.502 3.01173 -2.87403 0
M  V30 2536 H 231.035 1.51529 -3.6781 0
M  V30 2537 H 227.774 0.587771 -6.52859 0
M  V30 2538 H 227.294 2.04987 -5.63685 0
M  V30 2539 H 228.973 1.855 -6.19838 0
M  V30 2540 N 229.106 1.52395 0.401703 0
M  V30 2541 C 230.036 1.79231 1.49661 0
M  V30 2542 C 231.017 0.643654 1.57452 0
M  V30 2543 O 232.202 0.889989 1.72606 0
M  V30 2544 C 229.332 1.94971 2.87409 0
M  V30 2545 C 228.286 3.10604 2.94465 0
M  V30 2546 C 227.612 3.11577 4.34538 0
M  V30 2547 C 228.912 4.49921 2.6527 0
M  V30 2548 H 230.606 2.70917 1.27454 0
M  V30 2549 H 228.152 1.30362 0.6117 0
M  V30 2550 H 230.105 2.12328 3.63999 0
M  V30 2551 H 228.829 0.999632 3.10926 0
M  V30 2552 H 227.488 2.93009 2.20321 0
M  V30 2553 H 227.136 2.14277 4.55076 0
M  V30 2554 H 226.836 3.89247 4.40183 0
M  V30 2555 H 228.36 3.31073 5.13053 0
M  V30 2556 H 229.774 4.67683 3.31581 0
M  V30 2557 H 228.171 5.29564 2.82281 0
M  V30 2558 H 229.241 4.57507 1.60671 0
M  V30 2559 N 230.584 -0.659388 1.43143 0
M  V30 2560 C 231.812 -1.44723 1.47861 0
M  V30 2561 C 232.227 -1.88563 0.0945886 0
M  V30 2562 O 231.584 -1.59108 -0.893915 0
M  V30 2563 C 231.635 -2.68627 2.41913 0
M  V30 2564 O 231.356 -2.26623 3.74932 0
M  V30 2565 C 232.857 -3.62045 2.55809 0
M  V30 2566 H 230.077 -0.444801 0.502387 0
M  V30 2567 H 232.621 -0.808916 1.87821 0
M  V30 2568 H 230.776 -3.28613 2.05164 0
M  V30 2569 H 231.19 -3.06745 4.2545 0
M  V30 2570 H 232.664 -4.45666 3.25708 0
M  V30 2571 H 233.141 -4.08981 1.60099 0
M  V30 2572 H 233.747 -3.07944 2.93344 0
M  V30 2573 N 232.062 -1.29571 -0.897171 0
M  V30 2574 C 233.473 -1.15964 -1.46319 0
M  V30 2575 C 233.824 0.244267 -1.94674 0
M  V30 2576 O 232.949 1.13998 -1.83939 0
M  V30 2577 C 233.544 -2.09906 -2.65942 0
M  V30 2578 C 232.103 -2.00314 -3.18671 0
M  V30 2579 C 231.25 -2.00687 -1.91363 0
M  V30 2580 H 234.201 -1.42019 -0.708268 0
M  V30 2581 H 234.222 -1.67276 -3.41759 0
M  V30 2582 H 233.734 -3.12075 -2.30718 0
M  V30 2583 H 231.835 -1.01242 -3.58582 0
M  V30 2584 H 231.948 -2.88102 -3.82798 0
M  V30 2585 H 230.312 -1.45319 -2.09175 0
M  V30 2586 H 231.095 -3.04566 -1.58413 0
M  V30 2587 N 233.54 1.10788 -1.12088 0
M  V30 2588 C 234.472 2.16816 -0.743213 0
M  V30 2589 C 235.485 1.6119 0.228412 0
M  V30 2590 O 236.674 1.78497 0.0102931 0
M  V30 2591 C 233.774 3.38809 -0.0787313 0
M  V30 2592 C 232.947 4.23885 -1.0789 0
M  V30 2593 C 232.006 5.24334 -0.442713 0
M  V30 2594 O 231.032 5.58497 -1.09864 0
M  V30 2595 N 232.234 5.75079 0.791457 0
M  V30 2596 H 234.999 2.49825 -1.65552 0
M  V30 2597 H 232.56 1.26373 -1.012 0
M  V30 2598 H 234.552 4.03107 0.358766 0
M  V30 2599 H 233.122 3.03805 0.736275 0
M  V30 2600 H 232.342 3.55939 -1.69414 0
M  V30 2601 H 233.63 4.77562 -1.75533 0
M  V30 2602 H 233.028 5.49517 1.3434 0
M  V30 2603 H 231.585 6.4118 1.17183 0
M  V30 2604 N 235.018 0.912232 1.28515 0
M  V30 2605 C 235.981 0.404223 2.25607 0
M  V30 2606 C 236.981 -0.468602 1.53821 0
M  V30 2607 O 238.171 -0.271873 1.72065 0
M  V30 2608 C 235.303 -0.420653 3.38295 0
M  V30 2609 H 236.496 1.26188 2.7206 0
M  V30 2610 H 234.049 0.691495 1.40171 0
M  V30 2611 H 234.784 -1.29777 2.97201 0
M  V30 2612 H 234.569 0.204935 3.91564 0
M  V30 2613 H 236.059 -0.766971 4.10496 0
M  V30 2614 N 236.496 -1.42363 0.676048 0
M  V30 2615 C 237.743 -2.01522 0.19883 0
M  V30 2616 C 238.071 -1.53456 -1.19505 0
M  V30 2617 O 237.326 -0.727967 -1.81657 0
M  V30 2618 C 237.625 -3.56929 0.183431 0
M  V30 2619 C 237.291 -4.24431 1.52215 0
M  V30 2620 C 235.953 -4.42585 1.8887 0
M  V30 2621 C 238.305 -4.62459 2.40377 0
M  V30 2622 C 235.633 -4.96039 3.13309 0
M  V30 2623 C 237.985 -5.17294 3.64129 0
M  V30 2624 C 236.649 -5.33661 4.00951 0
M  V30 2625 H 235.919 -0.737419 0.0727571 0
M  V30 2626 H 238.566 -1.70531 0.871281 0
M  V30 2627 H 236.871 -3.87594 -0.572532 0
M  V30 2628 H 238.568 -4.00486 -0.203035 0
M  V30 2629 H 235.158 -4.10661 1.22701 0
M  V30 2630 H 239.342 -4.48105 2.13343 0
M  V30 2631 H 234.598 -5.06896 3.41857 0
M  V30 2632 H 238.772 -5.45704 4.32644 0
M  V30 2633 H 236.399 -5.74845 4.9745 0
M  V30 2634 N 237.974 -0.419461 -1.51915 0
M  V30 2635 C 239.199 0.154572 -2.06823 0
M  V30 2636 C 239.624 1.3722 -1.28656 0
M  V30 2637 O 238.982 1.78461 -0.319583 0
M  V30 2638 C 239.03 0.473172 -3.57482 0
M  V30 2639 O 238.134 1.56255 -3.81652 0
M  V30 2640 H 237.475 0.0096924 -0.663929 0
M  V30 2641 H 240.005 -0.595642 -1.95738 0
M  V30 2642 H 240.015 0.728825 -4.01438 0
M  V30 2643 H 238.69 -0.416873 -4.13805 0
M  V30 2644 H 237.267 1.29825 -3.49571 0
M  V30 2645 N 239.452 1.56882 -0.150215 0
M  V30 2646 C 240.682 2.00302 0.506213 0
M  V30 2647 C 241.09 1.02934 1.58749 0
M  V30 2648 O 240.433 0.0188384 1.8369 0
M  V30 2649 C 240.495 3.40156 1.16337 0
M  V30 2650 C 240.159 4.56439 0.226311 0
M  V30 2651 C 241.156 5.17012 -0.547265 0
M  V30 2652 C 238.841 5.02136 0.128279 0
M  V30 2653 C 240.835 6.21693 -1.40629 0
M  V30 2654 C 238.522 6.06672 -0.734345 0
M  V30 2655 C 239.52 6.6632 -1.50023 0
M  V30 2656 O 239.208 7.68831 -2.34848 0
M  V30 2657 H 238.94 0.662182 0.135984 0
M  V30 2658 H 241.494 2.03961 -0.242746 0
M  V30 2659 H 239.724 3.33346 1.96004 0
M  V30 2660 H 241.413 3.67663 1.71985 0
M  V30 2661 H 242.179 4.82603 -0.48158 0
M  V30 2662 H 238.058 4.55435 0.714157 0
M  V30 2663 H 241.602 6.68179 -2.00455 0
M  V30 2664 H 237.499 6.40507 -0.801309 0
M  V30 2665 H 238.267 7.86065 -2.28131 0
M  V30 2666 N 240.93 -0.123565 1.57115 0
M  V30 2667 C 241.84 -1.17074 2.033 0
M  V30 2668 C 242.856 -1.4561 0.952559 0
M  V30 2669 O 244.032 -1.56817 1.26374 0
M  V30 2670 C 241.097 -2.47857 2.42421 0
M  V30 2671 C 240.158 -2.26758 3.64526 0
M  V30 2672 C 239.391 -3.51305 4.01771 0
M  V30 2673 O 239.614 -4.5843 3.39409 0
M  V30 2674 O 238.548 -3.42578 4.94898 0
M  V30 2675 H 242.374 -0.808555 2.92739 0
M  V30 2676 H 239.959 -0.334027 1.45618 0
M  V30 2677 H 241.841 -3.2492 2.68338 0
M  V30 2678 H 240.516 -2.83558 1.5613 0
M  V30 2679 H 239.423 -1.47569 3.43765 0
M  V30 2680 H 240.756 -1.95963 4.51508 0
M  V30 2681 N 242.408 -1.52605 -0.393616 0
M  V30 2682 C 243.657 -1.66649 -1.13627 0
M  V30 2683 C 243.97 -0.410364 -1.91247 0
M  V30 2684 O 245.176 -0.430854 -2.68059 0
M  V30 2685 C 243.632 -2.9449 -2.06891 0
M  V30 2686 C 243.24 -4.27266 -1.34714 0
M  V30 2687 C 244.984 -3.17899 -2.81319 0
M  V30 2688 C 242.891 -5.46217 -2.26717 0
M  V30 2689 H 241.821 -0.62084 -0.427871 0
M  V30 2690 H 244.472 -1.791 -0.399428 0
M  V30 2691 H 242.854 -2.75774 -2.84191 0
M  V30 2692 H 244.028 -4.56518 -0.626714 0
M  V30 2693 H 242.343 -4.10081 -0.722643 0
M  V30 2694 H 244.94 -4.03949 -3.50328 0
M  V30 2695 H 245.283 -2.32777 -3.45139 0
M  V30 2696 H 245.816 -3.37159 -2.11113 0
M  V30 2697 H 242.555 -6.33733 -1.67521 0
M  V30 2698 H 242.075 -5.21283 -2.96689 0
M  V30 2699 H 243.754 -5.7991 -2.86903 0
M  V30 2700 N 243.887 0.651787 -1.4349 0
M  V30 2701 C 244.817 1.77621 -1.51569 0
M  V30 2702 C 245.798 1.66022 -0.370253 0
M  V30 2703 O 246.983 1.85095 -0.587658 0
M  V30 2704 C 244.113 3.16056 -1.43966 0
M  V30 2705 C 243.067 3.4242 -2.56774 0
M  V30 2706 C 242.393 4.8067 -2.34223 0
M  V30 2707 C 243.693 3.37023 -3.99015 0
M  V30 2708 H 245.387 1.71117 -2.45681 0
M  V30 2709 H 242.933 0.821825 -1.18246 0
M  V30 2710 H 244.886 3.94472 -1.48221 0
M  V30 2711 H 243.61 3.23293 -0.463586 0
M  V30 2712 H 242.269 2.66375 -2.51873 0
M  V30 2713 H 241.917 4.84585 -1.34856 0
M  V30 2714 H 241.617 4.9927 -3.09844 0
M  V30 2715 H 243.141 5.61342 -2.40265 0
M  V30 2716 H 244.555 4.05374 -4.05395 0
M  V30 2717 H 242.952 3.67159 -4.74673 0
M  V30 2718 H 244.022 2.3518 -4.2405 0
M  V30 2719 N 245.365 1.30045 0.890287 0
M  V30 2720 C 246.312 1.15976 1.99545 0
M  V30 2721 C 247.282 0.0506202 1.66023 0
M  V30 2722 O 248.467 0.219847 1.89529 0
M  V30 2723 C 245.607 0.852054 3.34416 0
M  V30 2724 C 244.72 2.04255 3.80662 0
M  V30 2725 C 243.855 1.6734 5.04154 0
M  V30 2726 C 242.894 2.82916 5.42794 0
M  V30 2727 N 242.031 2.46333 6.57468 0
M  V30 2728 H 246.871 2.10524 2.10911 0
M  V30 2729 H 244.408 1.04749 1.03276 0
M  V30 2730 H 246.366 0.654296 4.12037 0
M  V30 2731 H 244.996 -0.0565502 3.2275 0
M  V30 2732 H 244.048 2.35172 2.98995 0
M  V30 2733 H 245.36 2.90826 4.05242 0
M  V30 2734 H 244.514 1.43908 5.89386 0
M  V30 2735 H 243.253 0.779308 4.81433 0
M  V30 2736 H 242.258 3.0702 4.56091 0
M  V30 2737 H 243.483 3.73004 5.6749 0
M  V30 2738 H 241.429 1.59423 6.36334 0
M  V30 2739 H 241.346 3.26436 6.81891 0
M  V30 2740 H 242.614 2.26244 7.45945 0
M  V30 2741 N 246.843 -1.10192 1.12674 0
M  V30 2742 C 247.79 -2.16606 0.796906 0
M  V30 2743 C 248.76 -1.64394 -0.237476 0
M  V30 2744 O 249.945 -1.90474 -0.111484 0
M  V30 2745 C 247.085 -3.44116 0.26043 0
M  V30 2746 C 246.198 -4.10268 1.35293 0
M  V30 2747 C 245.333 -5.25507 0.775621 0
M  V30 2748 C 244.372 -5.83567 1.84706 0
M  V30 2749 N 243.509 -6.90179 1.28829 0
M  V30 2750 H 248.349 -2.44163 1.70846 0
M  V30 2751 H 245.886 -1.19846 0.85295 0
M  V30 2752 H 247.844 -4.17143 -0.0686814 0
M  V30 2753 H 246.474 -3.16901 -0.614274 0
M  V30 2754 H 245.526 -3.35184 1.79877 0
M  V30 2755 H 246.838 -4.4946 2.16303 0
M  V30 2756 H 245.992 -6.05398 0.397327 0
M  V30 2757 H 244.731 -4.87656 -0.0656581 0
M  V30 2758 H 243.736 -5.02344 2.23452 0
M  V30 2759 H 244.961 -6.23482 2.69161 0
M  V30 2760 H 242.907 -6.54322 0.468881 0
M  V30 2761 H 242.824 -7.28097 2.03497 0
M  V30 2762 H 244.092 -7.73844 0.937311 0
M  V30 2763 N 248.321 -0.919034 -1.28029 0
M  V30 2764 C 249.284 -0.416182 -2.2539 0
M  V30 2765 C 250.284 0.460438 -1.54067 0
M  V30 2766 O 251.474 0.262744 -1.72207 0
M  V30 2767 C 248.606 0.402707 -3.38513 0
M  V30 2768 H 249.799 -1.27629 -2.71387 0
M  V30 2769 H 247.352 -0.698919 -1.39803 0
M  V30 2770 H 248.087 1.282 -2.97885 0
M  V30 2771 H 247.872 -0.225698 -3.9145 0
M  V30 2772 H 249.362 0.745191 -4.10897 0
M  V30 2773 N 249.799 1.42003 -0.683588 0
M  V30 2774 C 250.749 2.27997 0.0121992 0
M  V30 2775 C 251.733 1.4156 0.764822 0
M  V30 2776 O 252.925 1.64935 0.642287 0
M  V30 2777 C 250.054 3.29706 0.956482 0
M  V30 2778 C 249.14 4.23625 0.200739 0
M  V30 2779 N 249.531 4.99448 -0.799087 0
M  V30 2780 C 247.829 4.43845 0.437937 0
M  V30 2781 C 248.53 5.68102 -1.25041 0
M  V30 2782 N 247.506 5.40511 -0.578648 0
M  V30 2783 H 251.308 2.84048 -0.754564 0
M  V30 2784 H 248.822 1.54071 -0.513398 0
M  V30 2785 H 250.819 3.90124 1.47 0
M  V30 2786 H 249.479 2.75216 1.72297 0
M  V30 2787 H 250.49 5.04303 -1.17893 0
M  V30 2788 H 247.167 4.00382 1.18325 0
M  V30 2789 H 248.557 6.38913 -2.07942 0
M  V30 2790 N 251.277 0.427512 1.51691 0
M  V30 2791 C 252.187 -0.39527 2.31246 0
M  V30 2792 C 253.203 -1.03674 1.39742 0
M  V30 2793 O 254.379 -1.03425 1.72816 0
M  V30 2794 C 251.444 -1.48706 3.13189 0
M  V30 2795 C 250.505 -0.866743 4.20459 0
M  V30 2796 C 249.738 -1.90651 4.98486 0
M  V30 2797 O 249.961 -3.12733 4.77026 0
M  V30 2798 O 248.895 -1.5025 5.82845 0
M  V30 2799 H 252.721 0.253918 3.02637 0
M  V30 2800 H 250.306 0.190274 1.48183 0
M  V30 2801 H 252.188 -2.12047 3.64162 0
M  V30 2802 H 250.863 -2.12051 2.44573 0
M  V30 2803 H 249.77 -0.195544 3.73589 0
M  V30 2804 H 251.103 -0.276934 4.9142 0
M  V30 2805 N 252.755 -1.56801 0.158532 0
M  V30 2806 C 253.703 -2.18638 -0.793729 0
M  V30 2807 C 254.697 -1.14669 -1.24689 0
M  V30 2808 O 255.903 -1.32895 -1.21403 0
M  V30 2809 H 252.278 -0.700226 -0.274204 0
M  V30 2810 H 254.249 -2.97367 -0.248095 0
M  V30 2811 C 252.998 -2.83139 -2.0181 0
M  V30 2812 H 252.321 -3.62863 -1.67841 0
M  V30 2813 H 253.761 -3.29894 -2.66357 0
M  V30 2814 C 252.22 -1.82244 -2.83353 0
M  V30 2815 O 252.75 -1.3 -3.80083 0
M  V30 2816 N 250.956 -1.51288 -2.48114 0
M  V30 2817 H 250.503 -1.93964 -1.69516 0
M  V30 2818 H 250.461 -0.840296 -3.02963 0
M  V30 2819 N 254.233 0.115231 -1.57178 0
M  V30 2820 C 255.481 0.820727 -1.84685 0
M  V30 2821 C 255.802 1.80237 -0.744279 0
M  V30 2822 O 255.072 1.94529 0.231375 0
M  V30 2823 H 253.652 0.306084 -0.681411 0
M  V30 2824 H 256.314 0.101656 -1.94635 0
M  V30 2825 H 255.41 1.36366 -2.80733 0
M  V30 2826 N 255.711 1.52812 0.385517 0
M  V30 2827 C 256.959 1.67694 1.12797 0
M  V30 2828 C 257.28 0.421115 1.90399 0
M  V30 2829 O 256.55 -0.564551 1.87589 0
M  V30 2830 H 255.13 0.618155 0.419396 0
M  V30 2831 H 257.792 1.89938 0.436972 0
M  V30 2832 H 256.888 2.52896 1.82894 0
M  V30 2833 N 257.189 -0.644168 1.43834 0
M  V30 2834 C 258.099 -1.78563 1.52159 0
M  V30 2835 C 259.115 -1.69147 0.408069 0
M  V30 2836 O 260.291 -1.90156 0.663524 0
M  V30 2837 C 257.356 -3.14888 1.45073 0
M  V30 2838 C 256.417 -3.36034 2.6717 0
M  V30 2839 C 255.65 -4.65855 2.60413 0
M  V30 2840 O 255.873 -5.45805 1.65689 0
M  V30 2841 O 254.807 -4.88918 3.5106 0
M  V30 2842 H 258.633 -1.74494 2.48567 0
M  V30 2843 H 256.218 -0.80378 1.25935 0
M  V30 2844 H 258.1 -3.96179 1.43597 0
M  V30 2845 H 256.775 -3.19528 0.518037 0
M  V30 2846 H 255.682 -2.54472 2.74217 0
M  V30 2847 H 257.015 -3.36247 3.59442 0
M  V30 2848 N 258.668 -1.30515 -0.883378 0
M  V30 2849 C 259.914 -1.20617 -1.63778 0
M  V30 2850 C 260.269 0.236469 -1.90941 0
M  V30 2851 O 259.562 1.16596 -1.52039 0
M  V30 2852 C 259.756 -1.96994 -2.98209 0
M  V30 2853 C 259.585 -3.48537 -2.84169 0
M  V30 2854 C 258.355 -4.17893 -2.84067 0
M  V30 2855 C 260.553 -4.43738 -2.60001 0
M  V30 2856 N 258.535 -5.55685 -2.60936 0
M  V30 2857 C 259.906 -5.69105 -2.46007 0
M  V30 2858 C 261.961 -4.33316 -2.45239 0
M  V30 2859 C 260.664 -6.8523 -2.18752 0
M  V30 2860 C 262.69 -5.4921 -2.19369 0
M  V30 2861 C 262.052 -6.73558 -2.06153 0
M  V30 2862 H 258.151 -0.496434 -0.604216 0
M  V30 2863 H 260.735 -1.64544 -1.04083 0
M  V30 2864 H 258.906 -1.55455 -3.55933 0
M  V30 2865 H 260.638 -1.79225 -3.62851 0
M  V30 2866 H 257.393 -3.69739 -2.95956 0
M  V30 2867 H 257.817 -6.28199 -2.52378 0
M  V30 2868 H 262.459 -3.37856 -2.54191 0
M  V30 2869 H 260.177 -7.80729 -2.08537 0
M  V30 2870 H 263.763 -5.43054 -2.08766 0
M  V30 2871 H 262.643 -7.61721 -1.86416 0
M  V30 2872 N 260.146 1.09593 -1.13257 0
M  V30 2873 C 261.109 2.14359 -0.811358 0
M  V30 2874 C 262.109 1.59808 0.178377 0
M  V30 2875 O 263.299 1.74132 -0.0484911 0
M  V30 2876 C 260.431 3.40269 -0.207276 0
M  V30 2877 H 261.624 2.44284 -1.73969 0
M  V30 2878 H 259.177 1.25102 -0.936973 0
M  V30 2879 H 259.912 3.15969 0.73036 0
M  V30 2880 H 259.697 3.81154 -0.919992 0
M  V30 2881 H 261.187 4.176 0.000667944 0
M  V30 2882 N 261.624 0.925811 1.2754 0
M  V30 2883 C 262.901 0.483726 1.89524 0
M  V30 2884 C 263.281 -1.03809 1.83812 0
M  V30 2885 O 262.629 -1.89143 1.28207 0
M  V30 2886 C 262.839 1.02769 3.33526 0
M  V30 2887 C 264.187 1.08703 4.10449 0
M  V30 2888 O 265.211 0.977175 3.42534 0
M  V30 2889 O 264.07 1.25599 5.31871 0
M  V30 2890 H 261.164 0.15529 0.812289 0
M  V30 2891 H 263.71 1.01738 1.35822 0
M  V30 2892 H 262.482 2.07155 3.31967 0
M  V30 2893 H 262.105 0.475567 3.94746 0
M  V30 2894 N 263.102 -1.41638 0.69111 0
M  V30 2895 C 264.379 -1.95036 0.148421 0
M  V30 2896 C 264.759 -1.63072 -1.34055 0
M  V30 2897 O 264.107 -0.93538 -2.08478 0
M  V30 2898 C 264.317 -3.46279 0.434951 0
M  V30 2899 C 265.665 -4.23069 0.360275 0
M  V30 2900 O 266.689 -3.54277 0.369613 0
M  V30 2901 O 265.548 -5.45583 0.316534 0
M  V30 2902 H 262.642 -0.826908 0.0123654 0
M  V30 2903 H 265.188 -1.5138 0.766963 0
M  V30 2904 H 263.96 -3.6281 1.46576 0
M  V30 2905 H 263.583 -3.97019 -0.214787 0
M  V30 2906 N 264.58 -0.43555 -1.51462 0
M  V30 2907 C 265.808 0.130242 -2.0649 0
M  V30 2908 C 266.223 1.36614 -1.30315 0
M  V30 2909 O 265.58 1.78869 -0.362223 0
M  V30 2910 C 265.631 0.454253 -3.58635 0
M  V30 2911 O 265.352 -0.73259 -4.31931 0
M  V30 2912 C 266.853 1.07091 -4.3017 0
M  V30 2913 H 264.073 0.00871669 -0.670943 0
M  V30 2914 H 266.617 -0.614117 -1.95061 0
M  V30 2915 H 264.772 1.14851 -3.69984 0
M  V30 2916 H 265.186 -0.455787 -5.22516 0
M  V30 2917 H 266.66 1.24764 -5.37716 0
M  V30 2918 H 267.137 2.05144 -3.88346 0
M  V30 2919 H 267.743 0.416089 -4.2326 0
M  V30 2920 N 266.058 1.56714 -0.166846 0
M  V30 2921 C 266.968 2.21331 0.777791 0
M  V30 2922 C 267.984 1.20358 1.25658 0
M  V30 2923 O 269.16 1.53005 1.30964 0
M  V30 2924 C 266.225 2.83787 1.99163 0
M  V30 2925 C 265.286 3.99947 1.56016 0
M  V30 2926 C 264.519 4.59415 2.71613 0
M  V30 2927 O 264.742 4.17769 3.88362 0
M  V30 2928 O 263.676 5.49359 2.45945 0
M  V30 2929 H 267.502 3.02605 0.257636 0
M  V30 2930 H 265.087 1.49275 0.0611393 0
M  V30 2931 H 266.969 3.23405 2.70161 0
M  V30 2932 H 265.644 2.05513 2.50092 0
M  V30 2933 H 264.551 3.65007 0.819809 0
M  V30 2934 H 265.884 4.79801 1.09782 0
M  V30 2935 N 267.536 -0.106894 1.57237 0
M  V30 2936 C 268.947 -0.662723 1.74542 0
M  V30 2937 C 269.298 -1.7971 0.787319 0
M  V30 2938 O 268.423 -2.16368 -0.0369636 0
M  V30 2939 C 269.018 -1.20896 3.16496 0
M  V30 2940 C 267.577 -1.71096 3.35266 0
M  V30 2941 C 266.724 -0.615642 2.7038 0
M  V30 2942 H 269.675 0.119106 1.58252 0
M  V30 2943 H 269.696 -2.07847 3.18716 0
M  V30 2944 H 269.208 -0.383122 3.86204 0
M  V30 2945 H 267.309 -2.56119 2.70618 0
M  V30 2946 H 267.422 -1.81208 4.43509 0
M  V30 2947 H 265.786 -1.05222 2.31949 0
M  V30 2948 H 266.569 0.199419 3.4272 0
M  V30 2949 N 269.014 -1.53014 -0.377408 0
M  V30 2950 C 270.26 -1.68872 -1.12294 0
M  V30 2951 C 270.593 -0.433224 -1.89306 0
M  V30 2952 O 269.868 0.569258 -1.85983 0
M  V30 2953 C 270.151 -2.93115 -2.09179 0
M  V30 2954 C 270.004 -4.28794 -1.35853 0
M  V30 2955 C 271.323 -3.12928 -3.09458 0
M  V30 2956 H 268.442 -0.614518 -0.406862 0
M  V30 2957 H 271.084 -1.85633 -0.40503 0
M  V30 2958 H 269.234 -2.78956 -2.70399 0
M  V30 2959 H 270.906 -4.54742 -0.775082 0
M  V30 2960 H 269.149 -4.28744 -0.660364 0
M  V30 2961 H 269.82 -5.11837 -2.06706 0
M  V30 2962 H 272.296 -3.26194 -2.58334 0
M  V30 2963 H 271.172 -4.01316 -3.74482 0
M  V30 2964 H 271.433 -2.27669 -3.78971 0
M  V30 2965 N 270.492 0.636531 -1.44174 0
M  V30 2966 C 271.424 1.7618 -1.46606 0
M  V30 2967 C 272.437 1.58768 -0.360091 0
M  V30 2968 O 273.626 1.67181 -0.625518 0
M  V30 2969 C 270.726 3.13833 -1.27915 0
M  V30 2970 C 269.899 3.57753 -2.51658 0
M  V30 2971 C 268.958 4.74265 -2.27945 0
M  V30 2972 O 267.984 4.82852 -3.01401 0
M  V30 2973 N 269.186 5.65604 -1.30662 0
M  V30 2974 H 271.951 1.74567 -2.43612 0
M  V30 2975 H 269.512 0.820924 -1.39544 0
M  V30 2976 H 271.504 3.8949 -1.09907 0
M  V30 2977 H 270.074 3.10121 -0.39293 0
M  V30 2978 H 269.294 2.72362 -2.84978 0
M  V30 2979 H 270.582 3.83847 -3.33974 0
M  V30 2980 H 269.98 5.61354 -0.699844 0
M  V30 2981 H 268.537 6.40913 -1.18634 0
M  V30 2982 N 271.97 1.30982 0.876444 0
M  V30 2983 C 272.917 1.18085 1.98304 0
M  V30 2984 C 273.887 0.0682263 1.6596 0
M  V30 2985 O 275.072 0.239937 1.89285 0
M  V30 2986 C 272.212 0.887475 3.33493 0
M  V30 2987 C 271.325 2.08281 3.78475 0
M  V30 2988 C 270.46 1.72678 5.0235 0
M  V30 2989 C 269.499 2.88657 5.39762 0
M  V30 2990 N 268.636 2.53292 6.54819 0
M  V30 2991 H 273.476 2.1275 2.08666 0
M  V30 2992 H 271.013 1.05839 1.02159 0
M  V30 2993 H 272.971 0.697961 4.1132 0
M  V30 2994 H 271.601 -0.022315 3.22792 0
M  V30 2995 H 270.653 2.3833 2.96484 0
M  V30 2996 H 271.965 2.95108 4.02135 0
M  V30 2997 H 271.119 1.50151 5.87826 0
M  V30 2998 H 269.858 0.830327 4.8058 0
M  V30 2999 H 268.863 3.1184 4.52809 0
M  V30 3000 H 270.088 3.79002 5.63502 0
M  V30 3001 H 268.034 1.66163 6.34607 0
M  V30 3002 H 267.951 3.3365 6.7839 0
M  V30 3003 H 269.219 2.34143 7.43503 0
M  V30 3004 N 273.449 -1.08991 1.13837 0
M  V30 3005 C 274.379 -2.17771 0.842507 0
M  V30 3006 C 275.36 -1.6892 -0.20001 0
M  V30 3007 O 276.545 -1.94113 -0.0579731 0
M  V30 3008 C 273.675 -3.4589 0.312644 0
M  V30 3009 C 272.629 -4.08099 1.28992 0
M  V30 3010 C 271.955 -5.31098 0.619623 0
M  V30 3011 C 273.255 -4.50077 2.65005 0
M  V30 3012 H 274.949 -2.42777 1.75213 0
M  V30 3013 H 272.495 -1.16682 0.843875 0
M  V30 3014 H 274.448 -4.21297 0.0933043 0
M  V30 3015 H 273.172 -3.20419 -0.632382 0
M  V30 3016 H 271.831 -3.34717 1.49533 0
M  V30 3017 H 271.479 -5.0191 -0.33102 0
M  V30 3018 H 271.179 -5.73674 1.27167 0
M  V30 3019 H 272.703 -6.09224 0.409669 0
M  V30 3020 H 274.117 -5.16688 2.48407 0
M  V30 3021 H 272.514 -5.03553 3.26427 0
M  V30 3022 H 273.584 -3.62257 3.22332 0
M  V30 3023 N 274.927 -0.932562 -1.27047 0
M  V30 3024 C 276.175 -0.574422 -1.93765 0
M  V30 3025 C 276.496 0.887993 -1.73608 0
M  V30 3026 O 275.766 1.62999 -1.08665 0
M  V30 3027 H 274.346 -0.209451 -0.717035 0
M  V30 3028 H 277.008 -1.18601 -1.5466 0
M  V30 3029 H 276.104 -0.784841 -3.02071 0
M  V30 3030 N 276.405 1.4127 -0.698611 0
M  V30 3031 C 277.651 2.01478 -0.231207 0
M  V30 3032 C 277.984 1.55215 1.16713 0
M  V30 3033 O 277.259 0.764672 1.78838 0
M  V30 3034 C 277.542 3.58912 -0.292281 0
M  V30 3035 C 277.395 4.15293 -1.72778 0
M  V30 3036 C 278.714 4.38736 0.346194 0
M  V30 3037 H 275.833 0.732025 -0.0854878 0
M  V30 3038 H 278.475 1.67977 -0.887906 0
M  V30 3039 H 276.625 3.87582 0.26686 0
M  V30 3040 H 278.297 3.97486 -2.341 0
M  V30 3041 H 276.54 3.7022 -2.26096 0
M  V30 3042 H 277.211 5.24452 -1.72202 0
M  V30 3043 H 279.687 4.15897 -0.130035 0
M  V30 3044 H 278.563 5.48221 0.272932 0
M  V30 3045 H 278.824 4.18425 1.42734 0
M  V30 3046 N 277.883 0.443576 1.51229 0
M  V30 3047 C 278.83 -0.364716 2.279 0
M  V30 3048 C 279.8 -1.0114 1.31757 0
M  V30 3049 O 280.985 -1.02912 1.60667 0
M  V30 3050 C 278.125 -1.45644 3.12861 0
M  V30 3051 C 277.238 -0.827269 4.24005 0
M  V30 3052 C 276.373 -1.89456 4.96266 0
M  V30 3053 C 275.412 -1.24416 5.99322 0
M  V30 3054 N 274.549 -2.25309 6.64966 0
M  V30 3055 H 279.389 0.295464 2.96532 0
M  V30 3056 H 276.926 0.157554 1.46254 0
M  V30 3057 H 278.884 -2.10076 3.6045 0
M  V30 3058 H 277.514 -2.08616 2.46331 0
M  V30 3059 H 276.566 -0.0710839 3.80334 0
M  V30 3060 H 277.878 -0.312481 4.9782 0
M  V30 3061 H 277.032 -2.61535 5.47434 0
M  V30 3062 H 275.771 -2.4431 4.22095 0
M  V30 3063 H 274.776 -0.508868 5.4744 0
M  V30 3064 H 276.001 -0.702882 6.75453 0
M  V30 3065 H 273.947 -2.79231 5.93604 0
M  V30 3066 H 273.864 -1.78739 7.34567 0
M  V30 3067 H 275.132 -2.96853 7.20763 0
M  V30 3068 N 279.361 -1.56624 0.175154 0
M  V30 3069 C 280.61 -1.96173 -0.468921 0
M  V30 3070 C 280.923 -1.06401 -1.64128 0
M  V30 3071 O 282.129 -1.35648 -2.35185 0
M  V30 3072 C 280.585 -3.48833 -0.885633 0
M  V30 3073 C 280.193 -4.47237 0.261343 0
M  V30 3074 C 281.937 -3.97194 -1.49791 0
M  V30 3075 C 279.844 -5.9114 -0.175214 0
M  V30 3076 H 278.774 -0.732455 -0.178958 0
M  V30 3077 H 281.425 -1.81591 0.263997 0
M  V30 3078 H 279.807 -3.58848 -1.67464 0
M  V30 3079 H 280.981 -4.4894 1.03871 0
M  V30 3080 H 279.296 -4.08956 0.783827 0
M  V30 3081 H 281.893 -5.02167 -1.83665 0
M  V30 3082 H 282.236 -3.40351 -2.39722 0
M  V30 3083 H 282.769 -3.90212 -0.773267 0
M  V30 3084 H 279.508 -6.51865 0.689414 0
M  V30 3085 H 279.028 -5.92735 -0.91786 0
M  V30 3086 H 280.707 -6.44044 -0.617792 0
M  V30 3087 N 280.839 0.0985539 -1.57292 0
M  V30 3088 C 281.802 1.10402 -2.00858 0
M  V30 3089 C 282.802 1.33146 -0.901593 0
M  V30 3090 O 283.992 1.29318 -1.16716 0
M  V30 3091 C 281.124 2.45394 -2.36632 0
M  V30 3092 H 282.317 0.729099 -2.90902 0
M  V30 3093 H 279.87 0.343495 -1.52479 0
M  V30 3094 H 280.605 2.87769 -1.49531 0
M  V30 3095 H 280.39 2.30235 -3.17387 0
M  V30 3096 H 281.88 3.17718 -2.71007 0
M  V30 3097 N 282.317 1.53212 0.369288 0
M  V30 3098 C 283.247 1.82365 1.45826 0
M  V30 3099 C 284.228 0.676907 1.56051 0
M  V30 3100 O 285.413 0.926401 1.70679 0
M  V30 3101 C 282.543 2.01023 2.83208 0
M  V30 3102 C 281.497 3.1678 2.8781 0
M  V30 3103 C 280.823 3.20724 4.27832 0
M  V30 3104 C 282.123 4.55447 2.55667 0
M  V30 3105 H 283.817 2.73559 1.21678 0
M  V30 3106 H 281.363 1.3163 0.583911 0
M  V30 3107 H 283.316 2.20001 3.59413 0
M  V30 3108 H 282.04 1.06536 3.08736 0
M  V30 3109 H 280.699 2.97616 2.14056 0
M  V30 3110 H 280.347 2.23882 4.50429 0
M  V30 3111 H 280.047 3.98496 4.31827 0
M  V30 3112 H 281.571 3.41881 5.05915 0
M  V30 3113 H 282.985 4.74611 3.21586 0
M  V30 3114 H 281.382 5.35432 2.70984 0
M  V30 3115 H 282.452 4.60812 1.5093 0
M  V30 3116 N 283.795 -0.628877 1.44509 0
M  V30 3117 C 285.041 -1.39045 1.47629 0
M  V30 3118 C 285.374 -1.93892 0.109343 0
M  V30 3119 O 284.649 -1.7379 -0.87334 0
M  V30 3120 C 284.932 -2.55408 2.53848 0
M  V30 3121 C 284.785 -2.05896 3.99909 0
M  V30 3122 C 286.104 -3.5759 2.56549 0
M  V30 3123 H 283.223 -0.504232 0.537512 0
M  V30 3124 H 285.865 -0.710854 1.76201 0
M  V30 3125 H 284.015 -3.13384 2.29615 0
M  V30 3126 H 285.687 -1.52734 4.35282 0
M  V30 3127 H 283.93 -1.37061 4.11578 0
M  V30 3128 H 284.601 -2.89681 4.69882 0
M  V30 3129 H 287.077 -3.09419 2.78207 0
M  V30 3130 H 285.953 -4.36527 3.32769 0
M  V30 3131 H 286.214 -4.11808 1.60832 0
M  V30 3132 N 285.273 -1.31445 -0.869486 0
M  V30 3133 C 286.183 -1.21097 -2.0093 0
M  V30 3134 C 287.199 -0.127584 -1.73532 0
M  V30 3135 O 288.375 -0.345477 -1.98415 0
M  V30 3136 C 285.44 -0.919378 -3.34288 0
M  V30 3137 C 284.501 -2.08971 -3.75006 0
M  V30 3138 C 283.734 -1.81194 -5.02001 0
M  V30 3139 O 283.957 -0.747296 -5.65484 0
M  V30 3140 O 282.891 -2.66883 -5.39497 0
M  V30 3141 H 286.717 -2.16883 -2.12592 0
M  V30 3142 H 284.302 -1.11189 -0.997868 0
M  V30 3143 H 286.184 -0.772625 -4.14257 0
M  V30 3144 H 284.859 0.00844772 -3.23699 0
M  V30 3145 H 283.766 -2.29187 -2.95676 0
M  V30 3146 H 285.099 -2.9998 -3.90221 0
M  V30 3147 N 286.751 1.08385 -1.14413 0
M  V30 3148 C 287.999 1.80419 -0.910679 0
M  V30 3149 C 288.32 1.86658 0.564243 0
M  V30 3150 O 287.59 1.35985 1.41014 0
M  V30 3151 H 286.17 0.668204 -0.333934 0
M  V30 3152 H 288.832 1.31037 -1.44275 0
M  V30 3153 H 287.928 2.83238 -1.31082 0
M  V30 3154 N 288.23 0.939286 1.26551 0
M  V30 3155 C 289.507 0.5038 1.89001 0
M  V30 3156 C 289.887 -1.01854 1.84903 0
M  V30 3157 O 289.235 -1.87773 1.30206 0
M  V30 3158 C 289.445 1.063 3.32417 0
M  V30 3159 C 290.793 1.13051 4.09273 0
M  V30 3160 O 291.817 1.01345 3.41479 0
M  V30 3161 O 290.676 1.31233 5.30509 0
M  V30 3162 H 287.77 0.163897 0.810597 0
M  V30 3163 H 290.316 1.03173 1.34735 0
M  V30 3164 H 289.088 2.10665 3.29752 0
M  V30 3165 H 288.711 0.517408 3.94219 0
M  V30 3166 N 289.708 -1.40897 0.706093 0
M  V30 3167 C 291.119 -1.84023 0.315052 0
M  V30 3168 C 291.47 -1.5906 -1.14866 0
M  V30 3169 O 290.595 -1.06651 -1.88293 0
M  V30 3170 C 291.19 -3.34055 0.565038 0
M  V30 3171 C 289.749 -3.7571 0.227806 0
M  V30 3172 C 288.896 -2.64204 0.842122 0
M  V30 3173 H 291.847 -1.303 0.905963 0
M  V30 3174 H 291.868 -3.80107 -0.172843 0
M  V30 3175 H 291.38 -3.52192 1.63042 0
M  V30 3176 H 289.481 -3.63172 -0.832895 0
M  V30 3177 H 289.594 -4.74103 0.690174 0
M  V30 3178 H 287.958 -2.53255 0.270893 0
M  V30 3179 H 288.741 -2.85155 1.91158 0
M  V30 3180 N 291.186 -0.45159 -1.50991 0
M  V30 3181 C 292.116 0.342898 -2.30969 0
M  V30 3182 C 293.097 1.00815 -1.37005 0
M  V30 3183 O 294.282 1.00907 -1.65926 0
M  V30 3184 C 291.412 1.43637 -3.16205 0
M  V30 3185 C 290.366 0.893818 -4.18563 0
M  V30 3186 C 289.692 2.08411 -4.92411 0
M  V30 3187 C 290.992 -0.0815568 -5.22236 0
M  V30 3188 H 292.686 -0.324556 -2.97636 0
M  V30 3189 H 290.232 -0.157531 -1.43136 0
M  V30 3190 H 292.185 1.9995 -3.70942 0
M  V30 3191 H 290.909 2.13232 -2.47386 0
M  V30 3192 H 289.568 0.352798 -3.64898 0
M  V30 3193 H 289.216 2.76658 -4.20082 0
M  V30 3194 H 288.916 1.72741 -5.61636 0
M  V30 3195 H 290.44 2.65251 -5.49976 0
M  V30 3196 H 291.854 0.391742 -5.7196 0
M  V30 3197 H 290.251 -0.351551 -5.99069 0
M  V30 3198 H 291.321 -1.01374 -4.74185 0
M  V30 3199 N 292.664 1.56529 -0.183458 0
M  V30 3200 C 293.904 1.99141 0.460667 0
M  V30 3201 C 294.268 1.06736 1.59597 0
M  V30 3202 O 295.469 1.38538 2.30349 0
M  V30 3203 C 293.74 3.45358 0.919939 0
M  V30 3204 S 295.299 4.09999 1.56354 0
M  V30 3205 H 292.117 0.695479 0.147748 0
M  V30 3206 H 294.719 1.93429 -0.283782 0
M  V30 3207 H 293.423 4.10315 0.0834208 0
M  V30 3208 H 292.954 3.54862 1.69814 0
M  V30 3209 H 294.969 4.06046 2.85203 0
M  V30 3210 N 294.142 -0.090211 1.57342 0
M  V30 3211 C 295.389 -0.792807 1.86335 0
M  V30 3212 C 295.717 -1.78494 0.772662 0
M  V30 3213 O 294.972 -1.94305 -0.233258 0
M  V30 3214 C 295.271 -1.55222 3.21933 0
M  V30 3215 C 294.937 -0.701765 4.45406 0
M  V30 3216 C 293.599 -0.467334 4.78925 0
M  V30 3217 C 295.951 -0.11086 5.21082 0
M  V30 3218 C 293.279 0.367785 5.85546 0
M  V30 3219 C 295.631 0.711609 6.28585 0
M  V30 3220 C 294.295 0.956086 6.60617 0
M  V30 3221 H 293.565 -0.290109 0.681849 0
M  V30 3222 H 296.212 -0.0541332 1.91423 0
M  V30 3223 H 294.517 -2.3626 3.12551 0
M  V30 3224 H 296.214 -2.10032 3.41595 0
M  V30 3225 H 292.804 -0.894598 4.1916 0
M  V30 3226 H 296.988 -0.279129 4.95514 0
M  V30 3227 H 292.244 0.566128 6.08773 0
M  V30 3228 H 296.418 1.17632 6.86393 0
M  V30 3229 H 294.045 1.60499 7.43064 0
M  V30 3230 N 295.62 -1.53406 -0.361157 0
M  V30 3231 C 296.567 -1.80156 -1.44265 0
M  V30 3232 C 297.537 -0.646183 -1.53015 0
M  V30 3233 O 298.722 -0.888818 -1.68833 0
M  V30 3234 C 295.862 -2.00116 -2.81154 0
M  V30 3235 C 294.975 -3.27833 -2.81335 0
M  V30 3236 C 294.11 -3.37957 -4.09828 0
M  V30 3237 C 293.149 -4.59689 -4.04168 0
M  V30 3238 N 292.286 -4.66942 -5.24318 0
M  V30 3239 H 297.126 -2.72438 -1.20754 0
M  V30 3240 H 294.663 -1.34954 -0.585296 0
M  V30 3241 H 296.621 -2.09677 -3.60682 0
M  V30 3242 H 295.251 -1.11167 -3.03054 0
M  V30 3243 H 294.303 -3.27204 -1.94014 0
M  V30 3244 H 295.615 -4.17442 -2.73027 0
M  V30 3245 H 294.769 -3.46853 -4.97773 0
M  V30 3246 H 293.508 -2.46372 -4.20894 0
M  V30 3247 H 292.513 -4.50889 -3.14609 0
M  V30 3248 H 293.738 -5.5262 -3.947 0
M  V30 3249 H 291.684 -3.7826 -5.35962 0
M  V30 3250 H 291.601 -5.50462 -5.18197 0
M  V30 3251 H 292.869 -4.80127 -6.14084 0
M  V30 3252 N 297.098 0.621204 -1.44841 0
M  V30 3253 C 298.344 1.3826 -1.48365 0
M  V30 3254 C 298.677 1.93831 -0.119624 0
M  V30 3255 O 297.952 1.74251 0.864111 0
M  V30 3256 C 298.235 2.54058 -2.55199 0
M  V30 3257 C 298.088 2.03772 -4.00995 0
M  V30 3258 C 299.407 3.56225 -2.58442 0
M  V30 3259 H 296.526 0.501374 -0.540179 0
M  V30 3260 H 299.168 0.7015 -1.76576 0
M  V30 3261 H 297.318 3.12162 -2.31274 0
M  V30 3262 H 298.99 1.50423 -4.36086 0
M  V30 3263 H 297.233 1.34876 -4.12299 0
M  V30 3264 H 297.904 2.87185 -4.71411 0
M  V30 3265 H 300.38 3.07939 -2.79844 0
M  V30 3266 H 299.256 4.34756 -3.3508 0
M  V30 3267 H 299.517 4.10949 -1.63013 0
M  V30 3268 N 298.576 1.31904 0.862503 0
M  V30 3269 C 299.804 1.24998 1.64873 0
M  V30 3270 C 300.219 -0.183425 1.87907 0
M  V30 3271 O 299.576 -1.11794 1.44251 0
M  V30 3272 C 299.627 1.99829 3.01248 0
M  V30 3273 O 299.348 3.37575 2.79239 0
M  V30 3274 C 300.849 1.99852 3.95694 0
M  V30 3275 H 298.069 0.431599 0.513773 0
M  V30 3276 H 300.613 1.73901 1.07604 0
M  V30 3277 H 298.768 1.54668 3.55185 0
M  V30 3278 H 299.182 3.75776 3.65914 0
M  V30 3279 H 300.656 2.56709 4.88676 0
M  V30 3280 H 301.133 0.982852 4.28062 0
M  V30 3281 H 301.739 2.44926 3.47694 0
M  V30 3282 N 300.054 -1.07777 1.14986 0
M  V30 3283 C 301.301 -1.8029 0.922056 0
M  V30 3284 C 301.629 -1.86531 -0.55105 0
M  V30 3285 O 300.884 -1.34189 -1.42449 0
M  V30 3286 C 301.183 -3.25495 1.47608 0
M  V30 3287 C 300.849 -3.39361 2.96893 0
M  V30 3288 C 299.511 -3.42852 3.37647 0
M  V30 3289 C 301.863 -3.42512 3.92854 0
M  V30 3290 C 299.191 -3.47094 4.73015 0
M  V30 3291 C 301.543 -3.4829 5.28088 0
M  V30 3292 C 300.207 -3.50058 5.68345 0
M  V30 3293 H 299.477 -0.659727 0.337404 0
M  V30 3294 H 302.124 -1.26854 1.43459 0
M  V30 3295 H 300.429 -3.81683 0.88463 0
M  V30 3296 H 302.126 -3.80168 1.27568 0
M  V30 3297 H 298.716 -3.37339 2.64387 0
M  V30 3298 H 302.9 -3.3904 3.62444 0
M  V30 3299 H 298.156 -3.46758 5.03556 0
M  V30 3300 H 302.33 -3.49675 6.02246 0
M  V30 3301 H 299.957 -3.53097 6.73221 0
M  V30 3302 N 301.532 -0.945985 -1.26051 0
M  V30 3303 C 302.479 -0.45809 -2.26208 0
M  V30 3304 C 303.449 0.484816 -1.58867 0
M  V30 3305 O 304.634 0.399969 -1.86561 0
M  V30 3306 C 301.774 0.266131 -3.44072 0
M  V30 3307 C 300.887 -0.713005 -4.26075 0
M  V30 3308 C 300.022 0.0329013 -5.3119 0
M  V30 3309 C 299.061 -0.93774 -6.04874 0
M  V30 3310 N 298.198 -0.223274 -7.01745 0
M  V30 3311 H 303.038 -1.3171 -2.67313 0
M  V30 3312 H 300.575 -0.66069 -1.31428 0
M  V30 3313 H 302.533 0.702514 -4.11243 0
M  V30 3314 H 301.163 1.08925 -3.03867 0
M  V30 3315 H 300.215 -1.26789 -3.58648 0
M  V30 3316 H 301.527 -1.45406 -4.77136 0
M  V30 3317 H 300.681 0.528335 -6.04395 0
M  V30 3318 H 299.42 0.806801 -4.8098 0
M  V30 3319 H 298.425 -1.44425 -5.30492 0
M  V30 3320 H 299.65 -1.71172 -6.57173 0
M  V30 3321 H 297.596 0.532046 -6.53839 0
M  V30 3322 H 297.513 -0.90357 -7.50581 0
M  V30 3323 H 298.781 0.250907 -7.79096 0
M  V30 3324 N 303.011 1.40521 -0.713556 0
M  V30 3325 C 303.921 2.34522 -0.0606667 0
M  V30 3326 C 304.937 1.57193 0.74607 0
M  V30 3327 O 306.113 1.89591 0.679493 0
M  V30 3328 C 303.178 3.36081 0.851491 0
M  V30 3329 C 302.239 4.29286 0.0349339 0
M  V30 3330 C 301.472 5.25994 0.903649 0
M  V30 3331 O 301.695 5.28616 2.14292 0
M  V30 3332 O 300.629 6.00918 0.343723 0
M  V30 3333 H 304.455 2.91968 -0.835972 0
M  V30 3334 H 302.04 1.41681 -0.47402 0
M  V30 3335 H 303.922 3.98369 1.37404 0
M  V30 3336 H 302.597 2.81052 1.60598 0
M  V30 3337 H 301.504 3.70289 -0.532633 0
M  V30 3338 H 302.837 4.87462 -0.681287 0
M  V30 3339 N 304.489 0.459591 1.5075 0
M  V30 3340 C 305.766 -0.160371 1.94941 0
M  V30 3341 C 306.146 -1.58048 1.39943 0
M  V30 3342 O 305.494 -2.206 0.595629 0
M  V30 3343 C 305.704 -0.115432 3.48809 0
M  V30 3344 C 307.052 -0.310026 4.23467 0
M  V30 3345 O 308.076 -0.192543 3.55679 0
M  V30 3346 O 306.935 -0.546031 5.43765 0
M  V30 3347 H 304.029 -0.117925 0.818549 0
M  V30 3348 H 306.575 0.519169 1.61563 0
M  V30 3349 H 305.347 0.87652 3.81357 0
M  V30 3350 H 304.97 -0.836928 3.88692 0
M  V30 3351 N 305.967 -1.56429 0.191757 0
M  V30 3352 C 306.897 -2.21937 -0.725696 0
M  V30 3353 C 307.878 -1.1814 -1.2238 0
M  V30 3354 O 309.063 -1.46636 -1.27325 0
M  V30 3355 C 306.193 -2.87611 -1.94672 0
M  V30 3356 C 305.147 -3.97623 -1.58366 0
M  V30 3357 C 304.473 -4.50446 -2.88102 0
M  V30 3358 C 305.773 -5.16197 -0.796133 0
M  V30 3359 H 307.467 -2.98861 -0.179606 0
M  V30 3360 H 305.013 -1.43749 -0.0849464 0
M  V30 3361 H 306.966 -3.3212 -2.59373 0
M  V30 3362 H 305.69 -2.08087 -2.51728 0
M  V30 3363 H 304.349 -3.53801 -0.960247 0
M  V30 3364 H 303.997 -3.67688 -3.43241 0
M  V30 3365 H 303.697 -5.24675 -2.64556 0
M  V30 3366 H 305.221 -4.97654 -3.53798 0
M  V30 3367 H 306.635 -5.57271 -1.34618 0
M  V30 3368 H 305.032 -5.96471 -0.658928 0
M  V30 3369 H 306.102 -4.84473 0.203478 0
M  V30 3370 N 307.445 0.0818655 -1.57387 0
M  V30 3371 C 308.355 1.11642 -2.06333 0
M  V30 3372 C 309.371 1.43033 -0.99083 0
M  V30 3373 O 310.547 1.53411 -1.30488 0
M  V30 3374 C 307.612 2.41342 -2.48907 0
M  V30 3375 C 306.673 2.17014 -3.7041 0
M  V30 3376 C 305.906 3.4053 -4.10944 0
M  V30 3377 O 306.129 4.4927 -3.51444 0
M  V30 3378 O 305.063 3.29336 -5.03807 0
M  V30 3379 H 308.889 0.730657 -2.9478 0
M  V30 3380 H 306.474 0.295301 -1.46452 0
M  V30 3381 H 308.356 3.17691 -2.76858 0
M  V30 3382 H 307.031 2.79319 -1.63593 0
M  V30 3383 H 305.938 1.38403 -3.47556 0
M  V30 3384 H 307.271 1.83923 -4.56545 0
M  V30 3385 N 308.923 1.53595 0.353017 0
M  V30 3386 C 309.853 1.83902 1.43883 0
M  V30 3387 C 310.834 0.693421 1.55324 0
M  V30 3388 O 312.019 0.944452 1.69687 0
M  V30 3389 C 309.149 2.04016 2.8106 0
M  V30 3390 C 308.103 3.19814 2.84434 0
M  V30 3391 C 307.429 3.25244 4.24406 0
M  V30 3392 C 308.729 4.58133 2.50822 0
M  V30 3393 H 310.423 2.74835 1.1877 0
M  V30 3394 H 307.969 1.32242 0.569917 0
M  V30 3395 H 309.922 2.238 3.57059 0
M  V30 3396 H 308.646 1.09804 3.07588 0
M  V30 3397 H 307.305 2.9987 2.10887 0
M  V30 3398 H 306.953 2.28646 4.48029 0
M  V30 3399 H 306.653 4.03054 4.27576 0
M  V30 3400 H 308.177 3.47228 5.0226 0
M  V30 3401 H 309.591 4.77995 3.16534 0
M  V30 3402 H 307.988 5.38276 2.6529 0
M  V30 3403 H 309.058 4.62387 1.46034 0
M  V30 3404 N 310.401 -0.613514 1.45168 0
M  V30 3405 C 311.364 -1.7065 1.53007 0
M  V30 3406 C 312.364 -1.5548 0.410184 0
M  V30 3407 O 313.554 -1.60656 0.673455 0
M  V30 3408 C 310.686 -3.09875 1.42093 0
M  V30 3409 H 311.879 -1.65068 2.50385 0
M  V30 3410 H 309.432 -0.828728 1.32521 0
M  V30 3411 H 310.167 -3.21039 0.458769 0
M  V30 3412 H 309.952 -3.22293 2.23315 0
M  V30 3413 H 311.442 -3.895 1.50598 0
M  V30 3414 N 311.879 -1.3236 -0.855495 0
M  V30 3415 C 313.295 -1.11332 -1.14356 0
M  V30 3416 C 313.495 0.106751 -2.01217 0
M  V30 3417 O 312.551 0.791891 -2.39761 0
M  V30 3418 C 313.864 -2.39237 -1.82171 0
M  V30 3419 C 315.412 -2.44986 -1.9481 0
M  V30 3420 C 315.887 -3.7281 -2.66039 0
M  V30 3421 N 317.378 -3.73787 -2.73565 0
M  V30 3422 C 318.113 -4.69394 -3.29327 0
M  V30 3423 N 317.609 -5.75367 -3.85907 0
M  V30 3424 N 319.402 -4.56893 -3.27423 0
M  V30 3425 H 311.553 -2.10586 -0.277027 0
M  V30 3426 H 313.816 -0.929701 -0.185364 0
M  V30 3427 H 313.522 -3.28431 -1.25802 0
M  V30 3428 H 313.396 -2.50134 -2.82335 0
M  V30 3429 H 315.783 -1.56252 -2.50338 0
M  V30 3430 H 315.864 -2.38043 -0.936448 0
M  V30 3431 H 315.508 -4.61918 -2.11174 0
M  V30 3432 H 315.438 -3.77024 -3.67642 0
M  V30 3433 H 317.929 -2.97189 -2.33424 0
M  V30 3434 H 318.242 -6.44378 -4.26611 0
M  V30 3435 H 316.587 -5.79123 -3.84242 0
M  V30 3436 H 319.778 -3.73269 -2.82467 0
M  V30 3437 H 319.951 -5.31577 -3.7058 0
M  V30 3438 N 313.357 1.07166 -1.15556 0
M  V30 3439 C 314.606 1.79181 -0.926132 0
M  V30 3440 C 314.919 1.87768 0.547967 0
M  V30 3441 O 316.125 2.56323 0.895036 0
M  V30 3442 C 314.581 3.22 -1.60761 0
M  V30 3443 C 314.189 3.21607 -3.11886 0
M  V30 3444 C 315.933 3.9861 -1.4598 0
M  V30 3445 C 313.84 4.59092 -3.72812 0
M  V30 3446 H 312.77 0.67154 -0.342856 0
M  V30 3447 H 315.421 1.2027 -1.3859 0
M  V30 3448 H 313.803 3.81115 -1.07553 0
M  V30 3449 H 314.977 2.72127 -3.71865 0
M  V30 3450 H 313.292 2.58495 -3.2645 0
M  V30 3451 H 315.889 5.00225 -1.88888 0
M  V30 3452 H 316.232 4.143 -0.407541 0
M  V30 3453 H 316.765 3.45996 -1.96295 0
M  V30 3454 H 313.504 4.48606 -4.77946 0
M  V30 3455 H 313.024 5.08803 -3.17616 0
M  V30 3456 H 314.703 5.28059 -3.73848 0
M  V30 3457 N 314.835 0.952656 1.25548 0
M  V30 3458 C 316.084 0.602053 1.92505 0
M  V30 3459 C 316.397 -0.864663 1.75451 0
M  V30 3460 O 317.603 -1.32514 2.36965 0
M  V30 3461 C 316.059 1.02607 3.44963 0
M  V30 3462 C 315.667 2.51519 3.70732 0
M  V30 3463 C 317.411 0.747905 4.1786 0
M  V30 3464 C 315.318 2.87732 5.16686 0
M  V30 3465 H 314.248 0.22146 0.720744 0
M  V30 3466 H 316.899 1.15684 1.42441 0
M  V30 3467 H 315.281 0.399712 3.93978 0
M  V30 3468 H 316.455 3.19157 3.32378 0
M  V30 3469 H 314.77 2.76786 3.11092 0
M  V30 3470 H 317.367 0.994647 5.25367 0
M  V30 3471 H 317.71 -0.315629 4.15102 0
M  V30 3472 H 318.243 1.33452 3.74747 0
M  V30 3473 H 314.982 3.93095 5.24554 0
M  V30 3474 H 314.502 2.24765 5.56094 0
M  V30 3475 H 316.181 2.76817 5.84792 0
M  V30 3476 N 316.313 -1.40141 0.720998 0
M  V30 3477 C 317.276 -2.29058 0.0805834 0
M  V30 3478 C 318.276 -1.45632 -0.681758 0
M  V30 3479 O 319.466 -1.6648 -0.512856 0
M  V30 3480 C 316.598 -3.28925 -0.895593 0
M  V30 3481 H 317.791 -2.87191 0.863793 0
M  V30 3482 H 315.344 -1.48553 0.485975 0
M  V30 3483 H 316.079 -2.75822 -1.70566 0
M  V30 3484 H 315.864 -3.90519 -0.351766 0
M  V30 3485 H 317.354 -3.95494 -1.34069 0
M  V30 3486 N 317.792 -0.46758 -1.50504 0
M  V30 3487 C 319.208 -0.121533 -1.59137 0
M  V30 3488 C 319.408 1.3717 -1.47603 0
M  V30 3489 O 318.464 2.14464 -1.33272 0
M  V30 3490 C 319.777 -0.6686 -2.93173 0
M  V30 3491 C 321.325 -0.631716 -3.06559 0
M  V30 3492 C 321.8 -1.15627 -4.43164 0
M  V30 3493 N 323.291 -1.11553 -4.49567 0
M  V30 3494 C 324.026 -1.49195 -5.5365 0
M  V30 3495 N 323.522 -1.94269 -6.65005 0
M  V30 3496 N 325.315 -1.4082 -5.44175 0
M  V30 3497 H 317.466 -1.4388 -1.56245 0
M  V30 3498 H 319.729 -0.594784 -0.738198 0
M  V30 3499 H 319.435 -1.71453 -3.07078 0
M  V30 3500 H 319.309 -0.11021 -3.77039 0
M  V30 3501 H 321.696 0.405297 -2.92304 0
M  V30 3502 H 321.777 -1.22687 -2.24458 0
M  V30 3503 H 321.421 -2.1919 -4.58168 0
M  V30 3504 H 321.351 -0.537365 -5.23851 0
M  V30 3505 H 323.842 -0.784895 -3.69659 0
M  V30 3506 H 324.155 -2.21148 -7.40482 0
M  V30 3507 H 322.5 -1.98219 -6.66134 0
M  V30 3508 H 325.691 -1.0545 -4.56068 0
M  V30 3509 H 325.864 -1.70481 -6.25172 0
M  V30 3510 N 319.27 1.56325 -0.20005 0
M  V30 3511 C 320.18 2.22931 0.730668 0
M  V30 3512 C 321.196 1.22997 1.23076 0
M  V30 3513 O 322.372 1.55748 1.27689 0
M  V30 3514 C 319.437 2.87948 1.93098 0
M  V30 3515 C 318.498 4.03166 1.47497 0
M  V30 3516 C 317.731 4.65073 2.61807 0
M  V30 3517 O 317.954 4.25913 3.79413 0
M  V30 3518 O 316.888 5.54452 2.34237 0
M  V30 3519 H 320.714 3.03084 0.193391 0
M  V30 3520 H 318.299 1.49371 0.0294621 0
M  V30 3521 H 320.181 3.29063 2.6324 0
M  V30 3522 H 318.856 2.10771 2.45677 0
M  V30 3523 H 317.763 3.66664 0.742201 0
M  V30 3524 H 319.096 4.82022 0.995796 0
M  V30 3525 N 320.748 -0.0735177 1.57428 0
M  V30 3526 C 321.994 -0.768909 1.88307 0
M  V30 3527 C 322.349 -1.75273 0.793535 0
M  V30 3528 O 321.642 -1.90527 -0.202466 0
M  V30 3529 C 321.836 -1.51799 3.23561 0
M  V30 3530 C 321.665 -0.608217 4.45568 0
M  V30 3531 C 320.435 -0.245808 5.04702 0
M  V30 3532 C 322.633 0.0942904 5.14214 0
M  V30 3533 N 320.615 0.66987 6.10234 0
M  V30 3534 C 321.986 0.867222 6.13905 0
M  V30 3535 C 324.041 0.165943 4.97623 0
M  V30 3536 C 322.744 1.70515 6.98797 0
M  V30 3537 C 324.77 0.990837 5.83041 0
M  V30 3538 C 324.132 1.75182 6.82269 0
M  V30 3539 H 320.231 -0.25685 0.738615 0
M  V30 3540 H 322.815 -0.030499 1.94676 0
M  V30 3541 H 320.986 -2.22713 3.18203 0
M  V30 3542 H 322.718 -2.16226 3.42094 0
M  V30 3543 H 319.473 -0.598284 4.69806 0
M  V30 3544 H 319.897 1.1209 6.67656 0
M  V30 3545 H 324.539 -0.408064 4.20826 0
M  V30 3546 H 322.257 2.29013 7.7497 0
M  V30 3547 H 325.843 1.04923 5.72261 0
M  V30 3548 H 324.723 2.37983 7.47217 0
M  V30 3549 N 322.226 -1.5378 -0.344866 0
M  V30 3550 C 323.136 -1.84667 -1.4469 0
M  V30 3551 C 324.152 -0.736704 -1.57635 0
M  V30 3552 O 325.328 -1.02888 -1.73136 0
M  V30 3553 C 322.393 -2.04869 -2.79696 0
M  V30 3554 C 321.454 -3.28731 -2.76106 0
M  V30 3555 C 320.687 -3.4796 -4.04673 0
M  V30 3556 O 320.91 -2.71052 -5.01883 0
M  V30 3557 O 319.844 -4.41383 -4.09224 0
M  V30 3558 H 323.67 -2.78334 -1.21506 0
M  V30 3559 H 321.255 -1.39418 -0.536921 0
M  V30 3560 H 323.137 -2.19609 -3.59652 0
M  V30 3561 H 321.812 -1.14391 -3.02814 0
M  V30 3562 H 320.719 -3.19396 -1.94774 0
M  V30 3563 H 322.052 -4.19198 -2.57941 0
M  V30 3564 N 323.704 0.605807 -1.45491 0
M  V30 3565 C 325.12 0.926751 -1.29936 0
M  V30 3566 C 325.32 1.99896 -0.253706 0
M  V30 3567 O 324.376 2.50038 0.351737 0
M  V30 3568 C 325.689 1.36599 -2.67883 0
M  V30 3569 C 327.237 1.4801 -2.75793 0
M  V30 3570 C 327.712 1.95309 -4.14268 0
M  V30 3571 N 329.203 2.0254 -4.16571 0
M  V30 3572 C 329.938 2.40363 -5.20589 0
M  V30 3573 N 329.434 2.77143 -6.34952 0
M  V30 3574 N 331.227 2.40718 -5.07948 0
M  V30 3575 H 323.378 -0.102862 -2.12151 0
M  V30 3576 H 325.641 0.016639 -0.947854 0
M  V30 3577 H 325.347 0.652306 -3.45598 0
M  V30 3578 H 325.221 2.33215 -2.96463 0
M  V30 3579 H 327.608 2.1847 -1.98381 0
M  V30 3580 H 327.689 0.497041 -2.50925 0
M  V30 3581 H 327.333 1.25436 -4.92167 0
M  V30 3582 H 327.263 2.94532 -4.3653 0
M  V30 3583 H 329.754 1.76699 -3.34045 0
M  V30 3584 H 330.067 3.0489 -7.10114 0
M  V30 3585 H 328.412 2.74834 -6.3835 0
M  V30 3586 H 331.603 2.11392 -4.1765 0
M  V30 3587 H 331.776 2.69869 -5.89131 0
M  V30 3588 N 325.182 1.32811 0.848464 0
M  V30 3589 C 326.431 1.23075 1.59798 0
M  V30 3590 C 326.744 -0.204419 1.94529 0
M  V30 3591 O 327.95 -0.423701 2.68173 0
M  V30 3592 C 326.406 2.15594 2.88179 0
M  V30 3593 C 326.014 3.64228 2.60849 0
M  V30 3594 C 327.758 2.14709 3.66197 0
M  V30 3595 C 325.665 4.48689 3.85269 0
M  V30 3596 H 324.595 0.457091 0.599653 0
M  V30 3597 H 327.246 1.57813 0.936342 0
M  V30 3598 H 325.628 1.73778 3.55833 0
M  V30 3599 H 326.802 4.14424 2.01467 0
M  V30 3600 H 325.117 3.67306 1.96151 0
M  V30 3601 H 327.714 2.75046 4.58534 0
M  V30 3602 H 328.057 1.13966 4.00397 0
M  V30 3603 H 328.59 2.54837 3.05455 0
M  V30 3604 H 325.329 5.5027 3.56207 0
M  V30 3605 H 324.849 4.03241 4.44024 0
M  V30 3606 H 326.528 4.62006 4.52946 0
M  V30 3607 N 326.66 -1.06551 1.16123 0
M  V30 3608 C 328.071 -1.60768 0.949232 0
M  V30 3609 C 328.422 -1.89523 -0.507508 0
M  V30 3610 O 327.547 -1.66671 -1.38021 0
M  V30 3611 C 328.142 -2.92086 1.71671 0
M  V30 3612 C 326.701 -3.43015 1.54977 0
M  V30 3613 C 325.848 -2.16947 1.72711 0
M  V30 3614 H 328.799 -0.895354 1.31031 0
M  V30 3615 H 328.82 -3.6138 1.19099 0
M  V30 3616 H 328.332 -2.71127 2.7769 0
M  V30 3617 H 326.433 -3.69039 0.513873 0
M  V30 3618 H 326.546 -4.18516 2.33198 0
M  V30 3619 H 324.91 -2.27041 1.15431 0
M  V30 3620 H 325.693 -1.98473 2.80113 0
M  V30 3621 O 328.177 -1.08916 -1.19246 0
M  V30 3622 H 328.868 -0.783022 -1.77168 0
M  V30 END ATOM
M  V30 BEGIN BOND
M  V30 END BOND
M  V30 END CTAB
M  END
$$$$
